data_PCOD9009242
_publ_section_title
;
Structure prediction by ZEFSAII (Michael W. Deem and Ramdas Pophale) SiO2 
 PCOD9009242
Probable space group: P -1
;
_chemical_formula_sum "Si O2"
_cell_formula_units_Z 14
_cell_length_a 15.835053
_cell_length_b 5.240260
_cell_length_c 16.387665
_cell_angle_alpha 121.141534
_cell_angle_beta 153.814185
_cell_angle_gamma 52.909640
_cell_volume 477.556837
_symmetry_space_group_name_H-M "P -1"
_symmetry_group_IT_number 2
_symmetry_cell_setting 'triclinic'
loop_
_space_group_symop_operation_xyz
x,y,z
-x,-y,-z
loop_
_atom_site_type_symbol
_atom_site_label
_atom_site_fract_x
_atom_site_fract_y
_atom_site_fract_z
Si Si1 0.539142 0.330207 0.322802
Si Si2 0.259028 0.080891 0.302787
Si Si3 0.742162 0.490052 0.393764
Si Si4 0.095934 0.843172 0.279853
Si Si5 0.550352 0.120212 0.941295
Si Si6 0.806977 0.836250 0.257366
Si Si7 0.803114 0.809010 0.906616
O O1 0.617538 0.581013 0.384994
O O2 0.761535 0.100573 0.515569
O O3 0.381331 0.316328 0.254323
O O4 0.438209 0.222157 0.140199
O O5 0.145853 0.463956 0.272426
O O6 0.223557 0.977507 0.162646
O O7 0.500000 0.000000 0.500000
O O8 0.194294 0.919208 0.295138
O O9 0.586016 0.670574 0.216962
O O10 0.978942 0.460205 0.603252
O O11 0.796670 0.109789 0.358824
O O12 0.857925 0.970367 0.062380
O O13 0.381932 0.263324 0.893230
O O14 0.761319 0.011991 0.158942
O O15 0.000000 0.500000 0.000000
#
# Coordination Sequence:
#
# PCOD9009242 Si02
#       7
#     2   2   2   2   2   2   2
#     4  11  25  41  63 102 137 172 229 290 347 413
#     4  11  22  43  72  93 127 177 232 286 345 412
#     4  10  21  39  67  97 136 178 223 283 348 411
#     4  11  25  44  67  97 133 178 227 289 348 414
#     4  10  21  40  65  98 137 177 223 284 343 419
#     4   9  20  40  67  96 133 177 232 270 344 428
#     4  10  24  45  68  94 131 183 235 282 349 415
#
# _framework density 29.31588
#
# number of rings (size 3 to 8) (size 9 to 14) (size 15 to 20)
#    0.000    1.714    1.429    1.714    6.000    0.000 
#    5.143    0.000    0.000    0.000    0.000    0.000 
#    0.000    0.000    0.000    0.000    0.000    0.000 
#
# Total GULP energy -78060.132250 kJ/mol
# GULP energy per Si atom -5575.723732 kJ/mol
# Density = 2.924916 g / cm^3
# Si number density = 29.315880 Si / 1000 Ang^3
#
#
#
# Elastic Constant Matrix: (Units=GPa)
#
#
# Indices 1 2 3 4 5 6 
#
# 1 119.7718 15.9649 51.6247 -25.0291 -26.1854 37.0412
# 2 15.9649 55.7986 11.3649 -24.7382 -2.5594 7.9249
# 3 51.6247 11.3649 195.4844 -13.8360 -16.7272 11.8716
# 4 -25.0291 -24.7382 -13.8360 42.3444 -2.4292 -7.1700
# 5 -26.1854 -2.5594 -16.7272 -2.4292 74.7159 -5.6767
# 6 37.0412 7.9249 11.8716 -7.1700 -5.6767 52.5203
#
#
#
# Elastic Compliance Matrix: (Units=1/GPa)
#
#
# Indices 1 2 3 4 5 6 
#
# 1 0.014148 0.000863 -0.002455 0.006913 0.004042 -0.008173
# 2 0.000863 0.024510 -0.000387 0.014425 0.001365 -0.002103
# 3 -0.002455 -0.000387 0.005818 0.000348 0.000484 0.000575
# 4 0.006913 0.014425 0.000348 0.036177 0.004038 -0.001756
# 5 0.004042 0.001365 0.000484 0.004038 0.015012 -0.000992
# 6 -0.008173 -0.002103 0.000575 -0.001756 -0.000992 0.024645
#
#
# Mechanical properties :
#
#
# Convention : Reuss Voigt Hill
#
# Bulk Modulus (GPa) = 24.68104 58.77374 41.72739
# Shear Modulus (GPa) = 36.29118 53.38949 44.84033
#
# Velocity S-wave (km/s) = 3.52225 4.27216 3.91520
# Velocity P-wave (km/s) = 4.99789 6.66536 5.89092
#
# Compressibility (1/GPa) = 0.04051692
#
# Stress axis : x y z
#
# Youngs Moduli (GPa) = 70.67955 40.79957 171.89474
#
# Poissons Ratio (x) = -0.03521 0.42201
# Poissons Ratio (y) = -0.06099 0.06660
# Poissons Ratio (z) = 0.17352 0.01581
#
# Static dielectric constant tensor:
#      x y z
#    x 2.363350 -0.026860 0.136250 
#    y -0.026860 2.677440 0.099290 
#    z 0.136250 0.099290 2.475550 
# 
# From -- ./inp_files/525886.got.cif
#   From: 2010.05.17/outbox.cif.g08.bks.cpg/sg2_263_cif.got.tgz:525886.got - 2010.06.03 11:33:40.
