data_PCOD9009624
_publ_section_title
;
Structure prediction by ZEFSAII (Michael W. Deem and Ramdas Pophale) SiO2 
 PCOD9009624
Probable space group: P -1
;
_chemical_formula_sum "Si O2"
_cell_formula_units_Z 14
_cell_length_a 7.490918
_cell_length_b 8.321768
_cell_length_c 13.618164
_cell_angle_alpha 80.298754
_cell_angle_beta 60.086944
_cell_angle_gamma 113.581777
_cell_volume 597.654070
_symmetry_space_group_name_H-M "P -1"
_symmetry_group_IT_number 2
_symmetry_cell_setting 'triclinic'
loop_
_space_group_symop_operation_xyz
x,y,z
-x,-y,-z
loop_
_atom_site_type_symbol
_atom_site_label
_atom_site_fract_x
_atom_site_fract_y
_atom_site_fract_z
Si Si1 0.695456 0.053917 0.211062
Si Si2 0.841944 0.612133 0.076283
Si Si3 0.463901 0.147290 0.432555
Si Si4 0.551245 0.277514 0.842231
Si Si5 0.478400 0.306851 0.070761
Si Si6 0.952539 0.947632 0.315918
Si Si7 0.924058 0.573233 0.282229
O O1 0.552763 0.130834 0.302436
O O2 0.514323 0.894061 0.197111
O O3 0.785494 0.960459 0.275846
O O4 0.947597 0.214135 0.067765
O O5 0.621175 0.647286 0.147862
O O6 0.711179 0.410150 0.070043
O O7 0.936128 0.608031 0.158206
O O8 0.187808 0.085094 0.539499
O O9 0.659289 0.370131 0.393527
O O10 0.500000 0.000000 0.500000
O O11 0.847494 0.440711 0.747041
O O12 0.485783 0.203019 0.980752
O O13 0.500000 0.500000 0.000000
O O14 0.222623 0.152487 0.211571
O O15 0.958504 0.760181 0.307370
#
# Coordination Sequence:
#
# PCOD9009624 Si02
#       7
#     2   2   2   2   2   2   2
#     4  11  21  45  69 102 140 187 218 284 346 400
#     4  11  23  42  72 102 145 171 228 285 346 398
#     4  10  26  45  72  95 140 187 230 280 341 406
#     4  11  23  40  70 105 139 173 223 284 349 397
#     4  10  21  39  71 102 139 182 219 281 350 400
#     4  11  22  45  71  99 142 182 230 280 335 409
#     4  12  26  44  73 106 133 181 232 285 339 407
#
# _framework density 23.424921000000001
#
# number of rings (size 3 to 8) (size 9 to 14) (size 15 to 20)
#    0.000    1.143    4.286    2.571    6.000    5.714 
#    0.000    7.143    0.000    0.000    0.000    0.000 
#    0.000    0.000    0.000    0.000    0.000    0.000 
#
# Total GULP energy -78345.459147 kJ/mol
# GULP energy per Si atom -5596.104225 kJ/mol
# Density = 2.337161 g / cm^3
# Si number density = 23.424921 Si / 1000 Ang^3
#
#
#
# Elastic Constant Matrix: (Units=GPa)
#
#
# Indices 1 2 3 4 5 6 
#
# 1 83.7460 21.0797 3.0035 2.6620 1.0283 4.5436
# 2 21.0797 100.1235 16.8589 -2.9940 -5.5365 3.9716
# 3 3.0035 16.8589 66.5036 -23.2983 -5.9019 -6.1430
# 4 2.6620 -2.9940 -23.2983 35.7316 2.2534 -1.8925
# 5 1.0283 -5.5365 -5.9019 2.2534 28.3628 -1.1839
# 6 4.5436 3.9716 -6.1430 -1.8925 -1.1839 42.6721
#
#
#
# Elastic Compliance Matrix: (Units=1/GPa)
#
#
# Indices 1 2 3 4 5 6 
#
# 1 0.012762 -0.002624 -0.000696 -0.001628 -0.001045 -0.001316
# 2 -0.002624 0.011159 -0.003026 -0.001012 0.001674 -0.001193
# 3 -0.000696 -0.003026 0.021277 0.013704 0.002945 0.004108
# 4 -0.001628 -0.001012 0.013704 0.037169 -0.000078 0.003887
# 5 -0.001045 0.001674 0.002945 -0.000078 0.036299 0.001383
# 6 -0.001316 -0.001193 0.004108 0.003887 0.001383 0.024488
#
#
# Mechanical properties :
#
#
# Convention : Reuss Voigt Hill
#
# Bulk Modulus (GPa) = 30.76373 36.91749 33.84061
# Shear Modulus (GPa) = 29.99712 35.31534 32.65623
#
# Velocity S-wave (km/s) = 3.58238 3.88699 3.73779
# Velocity P-wave (km/s) = 5.50206 5.99492 5.75377
#
# Compressibility (1/GPa) = 0.03250582
#
# Stress axis : x y z
#
# Youngs Moduli (GPa) = 78.35559 89.61058 46.99902
#
# Poissons Ratio (x) = 0.23514 0.03271
# Poissons Ratio (y) = 0.20561 0.14224
# Poissons Ratio (z) = 0.05453 0.27121
#
# Static dielectric constant tensor:
#      x y z
#    x 1.909660 -0.037850 -0.025850 
#    y -0.037850 1.914550 0.037410 
#    z -0.025850 0.037410 1.884690 
# 
# From -- ./inp_files/202197.got.cif
#   From: 2010.05.17/outbox.cif.g08.bks.cpg/sg2_102_cif.got.tgz:202197.got - 2010.06.03 11:33:40.
