data_PCOD9009010
_publ_section_title
;
Structure prediction by ZEFSAII (Michael W. Deem and Ramdas Pophale) SiO2 
 PCOD9009010
Probable space group: P -1
;
_chemical_formula_sum "Si O2"
_cell_formula_units_Z 16
_cell_length_a 10.431488
_cell_length_b 14.212784
_cell_length_c 11.131491
_cell_angle_alpha 137.754949
_cell_angle_beta 58.023956
_cell_angle_gamma 144.283839
_cell_volume 636.884461
_symmetry_space_group_name_H-M "P -1"
_symmetry_group_IT_number 2
_symmetry_cell_setting 'triclinic'
loop_
_space_group_symop_operation_xyz
x,y,z
-x,-y,-z
loop_
_atom_site_type_symbol
_atom_site_label
_atom_site_fract_x
_atom_site_fract_y
_atom_site_fract_z
Si Si1 0.872378 0.777356 0.252466
Si Si2 0.606158 0.845253 0.328890
Si Si3 0.366350 0.469687 0.425571
Si Si4 0.366573 0.091207 0.258797
Si Si5 0.008493 0.276946 0.613751
Si Si6 0.145792 0.434891 0.138749
Si Si7 0.742375 0.276947 0.074601
Si Si8 0.230962 0.208998 0.029163
O O1 0.702538 0.779279 0.295936
O O2 0.116885 0.978876 0.264778
O O3 0.807859 0.588042 0.041390
O O4 0.373701 0.361387 0.214820
O O5 0.339798 0.672263 0.305225
O O6 0.669362 0.837534 0.154980
O O7 0.749839 0.072447 0.520808
O O8 0.500000 0.500000 0.500000
O O9 0.128348 0.335338 0.480075
O O10 0.913816 0.777970 0.372454
O O11 0.478328 0.693686 0.545171
O O12 0.507662 0.171064 0.141912
O O13 0.316754 0.897522 0.142645
O O14 0.099153 0.486995 0.816297
O O15 0.893284 0.317076 0.147885
O O16 0.179163 0.317090 0.086012
O O17 0.000000 0.000000 0.000000
#
# Coordination Sequence:
#
# PCOD9009010 Si02
#       8
#     2   2   2   2   2   2   2   2
#     4  10  21  39  66  97 126 165 209 271 319 371
#     4  11  23  42  63  98 135 166 204 263 333 379
#     4  11  24  37  66  97 123 162 216 270 318 373
#     4   9  20  40  64  91 124 164 216 261 311 362
#     4  11  23  39  65  96 130 166 220 258 309 381
#     4  10  24  41  65  89 135 174 206 253 328 382
#     4   9  21  44  64  91 128 173 216 258 305 379
#     4  11  23  42  62  92 131 166 209 265 323 381
#
# _framework density 25.122298000000001
#
# number of rings (size 3 to 8) (size 9 to 14) (size 15 to 20)
#    0.000    1.750    1.250    2.625    8.750    2.500 
#    0.000    3.750    2.750    0.000    0.000    0.000 
#    0.000    0.000    0.000    0.000    0.000    0.000 
#
# Total GULP energy -89407.007224 kJ/mol
# GULP energy per Si atom -5587.937952 kJ/mol
# Density = 2.506512 g / cm^3
# Si number density = 25.122298 Si / 1000 Ang^3
#
#
#
# Elastic Constant Matrix: (Units=GPa)
#
#
# Indices 1 2 3 4 5 6 
#
# 1 70.6280 24.5467 35.6207 0.2798 18.1464 -5.4321
# 2 24.5467 110.9214 47.4340 24.2776 17.8662 8.1348
# 3 35.6207 47.4340 169.5513 30.0691 19.3634 -10.9818
# 4 0.2798 24.2776 30.0691 52.6922 3.9763 11.8892
# 5 18.1464 17.8662 19.3634 3.9763 38.7724 -4.6926
# 6 -5.4321 8.1348 -10.9818 11.8892 -4.6926 27.2843
#
#
#
# Elastic Compliance Matrix: (Units=1/GPa)
#
#
# Indices 1 2 3 4 5 6 
#
# 1 0.018097 -0.002507 -0.002877 0.002967 -0.006078 0.000854
# 2 -0.002507 0.012045 -0.002172 -0.003081 -0.003487 -0.004221
# 3 -0.002877 -0.002172 0.008431 -0.004990 -0.000683 0.005525
# 4 0.002967 -0.003081 -0.004990 0.026094 -0.001623 -0.012149
# 5 -0.006078 -0.003487 -0.000683 -0.001623 0.031437 0.005669
# 6 0.000854 -0.004221 0.005525 -0.012149 0.005669 0.046572
#
#
# Mechanical properties :
#
#
# Convention : Reuss Voigt Hill
#
# Bulk Modulus (GPa) = 42.62593 62.92263 52.77428
# Shear Modulus (GPa) = 30.19196 39.98306 35.08751
#
# Velocity S-wave (km/s) = 3.47046 3.99373 3.74126
# Velocity P-wave (km/s) = 5.75004 6.80937 6.30200
#
# Compressibility (1/GPa) = 0.02345990
#
# Stress axis : x y z
#
# Youngs Moduli (GPa) = 55.25819 83.02491 118.61349
#
# Poissons Ratio (x) = 0.20818 0.34127
# Poissons Ratio (y) = 0.13856 0.25758
# Poissons Ratio (z) = 0.15899 0.18029
#
# Static dielectric constant tensor:
#      x y z
#    x 1.988150 -0.003530 -0.013810 
#    y -0.003530 2.038860 0.003890 
#    z -0.013810 0.003890 2.069370 
# 
# From -- ./inp_files/459980.got.cif
#   From: 2010.05.17/outbox.cif.g08.bks.cpg/sg2_230_cif.got.tgz:459980.got - 2010.06.03 11:33:40.
