data_PCOD9009320
_publ_section_title
;
Structure prediction by ZEFSAII (Michael W. Deem and Ramdas Pophale) SiO2 
 PCOD9009320
Probable space group: P -1
;
_chemical_formula_sum "Si O2"
_cell_formula_units_Z 16
_cell_length_a 8.341313
_cell_length_b 18.443203
_cell_length_c 11.611391
_cell_angle_alpha 39.084692
_cell_angle_beta 133.177999
_cell_angle_gamma 105.819311
_cell_volume 679.117242
_symmetry_space_group_name_H-M "P -1"
_symmetry_group_IT_number 2
_symmetry_cell_setting 'triclinic'
loop_
_space_group_symop_operation_xyz
x,y,z
-x,-y,-z
loop_
_atom_site_type_symbol
_atom_site_label
_atom_site_fract_x
_atom_site_fract_y
_atom_site_fract_z
Si Si1 0.449392 0.661022 0.593639
Si Si2 0.876030 0.913075 0.007145
Si Si3 0.432953 0.394244 0.550280
Si Si4 0.966724 0.435653 0.180546
Si Si5 0.212194 0.864370 0.606850
Si Si6 0.056918 0.829168 0.810152
Si Si7 0.225047 0.124272 0.756410
Si Si8 0.574327 0.819965 0.649276
O O1 0.519690 0.634087 0.527127
O O2 0.524679 0.749146 0.602721
O O3 0.131934 0.757041 0.308822
O O4 0.648990 0.510257 0.937766
O O5 0.736031 0.888970 0.072405
O O6 0.649739 0.012706 0.681521
O O7 0.000000 0.000000 0.000000
O O8 0.500000 0.500000 0.500000
O O9 0.119497 0.459220 0.328270
O O10 0.655071 0.246585 0.895832
O O11 0.126813 0.270468 0.471227
O O12 0.000000 0.500000 0.000000
O O13 0.492787 0.787627 0.772045
O O14 0.140657 0.795545 0.758571
O O15 0.004835 0.897834 0.362050
O O16 0.123089 0.008232 0.446878
O O17 0.869743 0.782114 0.823239
O O18 0.500000 0.000000 0.000000
#
# Coordination Sequence:
#
# PCOD9009320 Si02
#       8
#     2   2   2   2   2   2   2   2
#     4  10  22  42  69  98 135 184 244 290 350 426
#     4  10  21  39  68 104 137 178 230 298 356 405
#     4  11  24  42  66 100 138 185 237 287 365 431
#     4  10  25  42  71 102 133 188 242 291 356 423
#     4  11  24  41  65 106 140 182 236 289 360 425
#     4  11  25  41  68  99 150 187 226 296 359 431
#     4  12  24  40  72 103 139 178 242 304 349 422
#     4  11  22  44  73 103 143 192 238 295 359 422
#
# _framework density 23.559996999999999
#
# number of rings (size 3 to 8) (size 9 to 14) (size 15 to 20)
#    0.000    1.250    2.500    3.375   15.750    1.500 
#    0.000    0.000    0.000    2.250    0.000    0.000 
#    0.000    0.000    0.000    0.000    0.000    0.000 
#
# Total GULP energy -89135.900527 kJ/mol
# GULP energy per Si atom -5570.993783 kJ/mol
# Density = 2.350637 g / cm^3
# Si number density = 23.559997 Si / 1000 Ang^3
#
#
#
# Elastic Constant Matrix: (Units=GPa)
#
#
# Indices 1 2 3 4 5 6 
#
# 1 125.3886 25.0198 35.6511 -3.1225 -7.2117 -16.3067
# 2 25.0198 65.8267 0.3423 0.4123 -7.5319 -6.8350
# 3 35.6511 0.3423 135.0261 -6.3469 16.4068 -3.4407
# 4 -3.1225 0.4123 -6.3469 38.2162 -1.7028 0.0713
# 5 -7.2117 -7.5319 16.4068 -1.7028 21.5450 3.7940
# 6 -16.3067 -6.8350 -3.4407 0.0713 3.7940 28.0100
#
#
#
# Elastic Compliance Matrix: (Units=1/GPa)
#
#
# Indices 1 2 3 4 5 6 
#
# 1 0.010239 -0.002974 -0.003045 0.000533 0.003988 0.004319
# 2 -0.002974 0.017021 0.000242 -0.000193 0.004429 0.001852
# 3 -0.003045 0.000242 0.009236 0.000926 -0.007982 0.000500
# 4 0.000533 -0.000193 0.000926 0.026432 0.001476 0.000110
# 5 0.003988 0.004429 -0.007982 0.001476 0.056413 -0.005223
# 6 0.004319 0.001852 0.000500 0.000110 -0.005223 0.039437
#
#
# Mechanical properties :
#
#
# Convention : Reuss Voigt Hill
#
# Bulk Modulus (GPa) = 40.09550 49.80751 44.95151
# Shear Modulus (GPa) = 27.98843 35.23612 31.61228
#
# Velocity S-wave (km/s) = 3.45042 3.87148 3.66700
# Velocity P-wave (km/s) = 5.73841 6.41647 6.08689
#
# Compressibility (1/GPa) = 0.02494045
#
# Stress axis : x y z
#
# Youngs Moduli (GPa) = 97.66639 58.75116 108.27661
#
# Poissons Ratio (x) = 0.17475 0.32974
# Poissons Ratio (y) = 0.29050 -0.02622
# Poissons Ratio (z) = 0.29743 -0.01423
#
# Static dielectric constant tensor:
#      x y z
#    x 2.183740 0.010080 0.140860 
#    y 0.010080 1.947200 -0.018650 
#    z 0.140860 -0.018650 1.958740 
# 
# From -- ./inp_files/405432.got.cif
#   From: 2010.05.17/outbox.cif.g08.bks.cpg/sg2_203_cif.got.tgz:405432.got - 2010.06.03 11:33:40.
