data_PCOD9009338
_publ_section_title
;
Structure prediction by ZEFSAII (Michael W. Deem and Ramdas Pophale) SiO2 
 PCOD9009338
Probable space group: P -1
;
_chemical_formula_sum "Si O2"
_cell_formula_units_Z 15
_cell_length_a 12.175101
_cell_length_b 5.284560
_cell_length_c 13.075537
_cell_angle_alpha 87.630491
_cell_angle_beta 133.007982
_cell_angle_gamma 108.215203
_cell_volume 566.194852
_symmetry_space_group_name_H-M "P -1"
_symmetry_group_IT_number 2
_symmetry_cell_setting 'triclinic'
loop_
_space_group_symop_operation_xyz
x,y,z
-x,-y,-z
loop_
_atom_site_type_symbol
_atom_site_label
_atom_site_fract_x
_atom_site_fract_y
_atom_site_fract_z
Si Si1 0.603044 0.680339 0.656988
Si Si2 0.043404 0.275886 0.087968
Si Si3 0.290495 0.389031 0.548184
Si Si4 0.592927 0.370567 0.984870
Si Si5 0.772490 0.143204 0.620055
Si Si6 0.259766 0.938644 0.759623
Si Si7 0.000000 0.000000 0.500000
Si Si8 0.883236 0.870413 0.150069
O O1 0.500000 0.500000 0.500000
O O2 0.765637 0.624479 0.772438
O O3 0.481826 0.584101 0.678048
O O4 0.666138 0.999523 0.655556
O O5 0.933993 0.159167 0.120627
O O6 0.000000 0.500000 0.000000
O O7 0.000000 0.000000 0.000000
O O8 0.239044 0.590029 0.439854
O O9 0.278608 0.112501 0.486607
O O10 0.161509 0.270337 0.557947
O O11 0.441192 0.139882 0.835127
O O12 0.500000 0.500000 0.000000
O O13 0.692339 0.240941 0.123121
O O14 0.727274 0.626821 0.010020
O O15 0.960702 0.203800 0.758484
O O16 0.124716 0.827088 0.589884
O O17 0.156238 0.084822 0.757825
#
# Coordination Sequence:
#
# PCOD9009338 Si02
#       8
#     2   2   2   2   2   2   1   2
#     4   9  22  45  74 101 134 183 235 283 352 420
#     4  11  27  45  70 105 139 174 230 300 353 410
#     4  11  23  40  61  99 138 173 223 280 343 401
#     4   9  20  40  63  93 122 181 226 272 329 415
#     4  10  21  40  68  94 128 179 225 276 334 415
#     4  10  21  41  64  94 132 176 231 275 343 414
#     4  12  24  40  64 102 140 176 224 290 344 402
#     4  10  21  39  68  90 130 177 226 271 352 412
#
# _framework density 26.492647000000002
#
# number of rings (size 3 to 8) (size 9 to 14) (size 15 to 20)
#    0.000    1.867    1.333    1.200    1.867    9.067 
#    9.600    0.000    0.000    0.000    0.000    0.000 
#    0.000    0.000    0.000    0.000    0.000    0.000 
#
# Total GULP energy -83642.686503 kJ/mol
# GULP energy per Si atom -5576.179100 kJ/mol
# Density = 2.643235 g / cm^3
# Si number density = 26.492647 Si / 1000 Ang^3
#
#
#
# Elastic Constant Matrix: (Units=GPa)
#
#
# Indices 1 2 3 4 5 6 
#
# 1 114.8131 86.9751 40.3877 -3.8984 24.7616 52.6879
# 2 86.9751 173.5000 57.2313 -16.1575 19.0029 44.6681
# 3 40.3877 57.2313 97.3884 -11.6880 52.0407 18.8312
# 4 -3.8984 -16.1575 -11.6880 43.4238 1.4617 3.2958
# 5 24.7616 19.0029 52.0407 1.4617 50.7827 15.5679
# 6 52.6879 44.6681 18.8312 3.2958 15.5679 69.1456
#
#
#
# Elastic Compliance Matrix: (Units=1/GPa)
#
#
# Indices 1 2 3 4 5 6 
#
# 1 0.018760 -0.006589 -0.000143 0.000015 -0.003727 -0.009161
# 2 -0.006589 0.011245 -0.006754 0.001704 0.006473 -0.001942
# 3 -0.000143 -0.006754 0.030291 0.006424 -0.029407 0.002537
# 4 0.000015 0.001704 0.006424 0.025824 -0.007215 -0.002468
# 5 -0.003727 0.006473 -0.029407 -0.007215 0.050786 -0.004423
# 6 -0.009161 -0.001942 0.002537 -0.002468 -0.004423 0.023120
#
#
# Mechanical properties :
#
#
# Convention : Reuss Voigt Hill
#
# Bulk Modulus (GPa) = 30.00950 83.87665 56.94308
# Shear Modulus (GPa) = 25.23915 46.07758 35.65836
#
# Velocity S-wave (km/s) = 3.08991 4.17497 3.67273
# Velocity P-wave (km/s) = 4.90735 7.41415 6.28696
#
# Compressibility (1/GPa) = 0.03332278
#
# Stress axis : x y z
#
# Youngs Moduli (GPa) = 53.30568 88.93189 33.01300
#
# Poissons Ratio (x) = 0.58597 0.00472
# Poissons Ratio (y) = 0.35123 0.22298
# Poissons Ratio (z) = 0.00761 0.60068
#
# Static dielectric constant tensor:
#      x y z
#    x 2.048390 0.065640 0.204410 
#    y 0.065640 2.107430 -0.077360 
#    z 0.204410 -0.077360 1.687650 
# 
# From -- ./inp_files/525638.got.cif
#   From: 2010.05.17/outbox.cif.g08.bks.cpg/sg2_263_cif.got.tgz:525638.got - 2010.06.03 11:33:40.
