data_PCOD9009464
_publ_section_title
;
Structure prediction by ZEFSAII (Michael W. Deem and Ramdas Pophale) SiO2 
 PCOD9009464
Probable space group: P -1
;
_chemical_formula_sum "Si O2"
_cell_formula_units_Z 10
_cell_length_a 5.387696
_cell_length_b 11.463867
_cell_length_c 16.773574
_cell_angle_alpha 153.447108
_cell_angle_beta 48.534792
_cell_angle_gamma 129.888371
_cell_volume 343.311505
_symmetry_space_group_name_H-M "P -1"
_symmetry_group_IT_number 2
_symmetry_cell_setting 'triclinic'
loop_
_space_group_symop_operation_xyz
x,y,z
-x,-y,-z
loop_
_atom_site_type_symbol
_atom_site_label
_atom_site_fract_x
_atom_site_fract_y
_atom_site_fract_z
Si Si1 0.799423 0.601340 0.832608
Si Si2 0.769199 0.777870 0.460912
Si Si3 0.625452 0.980410 0.871678
Si Si4 0.259489 0.340366 0.888028
Si Si5 0.010015 0.686808 0.520631
O O1 0.516596 0.352834 0.765041
O O2 0.936389 0.579100 0.699902
O O3 0.109205 0.506074 0.756682
O O4 0.631371 0.866397 0.031653
O O5 0.387137 0.792488 0.531504
O O6 0.868759 0.839333 0.569377
O O7 0.000000 0.000000 0.500000
O O8 0.000981 0.127343 0.861394
O O9 0.710087 0.690711 0.649397
O O10 0.500000 0.000000 0.000000
O O11 0.500000 0.500000 0.000000
O O12 0.000000 0.500000 0.000000
#
# Coordination Sequence:
#
# PCOD9009464 Si02
#       5
#     2   2   2   2   2
#     4   9  24  42  73  98 141 180 238 295 349 408
#     4  10  21  39  69 101 139 174 233 295 350 406
#     4  11  25  47  72 105 147 191 234 290 360 428
#     4  10  23  41  70 102 133 178 235 287 344 408
#     4  10  24  42  66 105 137 182 235 288 350 419
#
# _framework density 29.128063000000001
#
# number of rings (size 3 to 8) (size 9 to 14) (size 15 to 20)
#    1.200    0.800    0.000    1.800    8.400    5.600 
#    0.000   10.000    0.000    0.000    0.000    0.000 
#    0.000    0.000    0.000    0.000    0.000    0.000 
#
# Total GULP energy -55760.588590 kJ/mol
# GULP energy per Si atom -5576.058859 kJ/mol
# Density = 2.906177 g / cm^3
# Si number density = 29.128063 Si / 1000 Ang^3
#
#
#
# Elastic Constant Matrix: (Units=GPa)
#
#
# Indices 1 2 3 4 5 6 
#
# 1 172.4973 62.3609 55.6097 -2.8141 -44.8677 3.5589
# 2 62.3609 154.6912 52.9115 -32.6191 -0.1649 12.7006
# 3 55.6097 52.9115 255.4955 -27.7916 -42.1183 11.3381
# 4 -2.8141 -32.6191 -27.7916 42.4038 -5.1762 -6.6966
# 5 -44.8677 -0.1649 -42.1183 -5.1762 48.5730 -15.7507
# 6 3.5589 12.7006 11.3381 -6.6966 -15.7507 52.3981
#
#
#
# Elastic Compliance Matrix: (Units=1/GPa)
#
#
# Indices 1 2 3 4 5 6 
#
# 1 0.010003 -0.004570 0.000245 -0.000878 0.010447 0.003403
# 2 -0.004570 0.010145 -0.001317 0.005492 -0.005673 -0.002867
# 3 0.000245 -0.001317 0.005384 0.003426 0.005670 0.001280
# 4 -0.000878 0.005492 0.003426 0.031474 0.006852 0.004069
# 5 0.010447 -0.005673 0.005670 0.006852 0.039851 0.012293
# 6 0.003403 -0.002867 0.001280 0.004069 0.012293 0.023487
#
#
# Mechanical properties :
#
#
# Convention : Reuss Voigt Hill
#
# Bulk Modulus (GPa) = 70.18540 102.71646 86.45093
# Shear Modulus (GPa) = 36.66318 56.12847 46.39583
#
# Velocity S-wave (km/s) = 3.55165 4.39447 3.99535
# Velocity P-wave (km/s) = 6.40053 7.81593 7.14337
#
# Compressibility (1/GPa) = 0.01424798
#
# Stress axis : x y z
#
# Youngs Moduli (GPa) = 99.96967 98.57517 185.73393
#
# Poissons Ratio (x) = 0.45046 -0.04545
# Poissons Ratio (y) = 0.45684 0.24457
# Poissons Ratio (z) = -0.02446 0.12980
#
# Static dielectric constant tensor:
#      x y z
#    x 2.413430 0.143230 0.286380 
#    y 0.143230 2.490050 0.199620 
#    z 0.286380 0.199620 2.516050 
# 
# From -- ./inp_files/549589.got.cif
#   From: 2010.05.17/outbox.cif.g08.bks.cpg/sg2_275_cif.got.tgz:549589.got - 2010.06.03 11:33:40.
