data_PCOD9009070
_publ_section_title
;
Structure prediction by ZEFSAII (Michael W. Deem and Ramdas Pophale) SiO2 
 PCOD9009070
Probable space group: P -1
;
_chemical_formula_sum "Si O2"
_cell_formula_units_Z 14
_cell_length_a 20.293535
_cell_length_b 9.186272
_cell_length_c 9.151663
_cell_angle_alpha 60.240825
_cell_angle_beta 32.355936
_cell_angle_gamma 49.093985
_cell_volume 683.232244
_symmetry_space_group_name_H-M "P -1"
_symmetry_group_IT_number 2
_symmetry_cell_setting 'triclinic'
loop_
_space_group_symop_operation_xyz
x,y,z
-x,-y,-z
loop_
_atom_site_type_symbol
_atom_site_label
_atom_site_fract_x
_atom_site_fract_y
_atom_site_fract_z
Si Si1 0.946208 0.556918 0.237270
Si Si2 0.346419 0.636090 0.789440
Si Si3 0.061673 0.816232 0.586612
Si Si4 0.201496 0.073104 0.805551
Si Si5 0.624126 0.317860 0.941779
Si Si6 0.141296 0.476171 0.160721
Si Si7 0.648506 0.933944 0.171938
O O1 0.929936 0.375029 0.407200
O O2 0.807461 0.770536 0.371930
O O3 0.064529 0.567654 0.105489
O O4 0.000000 0.500000 0.000000
O O5 0.500000 0.500000 0.500000
O O6 0.295779 0.847524 0.710529
O O7 0.368361 0.643499 0.918665
O O8 0.227097 0.575536 0.014524
O O9 0.220114 0.744612 0.377145
O O10 0.000000 0.000000 0.500000
O O11 0.957086 0.884178 0.886377
O O12 0.247726 0.104542 0.864778
O O13 0.500000 0.500000 0.000000
O O14 0.614755 0.124167 0.049957
O O15 0.000000 0.500000 0.500000
O O16 0.266530 0.255366 0.995295
O O17 0.500000 0.000000 0.500000
#
# Coordination Sequence:
#
# PCOD9009070 Si02
#       7
#     2   2   2   2   2   2   2
#     4  10  21  39  67 100 123 171 229 273 310 410
#     4  11  25  44  63  94 143 177 210 277 356 392
#     4  11  18  38  70  96 125 161 232 269 317 379
#     4  10  22  40  69  92 125 181 229 262 316 417
#     4  11  25  43  69  97 126 178 228 272 321 407
#     4  12  24  41  68 103 136 168 218 292 349 377
#     4  11  23  42  68  94 131 185 224 262 339 418
#
# _framework density 20.490835000000001
#
# number of rings (size 3 to 8) (size 9 to 14) (size 15 to 20)
#    0.000    1.143    5.714    2.571    4.000    2.857 
#    2.571    0.714    0.000    0.000    0.000    0.000 
#    0.000    0.000    0.000    0.000    0.000    0.000 
#
# Total GULP energy -78018.887039 kJ/mol
# GULP energy per Si atom -5572.777646 kJ/mol
# Density = 2.044420 g / cm^3
# Si number density = 20.490835 Si / 1000 Ang^3
#
#
#
# Elastic Constant Matrix: (Units=GPa)
#
#
# Indices 1 2 3 4 5 6 
#
# 1 73.4170 49.2399 6.2012 -4.5897 -4.1066 -15.9297
# 2 49.2399 204.7111 27.5747 4.9821 -11.4025 -22.2931
# 3 6.2012 27.5747 94.0135 21.3386 -16.3041 -3.2469
# 4 -4.5897 4.9821 21.3386 32.5872 -0.8132 -2.0538
# 5 -4.1066 -11.4025 -16.3041 -0.8132 24.6319 7.6958
# 6 -15.9297 -22.2931 -3.2469 -2.0538 7.6958 38.8226
#
#
#
# Elastic Compliance Matrix: (Units=1/GPa)
#
#
# Indices 1 2 3 4 5 6 
#
# 1 0.017516 -0.003643 -0.000970 0.003977 -0.000970 0.005416
# 2 -0.003643 0.006180 -0.001246 -0.000510 0.000865 0.001751
# 3 -0.000970 -0.001246 0.014790 -0.009538 0.009440 -0.002253
# 4 0.003977 -0.000510 -0.009538 0.037658 -0.005793 0.003682
# 5 -0.000970 0.000865 0.009440 -0.005793 0.049796 -0.009289
# 6 0.005416 0.001751 -0.002253 0.003682 -0.009289 0.030834
#
#
# Mechanical properties :
#
#
# Convention : Reuss Voigt Hill
#
# Bulk Modulus (GPa) = 37.35980 59.79702 48.57841
# Shear Modulus (GPa) = 28.18214 38.48338 33.33276
#
# Velocity S-wave (km/s) = 3.71260 4.33838 4.03763
# Velocity P-wave (km/s) = 6.05391 7.37164 6.74503
#
# Compressibility (1/GPa) = 0.02676674
#
# Stress axis : x y z
#
# Youngs Moduli (GPa) = 57.09077 161.80003 67.61123
#
# Poissons Ratio (x) = 0.58950 0.06561
# Poissons Ratio (y) = 0.20800 0.08426
# Poissons Ratio (z) = 0.05540 0.20164
#
# Static dielectric constant tensor:
#      x y z
#    x 1.796110 0.003310 0.006920 
#    y 0.003310 1.801910 0.069220 
#    z 0.006920 0.069220 1.903330 
# 
# From -- ./inp_files/343372.got.cif
#   From: 2010.05.17/outbox.cif.g08.bks.cpg/sg2_172_cif.got.tgz:343372.got - 2010.06.03 11:33:40.
