data_PCOD9009465
_publ_section_title
;
Structure prediction by ZEFSAII (Michael W. Deem and Ramdas Pophale) SiO2 
 PCOD9009465
Probable space group: P -1
;
_chemical_formula_sum "Si O2"
_cell_formula_units_Z 16
_cell_length_a 12.077874
_cell_length_b 9.049187
_cell_length_c 11.486493
_cell_angle_alpha 55.072020
_cell_angle_beta 130.776282
_cell_angle_gamma 125.517921
_cell_volume 734.830808
_symmetry_space_group_name_H-M "P -1"
_symmetry_group_IT_number 2
_symmetry_cell_setting 'triclinic'
loop_
_space_group_symop_operation_xyz
x,y,z
-x,-y,-z
loop_
_atom_site_type_symbol
_atom_site_label
_atom_site_fract_x
_atom_site_fract_y
_atom_site_fract_z
Si Si1 0.154015 0.121831 0.896599
Si Si2 0.840651 0.867804 0.384612
Si Si3 0.822173 0.452121 0.643764
Si Si4 0.345544 0.960244 0.267592
Si Si5 0.682580 0.074447 0.341569
Si Si6 0.817810 0.935970 0.706657
Si Si7 0.809573 0.487467 0.136344
Si Si8 0.832308 0.525869 0.871829
O O1 0.159049 0.112635 0.763804
O O2 0.218252 0.334572 0.898379
O O3 0.971477 0.045675 0.833989
O O4 0.238457 0.989237 0.075406
O O5 0.810597 0.645594 0.494083
O O6 0.710012 0.943559 0.315712
O O7 0.000000 0.000000 0.500000
O O8 0.723171 0.244575 0.622767
O O9 0.760561 0.432859 0.743684
O O10 0.004583 0.475755 0.752726
O O11 0.328455 0.105459 0.289915
O O12 0.513544 0.998985 0.314651
O O13 0.798463 0.058740 0.529703
O O14 0.725551 0.290100 0.231540
O O15 0.843928 0.745045 0.767770
O O16 0.760516 0.466437 0.976301
O O17 0.000000 0.500000 0.000000
#
# Coordination Sequence:
#
# PCOD9009465 Si02
#       8
#     2   2   2   2   2   2   2   2
#     4  12  24  43  74 102 133 179 237 282 330 410
#     4  12  24  45  71 102 137 180 230 282 340 410
#     4  11  22  42  71  99 131 180 236 277 331 409
#     4  12  28  45  67 106 141 178 227 289 345 399
#     4  12  28  46  67 101 147 181 219 286 357 401
#     4  12  22  47  72  98 138 183 230 280 337 412
#     4  11  23  42  70 101 134 178 233 279 339 406
#     4  10  21  39  69 102 131 171 228 288 329 390
#
# _framework density 21.773719
#
# number of rings (size 3 to 8) (size 9 to 14) (size 15 to 20)
#    0.000    0.500    6.250    2.250    5.250    2.500 
#    0.000    0.000    0.000    0.000    0.000    0.000 
#    0.000    0.000    0.000    0.000    0.000    0.000 
#
# Total GULP energy -89418.472825 kJ/mol
# GULP energy per Si atom -5588.654552 kJ/mol
# Density = 2.172416 g / cm^3
# Si number density = 21.773719 Si / 1000 Ang^3
#
#
#
# Elastic Constant Matrix: (Units=GPa)
#
#
# Indices 1 2 3 4 5 6 
#
# 1 103.6118 25.6209 12.7259 2.6306 -7.0189 -14.5061
# 2 25.6209 72.5081 27.7801 -31.5660 3.0318 -8.0693
# 3 12.7259 27.7801 87.6999 -14.2259 -19.0750 -1.8917
# 4 2.6306 -31.5660 -14.2259 37.1853 -7.1321 -4.6539
# 5 -7.0189 3.0318 -19.0750 -7.1321 34.9984 2.4365
# 6 -14.5061 -8.0693 -1.8917 -4.6539 2.4365 41.0537
#
#
#
# Elastic Compliance Matrix: (Units=1/GPa)
#
#
# Indices 1 2 3 4 5 6 
#
# 1 0.011828 -0.006457 -0.000264 -0.005874 0.001441 0.002147
# 2 -0.006457 0.028857 -0.004687 0.023528 -0.001970 0.005959
# 3 -0.000264 -0.004687 0.015645 0.003829 0.009691 -0.000435
# 4 -0.005874 0.023528 0.003829 0.051437 0.008794 0.008035
# 5 0.001441 -0.001970 0.009691 0.008794 0.036146 -0.000580
# 6 0.002147 0.005959 -0.000435 0.008035 -0.000580 0.027213
#
#
# Mechanical properties :
#
#
# Convention : Reuss Voigt Hill
#
# Bulk Modulus (GPa) = 29.83835 44.00816 36.92325
# Shear Modulus (GPa) = 24.37665 35.82699 30.10182
#
# Velocity S-wave (km/s) = 3.34959 4.06078 3.72221
# Velocity P-wave (km/s) = 5.35661 6.49939 5.95547
#
# Compressibility (1/GPa) = 0.03351392
#
# Stress axis : x y z
#
# Youngs Moduli (GPa) = 84.54743 34.65356 63.91752
#
# Poissons Ratio (x) = 0.22374 0.01688
# Poissons Ratio (y) = 0.54588 0.29960
# Poissons Ratio (z) = 0.02233 0.16243
#
# Static dielectric constant tensor:
#      x y z
#    x 1.712150 0.259310 0.063830 
#    y 0.259310 0.981040 -0.182170 
#    z 0.063830 -0.182170 1.750360 
# 
# From -- ./inp_files/216522.got.cif
#   From: 2010.05.17/outbox.cif.g08.bks.cpg/sg2_109_cif.got.tgz:216522.got - 2010.06.03 11:33:40.
