data_PCOD9009977
_publ_section_title
;
Structure prediction by ZEFSAII (Michael W. Deem and Ramdas Pophale) SiO2 
 PCOD9009977
Probable space group: P -1
;
_chemical_formula_sum "Si O2"
_cell_formula_units_Z 14
_cell_length_a 10.069503
_cell_length_b 13.993657
_cell_length_c 9.460636
_cell_angle_alpha 124.785252
_cell_angle_beta 136.830675
_cell_angle_gamma 46.348658
_cell_volume 653.827577
_symmetry_space_group_name_H-M "P -1"
_symmetry_group_IT_number 2
_symmetry_cell_setting 'triclinic'
loop_
_space_group_symop_operation_xyz
x,y,z
-x,-y,-z
loop_
_atom_site_type_symbol
_atom_site_label
_atom_site_fract_x
_atom_site_fract_y
_atom_site_fract_z
Si Si1 0.206384 0.613282 0.206830
Si Si2 0.028939 0.305714 0.353549
Si Si3 0.365143 0.037224 0.071536
Si Si4 0.108846 0.837205 0.098305
Si Si5 0.316324 0.567039 0.560200
Si Si6 0.503406 0.877704 0.319187
Si Si7 0.193617 0.344660 0.240570
O O1 0.221639 0.710944 0.184509
O O2 0.211358 0.650962 0.406494
O O3 0.430117 0.471591 0.246263
O O4 0.976481 0.618678 0.990551
O O5 0.833077 0.372337 0.368665
O O6 0.262683 0.248267 0.566419
O O7 0.042046 0.390015 0.303133
O O8 0.993682 0.194916 0.147786
O O9 0.335670 0.182957 0.217315
O O10 0.486509 0.919086 0.178114
O O11 0.110772 0.062431 0.898430
O O12 0.500000 0.000000 0.000000
O O13 0.293794 0.868953 0.210233
O O14 0.323832 0.426213 0.413089
O O15 0.500000 0.000000 0.500000
#
# Coordination Sequence:
#
# PCOD9009977 Si02
#       7
#     2   2   2   2   2   2   2
#     4   9  22  38  58  87 127 162 202 255 316 360
#     4  10  23  37  63  95 122 162 217 245 314 374
#     4  10  23  42  65  96 126 164 209 254 318 369
#     4  10  23  43  63  91 133 162 204 264 311 366
#     4  11  21  39  62  92 123 162 210 254 306 377
#     4  12  22  42  68  91 125 169 210 258 308 369
#     4  10  21  40  61  88 126 162 200 261 306 365
#
# _framework density 21.412372999999999
#
# number of rings (size 3 to 8) (size 9 to 14) (size 15 to 20)
#    0.000    2.000    2.857    2.143    4.000    3.429 
#    5.143    0.714    0.000    0.000    0.000    0.000 
#    0.000    0.000    0.000    0.000    0.000    0.000 
#
# Total GULP energy -78062.434439 kJ/mol
# GULP energy per Si atom -5575.888174 kJ/mol
# Density = 2.136364 g / cm^3
# Si number density = 21.412373 Si / 1000 Ang^3
#
#
#
# Elastic Constant Matrix: (Units=GPa)
#
#
# Indices 1 2 3 4 5 6 
#
# 1 130.4856 23.8337 28.6228 8.4559 -18.2778 -9.9814
# 2 23.8337 36.1268 21.0447 -5.7456 -6.8445 -1.2302
# 3 28.6228 21.0447 83.0638 -25.8378 -3.7771 2.4673
# 4 8.4559 -5.7456 -25.8378 28.7101 8.7769 -1.9835
# 5 -18.2778 -6.8445 -3.7771 8.7769 46.1340 1.8340
# 6 -9.9814 -1.2302 2.4673 -1.9835 1.8340 42.0201
#
#
#
# Elastic Compliance Matrix: (Units=1/GPa)
#
#
# Indices 1 2 3 4 5 6 
#
# 1 0.011544 -0.004747 -0.006134 -0.011384 0.005446 0.002188
# 2 -0.004747 0.035479 -0.006716 0.001711 0.002497 0.000277
# 3 -0.006134 -0.006716 0.022635 0.022486 -0.005785 -0.001669
# 4 -0.011384 0.001711 0.022486 0.063144 -0.014414 -0.000365
# 5 0.005446 0.002497 -0.005785 -0.014414 0.026478 -0.000130
# 6 0.002188 0.000277 -0.001669 -0.000365 -0.000130 0.024412
#
#
# Mechanical properties :
#
#
# Convention : Reuss Voigt Hill
#
# Bulk Modulus (GPa) = 29.01486 44.07542 36.54514
# Shear Modulus (GPa) = 21.70387 35.11782 28.41085
#
# Velocity S-wave (km/s) = 3.18718 4.05417 3.64654
# Velocity P-wave (km/s) = 5.20808 6.52257 5.90203
#
# Compressibility (1/GPa) = 0.03446510
#
# Stress axis : x y z
#
# Youngs Moduli (GPa) = 86.62376 28.18604 44.17915
#
# Poissons Ratio (x) = 0.13380 0.27098
# Poissons Ratio (y) = 0.41121 0.29669
# Poissons Ratio (z) = 0.53132 0.18928
#
# Static dielectric constant tensor:
#      x y z
#    x 1.791590 0.018080 -0.001670 
#    y 0.018080 1.837830 -0.018670 
#    z -0.001670 -0.018670 1.830790 
# 
# From -- ./inp_files/203317.got.cif
#   From: 2010.05.17/outbox.cif.g08.bks.cpg/sg2_102_cif.got.tgz:203317.got - 2010.06.03 11:33:40.
