data_PCOD9009050
_publ_section_title
;
Structure prediction by ZEFSAII (Michael W. Deem and Ramdas Pophale) SiO2 
 PCOD9009050
Probable space group: P -1
;
_chemical_formula_sum "Si O2"
_cell_formula_units_Z 14
_cell_length_a 17.169166
_cell_length_b 7.691767
_cell_length_c 6.629353
_cell_angle_alpha 58.510408
_cell_angle_beta 64.597662
_cell_angle_gamma 104.184798
_cell_volume 534.884441
_symmetry_space_group_name_H-M "P -1"
_symmetry_group_IT_number 2
_symmetry_cell_setting 'triclinic'
loop_
_space_group_symop_operation_xyz
x,y,z
-x,-y,-z
loop_
_atom_site_type_symbol
_atom_site_label
_atom_site_fract_x
_atom_site_fract_y
_atom_site_fract_z
Si Si1 0.789388 0.925340 0.706251
Si Si2 0.760208 0.505461 0.412930
Si Si3 0.054344 0.537790 0.629514
Si Si4 0.314586 0.889693 0.584534
Si Si5 0.103206 0.025399 0.790438
Si Si6 0.476282 0.709899 0.135711
Si Si7 0.382238 0.179704 0.717915
O O1 0.895579 0.175712 0.536670
O O2 0.743020 0.006233 0.531044
O O3 0.837379 0.816682 0.576453
O O4 0.692835 0.799008 0.053873
O O5 0.840714 0.458642 0.457281
O O6 0.812620 0.799426 0.230817
O O7 0.638051 0.342163 0.726908
O O8 0.742937 0.394657 0.271753
O O9 0.000000 0.500000 0.500000
O O10 0.953887 0.275656 0.005018
O O11 0.316622 0.934220 0.792793
O O12 0.437308 0.086247 0.244204
O O13 0.000000 0.000000 0.000000
O O14 0.443877 0.424150 0.350858
O O15 0.531608 0.803284 0.239917
#
# Coordination Sequence:
#
# PCOD9009050 Si02
#       7
#     2   2   2   2   2   2   2
#     4  10  22  41  70  97 130 174 220 274 332 393
#     4  10  22  41  67  98 138 174 213 280 336 377
#     4  10  23  42  71  96 125 175 228 270 330 400
#     4  10  21  40  67  95 138 179 213 268 333 399
#     4  10  22  44  69  92 134 172 216 282 336 380
#     4  10  21  39  66  98 143 170 221 270 330 394
#     4  10  22  39  67 107 127 179 224 261 330 412
#
# _framework density 26.173877999999998
#
# number of rings (size 3 to 8) (size 9 to 14) (size 15 to 20)
#    0.000    2.000    0.000    2.143    4.000    2.857 
#    0.000    8.571    0.000    0.000    0.000    0.000 
#    0.000    0.000    0.000    0.000    0.000    0.000 
#
# Total GULP energy -78076.885600 kJ/mol
# GULP energy per Si atom -5576.920400 kJ/mol
# Density = 2.611431 g / cm^3
# Si number density = 26.173878 Si / 1000 Ang^3
#
#
#
# Elastic Constant Matrix: (Units=GPa)
#
#
# Indices 1 2 3 4 5 6 
#
# 1 111.0879 18.4946 48.6958 14.9758 -23.2720 38.8950
# 2 18.4946 166.9206 37.4420 2.2658 -6.8897 31.4261
# 3 48.6958 37.4420 149.1516 1.6459 -19.5532 9.0358
# 4 14.9758 2.2658 1.6459 35.4990 -2.0122 2.0327
# 5 -23.2720 -6.8897 -19.5532 -2.0122 35.6028 -5.2272
# 6 38.8950 31.4261 9.0358 2.0327 -5.2272 41.7968
#
#
#
# Elastic Compliance Matrix: (Units=1/GPa)
#
#
# Indices 1 2 3 4 5 6 
#
# 1 0.019371 0.002683 -0.004863 -0.006676 0.007530 -0.017726
# 2 0.002683 0.007677 -0.002219 -0.001034 0.000842 -0.007634
# 3 -0.004863 -0.002219 0.008821 0.001642 0.001983 0.004455
# 4 -0.006676 -0.001034 0.001642 0.030622 -0.001198 0.004996
# 5 0.007530 0.000842 0.001983 -0.001198 0.033636 -0.003804
# 6 -0.017726 -0.007634 0.004455 0.004996 -0.003804 0.044478
#
#
# Mechanical properties :
#
#
# Convention : Reuss Voigt Hill
#
# Bulk Modulus (GPa) = 36.93920 70.71388 53.82654
# Shear Modulus (GPa) = 30.78300 44.08157 37.43229
#
# Velocity S-wave (km/s) = 3.43315 4.10833 3.78582
# Velocity P-wave (km/s) = 5.46434 7.04132 6.30234
#
# Compressibility (1/GPa) = 0.02707151
#
# Stress axis : x y z
#
# Youngs Moduli (GPa) = 51.62445 130.25267 113.36096
#
# Poissons Ratio (x) = -0.34950 0.55128
# Poissons Ratio (y) = -0.13852 0.25156
# Poissons Ratio (z) = 0.25105 0.28904
#
# Static dielectric constant tensor:
#      x y z
#    x 2.118140 -0.138080 0.045960 
#    y -0.138080 2.207850 0.007310 
#    z 0.045960 0.007310 2.183450 
# 
# From -- ./inp_files/116015.got.cif
#   From: 2010.05.17/outbox.cif.g08.bks.cpg/sg2_59_cif.got.tgz:116015.got - 2010.06.03 11:33:40.
