data_PCOD9009476
_publ_section_title
;
Structure prediction by ZEFSAII (Michael W. Deem and Ramdas Pophale) SiO2 
 PCOD9009476
Probable space group: P -1
;
_chemical_formula_sum "Si O2"
_cell_formula_units_Z 14
_cell_length_a 9.974087
_cell_length_b 17.330158
_cell_length_c 5.633186
_cell_angle_alpha 114.149280
_cell_angle_beta 67.236222
_cell_angle_gamma 73.521542
_cell_volume 697.167310
_symmetry_space_group_name_H-M "P -1"
_symmetry_group_IT_number 2
_symmetry_cell_setting 'triclinic'
loop_
_space_group_symop_operation_xyz
x,y,z
-x,-y,-z
loop_
_atom_site_type_symbol
_atom_site_label
_atom_site_fract_x
_atom_site_fract_y
_atom_site_fract_z
Si Si1 0.276275 0.806733 0.968182
Si Si2 0.493165 0.643772 0.243895
Si Si3 0.975339 0.255586 0.830728
Si Si4 0.650972 0.446654 0.142444
Si Si5 0.830114 0.820261 0.889532
Si Si6 0.511773 0.800584 0.176377
Si Si7 0.189302 0.973493 0.896216
O O1 0.337949 0.723458 0.616845
O O2 0.226533 0.914261 0.042926
O O3 0.444400 0.770287 0.958922
O O4 0.120726 0.806507 0.201291
O O5 0.633988 0.539279 0.128765
O O6 0.577309 0.705615 0.180790
O O7 0.399830 0.615289 0.073365
O O8 0.086312 0.233630 0.486993
O O9 0.066598 0.226907 0.991401
O O10 0.826813 0.370994 0.055323
O O11 0.500000 0.500000 0.500000
O O12 0.651277 0.827193 0.056465
O O13 0.805697 0.927788 0.003629
O O14 0.339974 0.892399 0.522390
O O15 0.000000 0.000000 0.000000
#
# Coordination Sequence:
#
# PCOD9009476 Si02
#       7
#     2   2   2   2   2   2   2
#     4  11  22  41  72  97 137 177 238 284 337 402
#     4  10  21  39  69 103 134 171 234 287 342 399
#     4  12  25  45  68 104 134 182 229 286 338 406
#     4  11  21  38  73 103 130 173 236 292 339 398
#     4  12  29  45  67 100 151 181 225 281 350 412
#     4  11  25  44  67  99 139 189 219 283 349 411
#     4  11  24  42  72 101 134 180 240 283 330 403
#
# _framework density 20.081261000000001
#
# number of rings (size 3 to 8) (size 9 to 14) (size 15 to 20)
#    0.000    0.857    4.286    2.143    8.000    1.714 
#    0.000    1.429    0.000    0.000    0.000    0.000 
#    0.000    0.000    0.000    0.000    0.000    0.000 
#
# Total GULP energy -78112.532722 kJ/mol
# GULP energy per Si atom -5579.466623 kJ/mol
# Density = 2.003556 g / cm^3
# Si number density = 20.081261 Si / 1000 Ang^3
#
#
#
# Elastic Constant Matrix: (Units=GPa)
#
#
# Indices 1 2 3 4 5 6 
#
# 1 78.2757 17.4839 31.5580 -23.5701 -35.6592 9.9752
# 2 17.4839 113.9286 37.9612 -8.6675 -34.4011 -1.3757
# 3 31.5580 37.9612 98.7635 -6.5282 -17.3678 1.7370
# 4 -23.5701 -8.6675 -6.5282 25.0614 -2.0808 -4.1234
# 5 -35.6592 -34.4011 -17.3678 -2.0808 19.1104 -14.9676
# 6 9.9752 -1.3757 1.7370 -4.1234 -14.9676 37.9091
#
#
#
# Elastic Compliance Matrix: (Units=1/GPa)
#
#
# Indices 1 2 3 4 5 6 
#
# 1 -0.000385 -0.010237 -0.002225 -0.009646 -0.033545 -0.014462
# 2 -0.010237 0.005357 -0.002247 -0.010452 -0.016195 -0.004540
# 3 -0.002225 -0.002247 0.012616 0.001162 0.004976 0.002017
# 4 -0.009646 -0.010452 0.001162 0.021856 -0.043239 -0.012589
# 5 -0.033545 -0.016195 0.004976 -0.043239 -0.053584 -0.017848
# 6 -0.014462 -0.004540 0.002017 -0.012589 -0.017848 0.021511
#
#
# Mechanical properties :
#
#
# Convention : Reuss Voigt Hill
#
# Bulk Modulus (GPa) = -84.53901 51.66378 -16.43762
# Shear Modulus (GPa) = 152.22554 30.01384 91.11969
#
# Velocity S-wave (km/s) = 8.71604 3.87022 6.74344
# Velocity P-wave (km/s) = 7.68782 6.76422 7.24076
#
# Compressibility (1/GPa) = -0.01182886
#
# Stress axis : x y z
#
# Youngs Moduli (GPa) = -2600.64945 186.67256 79.26385
#
# Poissons Ratio (x) = 1.91102 0.17632
# Poissons Ratio (y) = -26.62359 0.17810
# Poissons Ratio (z) = -5.78522 0.41943
#
# Static dielectric constant tensor:
#      x y z
#    x 1.696620 -0.071290 0.031660 
#    y -0.071290 1.913320 -0.084370 
#    z 0.031660 -0.084370 1.756520 
# 
# From -- ./inp_files/27551.got.cif
#   From: 2010.05.17/outbox.cif.g08.bks.cpg/sg2_14_cif.got.tgz:27551.got - 2010.06.03 11:33:40.
