data_PCOD9009400
_publ_section_title
;
Structure prediction by ZEFSAII (Michael W. Deem and Ramdas Pophale) SiO2 
 PCOD9009400
Probable space group: P -1
;
_chemical_formula_sum "Si O2"
_cell_formula_units_Z 16
_cell_length_a 8.529698
_cell_length_b 15.436330
_cell_length_c 8.630532
_cell_angle_alpha 128.065986
_cell_angle_beta 55.638511
_cell_angle_gamma 122.169881
_cell_volume 708.170801
_symmetry_space_group_name_H-M "P -1"
_symmetry_group_IT_number 2
_symmetry_cell_setting 'triclinic'
loop_
_space_group_symop_operation_xyz
x,y,z
-x,-y,-z
loop_
_atom_site_type_symbol
_atom_site_label
_atom_site_fract_x
_atom_site_fract_y
_atom_site_fract_z
Si Si1 0.851776 0.697324 0.498296
Si Si2 0.557825 0.097991 0.945188
Si Si3 0.047489 0.186130 0.103492
Si Si4 0.932353 0.102931 0.580026
Si Si5 0.018279 0.584423 0.728476
Si Si6 0.747199 0.991655 0.242524
Si Si7 0.432519 0.646647 0.744030
Si Si8 0.829321 0.428571 0.904052
O O1 0.861815 0.756875 0.723804
O O2 0.627174 0.615177 0.535267
O O3 0.883924 0.789619 0.445476
O O4 0.052678 0.656658 0.328260
O O5 0.790129 0.134180 0.819047
O O6 0.456962 0.050215 0.783781
O O7 0.509890 0.214208 0.149259
O O8 0.500000 0.000000 0.000000
O O9 0.989050 0.287856 0.163952
O O10 0.198823 0.125850 0.876915
O O11 0.873267 0.074801 0.129808
O O12 0.813347 0.064795 0.442373
O O13 0.000000 0.000000 0.500000
O O14 0.231227 0.596345 0.702704
O O15 0.000000 0.500000 0.500000
O O16 0.831886 0.520239 0.870161
O O17 0.362190 0.619924 0.934560
O O18 0.000000 0.500000 0.000000
#
# Coordination Sequence:
#
# PCOD9009400 Si02
#       8
#     2   2   2   2   2   2   2   2
#     4  11  21  44  67  95 133 174 223 279 336 404
#     4  12  23  41  67 103 137 177 231 279 339 414
#     4  10  21  39  68  96 133 175 222 279 336 401
#     4  11  25  39  65 100 138 181 226 274 334 411
#     4  11  23  42  68  96 131 175 224 283 338 400
#     4  10  23  41  66  97 139 183 221 275 348 401
#     4  11  24  42  71  95 133 177 226 279 340 405
#     4  10  23  42  66  94 129 174 221 279 342 389
#
# _framework density 22.593419999999998
#
# number of rings (size 3 to 8) (size 9 to 14) (size 15 to 20)
#    0.000    1.250    3.750    1.875    5.250    2.000 
#    0.000    1.875    2.750    0.000    0.000    0.000 
#    0.000    0.000    0.000    0.000    0.000    0.000 
#
# Total GULP energy -89183.007200 kJ/mol
# GULP energy per Si atom -5573.937950 kJ/mol
# Density = 2.254200 g / cm^3
# Si number density = 22.593420 Si / 1000 Ang^3
#
#
#
# Elastic Constant Matrix: (Units=GPa)
#
#
# Indices 1 2 3 4 5 6 
#
# 1 80.1315 46.1982 22.1710 -14.6457 -11.2679 -0.0065
# 2 46.1982 142.7945 37.5977 -19.9855 -14.2084 -16.6476
# 3 22.1710 37.5977 76.1234 -15.1265 -10.1208 -0.2311
# 4 -14.6457 -19.9855 -15.1265 38.7244 4.2915 -3.1522
# 5 -11.2679 -14.2084 -10.1208 4.2915 37.1013 6.9942
# 6 -0.0065 -16.6476 -0.2311 -3.1522 6.9942 38.4689
#
#
#
# Elastic Compliance Matrix: (Units=1/GPa)
#
#
# Indices 1 2 3 4 5 6 
#
# 1 0.016426 -0.004464 -0.001648 0.002756 0.002934 -0.002247
# 2 -0.004464 0.010229 -0.003134 0.002675 0.000544 0.004527
# 3 -0.001648 -0.003134 0.016237 0.003701 0.002569 -0.001423
# 4 0.002756 0.002675 0.003701 0.030159 -0.001352 0.003897
# 5 0.002934 0.000544 0.002569 -0.001352 0.029908 -0.005297
# 6 -0.002247 0.004527 -0.001423 0.003897 -0.005297 0.029228
#
#
# Mechanical properties :
#
#
# Convention : Reuss Voigt Hill
#
# Bulk Modulus (GPa) = 40.98668 56.77591 48.88130
# Shear Modulus (GPa) = 31.48353 35.73110 33.60731
#
# Velocity S-wave (km/s) = 3.73699 3.98110 3.86097
# Velocity P-wave (km/s) = 6.06634 6.80560 6.44657
#
# Compressibility (1/GPa) = 0.02439817
#
# Stress axis : x y z
#
# Youngs Moduli (GPa) = 60.88094 97.76150 61.58671
#
# Poissons Ratio (x) = 0.43645 0.10149
# Poissons Ratio (y) = 0.27180 0.19304
# Poissons Ratio (z) = 0.10033 0.30642
#
# Static dielectric constant tensor:
#      x y z
#    x 1.896630 0.018320 -0.047130 
#    y 0.018320 1.873520 0.003490 
#    z -0.047130 0.003490 1.918450 
# 
# From -- ./inp_files/203590.got.cif
#   From: 2010.05.17/outbox.cif.g08.bks.cpg/sg2_102_cif.got.tgz:203590.got - 2010.06.03 11:33:40.
