data_PCOD9009140
_publ_section_title
;
Structure prediction by ZEFSAII (Michael W. Deem and Ramdas Pophale) SiO2 
 PCOD9009140
Probable space group: P -1
;
_chemical_formula_sum "Si O2"
_cell_formula_units_Z 16
_cell_length_a 13.489902
_cell_length_b 9.757118
_cell_length_c 5.518183
_cell_angle_alpha 79.552275
_cell_angle_beta 98.501266
_cell_angle_gamma 76.403705
_cell_volume 680.337404
_symmetry_space_group_name_H-M "P -1"
_symmetry_group_IT_number 2
_symmetry_cell_setting 'triclinic'
loop_
_space_group_symop_operation_xyz
x,y,z
-x,-y,-z
loop_
_atom_site_type_symbol
_atom_site_label
_atom_site_fract_x
_atom_site_fract_y
_atom_site_fract_z
Si Si1 0.210120 0.582362 0.458034
Si Si2 0.914150 0.973977 0.705625
Si Si3 0.414149 0.973979 0.205625
Si Si4 0.508733 0.229025 0.084828
Si Si5 0.289880 0.417640 0.041962
Si Si6 0.008732 0.229025 0.584829
Si Si7 0.713809 0.154545 0.432491
Si Si8 0.786191 0.845453 0.067509
O O1 0.250001 0.500001 0.749998
O O2 0.084525 0.635358 0.419100
O O3 0.253041 0.724648 0.435866
O O4 0.250001 0.500001 0.249998
O O5 0.985301 0.823434 0.675539
O O6 0.975634 0.092543 0.737035
O O7 0.826628 0.047837 0.442947
O O8 0.845996 0.938894 0.905127
O O9 0.345995 0.938897 0.405128
O O10 0.475634 0.092544 0.237034
O O11 0.485300 0.823435 0.175540
O O12 0.326627 0.047839 0.942947
O O13 0.624271 0.236536 0.189524
O O14 0.415476 0.364643 0.080897
O O15 0.246959 0.275354 0.064131
O O16 0.124270 0.236537 0.689524
#
# Coordination Sequence:
#
# PCOD9009140 Si02
#       8
#     2   2   2   2   2   2   2   2
#     4  11  28  46  62  92 130 173 222 258 300 377
#     4   9  20  38  62 104 120 157 210 266 328 381
#     4   9  20  38  62 104 120 157 210 266 328 381
#     4  10  21  39  67  91 128 163 208 266 322 376
#     4  11  28  46  62  92 130 173 222 258 300 377
#     4  10  21  39  67  91 128 163 208 266 322 376
#     4  10  21  39  67  91 128 163 208 266 322 376
#     4  10  21  39  67  91 128 163 208 266 322 376
#
# _framework density 23.517744
#
# number of rings (size 3 to 8) (size 9 to 14) (size 15 to 20)
#    0.000    2.000    0.000    1.500    7.000    2.000 
#    9.000    0.000    0.000    0.000    0.000    0.000 
#    0.000    0.000    0.000    0.000    0.000    0.000 
#
# Total GULP energy -89205.723320 kJ/mol
# GULP energy per Si atom -5575.357707 kJ/mol
# Density = 2.346422 g / cm^3
# Si number density = 23.517744 Si / 1000 Ang^3
#
#
#
# Elastic Constant Matrix: (Units=GPa)
#
#
# Indices 1 2 3 4 5 6 
#
# 1 118.4557 35.9674 24.1025 8.5280 22.1650 -16.3166
# 2 35.9674 98.8599 26.2142 26.1967 9.2002 -39.8065
# 3 24.1025 26.2142 64.8898 4.8074 6.7814 -18.6667
# 4 8.5280 26.1967 4.8074 24.9960 1.4916 -7.3668
# 5 22.1650 9.2002 6.7814 1.4916 43.0198 -1.5532
# 6 -16.3166 -39.8065 -18.6667 -7.3668 -1.5532 51.0213
#
#
#
# Elastic Compliance Matrix: (Units=1/GPa)
#
#
# Indices 1 2 3 4 5 6 
#
# 1 0.010619 -0.002723 -0.002288 0.000029 -0.004518 0.000301
# 2 -0.002723 0.021601 -0.002664 -0.017427 -0.001744 0.012438
# 3 -0.002288 -0.002664 0.018540 0.001286 -0.001070 0.004127
# 4 0.000029 -0.017427 0.001286 0.056482 0.001373 -0.004920
# 5 -0.004518 -0.001744 -0.001070 0.001373 0.025987 -0.002207
# 6 0.000301 0.012438 0.004127 -0.004920 -0.002207 0.030133
#
#
# Mechanical properties :
#
#
# Convention : Reuss Voigt Hill
#
# Bulk Modulus (GPa) = 28.23878 50.53040 39.38459
# Shear Modulus (GPa) = 26.24485 36.86883 31.55684
#
# Velocity S-wave (km/s) = 3.34422 3.96372 3.66708
# Velocity P-wave (km/s) = 5.19088 6.51773 5.89178
#
# Compressibility (1/GPa) = 0.03541229
#
# Stress axis : x y z
#
# Youngs Moduli (GPa) = 94.17037 46.29447 53.93715
#
# Poissons Ratio (x) = 0.12604 0.12339
# Poissons Ratio (y) = 0.25639 0.14367
# Poissons Ratio (z) = 0.21543 0.12331
#
# Static dielectric constant tensor:
#      x y z
#    x 1.868790 -0.030820 0.090860 
#    y -0.030820 1.923200 -0.028090 
#    z 0.090860 -0.028090 2.086380 
# 
# From -- ./inp_files/90146.got.cif
#   From: 2010.05.17/outbox.cif.g08.bks.cpg/sg2_46_cif.got.tgz:90146.got - 2010.06.03 11:33:40.
