data_PCOD9009207
_publ_section_title
;
Structure prediction by ZEFSAII (Michael W. Deem and Ramdas Pophale) SiO2 
 PCOD9009207
Probable space group: P -1
;
_chemical_formula_sum "Si O2"
_cell_formula_units_Z 16
_cell_length_a 5.751667
_cell_length_b 13.913396
_cell_length_c 11.468970
_cell_angle_alpha 78.323602
_cell_angle_beta 52.736487
_cell_angle_gamma 92.004053
_cell_volume 700.569414
_symmetry_space_group_name_H-M "P -1"
_symmetry_group_IT_number 2
_symmetry_cell_setting 'triclinic'
loop_
_space_group_symop_operation_xyz
x,y,z
-x,-y,-z
loop_
_atom_site_type_symbol
_atom_site_label
_atom_site_fract_x
_atom_site_fract_y
_atom_site_fract_z
Si Si1 0.922241 0.689006 0.349985
Si Si2 0.344473 0.767816 0.854622
Si Si3 0.716914 0.466520 0.674898
Si Si4 0.350684 0.982271 0.916555
Si Si5 0.769444 0.714404 0.153424
Si Si6 0.652594 0.289650 0.390418
Si Si7 0.327235 0.401329 0.145854
Si Si8 0.326373 0.829374 0.347033
O O1 0.936352 0.751371 0.212776
O O2 0.581692 0.646655 0.502384
O O3 0.132982 0.611339 0.276517
O O4 0.020099 0.766121 0.406603
O O5 0.364341 0.872433 0.889114
O O6 0.425790 0.768401 0.693498
O O7 0.522053 0.694334 0.885919
O O8 0.993718 0.716344 0.981603
O O9 0.419186 0.395942 0.736681
O O10 0.635253 0.558120 0.743673
O O11 0.000000 0.500000 0.500000
O O12 0.569828 0.055340 0.741850
O O13 0.500000 0.000000 0.000000
O O14 0.000000 0.000000 0.000000
O O15 0.539602 0.786240 0.199776
O O16 0.656501 0.210659 0.516414
O O17 0.971219 0.363598 0.254559
O O18 0.500000 0.500000 0.000000
#
# Coordination Sequence:
#
# PCOD9009207 Si02
#       8
#     2   2   2   2   2   2   2   2
#     4  10  21  41  67  97 135 193 239 308 360 450
#     4  12  26  45  71 107 149 193 247 316 384 455
#     4  11  22  37  61  96 134 183 249 293 367 437
#     4  12  28  50  84 121 150 197 260 317 389 465
#     4  10  21  39  67  95 135 183 244 300 365 438
#     4  11  25  44  70 102 154 190 253 301 397 443
#     4  12  27  44  65 104 150 197 249 315 377 456
#     4  10  22  45  73 107 145 189 248 314 374 457
#
# _framework density 22.838564999999999
#
# number of rings (size 3 to 8) (size 9 to 14) (size 15 to 20)
#    0.000    1.000    1.250    6.000    3.500    8.500 
#    0.000    2.500    0.000    0.000    0.000    0.000 
#    0.000    0.000    0.000    0.000    0.000    0.000 
#
# Total GULP energy -89084.487875 kJ/mol
# GULP energy per Si atom -5567.780492 kJ/mol
# Density = 2.278658 g / cm^3
# Si number density = 22.838565 Si / 1000 Ang^3
#
#
#
# Elastic Constant Matrix: (Units=GPa)
#
#
# Indices 1 2 3 4 5 6 
#
# 1 73.3798 26.0053 28.6013 6.9449 2.3598 1.0312
# 2 26.0053 106.9896 12.6910 7.8973 -4.5309 -10.8281
# 3 28.6013 12.6910 117.0873 7.3298 -1.3671 -8.8203
# 4 6.9449 7.8973 7.3298 41.2606 1.7686 4.3830
# 5 2.3598 -4.5309 -1.3671 1.7686 34.7569 5.0590
# 6 1.0312 -10.8281 -8.8203 4.3830 5.0590 21.9756
#
#
#
# Elastic Compliance Matrix: (Units=1/GPa)
#
#
# Indices 1 2 3 4 5 6 
#
# 1 0.016739 -0.003980 -0.003906 -0.000900 -0.001202 -0.003858
# 2 -0.003980 0.011082 0.000373 -0.002197 0.000966 0.006013
# 3 -0.003906 0.000373 0.009911 -0.001674 0.000112 0.004653
# 4 -0.000900 -0.002197 -0.001674 0.025847 -0.000628 -0.006723
# 5 -0.001202 0.000966 0.000112 -0.000628 0.029915 -0.006184
# 6 -0.003858 0.006013 0.004653 -0.006723 -0.006184 0.053281
#
#
# Mechanical properties :
#
#
# Convention : Reuss Voigt Hill
#
# Bulk Modulus (GPa) = 44.04284 48.00577 46.02430
# Shear Modulus (GPa) = 29.52145 34.94255 32.23200
#
# Velocity S-wave (km/s) = 3.59919 3.91574 3.76080
# Velocity P-wave (km/s) = 6.04967 6.44277 6.24931
#
# Compressibility (1/GPa) = 0.02270517
#
# Stress axis : x y z
#
# Youngs Moduli (GPa) = 59.74185 90.24017 100.89925
#
# Poissons Ratio (x) = 0.35917 0.39408
# Poissons Ratio (y) = 0.23778 -0.03763
# Poissons Ratio (z) = 0.23333 -0.03365
#
# Static dielectric constant tensor:
#      x y z
#    x 1.962460 -0.017110 0.034420 
#    y -0.017110 2.048620 -0.080590 
#    z 0.034420 -0.080590 1.863400 
# 
# From -- ./inp_files/367719.got.cif
#   From: 2010.05.17/outbox.cif.g08.bks.cpg/sg2_184_cif.got.tgz:367719.got - 2010.06.03 11:33:40.
