data_PCOD9009585
_publ_section_title
;
Structure prediction by ZEFSAII (Michael W. Deem and Ramdas Pophale) SiO2 
 PCOD9009585
Probable space group: P -1
;
_chemical_formula_sum "Si O2"
_cell_formula_units_Z 14
_cell_length_a 13.062956
_cell_length_b 11.795310
_cell_length_c 15.817021
_cell_angle_alpha 141.071720
_cell_angle_beta 152.413149
_cell_angle_gamma 34.625414
_cell_volume 630.251229
_symmetry_space_group_name_H-M "P -1"
_symmetry_group_IT_number 2
_symmetry_cell_setting 'triclinic'
loop_
_space_group_symop_operation_xyz
x,y,z
-x,-y,-z
loop_
_atom_site_type_symbol
_atom_site_label
_atom_site_fract_x
_atom_site_fract_y
_atom_site_fract_z
Si Si1 0.212458 0.777666 0.001169
Si Si2 0.614360 0.765693 0.412785
Si Si3 0.494926 0.824427 0.074622
Si Si4 0.955053 0.815651 0.136038
Si Si5 0.102721 0.446412 0.908612
Si Si6 0.285033 0.041174 0.545291
Si Si7 0.200116 0.348013 0.345149
O O1 0.417222 0.726164 0.192903
O O2 0.342587 0.769908 0.002557
O O3 0.057037 0.654069 0.818777
O O4 0.000000 0.000000 0.000000
O O5 0.706081 0.621172 0.477088
O O6 0.500000 0.000000 0.500000
O O7 0.792047 0.783532 0.480978
O O8 0.641864 0.660025 0.016749
O O9 0.699457 0.865853 0.299785
O O10 0.299382 0.022288 0.997801
O O11 0.119800 0.926674 0.346048
O O12 0.912986 0.706306 0.123038
O O13 0.080140 0.643046 0.056060
O O14 0.877647 0.513715 0.714619
O O15 0.575112 0.869703 0.645432
#
# Coordination Sequence:
#
# PCOD9009585 Si02
#       7
#     2   2   2   2   2   2   2
#     4  11  18  35  65  93 129 166 205 257 324 377
#     4   9  18  30  59  96 116 164 211 247 308 390
#     4  11  23  45  67  98 126 168 219 266 312 389
#     4  11  24  47  66  90 129 176 211 273 322 368
#     4  11  26  44  65  95 131 168 221 265 320 375
#     4  10  21  39  70  93 125 172 215 255 327 378
#     4  11  21  37  60  96 129 167 208 256 313 395
#
# _framework density 22.213363000000001
#
# number of rings (size 3 to 8) (size 9 to 14) (size 15 to 20)
#    0.000    1.429    5.714    1.286    6.000    1.714 
#    2.571    2.857    0.000    0.000    0.000    0.000 
#    0.000    0.000    0.000    0.000    0.000    0.000 
#
# Total GULP energy -78190.431975 kJ/mol
# GULP energy per Si atom -5585.030855 kJ/mol
# Density = 2.216280 g / cm^3
# Si number density = 22.213363 Si / 1000 Ang^3
#
#
#
# Elastic Constant Matrix: (Units=GPa)
#
#
# Indices 1 2 3 4 5 6 
#
# 1 130.7313 62.5266 37.6028 -15.3075 -30.4574 -3.4903
# 2 62.5266 52.0128 17.1297 9.7252 -17.8330 -8.6814
# 3 37.6028 17.1297 79.7754 5.4944 -24.5523 9.8278
# 4 -15.3075 9.7252 5.4944 10.4356 14.9035 -3.5464
# 5 -30.4574 -17.8330 -24.5523 14.9035 32.3176 -14.5182
# 6 -3.4903 -8.6814 9.8278 -3.5464 -14.5182 39.6697
#
#
#
# Elastic Compliance Matrix: (Units=1/GPa)
#
#
# Indices 1 2 3 4 5 6 
#
# 1 0.010192 0.000329 0.003334 -0.020419 0.025108 0.007506
# 2 0.000329 0.003602 -0.013095 0.046337 -0.030319 -0.002892
# 3 0.003334 -0.013095 0.012252 0.014440 -0.004037 -0.005794
# 4 -0.020419 0.046337 0.014440 -0.043546 0.045201 0.017416
# 5 0.025108 -0.030319 -0.004037 0.045201 0.017042 0.006852
# 6 0.007506 -0.002892 -0.005794 0.017416 0.006852 0.030736
#
#
# Mechanical properties :
#
#
# Convention : Reuss Voigt Hill
#
# Bulk Modulus (GPa) = 139.22434 55.22642 97.22538
# Shear Modulus (GPa) = 97.02032 26.16860 61.59446
#
# Velocity S-wave (km/s) = 6.61599 3.43601 5.27150
# Velocity P-wave (km/s) = 11.00790 6.37631 8.99531
#
# Compressibility (1/GPa) = 0.00718265
#
# Stress axis : x y z
#
# Youngs Moduli (GPa) = 98.11331 277.65177 81.61944
#
# Poissons Ratio (x) = -0.09124 -0.27215
# Poissons Ratio (y) = -0.03224 1.06877
# Poissons Ratio (z) = -0.32715 3.63574
#
# Static dielectric constant tensor:
#      x y z
#    x 1.886780 -0.093380 -0.065170 
#    y -0.093380 2.083980 0.080180 
#    z -0.065170 0.080180 1.844340 
# 
# From -- ./inp_files/426323.got.cif
#   From: 2010.05.17/outbox.cif.g08.bks.cpg/sg2_214_cif.got.tgz:426323.got - 2010.06.03 11:33:40.
