data_PCOD9009142
_publ_section_title
;
Structure prediction by ZEFSAII (Michael W. Deem and Ramdas Pophale) SiO2 
 PCOD9009142
Probable space group: P -1
;
_chemical_formula_sum "Si O2"
_cell_formula_units_Z 16
_cell_length_a 8.050702
_cell_length_b 9.074250
_cell_length_c 12.672682
_cell_angle_alpha 81.810006
_cell_angle_beta 57.785018
_cell_angle_gamma 108.446538
_cell_volume 684.917916
_symmetry_space_group_name_H-M "P -1"
_symmetry_group_IT_number 2
_symmetry_cell_setting 'triclinic'
loop_
_space_group_symop_operation_xyz
x,y,z
-x,-y,-z
loop_
_atom_site_type_symbol
_atom_site_label
_atom_site_fract_x
_atom_site_fract_y
_atom_site_fract_z
Si Si1 0.555420 0.783856 0.238470
Si Si2 0.263887 0.962363 0.688521
Si Si3 0.672199 0.435590 0.984334
Si Si4 0.597094 0.093437 0.066627
Si Si5 0.693509 0.923240 0.566073
Si Si6 0.057803 0.257010 0.000595
Si Si7 0.028112 0.250790 0.518499
Si Si8 0.107478 0.539517 0.317796
O O1 0.334714 0.619787 0.301478
O O2 0.613815 0.843393 0.331952
O O3 0.529587 0.939234 0.183214
O O4 0.756852 0.780346 0.109432
O O5 0.437605 0.886483 0.650201
O O6 0.057836 0.857997 0.845780
O O7 0.206853 0.975832 0.587130
O O8 0.822538 0.553454 0.015240
O O9 0.820761 0.448654 0.829137
O O10 0.500000 0.500000 0.000000
O O11 0.531108 0.241290 0.086802
O O12 0.862407 0.202599 0.986505
O O13 0.500000 0.000000 0.000000
O O14 0.748322 0.767598 0.566602
O O15 0.835365 0.057837 0.594207
O O16 0.987927 0.353322 0.425783
O O17 0.010125 0.348120 0.618838
#
# Coordination Sequence:
#
# PCOD9009142 Si02
#       8
#     2   2   2   2   2   2   2   2
#     4  11  22  43  64  94 133 173 212 260 328 394
#     4  10  21  39  67  91 131 166 212 273 318 384
#     4  12  24  42  64  98 134 175 214 265 323 385
#     4  11  22  40  64  92 128 173 217 254 315 391
#     4  10  21  42  66  93 119 166 226 263 326 375
#     4  11  24  42  65  99 137 171 212 266 325 388
#     4  10  23  41  66  91 121 170 217 275 317 380
#     4  11  22  41  64  90 134 166 215 269 326 376
#
# _framework density 23.360464
#
# number of rings (size 3 to 8) (size 9 to 14) (size 15 to 20)
#    0.000    1.250    3.750    2.625    0.000    4.000 
#    4.500    0.625    0.000    0.000    0.000    0.000 
#    0.000    0.000    0.000    0.000    0.000    0.000 
#
# Total GULP energy -89371.506014 kJ/mol
# GULP energy per Si atom -5585.719126 kJ/mol
# Density = 2.330729 g / cm^3
# Si number density = 23.360464 Si / 1000 Ang^3
#
#
#
# Elastic Constant Matrix: (Units=GPa)
#
#
# Indices 1 2 3 4 5 6 
#
# 1 72.3506 42.7049 17.6586 17.4077 -6.1611 1.0091
# 2 42.7049 147.3169 25.2482 24.5373 -0.8007 2.3151
# 3 17.6586 25.2482 73.6554 33.6001 -10.5046 -10.0381
# 4 17.4077 24.5373 33.6001 38.6965 -1.9852 -5.5040
# 5 -6.1611 -0.8007 -10.5046 -1.9852 29.0479 6.1037
# 6 1.0091 2.3151 -10.0381 -5.5040 6.1037 47.9668
#
#
#
# Elastic Compliance Matrix: (Units=1/GPa)
#
#
# Indices 1 2 3 4 5 6 
#
# 1 0.017957 -0.004270 -0.000094 -0.005284 0.003559 -0.001250
# 2 -0.004270 0.008675 -0.000810 -0.003031 -0.001016 -0.000717
# 3 -0.000094 -0.000810 0.024157 -0.019788 0.006933 0.001944
# 4 -0.005284 -0.003031 -0.019788 0.047357 -0.005599 0.002263
# 5 0.003559 -0.001016 0.006933 -0.005599 0.038132 -0.004070
# 6 -0.001250 -0.000717 0.001944 0.002263 -0.004070 0.022093
#
#
# Mechanical properties :
#
#
# Convention : Reuss Voigt Hill
#
# Bulk Modulus (GPa) = 24.72700 51.61623 38.17162
# Shear Modulus (GPa) = 27.44229 36.98967 32.21598
#
# Velocity S-wave (km/s) = 3.43116 3.98355 3.71763
# Velocity P-wave (km/s) = 5.12885 6.58041 5.89944
#
# Compressibility (1/GPa) = 0.04044162
#
# Stress axis : x y z
#
# Youngs Moduli (GPa) = 55.68921 115.26926 41.39526
#
# Poissons Ratio (x) = 0.49222 0.00388
# Poissons Ratio (y) = 0.23780 0.03353
# Poissons Ratio (z) = 0.00522 0.09338
#
# Static dielectric constant tensor:
#      x y z
#    x 1.943120 0.048040 -0.016390 
#    y 0.048040 1.959490 0.031170 
#    z -0.016390 0.031170 1.910640 
# 
# From -- ./inp_files/492890.got.cif
#   From: 2010.05.17/outbox.cif.g08.bks.cpg/sg2_247_cif.got.tgz:492890.got - 2010.06.03 11:33:40.
