data_PCOD9009048
_publ_section_title
;
Structure prediction by ZEFSAII (Michael W. Deem and Ramdas Pophale) SiO2 
 PCOD9009048
Probable space group: P -1
;
_chemical_formula_sum "Si O2"
_cell_formula_units_Z 14
_cell_length_a 15.039970
_cell_length_b 8.795798
_cell_length_c 5.313039
_cell_angle_alpha 120.715810
_cell_angle_beta 75.784324
_cell_angle_gamma 82.891796
_cell_volume 558.953379
_symmetry_space_group_name_H-M "P -1"
_symmetry_group_IT_number 2
_symmetry_cell_setting 'triclinic'
loop_
_space_group_symop_operation_xyz
x,y,z
-x,-y,-z
loop_
_atom_site_type_symbol
_atom_site_label
_atom_site_fract_x
_atom_site_fract_y
_atom_site_fract_z
Si Si1 0.448457 0.245274 0.388799
Si Si2 0.194988 0.231502 0.850393
Si Si3 0.366042 0.022808 0.863771
Si Si4 0.759217 0.115629 0.806423
Si Si5 0.419805 0.607538 0.954958
Si Si6 0.901780 0.357344 0.926162
Si Si7 0.986541 0.796147 0.789396
O O1 0.388532 0.441939 0.705840
O O2 0.519907 0.300733 0.190535
O O3 0.389271 0.136086 0.182488
O O4 0.529691 0.113086 0.401546
O O5 0.158212 0.435068 0.932495
O O6 0.122103 0.207978 0.099031
O O7 0.303789 0.167221 0.828304
O O8 0.191244 0.080527 0.517555
O O9 0.297453 0.909375 0.925605
O O10 0.832554 0.229347 0.894983
O O11 0.676104 0.234131 0.773760
O O12 0.500000 0.500000 0.000000
O O13 0.042927 0.663396 0.864644
O O14 0.971675 0.275046 0.572453
O O15 0.000000 0.000000 0.000000
#
# Coordination Sequence:
#
# PCOD9009048 Si02
#       7
#     2   2   2   2   2   2   2
#     4   9  21  41  66  97 141 192 238 294 365 429
#     4  12  27  44  73 104 144 186 247 299 367 440
#     4  10  23  43  67 100 144 189 242 303 362 433
#     4  11  26  42  67 107 138 190 241 305 358 434
#     4  10  21  39  66  98 140 182 242 293 359 430
#     4  12  29  48  77 111 145 197 241 305 368 441
#     4  12  26  52  79 105 152 193 241 303 374 436
#
# _framework density 25.046813
#
# number of rings (size 3 to 8) (size 9 to 14) (size 15 to 20)
#    0.000    1.143    1.429    3.000    8.000    0.000 
#    0.000    4.286    0.000    0.000    0.000    0.000 
#    0.000    0.000    0.000    0.000    0.000    0.000 
#
# Total GULP energy -78451.431921 kJ/mol
# GULP energy per Si atom -5603.673709 kJ/mol
# Density = 2.498981 g / cm^3
# Si number density = 25.046813 Si / 1000 Ang^3
#
#
#
# Elastic Constant Matrix: (Units=GPa)
#
#
# Indices 1 2 3 4 5 6 
#
# 1 112.0335 47.3432 7.4347 1.5572 0.0684 -18.1630
# 2 47.3432 146.3062 43.4241 7.1871 -8.4525 -2.0813
# 3 7.4347 43.4241 81.6959 11.4949 -9.6364 2.6382
# 4 1.5572 7.1871 11.4949 49.7156 -2.4489 0.5749
# 5 0.0684 -8.4525 -9.6364 -2.4489 22.1666 1.0843
# 6 -18.1630 -2.0813 2.6382 0.5749 1.0843 58.0215
#
#
#
# Elastic Compliance Matrix: (Units=1/GPa)
#
#
# Indices 1 2 3 4 5 6 
#
# 1 0.011028 -0.003825 0.000777 -0.000076 -0.001325 0.003305
# 2 -0.003825 0.009490 -0.004454 -0.000130 0.001714 -0.000685
# 3 0.000777 -0.004454 0.015505 -0.002722 0.004772 -0.000684
# 4 -0.000076 -0.000130 -0.002722 0.020819 0.001074 -0.000131
# 5 -0.001325 0.001714 0.004772 0.001074 0.048036 -0.001479
# 6 0.003305 -0.000685 -0.000684 -0.000131 -0.001479 0.018305
#
#
# Mechanical properties :
#
#
# Convention : Reuss Voigt Hill
#
# Bulk Modulus (GPa) = 47.57258 59.60442 53.58850
# Shear Modulus (GPa) = 34.43647 42.10298 38.26972
#
# Velocity S-wave (km/s) = 3.71197 4.10441 3.91311
# Velocity P-wave (km/s) = 6.11607 6.80518 6.46981
#
# Compressibility (1/GPa) = 0.02102051
#
# Stress axis : x y z
#
# Youngs Moduli (GPa) = 90.67423 105.37080 64.49465
#
# Poissons Ratio (x) = 0.40306 -0.05013
# Poissons Ratio (y) = 0.34685 0.28724
# Poissons Ratio (z) = -0.07047 0.46929
#
# Static dielectric constant tensor:
#      x y z
#    x 2.025840 -0.067920 0.015240 
#    y -0.067920 2.020390 0.011480 
#    z 0.015240 0.011480 1.980030 
# 
# From -- ./inp_files/107476.got.cif
#   From: 2010.05.17/outbox.cif.g08.bks.cpg/sg2_54_cif.got.tgz:107476.got - 2010.06.03 11:33:40.
