data_PCOD9009289
_publ_section_title
;
Structure prediction by ZEFSAII (Michael W. Deem and Ramdas Pophale) SiO2 
 PCOD9009289
Probable space group: P -1
;
_chemical_formula_sum "Si O2"
_cell_formula_units_Z 16
_cell_length_a 17.545376
_cell_length_b 12.005965
_cell_length_c 11.614609
_cell_angle_alpha 139.176414
_cell_angle_beta 151.255116
_cell_angle_gamma 49.763051
_cell_volume 767.984933
_symmetry_space_group_name_H-M "P -1"
_symmetry_group_IT_number 2
_symmetry_cell_setting 'triclinic'
loop_
_space_group_symop_operation_xyz
x,y,z
-x,-y,-z
loop_
_atom_site_type_symbol
_atom_site_label
_atom_site_fract_x
_atom_site_fract_y
_atom_site_fract_z
Si Si1 0.167037 0.119207 0.664275
Si Si2 0.374873 0.259337 0.833856
Si Si3 0.272215 0.342038 0.195193
Si Si4 0.648514 0.005638 0.614079
Si Si5 0.379277 0.848342 0.759343
Si Si6 0.905551 0.904504 0.052813
Si Si7 0.821727 0.356139 0.819405
Si Si8 0.370477 0.609941 0.199756
O O1 0.250852 0.174524 0.697455
O O2 0.217876 0.936779 0.638813
O O3 0.239629 0.245312 0.955518
O O4 0.985287 0.069828 0.353939
O O5 0.368243 0.142696 0.620948
O O6 0.546507 0.242331 0.107109
O O7 0.356757 0.463183 0.968316
O O8 0.168542 0.506835 0.164201
O O9 0.454813 0.393948 0.511414
O O10 0.206192 0.213029 0.104169
O O11 0.500000 0.000000 0.500000
O O12 0.652234 0.195952 0.715812
O O13 0.805472 0.969580 0.865317
O O14 0.342678 0.742958 0.514093
O O15 0.500000 0.000000 0.000000
O O16 0.041747 0.776576 0.094561
O O17 0.774108 0.435636 0.939156
#
# Coordination Sequence:
#
# PCOD9009289 Si02
#       8
#     2   2   2   2   2   2   2   2
#     4  10  21  39  68 100 133 175 224 281 351 399
#     4  11  22  42  71 104 133 178 239 282 328 403
#     4  12  21  42  70 105 141 170 222 285 356 404
#     4  12  27  49  67  95 141 191 233 274 338 414
#     4   9  17  32  60  99 129 162 210 277 337 392
#     4  11  26  45  63  97 144 190 216 279 347 414
#     4  11  22  40  68 103 139 168 221 291 350 393
#     4  12  23  43  76 104 134 183 234 283 328 410
#
# _framework density 20.833742999999998
#
# number of rings (size 3 to 8) (size 9 to 14) (size 15 to 20)
#    0.000    1.000    3.750    5.625    0.000    2.500 
#    2.250    1.250    0.000    0.000    0.000    0.000 
#    0.000    0.000    0.000    0.000    0.000    0.000 
#
# Total GULP energy -89120.803982 kJ/mol
# GULP energy per Si atom -5570.050249 kJ/mol
# Density = 2.078632 g / cm^3
# Si number density = 20.833743 Si / 1000 Ang^3
#
#
#
# Elastic Constant Matrix: (Units=GPa)
#
#
# Indices 1 2 3 4 5 6 
#
# 1 72.9285 29.7075 27.5250 4.1664 -11.0040 -1.9362
# 2 29.7075 134.5785 52.4472 -6.9862 -18.5260 4.5786
# 3 27.5250 52.4472 72.1923 -5.3377 -19.6300 -9.4393
# 4 4.1664 -6.9862 -5.3377 39.3648 -4.7522 -4.4321
# 5 -11.0040 -18.5260 -19.6300 -4.7522 30.8310 3.2424
# 6 -1.9362 4.5786 -9.4393 -4.4321 3.2424 18.8284
#
#
#
# Elastic Compliance Matrix: (Units=1/GPa)
#
#
# Indices 1 2 3 4 5 6 
#
# 1 0.016644 -0.001532 -0.005238 -0.002734 0.001414 -0.001429
# 2 -0.001532 0.011485 -0.008116 0.000529 0.002031 -0.007244
# 3 -0.005238 -0.008116 0.026634 0.005503 0.009542 0.014440
# 4 -0.002734 0.000529 0.005503 0.028189 0.006362 0.007889
# 5 0.001414 0.002031 0.009542 0.006362 0.041340 -0.001187
# 6 -0.001429 -0.007244 0.014440 0.007889 -0.001187 0.064026
#
#
# Mechanical properties :
#
#
# Convention : Reuss Voigt Hill
#
# Bulk Modulus (GPa) = 40.01005 55.45096 47.73050
# Shear Modulus (GPa) = 22.08273 29.13948 25.61110
#
# Velocity S-wave (km/s) = 3.25922 3.74393 3.50995
# Velocity P-wave (km/s) = 5.78009 6.73521 6.27585
#
# Compressibility (1/GPa) = 0.02499372
#
# Stress axis : x y z
#
# Youngs Moduli (GPa) = 60.07996 87.07025 37.54548
#
# Poissons Ratio (x) = 0.13335 0.19666
# Poissons Ratio (y) = 0.09201 0.30471
# Poissons Ratio (z) = 0.31469 0.70663
#
# Static dielectric constant tensor:
#      x y z
#    x 1.867060 -0.146150 -0.041910 
#    y -0.146150 1.947660 0.108280 
#    z -0.041910 0.108280 1.856880 
# 
# From -- ./inp_files/464930.got.cif
#   From: 2010.05.17/outbox.cif.g08.bks.cpg/sg2_233_cif.got.tgz:464930.got - 2010.06.03 11:33:40.
