data_PCOD9009730
_publ_section_title
;
Structure prediction by ZEFSAII (Michael W. Deem and Ramdas Pophale) SiO2 
 PCOD9009730
Probable space group: P -1
;
_chemical_formula_sum "Si O2"
_cell_formula_units_Z 12
_cell_length_a 17.201012
_cell_length_b 9.105875
_cell_length_c 10.162522
_cell_angle_alpha 95.431994
_cell_angle_beta 119.890622
_cell_angle_gamma 137.994593
_cell_volume 552.340661
_symmetry_space_group_name_H-M "P -1"
_symmetry_group_IT_number 2
_symmetry_cell_setting 'triclinic'
loop_
_space_group_symop_operation_xyz
x,y,z
-x,-y,-z
loop_
_atom_site_type_symbol
_atom_site_label
_atom_site_fract_x
_atom_site_fract_y
_atom_site_fract_z
Si Si1 0.828775 0.353717 0.914424
Si Si2 0.740920 0.457682 0.363870
Si Si3 0.230917 0.696896 0.855049
Si Si4 0.517191 0.399353 0.109967
Si Si5 0.603365 0.729746 0.730789
Si Si6 0.940672 0.762367 0.848163
O O1 0.900627 0.509624 0.136102
O O2 0.000000 0.500000 0.000000
O O3 0.796224 0.441736 0.798013
O O4 0.625019 0.936661 0.737039
O O5 0.856452 0.519978 0.364734
O O6 0.709038 0.566111 0.272068
O O7 0.839946 0.630084 0.606419
O O8 0.482286 0.011808 0.123749
O O9 0.292718 0.959381 0.893164
O O10 0.541709 0.507345 0.282666
O O11 0.500000 0.500000 0.000000
O O12 0.500000 0.500000 0.500000
O O13 0.837904 0.001626 0.970905
O O14 0.000000 0.000000 0.000000
#
# Coordination Sequence:
#
# PCOD9009730 Si02
#       6
#     2   2   2   2   2   2
#     4   9  20  39  60  85 119 159 199 243 298 350
#     4   9  19  38  59  86 119 151 200 242 294 351
#     4   8  18  38  62  82 119 153 203 238 297 360
#     4   9  18  35  57  83 113 151 195 234 294 348
#     4  10  21  40  58  85 120 157 197 242 293 359
#     4  11  23  38  58  92 121 155 201 249 295 349
#
# _framework density 21.725725000000001
#
# number of rings (size 3 to 8) (size 9 to 14) (size 15 to 20)
#    1.000    1.667    0.000    1.000    0.000    3.333 
#    0.000   15.833    0.000    0.000    0.000    0.000 
#    0.000    0.000    0.000    0.000    0.000    0.000 
#
# Total GULP energy -66844.698336 kJ/mol
# GULP energy per Si atom -5570.391528 kJ/mol
# Density = 2.167628 g / cm^3
# Si number density = 21.725725 Si / 1000 Ang^3
#
#
#
# Elastic Constant Matrix: (Units=GPa)
#
#
# Indices 1 2 3 4 5 6 
#
# 1 119.8862 39.2375 46.8461 -24.6763 -39.0709 4.2985
# 2 39.2375 103.8428 48.5251 -45.7854 -21.3555 -16.5537
# 3 46.8461 48.5251 102.8815 -28.1065 -29.7564 -10.3115
# 4 -24.6763 -45.7854 -28.1065 30.9399 13.0347 4.0772
# 5 -39.0709 -21.3555 -29.7564 13.0347 46.2815 -7.5784
# 6 4.2985 -16.5537 -10.3115 4.0772 -7.5784 35.8425
#
#
#
# Elastic Compliance Matrix: (Units=1/GPa)
#
#
# Indices 1 2 3 4 5 6 
#
# 1 0.012864 -0.000458 -0.002352 0.004378 0.007690 -0.001303
# 2 -0.000458 0.031024 -0.001083 0.041970 0.003040 0.009940
# 3 -0.002352 -0.001083 0.015617 0.007458 0.006232 0.004744
# 4 0.004378 0.041970 0.007458 0.103355 0.000272 0.009305
# 5 0.007690 0.003040 0.006232 0.000272 0.035011 0.009646
# 6 -0.001303 0.009940 0.004744 0.009305 0.009646 0.034993
#
#
# Mechanical properties :
#
#
# Convention : Reuss Voigt Hill
#
# Bulk Modulus (GPa) = 19.33489 66.20311 42.76900
# Shear Modulus (GPa) = 19.38820 35.41290 27.40055
#
# Velocity S-wave (km/s) = 2.99056 4.04170 3.55519
# Velocity P-wave (km/s) = 4.56546 7.23318 6.04824
#
# Compressibility (1/GPa) = 0.05171999
#
# Stress axis : x y z
#
# Youngs Moduli (GPa) = 77.73543 32.23349 64.03244
#
# Poissons Ratio (x) = 0.01475 0.15061
# Poissons Ratio (y) = 0.03557 0.06934
# Poissons Ratio (z) = 0.18284 0.03490
#
# Static dielectric constant tensor:
#      x y z
#    x 1.839430 0.041680 0.003500 
#    y 0.041680 1.842880 0.044100 
#    z 0.003500 0.044100 1.843490 
# 
# From -- ./inp_files/327620.got.cif
#   From: 2010.05.17/outbox.cif.g08.bks.cpg/sg2_164_cif.got.tgz:327620.got - 2010.06.03 11:33:40.
