data_PCOD9009741
_publ_section_title
;
Structure prediction by ZEFSAII (Michael W. Deem and Ramdas Pophale) SiO2 
 PCOD9009741
Probable space group: P -1
;
_chemical_formula_sum "Si O2"
_cell_formula_units_Z 14
_cell_length_a 7.104401
_cell_length_b 8.074648
_cell_length_c 12.118052
_cell_angle_alpha 116.592945
_cell_angle_beta 65.613518
_cell_angle_gamma 110.174409
_cell_volume 555.117420
_symmetry_space_group_name_H-M "P -1"
_symmetry_group_IT_number 2
_symmetry_cell_setting 'triclinic'
loop_
_space_group_symop_operation_xyz
x,y,z
-x,-y,-z
loop_
_atom_site_type_symbol
_atom_site_label
_atom_site_fract_x
_atom_site_fract_y
_atom_site_fract_z
Si Si1 0.142783 0.411280 0.776631
Si Si2 0.786324 0.154269 0.911723
Si Si3 0.288633 0.123329 0.982248
Si Si4 0.140536 0.437116 0.265272
Si Si5 0.446183 0.395642 0.864969
Si Si6 0.296253 0.064976 0.522309
Si Si7 0.135854 0.164851 0.372888
O O1 0.323519 0.510545 0.845891
O O2 0.238617 0.236368 0.657815
O O3 0.936520 0.338045 0.880021
O O4 0.071243 0.515468 0.719602
O O5 0.816706 0.083794 0.008762
O O6 0.840982 0.989922 0.770582
O O7 0.538507 0.143373 0.951061
O O8 0.196578 0.271825 0.123897
O O9 0.295956 0.197566 0.876794
O O10 0.333090 0.612754 0.248005
O O11 0.147343 0.360118 0.363796
O O12 0.500000 0.500000 0.000000
O O13 0.305882 0.143108 0.418377
O O14 0.500000 0.000000 0.500000
O O15 0.092647 0.895697 0.532997
#
# Coordination Sequence:
#
# PCOD9009741 Si02
#       7
#     2   2   2   2   2   2   2
#     4  11  23  37  63  90 121 163 206 249 302 365
#     4   9  18  36  60  90 118 160 205 241 299 353
#     4   9  18  35  59  85 122 161 196 242 295 351
#     4  10  21  40  58  90 125 159 199 242 306 363
#     4  10  22  37  57  86 125 168 194 247 296 353
#     4  10  23  41  64  92 115 154 207 257 304 356
#     4   9  21  41  65  85 123 158 194 258 304 354
#
# _framework density 25.219887
#
# number of rings (size 3 to 8) (size 9 to 14) (size 15 to 20)
#    0.000    2.286    1.429    0.000    2.000    5.714 
#    0.000    1.429    0.000    0.000    0.000    0.000 
#    0.000    0.000    0.000    0.000    0.000    0.000 
#
# Total GULP energy -78247.899390 kJ/mol
# GULP energy per Si atom -5589.135671 kJ/mol
# Density = 2.516249 g / cm^3
# Si number density = 25.219887 Si / 1000 Ang^3
#
#
#
# Elastic Constant Matrix: (Units=GPa)
#
#
# Indices 1 2 3 4 5 6 
#
# 1 143.2387 36.2453 38.0402 -19.9330 9.9519 -41.1260
# 2 36.2453 92.3236 42.2237 -44.1046 6.5905 -31.5606
# 3 38.0402 42.2237 83.8318 -20.9539 11.3301 -18.2070
# 4 -19.9330 -44.1046 -20.9539 45.2843 -23.6017 12.8128
# 5 9.9519 6.5905 11.3301 -23.6017 37.4176 -0.8269
# 6 -41.1260 -31.5606 -18.2070 12.8128 -0.8269 47.3569
#
#
#
# Elastic Compliance Matrix: (Units=1/GPa)
#
#
# Indices 1 2 3 4 5 6 
#
# 1 0.009997 0.000286 -0.002693 0.000544 -0.001381 0.007665
# 2 0.000286 0.034778 -0.008768 0.037723 0.020474 0.010206
# 3 -0.002693 -0.008768 0.017079 -0.004805 -0.005951 -0.000419
# 4 0.000544 0.037723 -0.004805 0.079283 0.044744 0.003096
# 5 -0.001381 0.020474 -0.005951 0.044744 0.053489 -0.001015
# 6 0.007665 0.010206 -0.000419 0.003096 -0.001015 0.033558
#
#
# Mechanical properties :
#
#
# Convention : Reuss Voigt Hill
#
# Bulk Modulus (GPa) = 25.31416 61.37915 43.34665
# Shear Modulus (GPa) = 18.96091 39.53739 29.24915
#
# Velocity S-wave (km/s) = 2.74491 3.96372 3.40923
# Velocity P-wave (km/s) = 4.48389 6.73339 5.72031
#
# Compressibility (1/GPa) = 0.03950358
#
# Stress axis : x y z
#
# Youngs Moduli (GPa) = 100.03389 28.75418 58.55225
#
# Poissons Ratio (x) = -0.00821 0.15766
# Poissons Ratio (y) = -0.02857 0.51336
# Poissons Ratio (z) = 0.26935 0.25211
#
# Static dielectric constant tensor:
#      x y z
#    x 2.020000 -0.001940 0.045710 
#    y -0.001940 2.150200 -0.023170 
#    z 0.045710 -0.023170 2.012710 
# 
# From -- ./inp_files/360819.got.cif
#   From: 2010.05.17/outbox.cif.g08.bks.cpg/sg2_181_cif.got.tgz:360819.got - 2010.06.03 11:33:40.
