data_PCOD9009110
_publ_section_title
;
Structure prediction by ZEFSAII (Michael W. Deem and Ramdas Pophale) SiO2 
 PCOD9009110
Probable space group: P -1
;
_chemical_formula_sum "Si O2"
_cell_formula_units_Z 16
_cell_length_a 8.224785
_cell_length_b 11.700634
_cell_length_c 15.199493
_cell_angle_alpha 50.655868
_cell_angle_beta 114.738728
_cell_angle_gamma 74.923943
_cell_volume 681.826841
_symmetry_space_group_name_H-M "P -1"
_symmetry_group_IT_number 2
_symmetry_cell_setting 'triclinic'
loop_
_space_group_symop_operation_xyz
x,y,z
-x,-y,-z
loop_
_atom_site_type_symbol
_atom_site_label
_atom_site_fract_x
_atom_site_fract_y
_atom_site_fract_z
Si Si1 0.960978 0.905249 0.961693
Si Si2 0.306882 0.281506 0.207941
Si Si3 0.701134 0.282335 0.212913
Si Si4 0.792755 0.549048 0.709773
Si Si5 0.935523 0.390826 0.486424
Si Si6 0.475069 0.120804 0.651700
Si Si7 0.905517 0.012914 0.227130
Si Si8 0.698216 0.575650 0.169910
O O1 0.154434 0.648327 0.150008
O O2 0.009138 0.938328 0.858666
O O3 0.653420 0.039946 0.817075
O O4 0.000000 0.000000 0.000000
O O5 0.520091 0.268106 0.223956
O O6 0.313521 0.292915 0.308504
O O7 0.376296 0.080563 0.282341
O O8 0.000000 0.500000 0.000000
O O9 0.921591 0.077837 0.295979
O O10 0.787711 0.357031 0.263326
O O11 0.500000 0.500000 0.000000
O O12 0.604824 0.684517 0.516322
O O13 0.077720 0.445298 0.797737
O O14 0.199480 0.211473 0.572248
O O15 0.000000 0.500000 0.500000
O O16 0.690036 0.567763 0.277588
O O17 0.936840 0.239467 0.615356
O O18 0.583597 0.197203 0.046050
#
# Coordination Sequence:
#
# PCOD9009110 Si02
#       8
#     2   2   2   2   2   2   2   2
#     4  12  29  45  71  99 139 189 234 287 348 413
#     4  12  21  41  74 104 146 180 223 285 353 420
#     4  10  21  39  67 104 136 171 230 278 342 411
#     4  11  24  45  69 102 142 185 227 283 356 406
#     4  11  26  47  71 100 136 188 235 283 338 408
#     4  11  26  47  69 104 138 182 233 285 349 419
#     4  11  24  45  68 102 134 178 230 287 346 401
#     4  10  24  42  73 102 137 181 228 285 343 411
#
# _framework density 23.466366000000001
#
# number of rings (size 3 to 8) (size 9 to 14) (size 15 to 20)
#    0.000    1.000    2.500    4.125    7.000    3.500 
#    0.000    0.000    0.000    0.000    0.000    0.000 
#    0.000    0.000    0.000    0.000    0.000    0.000 
#
# Total GULP energy -89530.134431 kJ/mol
# GULP energy per Si atom -5595.633402 kJ/mol
# Density = 2.341296 g / cm^3
# Si number density = 23.466366 Si / 1000 Ang^3
#
#
#
# Elastic Constant Matrix: (Units=GPa)
#
#
# Indices 1 2 3 4 5 6 
#
# 1 69.4147 9.9884 12.7879 -7.1074 -26.2200 -0.6303
# 2 9.9884 102.4816 25.5581 2.8300 -3.6774 27.4809
# 3 12.7879 25.5581 76.9740 10.7121 -22.6397 6.5895
# 4 -7.1074 2.8300 10.7121 25.5091 4.8726 3.7204
# 5 -26.2200 -3.6774 -22.6397 4.8726 39.4680 -5.1585
# 6 -0.6303 27.4809 6.5895 3.7204 -5.1585 32.5571
#
#
#
# Elastic Compliance Matrix: (Units=1/GPa)
#
#
# Indices 1 2 3 4 5 6 
#
# 1 0.020258 -0.003085 0.001128 0.002108 0.014182 0.004774
# 2 -0.003085 0.014402 -0.005239 0.002624 -0.005651 -0.012351
# 3 0.001128 -0.005239 0.019570 -0.010407 0.013265 0.003774
# 4 0.002108 0.002624 -0.010407 0.047033 -0.011072 -0.007196
# 5 0.014182 -0.005651 0.013265 -0.011072 0.044606 0.010693
# 6 0.004774 -0.012351 0.003774 -0.007196 0.010693 0.042985
#
#
# Mechanical properties :
#
#
# Convention : Reuss Voigt Hill
#
# Bulk Modulus (GPa) = 25.10211 38.39322 31.74766
# Shear Modulus (GPa) = 23.09180 32.87591 27.98385
#
# Velocity S-wave (km/s) = 3.14034 3.74703 3.45702
# Velocity P-wave (km/s) = 4.88562 5.92594 5.43075
#
# Compressibility (1/GPa) = 0.03983729
#
# Stress axis : x y z
#
# Youngs Moduli (GPa) = 49.36228 69.43516 51.09735
#
# Poissons Ratio (x) = 0.21423 -0.05764
# Poissons Ratio (y) = 0.15230 0.26772
# Poissons Ratio (z) = -0.05568 0.36380
#
# Static dielectric constant tensor:
#      x y z
#    x 1.965280 -0.016850 0.022130 
#    y -0.016850 1.905600 -0.008530 
#    z 0.022130 -0.008530 1.939080 
# 
# From -- ./inp_files/500065.got.cif
#   From: 2010.05.17/outbox.cif.g08.bks.cpg/sg2_251_cif.got.tgz:500065.got - 2010.06.03 11:33:40.
