data_PCOD9009022
_publ_section_title
;
Structure prediction by ZEFSAII (Michael W. Deem and Ramdas Pophale) SiO2 
 PCOD9009022
Probable space group: P -1
;
_chemical_formula_sum "Si O2"
_cell_formula_units_Z 14
_cell_length_a 25.395894
_cell_length_b 6.449228
_cell_length_c 15.906984
_cell_angle_alpha 124.449051
_cell_angle_beta 15.562634
_cell_angle_gamma 123.014814
_cell_volume 576.401437
_symmetry_space_group_name_H-M "P -1"
_symmetry_group_IT_number 2
_symmetry_cell_setting 'triclinic'
loop_
_space_group_symop_operation_xyz
x,y,z
-x,-y,-z
loop_
_atom_site_type_symbol
_atom_site_label
_atom_site_fract_x
_atom_site_fract_y
_atom_site_fract_z
Si Si1 0.544468 0.771324 0.134102
Si Si2 0.223469 0.863894 0.875695
Si Si3 0.231117 0.446235 0.644129
Si Si4 0.017352 0.264592 0.491418
Si Si5 0.928048 0.256780 0.432527
Si Si6 0.481607 0.795469 0.607213
Si Si7 0.388297 0.907532 0.233714
O O1 0.368107 0.598487 0.402050
O O2 0.518240 0.060402 0.272118
O O3 0.524718 0.786360 0.067517
O O4 0.746833 0.681428 0.846977
O O5 0.267920 0.589799 0.708474
O O6 0.284005 0.876064 0.881451
O O7 0.351825 0.060368 0.669755
O O8 0.009007 0.978361 0.225070
O O9 0.285887 0.154580 0.488113
O O10 0.000000 0.500000 0.000000
O O11 0.930394 0.498453 0.732487
O O12 0.915362 0.254733 0.554506
O O13 0.000000 0.000000 0.500000
O O14 0.767465 0.281575 0.612039
O O15 0.500000 0.500000 0.500000
O O16 0.500000 0.000000 0.000000
#
# Coordination Sequence:
#
# PCOD9009022 Si02
#       7
#     2   2   2   2   2   2   2
#     4  11  25  44  69 104 136 180 240 279 342 425
#     4  10  21  41  66  98 132 175 225 284 342 408
#     4  11  24  46  71 100 146 183 229 288 350 414
#     4  11  25  44  68  99 134 183 233 288 342 412
#     4  11  24  43  66  96 136 174 232 283 341 412
#     4  10  21  39  66  97 131 173 222 284 345 403
#     4  12  26  46  71 101 141 189 228 287 352 407
#
# _framework density 24.288627000000002
#
# number of rings (size 3 to 8) (size 9 to 14) (size 15 to 20)
#    0.000    1.143    2.857    2.571    2.000    5.143 
#    2.571    0.000    0.000    0.000    0.000    0.000 
#    0.000    0.000    0.000    0.000    0.000    0.000 
#
# Total GULP energy -78086.222934 kJ/mol
# GULP energy per Si atom -5577.587352 kJ/mol
# Density = 2.423335 g / cm^3
# Si number density = 24.288627 Si / 1000 Ang^3
#
#
#
# Elastic Constant Matrix: (Units=GPa)
#
#
# Indices 1 2 3 4 5 6 
#
# 1 200.9505 50.5876 34.6157 9.2074 -11.7316 0.6566
# 2 50.5876 126.6699 7.2606 28.5619 -1.1717 33.0404
# 3 34.6157 7.2606 68.5091 6.0401 -12.4036 -5.8011
# 4 9.2074 28.5619 6.0401 39.1179 2.2723 2.3750
# 5 -11.7316 -1.1717 -12.4036 2.2723 30.1954 13.0215
# 6 0.6566 33.0404 -5.8011 2.3750 13.0215 33.9167
#
#
#
# Elastic Compliance Matrix: (Units=1/GPa)
#
#
# Indices 1 2 3 4 5 6 
#
# 1 0.006189 -0.003224 -0.002673 0.001158 0.000028 0.002472
# 2 -0.003224 0.016381 0.000811 -0.010708 0.008381 -0.018225
# 3 -0.002673 0.000811 0.017268 -0.002996 0.006311 0.000002
# 4 0.001158 -0.010708 -0.002996 0.033403 -0.008351 0.010763
# 5 0.000028 0.008381 0.006311 -0.008351 0.047311 -0.024665
# 6 0.002472 -0.018225 0.000002 0.010763 -0.024665 0.055906
#
#
# Mechanical properties :
#
#
# Convention : Reuss Voigt Hill
#
# Bulk Modulus (GPa) = 33.70812 64.56192 49.13502
# Shear Modulus (GPa) = 25.44263 40.89040 33.16651
#
# Velocity S-wave (km/s) = 3.24004 4.10752 3.69930
# Velocity P-wave (km/s) = 5.28256 7.00960 6.20645
#
# Compressibility (1/GPa) = 0.02966644
#
# Stress axis : x y z
#
# Youngs Moduli (GPa) = 161.57791 61.04515 57.90994
#
# Poissons Ratio (x) = 0.19682 0.15480
# Poissons Ratio (y) = 0.52095 -0.04698
# Poissons Ratio (z) = 0.43192 -0.04952
#
# Static dielectric constant tensor:
#      x y z
#    x 1.929500 0.011460 -0.053450 
#    y 0.011460 2.023260 -0.003530 
#    z -0.053450 -0.003530 2.207980 
# 
# From -- ./inp_files/72078.got.cif
#   From: 2010.05.17/outbox.cif.g08.bks.cpg/sg2_37_cif.got.tgz:72078.got - 2010.06.03 11:33:40.
