data_PCOD9009786
_publ_section_title
;
Structure prediction by ZEFSAII (Michael W. Deem and Ramdas Pophale) SiO2 
 PCOD9009786
Probable space group: P -1
;
_chemical_formula_sum "Si O2"
_cell_formula_units_Z 16
_cell_length_a 13.828982
_cell_length_b 12.932667
_cell_length_c 14.011416
_cell_angle_alpha 136.333201
_cell_angle_beta 30.087149
_cell_angle_gamma 146.630512
_cell_volume 690.974556
_symmetry_space_group_name_H-M "P -1"
_symmetry_group_IT_number 2
_symmetry_cell_setting 'triclinic'
loop_
_space_group_symop_operation_xyz
x,y,z
-x,-y,-z
loop_
_atom_site_type_symbol
_atom_site_label
_atom_site_fract_x
_atom_site_fract_y
_atom_site_fract_z
Si Si1 0.547563 0.252088 0.435751
Si Si2 0.931974 0.413325 0.775625
Si Si3 0.396949 0.254141 0.354442
Si Si4 0.089116 0.974770 0.755522
Si Si5 0.161376 0.687507 0.427459
Si Si6 0.299276 0.007093 0.804012
Si Si7 0.137013 0.885454 0.228547
Si Si8 0.892925 0.594427 0.097027
O O1 0.776224 0.467477 0.399066
O O2 0.479603 0.219171 0.360346
O O3 0.308618 0.168872 0.647482
O O4 0.644469 0.134680 0.305700
O O5 0.816184 0.231767 0.819623
O O6 0.834244 0.356804 0.715926
O O7 0.893290 0.550109 0.957012
O O8 0.130998 0.191175 0.559941
O O9 0.612638 0.468805 0.285657
O O10 0.338169 0.103884 0.222835
O O11 0.064076 0.812787 0.605064
O O12 0.171119 0.952083 0.774078
O O13 0.859118 0.969577 0.971627
O O14 0.432951 0.802212 0.310677
O O15 0.000000 0.500000 0.500000
O O16 0.076012 0.806037 0.120160
O O17 0.000000 0.500000 0.000000
#
# Coordination Sequence:
#
# PCOD9009786 Si02
#       8
#     2   2   2   2   2   2   2   2
#     4  11  21  40  64  92 125 169 210 265 321 377
#     4  11  23  41  60  91 125 168 214 259 327 381
#     4  11  22  41  63  91 129 170 215 268 326 376
#     4  10  22  42  65  93 126 165 211 260 324 383
#     4  11  22  42  68  94 130 164 206 267 319 381
#     4  10  22  42  65  93 126 163 214 262 320 388
#     4  10  22  40  63  90 127 171 217 267 321 383
#     4  10  21  40  59  88 127 165 214 267 312 384
#
# _framework density 23.155701000000001
#
# number of rings (size 3 to 8) (size 9 to 14) (size 15 to 20)
#    0.000    1.500    2.500    4.875    0.000    3.500 
#   11.250    0.000    0.000    0.000    0.000    0.000 
#    0.000    0.000    0.000    0.000    0.000    0.000 
#
# Total GULP energy -89463.718519 kJ/mol
# GULP energy per Si atom -5591.482407 kJ/mol
# Density = 2.310300 g / cm^3
# Si number density = 23.155701 Si / 1000 Ang^3
#
#
#
# Elastic Constant Matrix: (Units=GPa)
#
#
# Indices 1 2 3 4 5 6 
#
# 1 76.9186 6.0760 4.8105 12.8410 10.2496 -1.9831
# 2 6.0760 64.2566 -2.5864 -0.2848 3.4374 5.1716
# 3 4.8105 -2.5864 100.2279 -12.3248 4.5152 -6.2780
# 4 12.8410 -0.2848 -12.3248 39.9863 16.6335 12.8243
# 5 10.2496 3.4374 4.5152 16.6335 38.6938 1.2689
# 6 -1.9831 5.1716 -6.2780 12.8243 1.2689 20.2820
#
#
#
# Elastic Compliance Matrix: (Units=1/GPa)
#
#
# Indices 1 2 3 4 5 6 
#
# 1 0.014575 -0.001860 -0.001143 -0.006471 -0.000967 0.005698
# 2 -0.001860 0.016459 0.000728 0.004151 -0.002622 -0.006614
# 3 -0.001143 0.000728 0.010814 0.004998 -0.003175 0.000088
# 4 -0.006471 0.004151 0.004998 0.044730 -0.017570 -0.027327
# 5 -0.000967 -0.002622 -0.003175 -0.017570 0.033975 0.008575
# 6 0.005698 -0.006614 0.000088 -0.027327 0.008575 0.068318
#
#
# Mechanical properties :
#
#
# Convention : Reuss Voigt Hill
#
# Bulk Modulus (GPa) = 26.81007 28.66704 27.73855
# Shear Modulus (GPa) = 24.28920 35.33261 29.81090
#
# Velocity S-wave (km/s) = 3.24227 3.91048 3.59194
# Velocity P-wave (km/s) = 5.06159 5.72679 5.40443
#
# Compressibility (1/GPa) = 0.03729942
#
# Stress axis : x y z
#
# Youngs Moduli (GPa) = 68.60957 60.75811 92.47233
#
# Poissons Ratio (x) = 0.11299 0.10568
# Poissons Ratio (y) = 0.12759 -0.06734
# Poissons Ratio (z) = 0.07841 -0.04425
#
# Static dielectric constant tensor:
#      x y z
#    x 1.843290 -0.025870 -0.022320 
#    y -0.025870 1.904410 0.045880 
#    z -0.022320 0.045880 1.957610 
# 
# From -- ./inp_files/534406.got.cif
#   From: 2010.05.17/outbox.cif.g08.bks.cpg/sg2_268_cif.got.tgz:534406.got - 2010.06.03 11:33:40.
