data_PCOD9009921
_publ_section_title
;
Structure prediction by ZEFSAII (Michael W. Deem and Ramdas Pophale) SiO2 
 PCOD9009921
Probable space group: P -1
;
_chemical_formula_sum "Si O2"
_cell_formula_units_Z 16
_cell_length_a 5.351253
_cell_length_b 15.877512
_cell_length_c 21.744315
_cell_angle_alpha 25.142380
_cell_angle_beta 100.859971
_cell_angle_gamma 114.001223
_cell_volume 635.486612
_symmetry_space_group_name_H-M "P -1"
_symmetry_group_IT_number 2
_symmetry_cell_setting 'triclinic'
loop_
_space_group_symop_operation_xyz
x,y,z
-x,-y,-z
loop_
_atom_site_type_symbol
_atom_site_label
_atom_site_fract_x
_atom_site_fract_y
_atom_site_fract_z
Si Si1 0.334206 0.849661 0.386972
Si Si2 0.289277 0.175742 0.252291
Si Si3 0.706008 0.513573 0.858683
Si Si4 0.141979 0.343471 0.603160
Si Si5 0.076728 0.791385 0.893167
Si Si6 0.927086 0.883202 0.959314
Si Si7 0.819417 0.718558 0.609810
Si Si8 0.884075 0.522964 0.280003
O O1 0.199175 0.588404 0.581891
O O2 0.054372 0.825260 0.352546
O O3 0.438671 0.044754 0.317136
O O4 0.614241 0.962092 0.279178
O O5 0.440550 0.381940 0.174097
O O6 0.179962 0.254895 0.136768
O O7 0.996896 0.957803 0.420040
O O8 0.928726 0.714296 0.686458
O O9 0.868777 0.420416 0.968618
O O10 0.440587 0.279994 0.962840
O O11 0.500000 0.500000 0.500000
O O12 0.000000 0.500000 0.500000
O O13 0.065501 0.162742 0.775290
O O14 0.045507 0.823977 0.942480
O O15 0.999382 0.787649 0.086781
O O16 0.466716 0.631683 0.660623
O O17 0.885694 0.542932 0.692030
#
# Coordination Sequence:
#
# PCOD9009921 Si02
#       8
#     2   2   2   2   2   2   2   2
#     4  11  24  44  67  99 136 175 227 275 340 395
#     4  11  23  38  62  98 140 184 227 273 324 395
#     4  11  23  38  62  98 140 184 227 273 324 395
#     4  12  27  46  76 100 131 171 220 281 352 410
#     4  12  20  40  63  94 138 173 228 275 331 384
#     4  11  24  44  67  99 136 175 227 275 340 395
#     4  10  21  40  60  97 139 190 227 261 324 388
#     4  10  22  42  71  93 135 182 219 277 327 394
#
# _framework density 25.177558000000001
#
# number of rings (size 3 to 8) (size 9 to 14) (size 15 to 20)
#    0.000    1.000    5.000    1.500    0.000    3.000 
#    0.000    4.375    0.000    0.000    0.000    0.000 
#    0.000    0.000    0.000    0.000    0.000    0.000 
#
# Total GULP energy -89407.885464 kJ/mol
# GULP energy per Si atom -5587.992842 kJ/mol
# Density = 2.512025 g / cm^3
# Si number density = 25.177558 Si / 1000 Ang^3
#
#
#
# Elastic Constant Matrix: (Units=GPa)
#
#
# Indices 1 2 3 4 5 6 
#
# 1 86.1791 7.4037 23.4336 -1.8350 1.3797 -1.9004
# 2 7.4037 39.8346 22.2288 8.4360 2.6291 -7.3675
# 3 23.4336 22.2288 149.9364 51.5433 5.1095 -2.4384
# 4 -1.8350 8.4360 51.5433 49.6739 -6.4383 5.0124
# 5 1.3797 2.6291 5.1095 -6.4383 44.7565 3.7148
# 6 -1.9004 -7.3675 -2.4384 5.0124 3.7148 28.6268
#
#
#
# Elastic Compliance Matrix: (Units=1/GPa)
#
#
# Indices 1 2 3 4 5 6 
#
# 1 0.012693 -0.001632 -0.003254 0.004291 0.000752 -0.000703
# 2 -0.001632 0.029302 -0.002714 -0.003366 -0.002519 0.008118
# 3 -0.003254 -0.002714 0.012223 -0.013049 -0.003248 0.002833
# 4 0.004291 -0.003366 -0.013049 0.036287 0.007524 -0.009023
# 5 0.000752 -0.002519 -0.003248 0.007524 0.024365 -0.005354
# 6 -0.000703 0.008118 0.002833 -0.009023 -0.005354 0.039491
#
#
# Mechanical properties :
#
#
# Convention : Reuss Voigt Hill
#
# Bulk Modulus (GPa) = 25.62900 42.45360 34.04130
# Shear Modulus (GPa) = 27.38719 39.47037 33.42878
#
# Velocity S-wave (km/s) = 3.30170 3.96369 3.64774
# Velocity P-wave (km/s) = 4.97357 6.15192 5.59386
#
# Compressibility (1/GPa) = 0.03901829
#
# Stress axis : x y z
#
# Youngs Moduli (GPa) = 78.78662 34.12710 81.81248
#
# Poissons Ratio (x) = 0.05568 0.26621
# Poissons Ratio (y) = 0.12855 0.22206
# Poissons Ratio (z) = 0.25636 0.09263
#
# Static dielectric constant tensor:
#      x y z
#    x 2.004380 0.000720 0.027180 
#    y 0.000720 2.073050 -0.009280 
#    z 0.027180 -0.009280 2.060500 
# 
# From -- ./inp_files/604976.got.cif
#   From: 2010.05.17/outbox.cif.g08.bks.cpg/sg2_303_cif.got.tgz:604976.got - 2010.06.03 11:33:40.
