data_PCOD9009646
_publ_section_title
;
Structure prediction by ZEFSAII (Michael W. Deem and Ramdas Pophale) SiO2 
 PCOD9009646
Probable space group: P -1
;
_chemical_formula_sum "Si O2"
_cell_formula_units_Z 14
_cell_length_a 16.095958
_cell_length_b 7.642502
_cell_length_c 21.720123
_cell_angle_alpha 130.281424
_cell_angle_beta 23.400862
_cell_angle_gamma 143.145677
_cell_volume 591.650317
_symmetry_space_group_name_H-M "P -1"
_symmetry_group_IT_number 2
_symmetry_cell_setting 'triclinic'
loop_
_space_group_symop_operation_xyz
x,y,z
-x,-y,-z
loop_
_atom_site_type_symbol
_atom_site_label
_atom_site_fract_x
_atom_site_fract_y
_atom_site_fract_z
Si Si1 0.215325 0.925430 0.163765
Si Si2 0.335815 0.160554 0.005417
Si Si3 0.751453 0.682612 0.675664
Si Si4 0.282583 0.071325 0.800900
Si Si5 0.383057 0.067346 0.286883
Si Si6 0.266705 0.320543 0.744609
Si Si7 0.359333 0.725183 0.583452
O O1 0.947154 0.600359 0.303259
O O2 0.181491 0.918654 0.112702
O O3 0.252359 0.204187 0.229948
O O4 0.500000 0.000000 0.000000
O O5 0.500000 0.500000 0.000000
O O6 0.066983 0.993500 0.105232
O O7 0.549630 0.138694 0.825827
O O8 0.534166 0.311001 0.731988
O O9 0.642826 0.799066 0.727996
O O10 0.073302 0.858676 0.480464
O O11 0.370505 0.262819 0.721411
O O12 0.289387 0.813343 0.713853
O O13 0.000000 0.000000 0.000000
O O14 0.627534 0.348073 0.231244
O O15 0.429437 0.335800 0.578383
O O16 0.500000 0.000000 0.500000
#
# Coordination Sequence:
#
# PCOD9009646 Si02
#       7
#     2   2   2   2   2   2   2
#     4  12  24  44  71 100 132 175 235 277 328 407
#     4  12  29  42  68  99 141 179 219 284 344 400
#     4  10  21  39  71  99 125 170 232 272 330 389
#     4  10  22  37  68 102 131 170 225 284 323 397
#     4  10  21  44  67  94 131 178 216 280 334 401
#     4  10  23  44  63  93 138 181 218 269 353 396
#     4  10  23  41  70  99 133 177 222 282 330 401
#
# _framework density 23.662625999999999
#
# number of rings (size 3 to 8) (size 9 to 14) (size 15 to 20)
#    0.000    1.429    2.857    1.286   12.000    0.571 
#    0.000    0.714    0.000    0.000    0.000    0.000 
#    0.000    0.000    0.000    0.000    0.000    0.000 
#
# Total GULP energy -78161.492185 kJ/mol
# GULP energy per Si atom -5582.963728 kJ/mol
# Density = 2.360877 g / cm^3
# Si number density = 23.662626 Si / 1000 Ang^3
#
#
#
# Elastic Constant Matrix: (Units=GPa)
#
#
# Indices 1 2 3 4 5 6 
#
# 1 42.2446 5.6288 -3.3461 1.7347 13.4376 3.3018
# 2 5.6288 173.1835 55.9070 17.2403 -5.7085 27.3886
# 3 -3.3461 55.9070 114.5775 26.8336 4.7908 8.7812
# 4 1.7347 17.2403 26.8336 56.7763 11.8280 7.8455
# 5 13.4376 -5.7085 4.7908 11.8280 31.3465 -1.1915
# 6 3.3018 27.3886 8.7812 7.8455 -1.1915 26.0047
#
#
#
# Elastic Compliance Matrix: (Units=1/GPa)
#
#
# Indices 1 2 3 4 5 6 
#
# 1 0.028664 -0.001637 0.002023 0.002079 -0.013826 -0.003859
# 2 -0.001637 0.008198 -0.003540 -0.000339 0.002597 -0.007010
# 3 0.002023 -0.003540 0.011504 -0.004185 -0.001662 0.000773
# 4 0.002079 -0.000339 -0.004185 0.022267 -0.008929 -0.005621
# 5 -0.013826 0.002597 -0.001662 -0.008929 0.042084 0.004203
# 6 -0.003859 -0.007010 0.000773 -0.005621 0.004203 0.047955
#
#
# Mechanical properties :
#
#
# Convention : Reuss Voigt Hill
#
# Bulk Modulus (GPa) = 23.77651 49.59834 36.68743
# Shear Modulus (GPa) = 27.62416 40.94657 34.28537
#
# Velocity S-wave (km/s) = 3.42046 4.16436 3.81060
# Velocity P-wave (km/s) = 5.06649 6.64294 5.90754
#
# Compressibility (1/GPa) = 0.04205831
#
# Stress axis : x y z
#
# Youngs Moduli (GPa) = 34.88673 121.97842 86.92324
#
# Poissons Ratio (x) = 0.19969 -0.17584
# Poissons Ratio (y) = 0.05711 0.30771
# Poissons Ratio (z) = -0.07057 0.43181
#
# Static dielectric constant tensor:
#      x y z
#    x 1.930690 0.022610 -0.024120 
#    y 0.022610 1.988720 -0.000850 
#    z -0.024120 -0.000850 1.903780 
# 
# From -- ./inp_files/182764.got.cif
#   From: 2010.05.17/outbox.cif.g08.bks.cpg/sg2_92_cif.got.tgz:182764.got - 2010.06.03 11:33:40.
