data_PCOD9009309
_publ_section_title
;
Structure prediction by ZEFSAII (Michael W. Deem and Ramdas Pophale) SiO2 
 PCOD9009309
Probable space group: P -1
;
_chemical_formula_sum "Si O2"
_cell_formula_units_Z 16
_cell_length_a 9.256460
_cell_length_b 23.415025
_cell_length_c 9.317693
_cell_angle_alpha 150.663858
_cell_angle_beta 51.724410
_cell_angle_gamma 124.753977
_cell_volume 774.367049
_symmetry_space_group_name_H-M "P -1"
_symmetry_group_IT_number 2
_symmetry_cell_setting 'triclinic'
loop_
_space_group_symop_operation_xyz
x,y,z
-x,-y,-z
loop_
_atom_site_type_symbol
_atom_site_label
_atom_site_fract_x
_atom_site_fract_y
_atom_site_fract_z
Si Si1 0.966199 0.814624 0.381682
Si Si2 0.967558 0.620850 0.709434
Si Si3 0.297848 0.017927 0.227689
Si Si4 0.135538 0.232244 0.338595
Si Si5 0.625138 0.620321 0.696245
Si Si6 0.532127 0.177735 0.600510
Si Si7 0.801931 0.235051 0.326240
Si Si8 0.295224 0.980372 0.646445
O O1 0.818166 0.907855 0.643833
O O2 0.920529 0.756579 0.437214
O O3 0.954784 0.719235 0.054703
O O4 0.160482 0.892110 0.443475
O O5 0.787073 0.613142 0.700431
O O6 0.000000 0.500000 0.500000
O O7 0.141401 0.662613 0.593721
O O8 0.342386 0.098615 0.515480
O O9 0.500000 0.000000 0.000000
O O10 0.202395 0.889283 0.025569
O O11 0.281001 0.333165 0.408104
O O12 0.959838 0.237072 0.353960
O O13 0.212393 0.104322 0.991889
O O14 0.500000 0.500000 0.500000
O O15 0.500923 0.722643 0.048541
O O16 0.611062 0.236278 0.533405
O O17 0.675822 0.089105 0.375424
O O18 0.500000 0.000000 0.500000
#
# Coordination Sequence:
#
# PCOD9009309 Si02
#       8
#     2   2   2   2   2   2   2   2
#     4  12  24  44  69 101 139 174 222 280 327 405
#     4  11  28  47  65  93 127 180 238 277 326 383
#     4  10  21  39  68 102 135 167 212 271 341 405
#     4  11  22  42  68 100 132 175 215 268 339 403
#     4  11  26  47  66  91 130 175 228 279 330 395
#     4  11  22  43  64 103 134 170 216 268 342 404
#     4  10  22  42  69  93 135 176 211 270 338 399
#     4  12  24  38  68 106 142 174 215 266 339 413
#
# _framework density 20.662034999999999
#
# number of rings (size 3 to 8) (size 9 to 14) (size 15 to 20)
#    0.000    1.000    5.000    1.875    3.500    1.500 
#    4.500    3.750    0.000    0.000    0.000    0.000 
#    0.000    0.000    0.000    0.000    0.000    0.000 
#
# Total GULP energy -89427.915546 kJ/mol
# GULP energy per Si atom -5589.244722 kJ/mol
# Density = 2.061501 g / cm^3
# Si number density = 20.662035 Si / 1000 Ang^3
#
#
#
# Elastic Constant Matrix: (Units=GPa)
#
#
# Indices 1 2 3 4 5 6 
#
# 1 89.8380 36.4648 19.9865 11.3680 13.6648 0.1187
# 2 36.4648 154.9739 30.1150 16.5713 10.3330 2.7855
# 3 19.9865 30.1150 38.1239 6.0563 12.9459 4.6584
# 4 11.3680 16.5713 6.0563 34.2558 0.5336 -0.6117
# 5 13.6648 10.3330 12.9459 0.5336 37.8314 10.2485
# 6 0.1187 2.7855 4.6584 -0.6117 10.2485 31.1201
#
#
#
# Elastic Compliance Matrix: (Units=1/GPa)
#
#
# Indices 1 2 3 4 5 6 
#
# 1 0.013734 -0.001899 -0.004319 -0.002789 -0.003422 0.001836
# 2 -0.001899 0.008137 -0.005134 -0.002405 0.000279 -0.000092
# 3 -0.004319 -0.005134 0.036177 -0.002379 -0.008820 -0.002082
# 4 -0.002789 -0.002405 -0.002379 0.031683 0.001872 0.000588
# 5 -0.003422 0.000279 -0.008820 0.001872 0.033181 -0.009582
# 6 0.001836 -0.000092 -0.002082 0.000588 -0.009582 0.035613
#
#
# Mechanical properties :
#
#
# Convention : Reuss Voigt Hill
#
# Bulk Modulus (GPa) = 28.29290 50.67427 39.48359
# Shear Modulus (GPa) = 25.90528 33.73277 29.81903
#
# Velocity S-wave (km/s) = 3.54469 4.04492 3.80304
# Velocity P-wave (km/s) = 5.52051 6.81130 6.19959
#
# Compressibility (1/GPa) = 0.03534456
#
# Stress axis : x y z
#
# Youngs Moduli (GPa) = 72.81293 122.89116 27.64160
#
# Poissons Ratio (x) = 0.23334 0.11939
# Poissons Ratio (y) = 0.13825 0.14191
# Poissons Ratio (z) = 0.31450 0.63091
#
# Static dielectric constant tensor:
#      x y z
#    x 1.769950 -0.005390 0.025670 
#    y -0.005390 1.769010 -0.024090 
#    z 0.025670 -0.024090 1.727950 
# 
# From -- ./inp_files/185410.got.cif
#   From: 2010.05.17/outbox.cif.g08.bks.cpg/sg2_93_cif.got.tgz:185410.got - 2010.06.03 11:33:40.
