data_PCOD9009797
_publ_section_title
;
Structure prediction by ZEFSAII (Michael W. Deem and Ramdas Pophale) SiO2 
 PCOD9009797
Probable space group: P -1
;
_chemical_formula_sum "Si O2"
_cell_formula_units_Z 16
_cell_length_a 9.723932
_cell_length_b 15.804913
_cell_length_c 12.226979
_cell_angle_alpha 29.055265
_cell_angle_beta 50.769014
_cell_angle_gamma 50.855766
_cell_volume 691.370869
_symmetry_space_group_name_H-M "P -1"
_symmetry_group_IT_number 2
_symmetry_cell_setting 'triclinic'
loop_
_space_group_symop_operation_xyz
x,y,z
-x,-y,-z
loop_
_atom_site_type_symbol
_atom_site_label
_atom_site_fract_x
_atom_site_fract_y
_atom_site_fract_z
Si Si1 0.467152 0.798753 0.043980
Si Si2 0.922174 0.214647 0.677516
Si Si3 0.408812 0.915922 0.241742
Si Si4 0.157120 0.325890 0.605863
Si Si5 0.005238 0.077370 0.559630
Si Si6 0.196191 0.370295 0.779600
Si Si7 0.881048 0.286953 0.178927
Si Si8 0.490474 0.549169 0.722961
O O1 0.261534 0.851417 0.130912
O O2 0.623970 0.694241 0.165560
O O3 0.470482 0.652893 0.111797
O O4 0.524441 0.990165 0.790981
O O5 0.027020 0.136948 0.603730
O O6 0.831961 0.422290 0.468077
O O7 0.065230 0.198580 0.721942
O O8 0.192331 0.975729 0.280189
O O9 0.438641 0.701981 0.480716
O O10 0.500000 0.000000 0.000000
O O11 0.201486 0.271765 0.770666
O O12 0.326667 0.394923 0.389804
O O13 0.000000 0.500000 0.500000
O O14 0.981732 0.234596 0.304305
O O15 0.140812 0.902850 0.645631
O O16 0.017122 0.358442 0.950970
O O17 0.686137 0.411692 0.156298
#
# Coordination Sequence:
#
# PCOD9009797 Si02
#       8
#     2   2   2   2   2   2   2   2
#     4  12  22  37  70 100 126 164 219 276 328 368
#     4  11  23  39  67  97 126 172 217 274 321 378
#     4  11  21  34  63 101 126 160 212 275 321 376
#     4  10  22  42  67  91 131 171 218 272 319 377
#     4  10  21  40  59  91 143 159 207 268 332 380
#     4  11  21  38  66  97 126 165 220 264 324 393
#     4  10  23  40  61  95 133 171 201 272 329 379
#     4  11  24  42  64  95 134 170 215 273 322 383
#
# _framework density 23.142426
#
# number of rings (size 3 to 8) (size 9 to 14) (size 15 to 20)
#    0.000    1.250    5.000    2.625    1.750    2.000 
#    0.000    5.625    2.750    0.000    0.000    0.000 
#    0.000    0.000    0.000    0.000    0.000    0.000 
#
# Total GULP energy -89337.804644 kJ/mol
# GULP energy per Si atom -5583.612790 kJ/mol
# Density = 2.308975 g / cm^3
# Si number density = 23.142426 Si / 1000 Ang^3
#
#
#
# Elastic Constant Matrix: (Units=GPa)
#
#
# Indices 1 2 3 4 5 6 
#
# 1 115.5376 28.0508 14.3081 17.2886 -15.8246 12.7664
# 2 28.0508 113.0019 10.8822 6.8999 -3.9757 12.2899
# 3 14.3081 10.8822 55.0114 3.0790 -16.5073 4.2309
# 4 17.2886 6.8999 3.0790 41.1662 -6.7910 -0.6401
# 5 -15.8246 -3.9757 -16.5073 -6.7910 25.6585 -5.9850
# 6 12.7664 12.2899 4.2309 -0.6401 -5.9850 34.3866
#
#
#
# Elastic Compliance Matrix: (Units=1/GPa)
#
#
# Indices 1 2 3 4 5 6 
#
# 1 0.010581 -0.001932 -0.000699 -0.003396 0.004302 -0.002466
# 2 -0.001932 0.009808 -0.001665 -0.001032 -0.001692 -0.002897
# 3 -0.000699 -0.001665 0.022936 0.001265 0.014538 0.000586
# 4 -0.003396 -0.001032 0.001265 0.026900 0.006399 0.003089
# 5 0.004302 -0.001692 0.014538 0.006399 0.053982 0.006733
# 6 -0.002466 -0.002897 0.000586 0.003089 0.006733 0.032189
#
#
# Mechanical properties :
#
#
# Convention : Reuss Voigt Hill
#
# Bulk Modulus (GPa) = 28.79144 43.33702 36.06423
# Shear Modulus (GPa) = 28.31813 35.59624 31.95718
#
# Velocity S-wave (km/s) = 3.50186 3.92616 3.72007
# Velocity P-wave (km/s) = 5.36830 6.27056 5.83689
#
# Compressibility (1/GPa) = 0.03473255
#
# Stress axis : x y z
#
# Youngs Moduli (GPa) = 94.51055 101.95835 43.60005
#
# Poissons Ratio (x) = 0.19701 0.03048
# Poissons Ratio (y) = 0.18262 0.07258
# Poissons Ratio (z) = 0.06606 0.16973
#
# Static dielectric constant tensor:
#      x y z
#    x 1.894970 0.019360 0.013820 
#    y 0.019360 1.950360 -0.030890 
#    z 0.013820 -0.030890 1.900650 
# 
# From -- ./inp_files/311632.got.cif
#   From: 2010.05.17/outbox.cif.g08.bks.cpg/sg2_156_cif.got.tgz:311632.got - 2010.06.03 11:33:40.
