data_PCOD9009933
_publ_section_title
;
Structure prediction by ZEFSAII (Michael W. Deem and Ramdas Pophale) SiO2 
 PCOD9009933
Probable space group: P -1
;
_chemical_formula_sum "Si O2"
_cell_formula_units_Z 16
_cell_length_a 9.293853
_cell_length_b 22.091816
_cell_length_c 21.253373
_cell_angle_alpha 18.825610
_cell_angle_beta 147.071769
_cell_angle_gamma 145.046464
_cell_volume 757.517461
_symmetry_space_group_name_H-M "P -1"
_symmetry_group_IT_number 2
_symmetry_cell_setting 'triclinic'
loop_
_space_group_symop_operation_xyz
x,y,z
-x,-y,-z
loop_
_atom_site_type_symbol
_atom_site_label
_atom_site_fract_x
_atom_site_fract_y
_atom_site_fract_z
Si Si1 0.860073 0.694897 0.475696
Si Si2 0.919437 0.229792 0.177175
Si Si3 0.189724 0.403991 0.841971
Si Si4 0.568551 0.539891 0.255123
Si Si5 0.320363 0.551476 0.941291
Si Si6 0.753839 0.089463 0.046493
Si Si7 0.561807 0.620393 0.308062
Si Si8 0.901663 0.789234 0.592736
O O1 0.754366 0.676392 0.382521
O O2 0.628684 0.571375 0.552744
O O3 0.114052 0.586097 0.672550
O O4 0.892314 0.912542 0.293054
O O5 0.149471 0.361619 0.093361
O O6 0.998894 0.240870 0.269408
O O7 0.898212 0.011186 0.364458
O O8 0.648731 0.319432 0.978771
O O9 0.229163 0.447176 0.740863
O O10 0.465160 0.359904 0.015414
O O11 0.954059 0.234145 0.936201
O O12 0.691569 0.596084 0.312822
O O13 0.390116 0.334012 0.397465
O O14 0.500000 0.500000 0.000000
O O15 0.103330 0.696230 0.712315
O O16 0.634935 0.219179 0.926566
O O17 0.500000 0.000000 0.000000
#
# Coordination Sequence:
#
# PCOD9009933 Si02
#       8
#     2   2   2   2   2   2   2   2
#     4   9  20  39  58  83 113 150 197 236 291 350
#     4  10  21  40  61  82 120 161 194 231 289 352
#     4  11  22  37  60  88 118 157 189 243 296 342
#     4  11  21  38  58  89 120 151 196 242 291 343
#     4  11  23  39  58  89 128 150 190 245 289 341
#     4   9  20  40  60  81 114 152 193 244 289 342
#     4   9  20  38  61  82 113 152 190 244 294 343
#     4  10  21  40  62  82 120 161 191 235 289 348
#
# _framework density 21.121624000000001
#
# number of rings (size 3 to 8) (size 9 to 14) (size 15 to 20)
#    0.000    2.000    2.500    1.500    7.000    4.000 
#    0.000    2.500    0.000    0.000    0.000    0.000 
#    0.000    0.000    0.000    0.000    0.000    0.000 
#
# Total GULP energy -89384.995142 kJ/mol
# GULP energy per Si atom -5586.562196 kJ/mol
# Density = 2.107355 g / cm^3
# Si number density = 21.121624 Si / 1000 Ang^3
#
#
#
# Elastic Constant Matrix: (Units=GPa)
#
#
# Indices 1 2 3 4 5 6 
#
# 1 99.3244 9.0393 32.4135 -19.3039 6.7673 -5.0880
# 2 9.0393 45.1978 29.0017 -9.9878 -4.8117 -2.8122
# 3 32.4135 29.0017 96.5425 -29.7103 7.1715 14.1031
# 4 -19.3039 -9.9878 -29.7103 31.9786 -6.0482 -1.8120
# 5 6.7673 -4.8117 7.1715 -6.0482 13.5562 5.7303
# 6 -5.0880 -2.8122 14.1031 -1.8120 5.7303 32.3994
#
#
#
# Elastic Compliance Matrix: (Units=1/GPa)
#
#
# Indices 1 2 3 4 5 6 
#
# 1 0.012432 0.000367 -0.003422 0.003854 -0.004437 0.004474
# 2 0.000367 0.031512 -0.010290 0.003830 0.016201 0.004621
# 3 -0.003422 -0.010290 0.019828 0.012009 -0.003357 -0.008796
# 4 0.003854 0.003830 0.012009 0.048872 0.016801 -0.004528
# 5 -0.004437 0.016201 -0.003357 0.016801 0.096937 -0.014034
# 6 0.004474 0.004621 -0.008796 -0.004528 -0.014034 0.038026
#
#
# Mechanical properties :
#
#
# Convention : Reuss Voigt Hill
#
# Bulk Modulus (GPa) = 26.96605 42.44153 34.70379
# Shear Modulus (GPa) = 17.44243 26.96084 22.20163
#
# Velocity S-wave (km/s) = 2.87681 3.57663 3.24564
# Velocity P-wave (km/s) = 4.88154 6.09868 5.52374
#
# Compressibility (1/GPa) = 0.03708367
#
# Stress axis : x y z
#
# Youngs Moduli (GPa) = 80.43784 31.73346 50.43344
#
# Poissons Ratio (x) = -0.01166 0.17259
# Poissons Ratio (y) = -0.02954 0.51894
# Poissons Ratio (z) = 0.27527 0.32652
#
# Static dielectric constant tensor:
#      x y z
#    x 1.743290 -0.039040 0.012840 
#    y -0.039040 1.773990 0.049180 
#    z 0.012840 0.049180 1.795900 
# 
# From -- ./inp_files/271970.got.cif
#   From: 2010.05.17/outbox.cif.g08.bks.cpg/sg2_136_cif.got.tgz:271970.got - 2010.06.03 11:33:40.
