data_PCOD9009601
_publ_section_title
;
Structure prediction by ZEFSAII (Michael W. Deem and Ramdas Pophale) SiO2 
 PCOD9009601
Probable space group: P -1
;
_chemical_formula_sum "Si O2"
_cell_formula_units_Z 14
_cell_length_a 9.016040
_cell_length_b 15.004332
_cell_length_c 8.299501
_cell_angle_alpha 51.010801
_cell_angle_beta 71.075758
_cell_angle_gamma 106.994643
_cell_volume 609.033203
_symmetry_space_group_name_H-M "P -1"
_symmetry_group_IT_number 2
_symmetry_cell_setting 'triclinic'
loop_
_space_group_symop_operation_xyz
x,y,z
-x,-y,-z
loop_
_atom_site_type_symbol
_atom_site_label
_atom_site_fract_x
_atom_site_fract_y
_atom_site_fract_z
Si Si1 0.820951 0.910069 0.301310
Si Si2 0.550267 0.292932 0.970783
Si Si3 0.498486 0.928593 0.318845
Si Si4 0.253120 0.326079 0.158067
Si Si5 0.850131 0.482704 0.929032
Si Si6 0.185708 0.936985 0.568127
Si Si7 0.762103 0.247291 0.710046
O O1 0.599825 0.853973 0.383118
O O2 0.781955 0.769106 0.561059
O O3 0.876068 0.032181 0.279518
O O4 0.000000 0.000000 0.000000
O O5 0.690043 0.335507 0.033559
O O6 0.684602 0.326975 0.728412
O O7 0.450932 0.368775 0.944941
O O8 0.340113 0.109201 0.239735
O O9 0.339806 0.902888 0.537232
O O10 0.359520 0.850795 0.296087
O O11 0.692887 0.113948 0.011008
O O12 0.276414 0.472513 0.004453
O O13 0.030119 0.197089 0.292799
O O14 0.003104 0.617374 0.588635
O O15 0.000000 0.500000 0.000000
#
# Coordination Sequence:
#
# PCOD9009601 Si02
#       7
#     2   2   2   2   2   2   2
#     4  11  23  34  64 102 133 158 212 274 327 368
#     4  10  23  42  67  93 131 171 213 269 327 372
#     4  10  21  39  70  97 127 168 217 271 318 376
#     4  11  24  44  64  94 135 168 215 268 325 379
#     4  12  26  44  66  93 131 178 216 259 324 398
#     4  10  22  42  66  95 130 172 216 265 319 387
#     4  10  22  41  69  91 130 167 223 260 319 380
#
# _framework density 22.987255000000001
#
# number of rings (size 3 to 8) (size 9 to 14) (size 15 to 20)
#    0.000    1.429    1.429    3.857   10.000    2.286 
#    0.000    2.143    0.000    0.000    0.000    0.000 
#    0.000    0.000    0.000    0.000    0.000    0.000 
#
# Total GULP energy -78103.890231 kJ/mol
# GULP energy per Si atom -5578.849302 kJ/mol
# Density = 2.293494 g / cm^3
# Si number density = 22.987255 Si / 1000 Ang^3
#
#
#
# Elastic Constant Matrix: (Units=GPa)
#
#
# Indices 1 2 3 4 5 6 
#
# 1 85.6012 23.5744 19.9672 3.7053 -0.4438 -28.3008
# 2 23.5744 94.7969 12.0944 10.0648 -3.5824 -21.8370
# 3 19.9672 12.0944 64.8038 5.7438 -6.3206 -15.1115
# 4 3.7053 10.0648 5.7438 36.3106 -7.8639 -15.9756
# 5 -0.4438 -3.5824 -6.3206 -7.8639 25.4018 -6.0459
# 6 -28.3008 -21.8370 -15.1115 -15.9756 -6.0459 51.0400
#
#
#
# Elastic Compliance Matrix: (Units=1/GPa)
#
#
# Indices 1 2 3 4 5 6 
#
# 1 0.015427 -0.001860 -0.002514 0.003591 0.002501 0.008434
# 2 -0.001860 0.012178 -0.000459 -0.000838 0.002275 0.004050
# 3 -0.002514 -0.000459 0.017853 0.000829 0.005692 0.004629
# 4 0.003591 -0.000838 0.000829 0.037385 0.015391 0.015403
# 5 0.002501 0.002275 0.005692 0.015391 0.049415 0.014716
# 6 0.008434 0.004050 0.004629 0.015403 0.014716 0.033937
#
#
# Mechanical properties :
#
#
# Convention : Reuss Voigt Hill
#
# Bulk Modulus (GPa) = 27.93906 39.60824 33.77365
# Shear Modulus (GPa) = 26.62552 35.18820 30.90686
#
# Velocity S-wave (km/s) = 3.40703 3.91675 3.67075
# Velocity P-wave (km/s) = 5.25906 6.14186 5.71753
#
# Compressibility (1/GPa) = 0.03579218
#
# Stress axis : x y z
#
# Youngs Moduli (GPa) = 64.82339 82.11621 56.01441
#
# Poissons Ratio (x) = 0.15270 0.14081
# Poissons Ratio (y) = 0.12054 0.02572
# Poissons Ratio (z) = 0.16295 0.03770
#
# Static dielectric constant tensor:
#      x y z
#    x 2.045840 0.031070 0.043610 
#    y 0.031070 1.903730 -0.030770 
#    z 0.043610 -0.030770 1.912060 
# 
# From -- ./inp_files/173156.got.cif
#   From: 2010.05.17/outbox.cif.g08.bks.cpg/sg2_87_cif.got.tgz:173156.got - 2010.06.03 11:33:40.
