data_PCOD9009214
_publ_section_title
;
Structure prediction by ZEFSAII (Michael W. Deem and Ramdas Pophale) SiO2 
 PCOD9009214
Probable space group: P -1
;
_chemical_formula_sum "Si O2"
_cell_formula_units_Z 12
_cell_length_a 9.957464
_cell_length_b 7.738437
_cell_length_c 14.988893
_cell_angle_alpha 114.823885
_cell_angle_beta 153.216841
_cell_angle_gamma 65.872225
_cell_volume 470.726498
_symmetry_space_group_name_H-M "P -1"
_symmetry_group_IT_number 2
_symmetry_cell_setting 'triclinic'
loop_
_space_group_symop_operation_xyz
x,y,z
-x,-y,-z
loop_
_atom_site_type_symbol
_atom_site_label
_atom_site_fract_x
_atom_site_fract_y
_atom_site_fract_z
Si Si1 0.740291 0.771362 0.842550
Si Si2 0.420417 0.456867 0.839830
Si Si3 0.567944 0.134772 0.730241
Si Si4 0.109932 0.310716 0.358928
Si Si5 0.236889 0.052552 0.925577
Si Si6 0.941758 0.431048 0.788897
O O1 0.626833 0.847693 0.886595
O O2 0.087400 0.818824 0.059628
O O3 0.751756 0.549390 0.777282
O O4 0.576671 0.908159 0.701477
O O5 0.421181 0.245639 0.754096
O O6 0.100476 0.571905 0.668176
O O7 0.500000 0.500000 0.000000
O O8 0.708931 0.531916 0.980626
O O9 0.393956 0.214221 0.557669
O O10 0.149499 0.455897 0.332038
O O11 0.916898 0.136583 0.176665
O O12 0.978343 0.203352 0.764141
O O13 0.500000 0.000000 0.000000
#
# Coordination Sequence:
#
# PCOD9009214 Si02
#       6
#     2   2   2   2   2   2
#     4  10  22  41  64  92 126 171 217 260 318 383
#     4   9  17  35  63  91 123 165 207 252 311 376
#     4  10  21  39  67  96 126 169 214 263 321 373
#     4  11  22  39  66  98 129 163 213 270 315 373
#     4  12  24  41  67  94 128 172 215 259 317 386
#     4  10  22  41  67  93 126 170 212 262 319 377
#
# _framework density 25.492512000000001
#
# number of rings (size 3 to 8) (size 9 to 14) (size 15 to 20)
#    0.000    1.667    1.667    5.000    2.333    2.667 
#    0.000    7.500    0.000    0.000    0.000    0.000 
#    0.000    0.000    0.000    0.000    0.000    0.000 
#
# Total GULP energy -67086.331894 kJ/mol
# GULP energy per Si atom -5590.527658 kJ/mol
# Density = 2.543449 g / cm^3
# Si number density = 25.492512 Si / 1000 Ang^3
#
#
#
# Elastic Constant Matrix: (Units=GPa)
#
#
# Indices 1 2 3 4 5 6 
#
# 1 85.3070 50.2687 26.9543 -3.1307 -17.1870 -25.9571
# 2 50.2687 150.4944 34.7439 -35.4443 -11.7570 -17.2419
# 3 26.9543 34.7439 118.7805 -38.4380 -16.3147 5.3964
# 4 -3.1307 -35.4443 -38.4380 40.3615 8.9430 -9.8123
# 5 -17.1870 -11.7570 -16.3147 8.9430 29.3167 -5.9686
# 6 -25.9571 -17.2419 5.3964 -9.8123 -5.9686 51.9833
#
#
#
# Elastic Compliance Matrix: (Units=1/GPa)
#
#
# Indices 1 2 3 4 5 6 
#
# 1 0.021772 -0.006279 -0.004690 -0.008793 0.012153 0.009011
# 2 -0.006279 0.011380 0.001694 0.012040 -0.001322 0.002584
# 3 -0.004690 0.001694 0.013611 0.013700 0.001230 -0.000466
# 4 -0.008793 0.012040 0.013700 0.050928 -0.006811 0.007012
# 5 0.012153 -0.001322 0.001230 -0.006811 0.045387 0.009428
# 6 0.009011 0.002584 -0.000466 0.007012 0.009428 0.027048
#
#
# Mechanical properties :
#
#
# Convention : Reuss Voigt Hill
#
# Bulk Modulus (GPa) = 35.44491 64.27952 49.86222
# Shear Modulus (GPa) = 25.24231 40.50663 32.87447
#
# Velocity S-wave (km/s) = 3.15013 3.99050 3.59496
# Velocity P-wave (km/s) = 5.21204 6.81923 6.06907
#
# Compressibility (1/GPa) = 0.02821279
#
# Stress axis : x y z
#
# Youngs Moduli (GPa) = 45.93097 87.87704 73.46775
#
# Poissons Ratio (x) = 0.55176 0.34455
# Poissons Ratio (y) = 0.28839 -0.12442
# Poissons Ratio (z) = 0.21540 -0.14882
#
# Static dielectric constant tensor:
#      x y z
#    x 2.043770 0.005900 -0.024150 
#    y 0.005900 2.076030 -0.010230 
#    z -0.024150 -0.010230 2.038460 
# 
# From -- ./inp_files/191251.got.cif
#   From: 2010.05.17/outbox.cif.g08.bks.cpg/sg2_96_cif.got.tgz:191251.got - 2010.06.03 11:33:40.
