data_PCOD9009663
_publ_section_title
;
Structure prediction by ZEFSAII (Michael W. Deem and Ramdas Pophale) SiO2 
 PCOD9009663
Probable space group: P -1
;
_chemical_formula_sum "Si O2"
_cell_formula_units_Z 14
_cell_length_a 12.873514
_cell_length_b 15.895282
_cell_length_c 9.184568
_cell_angle_alpha 50.175240
_cell_angle_beta 28.019884
_cell_angle_gamma 43.786435
_cell_volume 610.921161
_symmetry_space_group_name_H-M "P -1"
_symmetry_group_IT_number 2
_symmetry_cell_setting 'triclinic'
loop_
_space_group_symop_operation_xyz
x,y,z
-x,-y,-z
loop_
_atom_site_type_symbol
_atom_site_label
_atom_site_fract_x
_atom_site_fract_y
_atom_site_fract_z
Si Si1 0.194918 0.661561 0.978430
Si Si2 0.074764 0.235595 0.079979
Si Si3 0.526523 0.019786 0.114441
Si Si4 0.260634 0.445308 0.635353
Si Si5 0.296387 0.788389 0.221273
Si Si6 0.213981 0.442315 0.032971
Si Si7 0.005521 0.876429 0.198839
O O1 0.484837 0.600829 0.709948
O O2 0.130349 0.731319 0.826928
O O3 0.140978 0.547416 0.129007
O O4 0.052484 0.764215 0.157165
O O5 0.935510 0.223174 0.407995
O O6 0.176831 0.336366 0.858586
O O7 0.304363 0.112819 0.886081
O O8 0.260743 0.082224 0.445784
O O9 0.670152 0.101410 0.867799
O O10 0.500000 0.000000 0.000000
O O11 0.045903 0.556357 0.692831
O O12 0.288272 0.469916 0.745653
O O13 0.224114 0.823179 0.105383
O O14 0.552329 0.671636 0.068060
O O15 0.000000 0.000000 0.000000
#
# Coordination Sequence:
#
# PCOD9009663 Si02
#       7
#     2   2   2   2   2   2   2
#     4  11  24  43  68 102 146 182 224 285 348 405
#     4  11  23  40  73 104 133 180 237 283 337 409
#     4  12  26  45  74 102 133 181 236 288 340 411
#     4  10  21  39  72 104 139 178 230 285 339 403
#     4  12  26  43  71 103 138 179 235 283 338 412
#     4  10  23  39  69 106 137 182 235 277 335 415
#     4  12  29  47  70 102 143 182 226 289 354 403
#
# _framework density 22.916214
#
# number of rings (size 3 to 8) (size 9 to 14) (size 15 to 20)
#    0.000    0.857    2.857    3.429    6.000    5.143 
#    0.000    1.429    0.000    0.000    0.000    0.000 
#    0.000    0.000    0.000    0.000    0.000    0.000 
#
# Total GULP energy -78223.790996 kJ/mol
# GULP energy per Si atom -5587.413643 kJ/mol
# Density = 2.286406 g / cm^3
# Si number density = 22.916214 Si / 1000 Ang^3
#
#
#
# Elastic Constant Matrix: (Units=GPa)
#
#
# Indices 1 2 3 4 5 6 
#
# 1 122.7069 66.9218 31.5147 10.2489 -9.5389 3.2855
# 2 66.9218 119.5054 26.1939 30.3583 -5.5308 17.2957
# 3 31.5147 26.1939 91.4462 23.1127 -12.3518 9.1937
# 4 10.2489 30.3583 23.1127 49.0277 0.4127 -10.2591
# 5 -9.5389 -5.5308 -12.3518 0.4127 33.1914 10.6577
# 6 3.2855 17.2957 9.1937 -10.2591 10.6577 59.1296
#
#
#
# Elastic Compliance Matrix: (Units=1/GPa)
#
#
# Indices 1 2 3 4 5 6 
#
# 1 0.013051 -0.008130 -0.003650 0.004660 0.000007 0.003028
# 2 -0.008130 0.016492 0.002099 -0.011056 0.003667 -0.007278
# 3 -0.003650 0.002099 0.015373 -0.009017 0.006937 -0.005616
# 4 0.004660 -0.011056 -0.009017 0.033001 -0.007975 0.011540
# 5 0.000007 0.003667 0.006937 -0.007975 0.036680 -0.010147
# 6 0.003028 -0.007278 -0.005616 0.011540 -0.010147 0.023577
#
#
# Mechanical properties :
#
#
# Convention : Reuss Voigt Hill
#
# Bulk Modulus (GPa) = 39.13320 64.76881 51.95100
# Shear Modulus (GPa) = 30.11045 42.20493 36.15769
#
# Velocity S-wave (km/s) = 3.62876 4.29617 3.97649
# Velocity P-wave (km/s) = 5.88820 7.27558 6.61834
#
# Compressibility (1/GPa) = 0.02555375
#
# Stress axis : x y z
#
# Youngs Moduli (GPa) = 76.62050 60.63494 65.04981
#
# Poissons Ratio (x) = 0.49298 0.23745
# Poissons Ratio (y) = 0.62294 -0.13655
# Poissons Ratio (z) = 0.27968 -0.12729
#
# Static dielectric constant tensor:
#      x y z
#    x 1.884980 -0.045190 0.000200 
#    y -0.045190 1.921440 0.000500 
#    z 0.000200 0.000500 1.854190 
# 
# From -- ./inp_files/229863.got.cif
#   From: 2010.05.17/outbox.cif.g08.bks.cpg/sg2_115_cif.got.tgz:229863.got - 2010.06.03 11:33:40.
