data_PCOD9009267
_publ_section_title
;
Structure prediction by ZEFSAII (Michael W. Deem and Ramdas Pophale) SiO2 
 PCOD9009267
Probable space group: P -1
;
_chemical_formula_sum "Si O2"
_cell_formula_units_Z 14
_cell_length_a 8.921334
_cell_length_b 12.194800
_cell_length_c 20.833859
_cell_angle_alpha 28.145247
_cell_angle_beta 31.036811
_cell_angle_gamma 44.869695
_cell_volume 540.948110
_symmetry_space_group_name_H-M "P -1"
_symmetry_group_IT_number 2
_symmetry_cell_setting 'triclinic'
loop_
_space_group_symop_operation_xyz
x,y,z
-x,-y,-z
loop_
_atom_site_type_symbol
_atom_site_label
_atom_site_fract_x
_atom_site_fract_y
_atom_site_fract_z
Si Si1 0.669406 0.615963 0.198414
Si Si2 0.320966 0.435778 0.923608
Si Si3 0.455228 0.129103 0.301228
Si Si4 0.827050 0.453897 0.420558
Si Si5 0.122157 0.216924 0.656579
Si Si6 0.672914 0.064514 0.781715
Si Si7 0.941419 0.671729 0.735073
O O1 0.606096 0.641664 0.134066
O O2 0.401090 0.413133 0.428011
O O3 0.628983 0.849752 0.130927
O O4 0.967441 0.511526 0.153267
O O5 0.514414 0.676377 0.754619
O O6 0.000000 0.500000 0.000000
O O7 0.332917 0.212592 0.079580
O O8 0.369137 0.249585 0.205080
O O9 0.743045 0.010408 0.255485
O O10 0.184211 0.914415 0.527468
O O11 0.500000 0.500000 0.500000
O O12 0.980059 0.657664 0.308032
O O13 0.784463 0.211060 0.601711
O O14 0.983404 0.437488 0.304461
O O15 0.896746 0.152306 0.713962
#
# Coordination Sequence:
#
# PCOD9009267 Si02
#       7
#     2   2   2   2   2   2   2
#     4  10  22  42  64  94 126 167 219 266 308 372
#     4  12  26  43  61  94 137 174 210 249 330 386
#     4  10  22  41  60  92 131 167 209 260 315 376
#     4  11  19  39  68  96 123 158 219 265 313 369
#     4  10  21  39  67  99 122 163 220 269 311 361
#     4  11  23  41  66  98 127 167 208 271 316 376
#     4  10  22  41  67  96 124 164 218 270 312 369
#
# _framework density 25.880485
#
# number of rings (size 3 to 8) (size 9 to 14) (size 15 to 20)
#    0.000    1.429    5.714    2.143    4.000    5.714 
#    0.000    5.000    0.000    0.000    0.000    0.000 
#    0.000    0.000    0.000    0.000    0.000    0.000 
#
# Total GULP energy -78471.231271 kJ/mol
# GULP energy per Si atom -5605.087948 kJ/mol
# Density = 2.582158 g / cm^3
# Si number density = 25.880485 Si / 1000 Ang^3
#
#
#
# Elastic Constant Matrix: (Units=GPa)
#
#
# Indices 1 2 3 4 5 6 
#
# 1 129.9104 20.9397 24.9888 1.4375 22.6236 -29.8389
# 2 20.9397 100.0908 19.9299 -20.8337 15.7636 -17.8909
# 3 24.9888 19.9299 90.3945 -25.8839 20.5682 -10.4763
# 4 1.4375 -20.8337 -25.8839 31.1526 -14.5223 11.0417
# 5 22.6236 15.7636 20.5682 -14.5223 45.6415 -4.2641
# 6 -29.8389 -17.8909 -10.4763 11.0417 -4.2641 64.7952
#
#
#
# Elastic Compliance Matrix: (Units=1/GPa)
#
#
# Indices 1 2 3 4 5 6 
#
# 1 0.010851 -0.001635 -0.003268 -0.008765 -0.005650 0.005139
# 2 -0.001635 0.012246 0.000307 0.007575 -0.001024 0.001319
# 3 -0.003268 0.000307 0.015914 0.013290 -0.001543 -0.001213
# 4 -0.008765 0.007575 0.013290 0.057957 0.013359 -0.008793
# 5 -0.005650 -0.001024 -0.001543 0.013359 0.029687 -0.003457
# 6 0.005139 0.001319 -0.001213 -0.008793 -0.003457 0.019239
#
#
# Mechanical properties :
#
#
# Convention : Reuss Voigt Hill
#
# Bulk Modulus (GPa) = 33.53568 50.23472 41.88520
# Shear Modulus (GPa) = 30.29852 45.28700 37.79276
#
# Velocity S-wave (km/s) = 3.42527 4.18766 3.82551
# Velocity P-wave (km/s) = 5.35064 6.54480 5.97762
#
# Compressibility (1/GPa) = 0.02981899
#
# Stress axis : x y z
#
# Youngs Moduli (GPa) = 92.15714 81.66097 62.83758
#
# Poissons Ratio (x) = 0.13355 0.20533
# Poissons Ratio (y) = 0.15072 -0.01930
# Poissons Ratio (z) = 0.30114 -0.02508
#
# Static dielectric constant tensor:
#      x y z
#    x 2.010030 -0.057690 -0.012710 
#    y -0.057690 2.047000 0.020570 
#    z -0.012710 0.020570 2.039690 
# 
# From -- ./inp_files/244063.got.cif
#   From: 2010.05.17/outbox.cif.g08.bks.cpg/sg2_123_cif.got.tgz:244063.got - 2010.06.03 11:33:40.
