data_PCOD9009668
_publ_section_title
;
Structure prediction by ZEFSAII (Michael W. Deem and Ramdas Pophale) SiO2 
 PCOD9009668
Probable space group: P -1
;
_chemical_formula_sum "Si O2"
_cell_formula_units_Z 14
_cell_length_a 20.606895
_cell_length_b 12.537430
_cell_length_c 5.589805
_cell_angle_alpha 78.874354
_cell_angle_beta 72.644003
_cell_angle_gamma 22.237974
_cell_volume 507.655101
_symmetry_space_group_name_H-M "P -1"
_symmetry_group_IT_number 2
_symmetry_cell_setting 'triclinic'
loop_
_space_group_symop_operation_xyz
x,y,z
-x,-y,-z
loop_
_atom_site_type_symbol
_atom_site_label
_atom_site_fract_x
_atom_site_fract_y
_atom_site_fract_z
Si Si1 0.492276 0.112942 0.283781
Si Si2 0.449606 0.470227 0.909412
Si Si3 0.418047 0.838160 0.511278
Si Si4 0.951305 0.927041 0.767325
Si Si5 0.821973 0.669232 0.781630
Si Si6 0.168379 0.142956 0.060946
Si Si7 0.877951 0.348445 0.798646
O O1 0.459961 0.271304 0.396812
O O2 0.336529 0.335944 0.158833
O O3 0.500000 0.000000 0.500000
O O4 0.688066 0.831755 0.071661
O O5 0.644003 0.123967 0.877230
O O6 0.500000 0.500000 0.000000
O O7 0.451843 0.444447 0.633524
O O8 0.251570 0.730593 0.102252
O O9 0.262004 0.008475 0.756554
O O10 0.308016 0.098077 0.386884
O O11 0.069731 0.773095 0.943715
O O12 0.927807 0.829452 0.826035
O O13 0.027396 0.843260 0.457515
O O14 0.927595 0.403695 0.717223
O O15 0.931276 0.608260 0.805705
#
# Coordination Sequence:
#
# PCOD9009668 Si02
#       7
#     2   2   2   2   2   2   2
#     4  11  22  42  69  94 127 175 226 271 317 392
#     4   9  21  42  67  93 125 175 229 267 317 388
#     4  10  21  39  72  93 124 164 241 270 312 376
#     4  11  27  41  64  97 139 175 212 268 342 393
#     4  10  22  40  67  96 124 169 229 271 324 387
#     4   9  22  41  67  96 123 174 225 274 320 391
#     4  12  26  41  63  99 138 175 210 269 342 392
#
# _framework density 27.577777999999999
#
# number of rings (size 3 to 8) (size 9 to 14) (size 15 to 20)
#    0.000    1.714    1.429    1.286   12.000    2.286 
#    0.000    1.429    0.000    0.000    0.000    0.000 
#    0.000    0.000    0.000    0.000    0.000    0.000 
#
# Total GULP energy -78212.481978 kJ/mol
# GULP energy per Si atom -5586.605856 kJ/mol
# Density = 2.751501 g / cm^3
# Si number density = 27.577778 Si / 1000 Ang^3
#
#
#
# Elastic Constant Matrix: (Units=GPa)
#
#
# Indices 1 2 3 4 5 6 
#
# 1 114.1575 15.1254 12.0536 4.6017 34.4932 4.5719
# 2 15.1254 106.7229 16.1678 -1.8426 20.2553 -32.3683
# 3 12.0536 16.1678 109.2833 16.1905 26.4787 10.2898
# 4 4.6017 -1.8426 16.1905 49.6361 5.7366 11.4066
# 5 34.4932 20.2553 26.4787 5.7366 49.8073 5.3106
# 6 4.5719 -32.3683 10.2898 11.4066 5.3106 41.0227
#
#
#
# Elastic Compliance Matrix: (Units=1/GPa)
#
#
# Indices 1 2 3 4 5 6 
#
# 1 0.011151 -0.000427 0.000850 -0.000253 -0.007897 -0.000700
# 2 -0.000427 0.014887 -0.001755 -0.001199 -0.006112 0.013359
# 3 0.000850 -0.001755 0.011237 -0.002533 -0.005247 -0.002914
# 4 -0.000253 -0.001199 -0.002533 0.022440 0.000122 -0.006538
# 5 -0.007897 -0.006112 -0.005247 0.000122 0.031526 -0.006742
# 6 -0.000700 0.013359 -0.002914 -0.006538 -0.006742 0.038417
#
#
# Mechanical properties :
#
#
# Convention : Reuss Voigt Hill
#
# Bulk Modulus (GPa) = 28.89165 46.31750 37.60457
# Shear Modulus (GPa) = 34.75603 47.21433 40.98518
#
# Velocity S-wave (km/s) = 3.55391 4.14217 3.85927
# Velocity P-wave (km/s) = 5.22872 6.30147 5.78999
#
# Compressibility (1/GPa) = 0.03461208
#
# Stress axis : x y z
#
# Youngs Moduli (GPa) = 89.67821 67.17065 88.98931
#
# Poissons Ratio (x) = 0.02870 -0.07565
# Poissons Ratio (y) = 0.03831 0.15615
# Poissons Ratio (z) = -0.07624 0.11787
#
# Static dielectric constant tensor:
#      x y z
#    x 2.246790 0.079120 0.045150 
#    y 0.079120 2.234450 -0.138130 
#    z 0.045150 -0.138130 2.328890 
# 
# From -- ./inp_files/64882.got.cif
#   From: 2010.05.17/outbox.cif.g08.bks.cpg/sg2_33_cif.got.tgz:64882.got - 2010.06.03 11:33:40.
