data_PCOD9009152
_publ_section_title
;
Structure prediction by ZEFSAII (Michael W. Deem and Ramdas Pophale) SiO2 
 PCOD9009152
Probable space group: P -1
;
_chemical_formula_sum "Si O2"
_cell_formula_units_Z 14
_cell_length_a 26.254955
_cell_length_b 15.891024
_cell_length_c 5.435355
_cell_angle_alpha 84.332494
_cell_angle_beta 87.379806
_cell_angle_gamma 161.898507
_cell_volume 625.623498
_symmetry_space_group_name_H-M "P -1"
_symmetry_group_IT_number 2
_symmetry_cell_setting 'triclinic'
loop_
_space_group_symop_operation_xyz
x,y,z
-x,-y,-z
loop_
_atom_site_type_symbol
_atom_site_label
_atom_site_fract_x
_atom_site_fract_y
_atom_site_fract_z
Si Si1 0.766471 0.204138 0.163407
Si Si2 0.158378 0.853050 0.657741
Si Si3 0.455664 0.712966 0.032252
Si Si4 0.489529 0.079458 0.413856
Si Si5 0.174242 0.156989 0.003310
Si Si6 0.838888 0.717466 0.382669
Si Si7 0.707493 0.845525 0.959370
O O1 0.807315 0.193411 0.345957
O O2 0.611800 0.919946 0.099945
O O3 0.663759 0.118149 0.336418
O O4 0.947581 0.521841 0.890993
O O5 0.194895 0.952736 0.354492
O O6 0.272964 0.076195 0.800661
O O7 0.374371 0.513851 0.924205
O O8 0.280259 0.463619 0.296380
O O9 0.546350 0.943009 0.842535
O O10 0.692072 0.440050 0.313648
O O11 0.500000 0.000000 0.500000
O O12 0.195934 0.091676 0.027553
O O13 0.121354 0.125209 0.777503
O O14 0.015216 0.938593 0.282691
O O15 0.500000 0.500000 0.000000
#
# Coordination Sequence:
#
# PCOD9009152 Si02
#       7
#     2   2   2   2   2   2   2
#     4  10  25  44  68  94 137 176 231 278 347 410
#     4  11  28  46  71 103 134 189 227 285 339 407
#     4  10  21  39  67  92 134 177 220 282 347 411
#     4  10  23  38  65  97 132 170 225 288 343 408
#     4  10  22  39  65  95 136 178 225 286 338 417
#     4   9  21  39  61  97 131 182 222 277 353 408
#     4  12  28  45  72 104 139 177 236 285 342 402
#
# _framework density 22.377678
#
# number of rings (size 3 to 8) (size 9 to 14) (size 15 to 20)
#    0.000    1.714    0.000    1.714   14.000    4.571 
#    0.000    0.000    0.000    0.000    0.000    0.000 
#    0.000    0.000    0.000    0.000    0.000    0.000 
#
# Total GULP energy -78080.968025 kJ/mol
# GULP energy per Si atom -5577.212002 kJ/mol
# Density = 2.232674 g / cm^3
# Si number density = 22.377678 Si / 1000 Ang^3
#
#
#
# Elastic Constant Matrix: (Units=GPa)
#
#
# Indices 1 2 3 4 5 6 
#
# 1 628.1534 -581.9795 139.4080 -58.0783 -280.9705 -55.7112
# 2 -581.9795 788.1276 -122.2325 56.6248 374.7844 98.7875
# 3 139.4080 -122.2325 109.2613 -11.6553 -42.5358 -20.2281
# 4 -58.0783 56.6248 -11.6553 38.4449 36.2236 0.4576
# 5 -280.9705 374.7844 -42.5358 36.2236 232.1277 38.5770
# 6 -55.7112 98.7875 -20.2281 0.4576 38.5770 34.9578
#
#
#
# Elastic Compliance Matrix: (Units=1/GPa)
#
#
# Indices 1 2 3 4 5 6 
#
# 1 0.006612 0.004544 -0.003926 0.001643 0.000557 -0.005211
# 2 0.004544 0.011318 0.000409 0.000514 -0.010660 -0.012748
# 3 -0.003926 0.000409 0.014193 0.001346 -0.003859 0.005043
# 4 0.001643 0.000514 0.001346 0.032603 -0.004819 0.006835
# 5 0.000557 -0.010660 -0.003859 -0.004819 0.021363 0.005268
# 6 -0.005211 -0.012748 0.005043 0.006835 0.005268 0.053341
#
#
# Mechanical properties :
#
#
# Convention : Reuss Voigt Hill
#
# Bulk Modulus (GPa) = 29.25999 43.99270 36.62635
# Shear Modulus (GPa) = 33.60917 200.46249 117.03583
#
# Velocity S-wave (km/s) = 3.87965 9.47502 7.23974
# Velocity P-wave (km/s) = 5.75958 11.80691 9.28913
#
# Compressibility (1/GPa) = 0.03417636
#
# Stress axis : x y z
#
# Youngs Moduli (GPa) = 151.23930 88.35732 70.45610
#
# Poissons Ratio (x) = -0.40148 0.27659
# Poissons Ratio (y) = -0.68721 -0.02878
# Poissons Ratio (z) = 0.59371 -0.03610
#
# Static dielectric constant tensor:
#      x y z
#    x 1.816010 0.000420 0.012870 
#    y 0.000420 1.930020 0.079610 
#    z 0.012870 0.079610 1.903110 
# 
# From -- ./inp_files/36752.got.cif
#   From: 2010.05.17/outbox.cif.g08.bks.cpg/sg2_19_cif.got.tgz:36752.got - 2010.06.03 11:33:40.
