data_PCOD9009375
_publ_section_title
;
Structure prediction by ZEFSAII (Michael W. Deem and Ramdas Pophale) SiO2 
 PCOD9009375
Probable space group: P -1
;
_chemical_formula_sum "Si O2"
_cell_formula_units_Z 16
_cell_length_a 8.691228
_cell_length_b 14.805329
_cell_length_c 8.610086
_cell_angle_alpha 140.352132
_cell_angle_beta 95.308481
_cell_angle_gamma 73.712833
_cell_volume 664.633488
_symmetry_space_group_name_H-M "P -1"
_symmetry_group_IT_number 2
_symmetry_cell_setting 'triclinic'
loop_
_space_group_symop_operation_xyz
x,y,z
-x,-y,-z
loop_
_atom_site_type_symbol
_atom_site_label
_atom_site_fract_x
_atom_site_fract_y
_atom_site_fract_z
Si Si1 0.301469 0.788375 0.061661
Si Si2 0.051118 0.185967 0.382256
Si Si3 0.933397 0.512192 0.686499
Si Si4 0.053171 0.073562 0.901469
Si Si5 0.369108 0.212255 0.612214
Si Si6 0.321507 0.026011 0.630362
Si Si7 0.416293 0.369425 0.322427
Si Si8 0.276942 0.492303 0.795660
O O1 0.278852 0.922210 0.357525
O O2 0.131254 0.818449 0.996110
O O3 0.439732 0.769901 0.919245
O O4 0.332834 0.635536 0.960396
O O5 0.208517 0.192699 0.496011
O O6 0.944268 0.351919 0.545556
O O7 0.108793 0.096645 0.108901
O O8 0.952400 0.094195 0.340081
O O9 0.742042 0.597945 0.758896
O O10 0.000000 0.500000 0.500000
O O11 0.077165 0.549441 0.845858
O O12 0.168303 0.105565 0.827301
O O13 0.537717 0.091501 0.408976
O O14 0.345809 0.385531 0.807967
O O15 0.373272 0.149145 0.703135
O O16 0.500000 0.500000 0.500000
O O17 0.347217 0.379435 0.505210
#
# Coordination Sequence:
#
# PCOD9009375 Si02
#       8
#     2   2   2   2   2   2   2   2
#     4  11  22  41  64  94 128 171 209 252 321 382
#     4  10  21  39  68  95 120 157 224 257 302 378
#     4   9  17  36  58  95 128 157 195 267 320 357
#     4  11  23  40  66  93 123 170 211 259 308 373
#     4  10  23  46  60  94 125 166 209 263 314 374
#     4  11  25  45  64  84 138 171 203 256 321 383
#     4   9  18  34  63  94 129 160 203 268 314 360
#     4   9  20  39  66  92 126 158 217 263 306 370
#
# _framework density 24.073416999999999
#
# number of rings (size 3 to 8) (size 9 to 14) (size 15 to 20)
#    0.000    2.000    1.250    2.625    0.000    5.000 
#   18.000    0.625    0.000    0.000    0.000    0.000 
#    0.000    0.000    0.000    0.000    0.000    0.000 
#
# Total GULP energy -89404.212887 kJ/mol
# GULP energy per Si atom -5587.763305 kJ/mol
# Density = 2.401863 g / cm^3
# Si number density = 24.073417 Si / 1000 Ang^3
#
#
#
# Elastic Constant Matrix: (Units=GPa)
#
#
# Indices 1 2 3 4 5 6 
#
# 1 83.4387 15.8209 8.2231 1.6158 -28.3920 -9.1473
# 2 15.8209 117.5209 2.7413 24.9294 -2.3848 3.0137
# 3 8.2231 2.7413 40.4843 5.3302 -0.0440 -0.1024
# 4 1.6158 24.9294 5.3302 20.3448 -1.3966 4.3822
# 5 -28.3920 -2.3848 -0.0440 -1.3966 38.6170 9.2341
# 6 -9.1473 3.0137 -0.1024 4.3822 9.2341 40.5175
#
#
#
# Elastic Compliance Matrix: (Units=1/GPa)
#
#
# Indices 1 2 3 4 5 6 
#
# 1 0.017094 -0.002765 -0.003754 0.003677 0.012323 0.000849
# 2 -0.002765 0.012015 0.001752 -0.015223 -0.001979 0.000584
# 3 -0.003754 0.001752 0.026554 -0.009194 -0.003145 0.000801
# 4 0.003677 -0.015223 -0.009194 0.071896 0.006080 -0.007222
# 5 0.012323 -0.001979 -0.003145 0.006080 0.036497 -0.006054
# 6 0.000849 0.000584 0.000801 -0.007222 -0.006054 0.026992
#
#
# Mechanical properties :
#
#
# Convention : Reuss Voigt Hill
#
# Bulk Modulus (GPa) = 21.67873 32.77940 27.22907
# Shear Modulus (GPa) = 23.15267 34.20644 28.67956
#
# Velocity S-wave (km/s) = 3.10458 3.77360 3.45532
# Velocity P-wave (km/s) = 4.67718 5.71251 5.22057
#
# Compressibility (1/GPa) = 0.04612816
#
# Stress axis : x y z
#
# Youngs Moduli (GPa) = 58.49957 83.23174 37.65938
#
# Poissons Ratio (x) = 0.23018 0.14136
# Poissons Ratio (y) = 0.16178 -0.06597
# Poissons Ratio (z) = 0.21958 -0.14581
#
# Static dielectric constant tensor:
#      x y z
#    x 1.951070 0.006260 -0.010650 
#    y 0.006260 1.932290 0.026590 
#    z -0.010650 0.026590 1.980810 
# 
# From -- ./inp_files/204244.got.cif
#   From: 2010.05.17/outbox.cif.g08.bks.cpg/sg2_103_cif.got.tgz:204244.got - 2010.06.03 11:33:40.
