data_PCOD9009527
_publ_section_title
;
Structure prediction by ZEFSAII (Michael W. Deem and Ramdas Pophale) SiO2 
 PCOD9009527
Probable space group: P -1
;
_chemical_formula_sum "Si O2"
_cell_formula_units_Z 16
_cell_length_a 9.344894
_cell_length_b 11.730623
_cell_length_c 11.962243
_cell_angle_alpha 135.452598
_cell_angle_beta 77.790732
_cell_angle_gamma 121.463347
_cell_volume 755.888240
_symmetry_space_group_name_H-M "P -1"
_symmetry_group_IT_number 2
_symmetry_cell_setting 'triclinic'
loop_
_space_group_symop_operation_xyz
x,y,z
-x,-y,-z
loop_
_atom_site_type_symbol
_atom_site_label
_atom_site_fract_x
_atom_site_fract_y
_atom_site_fract_z
Si Si1 0.086761 0.474562 0.167378
Si Si2 0.356954 0.114884 0.699472
Si Si3 0.800577 0.562290 0.312494
Si Si4 0.024569 0.016632 0.376208
Si Si5 0.399565 0.752865 0.457446
Si Si6 0.521015 0.318489 0.357642
Si Si7 0.331219 0.623482 0.014906
Si Si8 0.222606 0.896566 0.114791
O O1 0.233036 0.562564 0.299116
O O2 0.185013 0.524503 0.066702
O O3 0.980257 0.578937 0.266381
O O4 0.934153 0.250091 0.043290
O O5 0.441615 0.183968 0.610366
O O6 0.486118 0.273891 0.879365
O O7 0.361320 0.922906 0.583033
O O8 0.163398 0.067500 0.705647
O O9 0.849644 0.754824 0.503245
O O10 0.677333 0.386492 0.291957
O O11 0.703624 0.523847 0.182374
O O12 0.122261 0.917570 0.249424
O O13 0.000000 0.000000 0.500000
O O14 0.438978 0.721340 0.553082
O O15 0.500000 0.500000 0.500000
O O16 0.357312 0.111763 0.199736
O O17 0.312143 0.786871 0.070296
#
# Coordination Sequence:
#
# PCOD9009527 Si02
#       8
#     2   2   2   2   2   2   2   2
#     4  10  21  41  66  97 122 158 216 271 316 368
#     4  10  21  39  69  97 123 159 219 262 324 366
#     4  11  23  39  64  91 126 171 213 255 312 389
#     4  12  22  37  63  99 127 163 209 265 324 373
#     4  10  21  41  65  92 127 169 206 269 308 380
#     4  12  25  43  60  91 133 176 214 250 318 386
#     4  10  21  42  67  97 125 160 213 271 315 375
#     4  11  22  40  62  89 131 168 203 262 320 368
#
# _framework density 21.167148999999998
#
# number of rings (size 3 to 8) (size 9 to 14) (size 15 to 20)
#    0.000    1.250    3.750    3.750    1.750    2.500 
#    2.250    2.500    0.000    0.000    0.000    0.000 
#    0.000    0.000    0.000    0.000    0.000    0.000 
#
# Total GULP energy -89456.145059 kJ/mol
# GULP energy per Si atom -5591.009066 kJ/mol
# Density = 2.111897 g / cm^3
# Si number density = 21.167149 Si / 1000 Ang^3
#
#
#
# Elastic Constant Matrix: (Units=GPa)
#
#
# Indices 1 2 3 4 5 6 
#
# 1 63.7741 35.4789 28.5917 3.5466 15.3384 6.4376
# 2 35.4789 98.8063 25.8751 13.0618 19.1153 9.2135
# 3 28.5917 25.8751 86.6977 13.8803 26.5103 3.8814
# 4 3.5466 13.0618 13.8803 42.1637 3.9102 4.9397
# 5 15.3384 19.1153 26.5103 3.9102 33.6534 9.9833
# 6 6.4376 9.2135 3.8814 4.9397 9.9833 22.6736
#
#
#
# Elastic Compliance Matrix: (Units=1/GPa)
#
#
# Indices 1 2 3 4 5 6 
#
# 1 0.022031 -0.006264 -0.005006 0.002212 -0.002079 -0.002419
# 2 -0.006264 0.013746 -0.000256 -0.003122 -0.003996 -0.001324
# 3 -0.005006 -0.000256 0.017568 -0.004722 -0.012341 0.004981
# 4 0.002212 -0.003122 -0.004722 0.026430 0.003097 -0.005673
# 5 -0.002079 -0.003996 -0.012341 0.003097 0.047402 -0.017219
# 6 -0.002419 -0.001324 0.004981 -0.005673 -0.017219 0.053294
#
#
# Mechanical properties :
#
#
# Convention : Reuss Voigt Hill
#
# Bulk Modulus (GPa) = 33.01078 47.68549 40.34813
# Shear Modulus (GPa) = 23.40585 30.32028 26.86307
#
# Velocity S-wave (km/s) = 3.32891 3.78884 3.56630
# Velocity P-wave (km/s) = 5.51404 6.45890 6.00508
#
# Compressibility (1/GPa) = 0.03029314
#
# Stress axis : x y z
#
# Youngs Moduli (GPa) = 45.39083 72.74643 56.92061
#
# Poissons Ratio (x) = 0.45571 0.28494
# Poissons Ratio (y) = 0.28435 0.01456
# Poissons Ratio (z) = 0.22723 0.01861
#
# Static dielectric constant tensor:
#      x y z
#    x 1.752770 0.012030 -0.010810 
#    y 0.012030 1.783450 0.066700 
#    z -0.010810 0.066700 1.813090 
# 
# From -- ./inp_files/391342.got.cif
#   From: 2010.05.17/outbox.cif.g08.bks.cpg/sg2_196_cif.got.tgz:391342.got - 2010.06.03 11:33:40.
