data_PCOD9009541
_publ_section_title
;
Structure prediction by ZEFSAII (Michael W. Deem and Ramdas Pophale) SiO2 
 PCOD9009541
Probable space group: P -1
;
_chemical_formula_sum "Si O2"
_cell_formula_units_Z 14
_cell_length_a 15.018621
_cell_length_b 6.657090
_cell_length_c 8.343218
_cell_angle_alpha 101.934415
_cell_angle_beta 126.888628
_cell_angle_gamma 56.119874
_cell_volume 543.521453
_symmetry_space_group_name_H-M "P -1"
_symmetry_group_IT_number 2
_symmetry_cell_setting 'triclinic'
loop_
_space_group_symop_operation_xyz
x,y,z
-x,-y,-z
loop_
_atom_site_type_symbol
_atom_site_label
_atom_site_fract_x
_atom_site_fract_y
_atom_site_fract_z
Si Si1 0.304060 0.942003 0.655275
Si Si2 0.647719 0.870959 0.966341
Si Si3 0.087773 0.565089 0.936127
Si Si4 0.515494 0.197769 0.445243
Si Si5 0.418498 0.407902 0.690508
Si Si6 0.001117 0.249044 0.448523
Si Si7 0.120521 0.578845 0.326559
O O1 0.343407 0.927330 0.510231
O O2 0.383468 0.664918 0.764384
O O3 0.151313 0.044070 0.532800
O O4 0.330089 0.117492 0.819865
O O5 0.581849 0.732718 0.801457
O O6 0.538075 0.155788 0.853454
O O7 0.790672 0.723266 0.006750
O O8 0.089098 0.699826 0.797570
O O9 0.950062 0.574085 0.789638
O O10 0.106977 0.663646 0.140655
O O11 0.469787 0.398933 0.564198
O O12 0.500000 0.000000 0.500000
O O13 0.275886 0.438206 0.519477
O O14 0.000000 0.500000 0.500000
O O15 0.956568 0.234849 0.577155
#
# Coordination Sequence:
#
# PCOD9009541 Si02
#       7
#     2   2   2   2   2   2   2
#     4  12  24  44  63 102 141 171 217 288 340 400
#     4  11  22  42  67 100 126 181 226 271 335 399
#     4  10  21  39  69  98 131 172 237 280 320 396
#     4  10  24  40  69  95 126 176 227 270 327 400
#     4  11  25  41  68  99 139 173 216 280 353 394
#     4  10  22  38  67  94 131 178 227 271 331 392
#     4  10  21  41  66  97 133 176 223 277 332 405
#
# _framework density 25.757954000000002
#
# number of rings (size 3 to 8) (size 9 to 14) (size 15 to 20)
#    0.000    1.429    4.286    1.286    8.000    2.857 
#    0.000    0.714    0.000    0.000    0.000    0.000 
#    0.000    0.000    0.000    0.000    0.000    0.000 
#
# Total GULP energy -78136.279637 kJ/mol
# GULP energy per Si atom -5581.162831 kJ/mol
# Density = 2.569933 g / cm^3
# Si number density = 25.757954 Si / 1000 Ang^3
#
#
#
# Elastic Constant Matrix: (Units=GPa)
#
#
# Indices 1 2 3 4 5 6 
#
# 1 120.2080 50.8947 58.9035 -4.8749 0.9867 -45.4777
# 2 50.8947 110.9845 60.5332 9.0397 -5.4317 -49.7507
# 3 58.9035 60.5332 155.6837 18.8503 -16.6445 -30.4144
# 4 -4.8749 9.0397 18.8503 51.4549 -10.7042 -1.4728
# 5 0.9867 -5.4317 -16.6445 -10.7042 35.9735 9.2475
# 6 -45.4777 -49.7507 -30.4144 -1.4728 9.2475 51.8742
#
#
#
# Elastic Compliance Matrix: (Units=1/GPa)
#
#
# Indices 1 2 3 4 5 6 
#
# 1 0.014807 0.000370 -0.004220 0.002252 -0.004655 0.011755
# 2 0.000370 0.018360 -0.004329 -0.001967 -0.003950 0.016043
# 3 -0.004220 -0.004329 0.009880 -0.002504 0.004020 -0.002846
# 4 0.002252 -0.001967 -0.002504 0.022000 0.005474 -0.001732
# 5 -0.004655 -0.003950 0.004020 0.005474 0.033742 -0.011372
# 6 0.011755 0.016043 -0.002846 -0.001732 -0.011372 0.045279
#
#
# Mechanical properties :
#
#
# Convention : Reuss Voigt Hill
#
# Bulk Modulus (GPa) = 37.46767 80.83765 59.15266
# Shear Modulus (GPa) = 29.52955 42.29682 35.91319
#
# Velocity S-wave (km/s) = 3.38956 4.05666 3.73803
# Velocity P-wave (km/s) = 5.46777 7.30710 6.45330
#
# Compressibility (1/GPa) = 0.02668968
#
# Stress axis : x y z
#
# Youngs Moduli (GPa) = 67.53550 54.46574 101.21519
#
# Poissons Ratio (x) = -0.02014 0.42711
# Poissons Ratio (y) = -0.02498 0.43813
# Poissons Ratio (z) = 0.28499 0.23577
#
# Static dielectric constant tensor:
#      x y z
#    x 2.135710 0.048250 -0.040980 
#    y 0.048250 2.100810 -0.007900 
#    z -0.040980 -0.007900 2.073890 
# 
# From -- ./inp_files/329182.got.cif
#   From: 2010.05.17/outbox.cif.g08.bks.cpg/sg2_165_cif.got.tgz:329182.got - 2010.06.03 11:33:40.
