data_PCOD9009650
_publ_section_title
;
Structure prediction by ZEFSAII (Michael W. Deem and Ramdas Pophale) SiO2 
 PCOD9009650
Probable space group: P -1
;
_chemical_formula_sum "Si O2"
_cell_formula_units_Z 16
_cell_length_a 11.237502
_cell_length_b 14.186821
_cell_length_c 8.667608
_cell_angle_alpha 42.794511
_cell_angle_beta 116.689887
_cell_angle_gamma 92.913664
_cell_volume 745.063625
_symmetry_space_group_name_H-M "P -1"
_symmetry_group_IT_number 2
_symmetry_cell_setting 'triclinic'
loop_
_space_group_symop_operation_xyz
x,y,z
-x,-y,-z
loop_
_atom_site_type_symbol
_atom_site_label
_atom_site_fract_x
_atom_site_fract_y
_atom_site_fract_z
Si Si1 0.590225 0.360755 0.104410
Si Si2 0.885043 0.399282 0.214057
Si Si3 0.426575 0.171022 0.682279
Si Si4 0.545169 0.332918 0.792836
Si Si5 0.094490 0.082401 0.875296
Si Si6 0.873077 0.706973 0.770442
Si Si7 0.157308 0.977336 0.679232
Si Si8 0.403323 0.942847 0.397598
O O1 0.730499 0.391988 0.109240
O O2 0.637692 0.187740 0.399916
O O3 0.500000 0.500000 0.000000
O O4 0.488044 0.367729 0.891606
O O5 0.981828 0.263833 0.555151
O O6 0.970120 0.354910 0.151817
O O7 0.870307 0.571001 0.037432
O O8 0.479695 0.261990 0.716615
O O9 0.249034 0.265147 0.465589
O O10 0.484875 0.147276 0.570321
O O11 0.500000 0.000000 0.000000
O O12 0.500000 0.500000 0.500000
O O13 0.715619 0.196474 0.069474
O O14 0.148762 0.009264 0.821323
O O15 0.241826 0.061743 0.083268
O O16 0.000000 0.000000 0.000000
O O17 0.819837 0.888548 0.563446
O O18 0.000000 0.000000 0.500000
O O19 0.500000 0.000000 0.500000
#
# Coordination Sequence:
#
# PCOD9009650 Si02
#       8
#     2   2   2   2   2   2   2   2
#     4  12  26  45  69 103 149 191 242 303 379 442
#     4  10  21  42  68 102 136 197 236 300 368 432
#     4  12  22  44  70 101 140 186 242 300 363 434
#     4  12  24  41  69 105 140 183 249 301 359 439
#     4  11  22  43  73 102 150 191 242 305 370 446
#     4  10  21  39  71  99 143 181 243 304 360 433
#     4  11  24  42  69 104 140 192 246 303 371 436
#     4  12  26  44  71 106 147 195 240 299 377 444
#
# _framework density 21.474675000000001
#
# number of rings (size 3 to 8) (size 9 to 14) (size 15 to 20)
#    0.000    0.750    3.750    5.250    0.000    1.000 
#    0.000    0.000    0.000    4.500    0.000    0.000 
#    0.000    0.000    0.000    0.000    0.000    0.000 
#
# Total GULP energy -89201.902411 kJ/mol
# GULP energy per Si atom -5575.118901 kJ/mol
# Density = 2.142580 g / cm^3
# Si number density = 21.474675 Si / 1000 Ang^3
#
#
#
# Elastic Constant Matrix: (Units=GPa)
#
#
# Indices 1 2 3 4 5 6 
#
# 1 98.0323 46.3446 17.7116 -3.3010 1.1302 22.6627
# 2 46.3446 163.8355 64.2965 -0.5242 4.7939 14.2022
# 3 17.7116 64.2965 122.9775 -31.9921 -9.8322 20.1988
# 4 -3.3010 -0.5242 -31.9921 49.0286 9.3840 -5.1817
# 5 1.1302 4.7939 -9.8322 9.3840 42.7090 1.7935
# 6 22.6627 14.2022 20.1988 -5.1817 1.7935 36.7782
#
#
#
# Elastic Compliance Matrix: (Units=1/GPa)
#
#
# Indices 1 2 3 4 5 6 
#
# 1 0.013494 -0.003795 0.001594 0.001001 0.000535 -0.007610
# 2 -0.003795 0.009250 -0.005501 -0.003305 -0.001537 0.001398
# 3 0.001594 -0.005501 0.013984 0.008165 0.002231 -0.005496
# 4 0.001001 -0.003305 0.008165 0.026452 -0.003591 0.000077
# 5 0.000535 -0.001537 0.002231 -0.003591 0.024988 -0.002686
# 6 -0.007610 0.001398 -0.005496 0.000077 -0.002686 0.034500
#
#
# Mechanical properties :
#
#
# Convention : Reuss Voigt Hill
#
# Bulk Modulus (GPa) = 46.90122 71.28342 59.09232
# Shear Modulus (GPa) = 34.44028 42.80268 38.62148
#
# Velocity S-wave (km/s) = 4.00905 4.46934 4.24543
# Velocity P-wave (km/s) = 6.58161 7.73948 7.18391
#
# Compressibility (1/GPa) = 0.02132141
#
# Stress axis : x y z
#
# Youngs Moduli (GPa) = 74.10853 108.11315 71.51260
#
# Poissons Ratio (x) = 0.41034 -0.11400
# Poissons Ratio (y) = 0.28128 0.39342
# Poissons Ratio (z) = -0.11814 0.59478
#
# Static dielectric constant tensor:
#      x y z
#    x 1.839560 0.007140 -0.099990 
#    y 0.007140 1.814450 -0.094590 
#    z -0.099990 -0.094590 1.688950 
# 
# From -- ./inp_files/269505.got.cif
#   From: 2010.05.17/outbox.cif.g08.bks.cpg/sg2_135_cif.got.tgz:269505.got - 2010.06.03 11:33:40.
