data_PCOD9009822
_publ_section_title
;
Structure prediction by ZEFSAII (Michael W. Deem and Ramdas Pophale) SiO2 
 PCOD9009822
Probable space group: P -1
;
_chemical_formula_sum "Si O2"
_cell_formula_units_Z 14
_cell_length_a 9.708019
_cell_length_b 8.406555
_cell_length_c 11.475258
_cell_angle_alpha 80.093137
_cell_angle_beta 140.945321
_cell_angle_gamma 89.647411
_cell_volume 566.331732
_symmetry_space_group_name_H-M "P -1"
_symmetry_group_IT_number 2
_symmetry_cell_setting 'triclinic'
loop_
_space_group_symop_operation_xyz
x,y,z
-x,-y,-z
loop_
_atom_site_type_symbol
_atom_site_label
_atom_site_fract_x
_atom_site_fract_y
_atom_site_fract_z
Si Si1 0.786232 0.370336 0.531867
Si Si2 0.995711 0.676459 0.917432
Si Si3 0.022328 0.967542 0.355057
Si Si4 0.529914 0.811705 0.499775
Si Si5 0.379155 0.980858 0.758866
Si Si6 0.475791 0.709879 0.218351
Si Si7 0.876362 0.810624 0.066601
O O1 0.596682 0.291943 0.482275
O O2 0.666119 0.543002 0.377692
O O3 0.908125 0.229326 0.539616
O O4 0.982795 0.357728 0.758824
O O5 0.240261 0.674887 0.029596
O O6 0.930211 0.802267 0.968004
O O7 0.000000 0.500000 0.000000
O O8 0.791733 0.724894 0.688946
O O9 0.970683 0.947876 0.187089
O O10 0.234807 0.023704 0.539534
O O11 0.799374 0.056969 0.262549
O O12 0.435302 0.786976 0.313160
O O13 0.500000 0.000000 0.500000
O O14 0.445422 0.149844 0.820585
O O15 0.610033 0.848784 0.906411
#
# Coordination Sequence:
#
# PCOD9009822 Si02
#       7
#     2   2   2   2   2   2   2
#     4  10  21  40  60  82 131 156 196 253 307 344
#     4  12  24  38  64  89 127 168 199 241 320 367
#     4   9  22  43  66  89 121 162 206 261 302 356
#     4  12  24  39  61  93 126 163 202 254 301 373
#     4  11  23  40  69  90 119 163 213 248 309 362
#     4  12  24  39  59  96 127 160 203 254 301 372
#     4  10  22  40  64  90 119 164 203 256 299 369
#
# _framework density 24.720493999999999
#
# number of rings (size 3 to 8) (size 9 to 14) (size 15 to 20)
#    0.857    0.286    2.857    4.286    2.000    1.714 
#    0.000    0.000    0.000    2.571    0.000    0.000 
#    0.000    0.000    0.000    0.000    0.000    0.000 
#
# Total GULP energy -78273.649706 kJ/mol
# GULP energy per Si atom -5590.974979 kJ/mol
# Density = 2.466423 g / cm^3
# Si number density = 24.720494 Si / 1000 Ang^3
#
#
#
# Elastic Constant Matrix: (Units=GPa)
#
#
# Indices 1 2 3 4 5 6 
#
# 1 46.0382 7.2613 35.8204 3.3018 9.0231 -17.0701
# 2 7.2613 67.4424 25.7407 -16.0451 8.4335 0.1270
# 3 35.8204 25.7407 181.3960 -5.0385 40.6267 8.1417
# 4 3.3018 -16.0451 -5.0385 49.4368 -5.5230 1.3336
# 5 9.0231 8.4335 40.6267 -5.5230 41.9804 4.9522
# 6 -17.0701 0.1270 8.1417 1.3336 4.9522 24.8152
#
#
#
# Elastic Compliance Matrix: (Units=1/GPa)
#
#
# Indices 1 2 3 4 5 6 
#
# 1 0.042620 -0.002117 -0.008641 -0.005888 -0.005099 0.033498
# 2 -0.002117 0.017068 -0.001692 0.005488 -0.000474 -0.001189
# 3 -0.008641 -0.001692 0.009078 0.000539 -0.005594 -0.007826
# 4 -0.005888 0.005488 0.000539 0.023003 0.003395 -0.006169
# 5 -0.005099 -0.000474 -0.005594 0.003395 0.031841 -0.008207
# 6 0.033498 -0.001189 -0.007826 -0.006169 -0.008207 0.067884
#
#
# Mechanical properties :
#
#
# Convention : Reuss Voigt Hill
#
# Bulk Modulus (GPa) = 22.79606 48.05792 35.42699
# Shear Modulus (GPa) = 21.64354 38.31674 29.98014
#
# Velocity S-wave (km/s) = 2.96215 3.94127 3.48625
# Velocity P-wave (km/s) = 4.57609 6.33989 5.52878
#
# Compressibility (1/GPa) = 0.04386723
#
# Stress axis : x y z
#
# Youngs Moduli (GPa) = 23.46316 58.58813 110.15150
#
# Poissons Ratio (x) = 0.12403 0.95179
# Poissons Ratio (y) = 0.04967 0.18638
# Poissons Ratio (z) = 0.20274 0.09913
#
# Static dielectric constant tensor:
#      x y z
#    x 1.973970 0.005830 -0.006140 
#    y 0.005830 2.029350 0.029740 
#    z -0.006140 0.029740 1.993220 
# 
# From -- ./inp_files/220075.got.cif
#   From: 2010.05.17/outbox.cif.g08.bks.cpg/sg2_111_cif.got.tgz:220075.got - 2010.06.03 11:33:40.
