data_PCOD9009804
_publ_section_title
;
Structure prediction by ZEFSAII (Michael W. Deem and Ramdas Pophale) SiO2 
 PCOD9009804
Probable space group: P -1
;
_chemical_formula_sum "Si O2"
_cell_formula_units_Z 16
_cell_length_a 8.045257
_cell_length_b 12.387290
_cell_length_c 10.443556
_cell_angle_alpha 103.530220
_cell_angle_beta 84.118161
_cell_angle_gamma 51.477617
_cell_volume 748.353135
_symmetry_space_group_name_H-M "P -1"
_symmetry_group_IT_number 2
_symmetry_cell_setting 'triclinic'
loop_
_space_group_symop_operation_xyz
x,y,z
-x,-y,-z
loop_
_atom_site_type_symbol
_atom_site_label
_atom_site_fract_x
_atom_site_fract_y
_atom_site_fract_z
Si Si1 0.508986 0.169434 0.643160
Si Si2 0.268522 0.816051 0.951934
Si Si3 0.175270 0.130097 0.606774
Si Si4 0.302263 0.681107 0.415268
Si Si5 0.815120 0.951919 0.132149
Si Si6 0.232773 0.652214 0.697437
Si Si7 0.021895 0.345724 0.087985
Si Si8 0.655677 0.624666 0.043096
O O1 0.284723 0.204370 0.623351
O O2 0.595581 0.241085 0.584411
O O3 0.452455 0.240481 0.808964
O O4 0.704384 0.992344 0.550766
O O5 0.205596 0.767714 0.824684
O O6 0.336580 0.904338 0.909405
O O7 0.462377 0.673274 0.978155
O O8 0.052572 0.911745 0.088053
O O9 0.240751 0.042890 0.713512
O O10 0.906091 0.246087 0.644023
O O11 0.205335 0.701408 0.568973
O O12 0.517182 0.505479 0.341361
O O13 0.853481 0.814466 0.028494
O O14 0.049130 0.645823 0.759091
O O15 0.787909 0.471587 0.066389
O O16 0.165277 0.390327 0.062291
#
# Coordination Sequence:
#
# PCOD9009804 Si02
#       8
#     2   2   2   2   2   2   2   2
#     4  11  23  42  64 100 126 165 226 261 311 401
#     4  10  23  38  64  93 129 171 208 270 327 377
#     4  11  24  41  68  93 129 176 209 273 320 382
#     4  11  23  43  67  90 132 174 213 268 325 376
#     4  10  21  40  59  94 128 163 218 262 315 386
#     4  10  23  42  60  96 125 168 220 261 317 395
#     4  10  22  39  64  89 133 159 214 266 308 392
#     4  11  22  40  65  96 126 172 207 268 329 375
#
# _framework density 21.380279999999999
#
# number of rings (size 3 to 8) (size 9 to 14) (size 15 to 20)
#    0.000    1.500    2.500    1.875    1.750    4.500 
#    6.750    1.250    0.000    0.000    0.000    0.000 
#    0.000    0.000    0.000    0.000    0.000    0.000 
#
# Total GULP energy -89274.564770 kJ/mol
# GULP energy per Si atom -5579.660298 kJ/mol
# Density = 2.133162 g / cm^3
# Si number density = 21.380280 Si / 1000 Ang^3
#
#
#
# Elastic Constant Matrix: (Units=GPa)
#
#
# Indices 1 2 3 4 5 6 
#
# 1 63.6494 19.7858 16.3838 -15.4176 -20.1515 21.3755
# 2 19.7858 25.7069 -5.4060 -7.4538 -4.8373 6.7770
# 3 16.3838 -5.4060 86.7067 -7.5807 -31.6494 12.7230
# 4 -15.4176 -7.4538 -7.5807 27.7998 11.2194 -7.4819
# 5 -20.1515 -4.8373 -31.6494 11.2194 27.7610 -4.4834
# 6 21.3755 6.7770 12.7230 -7.4819 -4.4834 22.8576
#
#
#
# Elastic Compliance Matrix: (Units=1/GPa)
#
#
# Indices 1 2 3 4 5 6 
#
# 1 0.036234 -0.014522 0.005775 -0.000163 0.025938 -0.027759
# 2 -0.014522 0.057021 0.010786 0.005067 0.008679 -0.005968
# 3 0.005775 0.010786 0.026175 -0.005936 0.035377 -0.018172
# 4 -0.000163 0.005067 -0.005936 0.048693 -0.023538 0.013276
# 5 0.025938 0.008679 0.035377 -0.023538 0.100637 -0.034486
# 6 -0.027759 -0.005968 -0.018172 0.013276 -0.034486 0.079174
#
#
# Mechanical properties :
#
#
# Convention : Reuss Voigt Hill
#
# Bulk Modulus (GPa) = 8.09671 26.39891 17.24781
# Shear Modulus (GPa) = 12.98613 25.37030 19.17821
#
# Velocity S-wave (km/s) = 2.46720 3.44847 2.99825
# Velocity P-wave (km/s) = 3.45128 5.31320 4.48003
#
# Compressibility (1/GPa) = 0.12350698
#
# Stress axis : x y z
#
# Youngs Moduli (GPa) = 27.59862 17.53732 38.20433
#
# Poissons Ratio (x) = 0.25468 -0.22062
# Poissons Ratio (y) = 0.40079 -0.41208
# Poissons Ratio (z) = -0.15937 -0.18916
#
# Static dielectric constant tensor:
#      x y z
#    x 1.778900 0.006400 -0.037120 
#    y 0.006400 1.824850 0.001790 
#    z -0.037120 0.001790 1.780930 
# 
# From -- ./inp_files/187497.got.cif
#   From: 2010.05.17/outbox.cif.g08.bks.cpg/sg2_94_cif.got.tgz:187497.got - 2010.06.03 11:33:40.
