data_PCOD9009649
_publ_section_title
;
Structure prediction by ZEFSAII (Michael W. Deem and Ramdas Pophale) SiO2 
 PCOD9009649
Probable space group: P -1
;
_chemical_formula_sum "Si O2"
_cell_formula_units_Z 16
_cell_length_a 11.489203
_cell_length_b 12.477762
_cell_length_c 9.740912
_cell_angle_alpha 92.330846
_cell_angle_beta 135.123842
_cell_angle_gamma 53.989053
_cell_volume 599.662318
_symmetry_space_group_name_H-M "P -1"
_symmetry_group_IT_number 2
_symmetry_cell_setting 'triclinic'
loop_
_space_group_symop_operation_xyz
x,y,z
-x,-y,-z
loop_
_atom_site_type_symbol
_atom_site_label
_atom_site_fract_x
_atom_site_fract_y
_atom_site_fract_z
Si Si1 0.179637 0.771030 0.281080
Si Si2 0.523234 0.332100 0.873367
Si Si3 0.069726 0.018839 0.416243
Si Si4 0.639811 0.086064 0.741410
Si Si5 0.037228 0.666278 0.364390
Si Si6 0.827734 0.539075 0.158978
Si Si7 0.260851 0.141658 0.600918
Si Si8 0.322949 0.363704 0.262695
O O1 0.503108 0.623693 0.527779
O O2 0.070924 0.723208 0.265626
O O3 0.114973 0.902964 0.337991
O O4 0.961618 0.899101 0.982225
O O5 0.587340 0.218037 0.798003
O O6 0.361296 0.354679 0.859797
O O7 0.327138 0.527309 0.674097
O O8 0.804277 0.223093 0.163582
O O9 0.285703 0.001182 0.600881
O O10 0.000000 0.000000 0.500000
O O11 0.520085 0.056115 0.737434
O O12 0.468675 0.194464 0.465532
O O13 0.000065 0.559881 0.295489
O O14 0.806964 0.810259 0.291265
O O15 0.025580 0.336121 0.340884
O O16 0.653331 0.623707 0.879772
O O17 0.000000 0.500000 0.000000
#
# Coordination Sequence:
#
# PCOD9009649 Si02
#       8
#     2   2   2   2   2   2   2   2
#     4  11  27  43  68 103 148 182 230 290 357 416
#     4  10  21  39  71  99 143 176 235 288 347 412
#     4  11  23  40  62 109 145 183 222 295 360 411
#     4  11  23  47  69 104 146 187 227 285 354 420
#     4  11  21  41  69 109 136 183 236 290 347 413
#     4  11  22  41  72 107 132 182 244 289 337 401
#     4  11  21  40  72 103 144 181 230 288 347 418
#     4  12  25  47  75  99 143 188 240 287 341 421
#
# _framework density 26.681683
#
# number of rings (size 3 to 8) (size 9 to 14) (size 15 to 20)
#    0.000    1.000    5.000    1.875    1.750    3.500 
#    0.000    7.500    0.000    0.000    0.000    0.000 
#    0.000    0.000    0.000    0.000    0.000    0.000 
#
# Total GULP energy -89423.271245 kJ/mol
# GULP energy per Si atom -5588.954453 kJ/mol
# Density = 2.662095 g / cm^3
# Si number density = 26.681683 Si / 1000 Ang^3
#
#
#
# Elastic Constant Matrix: (Units=GPa)
#
#
# Indices 1 2 3 4 5 6 
#
# 1 177.6213 42.3980 58.4600 -5.6508 -1.2719 24.7531
# 2 42.3980 87.9539 10.7985 -2.3188 1.7841 10.5606
# 3 58.4600 10.7985 175.0048 -23.0790 -8.9444 -8.2525
# 4 -5.6508 -2.3188 -23.0790 16.8662 0.5710 -1.7028
# 5 -1.2719 1.7841 -8.9444 0.5710 37.3623 7.4018
# 6 24.7531 10.5606 -8.2525 -1.7028 7.4018 44.6715
#
#
#
# Elastic Compliance Matrix: (Units=1/GPa)
#
#
# Indices 1 2 3 4 5 6 
#
# 1 0.007835 -0.002968 -0.002900 -0.002213 0.000612 -0.004361
# 2 -0.002968 0.012957 0.000243 0.001007 -0.000426 -0.001265
# 3 -0.002900 0.000243 0.008290 0.010704 0.001054 0.003314
# 4 -0.002213 0.001007 0.010704 0.073909 0.000169 0.005755
# 5 0.000612 -0.000426 0.001054 0.000169 0.027982 -0.004674
# 6 -0.004361 -0.001265 0.003314 0.005755 -0.004674 0.026707
#
#
# Mechanical properties :
#
#
# Convention : Reuss Voigt Hill
#
# Bulk Modulus (GPa) = 56.07842 73.76590 64.92216
# Shear Modulus (GPa) = 28.59209 41.70823 35.15016
#
# Velocity S-wave (km/s) = 3.27708 3.95799 3.63352
# Velocity P-wave (km/s) = 5.94830 6.97096 6.47983
#
# Compressibility (1/GPa) = 0.01783217
#
# Stress axis : x y z
#
# Youngs Moduli (GPa) = 127.63829 77.17619 120.63172
#
# Poissons Ratio (x) = 0.22904 0.34986
# Poissons Ratio (y) = 0.37879 -0.02933
# Poissons Ratio (z) = 0.37018 -0.01876
#
# Static dielectric constant tensor:
#      x y z
#    x 2.090270 -0.038190 0.059550 
#    y -0.038190 2.071280 -0.028780 
#    z 0.059550 -0.028780 2.210570 
# 
# From -- ./inp_files/428246.got.cif
#   From: 2010.05.17/outbox.cif.g08.bks.cpg/sg2_215_cif.got.tgz:428246.got - 2010.06.03 11:33:40.
