data_PCOD9009614
_publ_section_title
;
Structure prediction by ZEFSAII (Michael W. Deem and Ramdas Pophale) SiO2 
 PCOD9009614
Probable space group: P -1
;
_chemical_formula_sum "Si O2"
_cell_formula_units_Z 16
_cell_length_a 5.917989
_cell_length_b 5.464495
_cell_length_c 21.943029
_cell_angle_alpha 103.771290
_cell_angle_beta 105.043759
_cell_angle_gamma 92.334001
_cell_volume 661.605142
_symmetry_space_group_name_H-M "P -1"
_symmetry_group_IT_number 2
_symmetry_cell_setting 'triclinic'
loop_
_space_group_symop_operation_xyz
x,y,z
-x,-y,-z
loop_
_atom_site_type_symbol
_atom_site_label
_atom_site_fract_x
_atom_site_fract_y
_atom_site_fract_z
Si Si1 0.963644 0.463644 0.213645
Si Si2 0.412757 0.793017 0.293125
Si Si3 0.678414 0.065852 0.571784
Si Si4 0.978979 0.076020 0.101273
Si Si5 0.276431 0.373474 0.898727
Si Si6 0.326508 0.706765 0.706875
Si Si7 0.965155 0.577717 0.571784
Si Si8 0.263463 0.763463 0.013463
O O1 0.088817 0.320181 0.159540
O O2 0.730263 0.498898 0.159540
O O3 0.881732 0.309171 0.258660
O O4 0.135587 0.708148 0.258660
O O5 0.446043 0.890248 0.370407
O O6 0.531793 0.531794 0.281792
O O7 0.520457 0.020461 0.270459
O O8 0.831012 0.331012 0.581012
O O9 0.500000 0.000000 0.500000
O O10 0.827123 0.827122 0.577122
O O11 0.885684 0.885682 0.135683
O O12 0.740538 0.091773 0.044092
O O13 0.152074 0.957291 0.060962
O O14 0.530149 0.335365 0.939038
O O15 0.152354 0.503590 0.955908
O O16 0.205231 0.649434 0.629594
O O17 0.000000 0.500000 0.500000
#
# Coordination Sequence:
#
# PCOD9009614 Si02
#       8
#     2   2   2   2   2   2   2   2
#     4  11  28  46  68 106 146 195 252 306 374 459
#     4  12  28  49  76 106 152 203 252 313 379 445
#     4  12  24  45  76 113 154 193 253 315 374 447
#     4  10  21  39  70  99 141 185 241 303 374 446
#     4  10  21  39  70  99 141 185 241 303 374 446
#     4  12  28  49  76 106 152 203 252 313 379 445
#     4  12  24  45  76 113 154 193 253 315 374 447
#     4   9  20  40  66 106 134 183 242 302 372 447
#
# _framework density 24.183609000000001
#
# number of rings (size 3 to 8) (size 9 to 14) (size 15 to 20)
#    0.000    1.000    1.250    4.500    3.500    2.000 
#    0.000    2.500    0.000    0.000    0.000    0.000 
#    0.000    0.000    0.000    0.000    0.000    0.000 
#
# Total GULP energy -89247.276350 kJ/mol
# GULP energy per Si atom -5577.954772 kJ/mol
# Density = 2.412857 g / cm^3
# Si number density = 24.183609 Si / 1000 Ang^3
#
#
#
# Elastic Constant Matrix: (Units=GPa)
#
#
# Indices 1 2 3 4 5 6 
#
# 1 47.8874 40.3614 40.5017 0.8573 -1.4851 8.0003
# 2 40.3614 151.5048 29.7450 3.8991 1.4456 8.9172
# 3 40.5017 29.7450 153.3727 -3.9094 -4.0179 1.3482
# 4 0.8573 3.8991 -3.9094 27.3451 -3.9097 1.7412
# 5 -1.4851 1.4456 -4.0179 -3.9097 21.9303 1.9317
# 6 8.0003 8.9172 1.3482 1.7412 1.9317 48.5778
#
#
#
# Elastic Compliance Matrix: (Units=1/GPa)
#
#
# Indices 1 2 3 4 5 6 
#
# 1 0.034253 -0.007402 -0.007545 -0.000594 0.001682 -0.004119
# 2 -0.007402 0.008583 0.000233 -0.001112 -0.001198 -0.000275
# 3 -0.007545 0.000233 0.008531 0.001545 0.001237 0.000858
# 4 -0.000594 -0.001112 0.001545 0.038090 0.007230 -0.001394
# 5 0.001682 -0.001198 0.001237 0.007230 0.047505 -0.002239
# 6 -0.004119 -0.000275 0.000858 -0.001394 -0.002239 0.021430
#
#
# Mechanical properties :
#
#
# Convention : Reuss Voigt Hill
#
# Bulk Modulus (GPa) = 45.57993 63.77567 54.67780
# Shear Modulus (GPa) = 25.62354 35.71444 30.66899
#
# Velocity S-wave (km/s) = 3.25859 3.84709 3.56500
# Velocity P-wave (km/s) = 5.74859 6.79427 6.29319
#
# Compressibility (1/GPa) = 0.02193948
#
# Stress axis : x y z
#
# Youngs Moduli (GPa) = 29.19446 116.50943 117.21297
#
# Poissons Ratio (x) = 0.86243 0.88433
# Poissons Ratio (y) = 0.21610 -0.02729
# Poissons Ratio (z) = 0.22026 -0.02713
#
# Static dielectric constant tensor:
#      x y z
#    x 2.037200 -0.078980 0.007270 
#    y -0.078980 2.201180 0.014890 
#    z 0.007270 0.014890 1.823540 
# 
# From -- ./inp_files/603394.got.cif
#   From: 2010.05.17/outbox.cif.g08.bks.cpg/sg2_302_cif.got.tgz:603394.got - 2010.06.03 11:33:40.
