data_PCOD9009828
_publ_section_title
;
Structure prediction by ZEFSAII (Michael W. Deem and Ramdas Pophale) SiO2 
 PCOD9009828
Probable space group: P -1
;
_chemical_formula_sum "Si O2"
_cell_formula_units_Z 16
_cell_length_a 12.530976
_cell_length_b 7.934969
_cell_length_c 14.202349
_cell_angle_alpha 56.129595
_cell_angle_beta 50.154132
_cell_angle_gamma 46.428317
_cell_volume 768.362299
_symmetry_space_group_name_H-M "P -1"
_symmetry_group_IT_number 2
_symmetry_cell_setting 'triclinic'
loop_
_space_group_symop_operation_xyz
x,y,z
-x,-y,-z
loop_
_atom_site_type_symbol
_atom_site_label
_atom_site_fract_x
_atom_site_fract_y
_atom_site_fract_z
Si Si1 0.779147 0.328134 0.834863
Si Si2 0.602307 0.791549 0.881049
Si Si3 0.051922 0.266530 0.333223
Si Si4 0.784421 0.195765 0.258895
Si Si5 0.354398 0.315009 0.895996
Si Si6 0.026906 0.107945 0.596046
Si Si7 0.080472 0.230756 0.816341
Si Si8 0.121121 0.163878 0.035576
O O1 0.627404 0.590025 0.855532
O O2 0.903574 0.280098 0.866896
O O3 0.888700 0.284225 0.693817
O O4 0.749662 0.110995 0.924374
O O5 0.771899 0.786711 0.779480
O O6 0.466515 0.065600 0.857689
O O7 0.590157 0.713279 0.018500
O O8 0.023791 0.069878 0.364003
O O9 0.923137 0.533566 0.288397
O O10 0.045031 0.245573 0.456102
O O11 0.654039 0.464839 0.221284
O O12 0.806699 0.063846 0.386485
O O13 0.795310 0.011600 0.232151
O O14 0.953379 0.197490 0.157942
O O15 0.179759 0.331811 0.991811
O O16 0.107240 0.192919 0.922889
#
# Coordination Sequence:
#
# PCOD9009828 Si02
#       8
#     2   2   2   2   2   2   2   2
#     4   9  18  32  49  75 100 126 160 201 248 290
#     4  10  21  34  48  70 104 136 163 194 238 298
#     4  10  18  34  53  76  99 123 160 206 248 290
#     4  10  18  31  49  75 100 125 164 205 243 285
#     4  11  21  32  49  72 101 138 166 193 239 291
#     4   9  19  32  56  78  94 121 162 209 251 284
#     4   9  17  28  50  74  98 123 153 204 251 282
#     4  10  17  29  50  73  98 126 162 208 243 281
#
# _framework density 20.823509000000001
#
# number of rings (size 3 to 8) (size 9 to 14) (size 15 to 20)
#    0.000    2.500    0.000    6.375    0.000    5.000 
#    0.000    1.875    0.000    0.000    0.000    7.875 
#    0.000    0.000    0.000    0.000    0.000    0.000 
#
# Total GULP energy -89270.316740 kJ/mol
# GULP energy per Si atom -5579.394796 kJ/mol
# Density = 2.077611 g / cm^3
# Si number density = 20.823509 Si / 1000 Ang^3
#
#
#
# Elastic Constant Matrix: (Units=GPa)
#
#
# Indices 1 2 3 4 5 6 
#
# 1 40.2353 -8.1878 13.4104 6.5904 13.7041 4.6112
# 2 -8.1878 143.3383 32.7809 -7.5597 9.8962 4.1209
# 3 13.4104 32.7809 98.5008 -12.3107 36.9888 -5.2998
# 4 6.5904 -7.5597 -12.3107 16.7595 0.4172 0.2792
# 5 13.7041 9.8962 36.9888 0.4172 30.1571 -8.0435
# 6 4.6112 4.1209 -5.2998 0.2792 -8.0435 18.1989
#
#
#
# Elastic Compliance Matrix: (Units=1/GPa)
#
#
# Indices 1 2 3 4 5 6 
#
# 1 0.038259 0.003823 -0.000278 -0.012585 -0.023707 -0.020925
# 2 0.003823 0.008090 -0.002358 0.000561 -0.002767 -0.004719
# 3 -0.000278 -0.002358 0.024604 0.018001 -0.031208 -0.006300
# 4 -0.012585 0.000561 0.018001 0.078549 -0.017840 -0.000786
# 5 -0.023707 -0.002767 -0.031208 -0.017840 0.093846 0.039297
# 6 -0.020925 -0.004719 -0.006300 -0.000786 0.039297 0.076865
#
#
# Mechanical properties :
#
#
# Convention : Reuss Voigt Hill
#
# Bulk Modulus (GPa) = 13.63701 39.78684 26.71193
# Shear Modulus (GPa) = 14.60788 29.29448 21.95118
#
# Velocity S-wave (km/s) = 2.65148 3.75480 3.25030
# Velocity P-wave (km/s) = 3.99210 6.16005 5.19052
#
# Compressibility (1/GPa) = 0.07332986
#
# Stress axis : x y z
#
# Youngs Moduli (GPa) = 26.13795 123.60306 40.64298
#
# Poissons Ratio (x) = -0.47259 0.01128
# Poissons Ratio (y) = -0.09994 0.09582
# Poissons Ratio (z) = 0.00725 0.29142
#
# Static dielectric constant tensor:
#      x y z
#    x 1.784290 -0.021360 -0.001230 
#    y -0.021360 1.857640 -0.014600 
#    z -0.001230 -0.014600 1.743160 
# 
# From -- ./inp_files/253991.got.cif
#   From: 2010.05.17/outbox.cif.g08.bks.cpg/sg2_127_cif.got.tgz:253991.got - 2010.06.03 11:33:40.
