data_PCOD9009611
_publ_section_title
;
Structure prediction by ZEFSAII (Michael W. Deem and Ramdas Pophale) SiO2 
 PCOD9009611
Probable space group: P -1
;
_chemical_formula_sum "Si O2"
_cell_formula_units_Z 14
_cell_length_a 16.641346
_cell_length_b 8.601040
_cell_length_c 21.861800
_cell_angle_alpha 149.796573
_cell_angle_beta 155.191955
_cell_angle_gamma 27.376618
_cell_volume 575.621037
_symmetry_space_group_name_H-M "P -1"
_symmetry_group_IT_number 2
_symmetry_cell_setting 'triclinic'
loop_
_space_group_symop_operation_xyz
x,y,z
-x,-y,-z
loop_
_atom_site_type_symbol
_atom_site_label
_atom_site_fract_x
_atom_site_fract_y
_atom_site_fract_z
Si Si1 0.718129 0.633861 0.041266
Si Si2 0.345646 0.322622 0.823492
Si Si3 0.270307 0.297711 0.057014
Si Si4 0.858971 0.313885 0.774368
Si Si5 0.490714 0.118793 0.463438
Si Si6 0.582843 0.080254 0.785062
Si Si7 0.017193 0.686203 0.362263
O O1 0.779641 0.481466 0.963884
O O2 0.679676 0.346364 0.952260
O O3 0.878588 0.736777 0.222021
O O4 0.500000 0.000000 0.000000
O O5 0.383678 0.203470 0.738219
O O6 0.095412 0.489676 0.731055
O O7 0.483329 0.971712 0.842787
O O8 0.500000 0.500000 0.000000
O O9 0.175200 0.564319 0.137571
O O10 0.122198 0.105717 0.878272
O O11 0.704602 0.145004 0.602047
O O12 0.752412 0.677055 0.784624
O O13 0.262878 0.482991 0.436573
O O14 0.500000 0.000000 0.500000
O O15 0.470319 0.908215 0.319587
O O16 0.000000 0.000000 0.500000
#
# Coordination Sequence:
#
# PCOD9009611 Si02
#       7
#     2   2   2   2   2   2   2
#     4  12  24  44  73 107 140 187 253 298 369 436
#     4  11  22  45  69 105 140 190 244 302 370 436
#     4  10  21  39  70  99 136 184 242 295 351 440
#     4  10  23  42  68 103 147 186 237 300 373 431
#     4  12  28  46  73 109 152 194 248 306 370 441
#     4  11  24  44  75 101 146 194 246 304 364 444
#     4  12  27  46  74 106 156 192 239 313 377 429
#
# _framework density 24.321556999999999
#
# number of rings (size 3 to 8) (size 9 to 14) (size 15 to 20)
#    0.000    0.857    2.857    3.857    4.000    4.571 
#    0.000    0.714    0.000    0.000    0.000    0.000 
#    0.000    0.000    0.000    0.000    0.000    0.000 
#
# Total GULP energy -78071.941979 kJ/mol
# GULP energy per Si atom -5576.567284 kJ/mol
# Density = 2.426620 g / cm^3
# Si number density = 24.321557 Si / 1000 Ang^3
#
#
#
# Elastic Constant Matrix: (Units=GPa)
#
#
# Indices 1 2 3 4 5 6 
#
# 1 121.2980 0.9363 25.3233 0.9733 -26.7717 20.9838
# 2 0.9363 43.2858 27.7344 -10.6325 -4.2098 8.7948
# 3 25.3233 27.7344 156.6358 4.6825 -11.6992 9.2970
# 4 0.9733 -10.6325 4.6825 29.3705 -0.7516 2.9811
# 5 -26.7717 -4.2098 -11.6992 -0.7516 53.2391 -5.2288
# 6 20.9838 8.7948 9.2970 2.9811 -5.2288 33.4808
#
#
#
# Elastic Compliance Matrix: (Units=1/GPa)
#
#
# Indices 1 2 3 4 5 6 
#
# 1 0.010681 0.002974 -0.001574 0.001749 0.004650 -0.006468
# 2 0.002974 0.032282 -0.005882 0.013552 0.002003 -0.009604
# 3 -0.001574 -0.005882 0.007772 -0.003380 0.000477 0.000749
# 4 0.001749 0.013552 -0.003380 0.040186 0.001076 -0.007127
# 5 0.004650 0.002003 0.000477 0.001076 0.021367 -0.000332
# 6 -0.006468 -0.009604 0.000749 -0.007127 -0.000332 0.036819
#
#
# Mechanical properties :
#
#
# Convention : Reuss Voigt Hill
#
# Bulk Modulus (GPa) = 23.94092 47.68974 35.81533
# Shear Modulus (GPa) = 29.07047 41.03312 35.05179
#
# Velocity S-wave (km/s) = 3.46100 4.11190 3.80041
# Velocity P-wave (km/s) = 5.08293 6.49571 5.83226
#
# Compressibility (1/GPa) = 0.04176948
#
# Stress axis : x y z
#
# Youngs Moduli (GPa) = 93.62446 30.97728 128.65874
#
# Poissons Ratio (x) = -0.09212 0.20256
# Poissons Ratio (y) = -0.27841 0.75678
# Poissons Ratio (z) = 0.14741 0.18221
#
# Static dielectric constant tensor:
#      x y z
#    x 2.242870 -0.263060 0.090390 
#    y -0.263060 2.478810 -0.014380 
#    z 0.090390 -0.014380 2.003930 
# 
# From -- ./inp_files/613013.got.cif
#   From: 2010.05.17/outbox.cif.g08.bks.cpg/sg2_307_cif.got.tgz:613013.got - 2010.06.03 11:33:40.
