data_PCOD9009341
_publ_section_title
;
Structure prediction by ZEFSAII (Michael W. Deem and Ramdas Pophale) SiO2 
 PCOD9009341
Probable space group: P -1
;
_chemical_formula_sum "Si O2"
_cell_formula_units_Z 16
_cell_length_a 16.588621
_cell_length_b 8.709148
_cell_length_c 12.507445
_cell_angle_alpha 72.699894
_cell_angle_beta 34.957573
_cell_angle_gamma 50.143459
_cell_volume 679.816546
_symmetry_space_group_name_H-M "P -1"
_symmetry_group_IT_number 2
_symmetry_cell_setting 'triclinic'
loop_
_space_group_symop_operation_xyz
x,y,z
-x,-y,-z
loop_
_atom_site_type_symbol
_atom_site_label
_atom_site_fract_x
_atom_site_fract_y
_atom_site_fract_z
Si Si1 0.561386 0.613072 0.570225
Si Si2 0.967537 0.481244 0.200042
Si Si3 0.875961 0.036488 0.726951
Si Si4 0.165521 0.120434 0.884343
Si Si5 0.034380 0.295998 0.654862
Si Si6 0.317941 0.021759 0.201337
Si Si7 0.124004 0.884768 0.709719
Si Si8 0.601042 0.489041 0.050931
O O1 0.758542 0.555366 0.397551
O O2 0.666296 0.381420 0.438788
O O3 0.391813 0.877038 0.658236
O O4 0.461025 0.597759 0.780075
O O5 0.943186 0.666177 0.120853
O O6 0.970853 0.538443 0.305809
O O7 0.144390 0.232039 0.998923
O O8 0.025566 0.923100 0.690704
O O9 0.785598 0.941648 0.806221
O O10 0.688878 0.312433 0.894331
O O11 0.000000 0.000000 0.500000
O O12 0.040138 0.059575 0.045812
O O13 0.801940 0.426255 0.874836
O O14 0.149605 0.212650 0.433105
O O15 0.146196 0.056826 0.645863
O O16 0.422218 0.766585 0.176704
O O17 0.500000 0.000000 0.000000
#
# Coordination Sequence:
#
# PCOD9009341 Si02
#       8
#     2   2   2   2   2   2   2   2
#     4  11  20  41  68  92 122 169 212 254 307 390
#     4  10  25  39  69  94 130 162 213 266 317 370
#     4  11  20  43  66  89 123 174 213 251 310 386
#     4  10  21  45  64  95 126 170 212 257 318 385
#     4  11  23  45  60  96 130 162 208 273 316 370
#     4  12  27  42  62  97 130 163 215 267 315 367
#     4  10  21  39  68  91 125 165 216 254 314 382
#     4  11  23  43  66  88 129 170 212 253 317 383
#
# _framework density 23.535761000000001
#
# number of rings (size 3 to 8) (size 9 to 14) (size 15 to 20)
#    0.000    1.250    6.250    0.750    1.750    4.000 
#    2.250    0.625    0.000    0.000    0.000    0.000 
#    0.000    0.000    0.000    0.000    0.000    0.000 
#
# Total GULP energy -89357.334048 kJ/mol
# GULP energy per Si atom -5584.833378 kJ/mol
# Density = 2.348219 g / cm^3
# Si number density = 23.535761 Si / 1000 Ang^3
#
#
#
# Elastic Constant Matrix: (Units=GPa)
#
#
# Indices 1 2 3 4 5 6 
#
# 1 80.0569 10.6121 4.6623 13.2936 7.8750 18.0580
# 2 10.6121 98.6744 -2.1455 25.7981 0.7951 -6.2622
# 3 4.6623 -2.1455 78.4399 6.2170 -10.2532 0.4130
# 4 13.2936 25.7981 6.2170 57.6187 1.9319 6.7562
# 5 7.8750 0.7951 -10.2532 1.9319 14.2532 5.7080
# 6 18.0580 -6.2622 0.4130 6.7562 5.7080 24.0938
#
#
#
# Elastic Compliance Matrix: (Units=1/GPa)
#
#
# Indices 1 2 3 4 5 6 
#
# 1 0.016049 -0.002121 -0.001561 -0.001119 -0.005324 -0.010978
# 2 -0.002121 0.012341 0.000789 -0.005871 -0.000805 0.006621
# 3 -0.001561 0.000789 0.014589 -0.001829 0.012049 -0.001216
# 4 -0.001119 -0.005871 -0.001829 0.021218 -0.000663 -0.006449
# 5 -0.005324 -0.000805 0.012049 -0.000663 0.088824 -0.017282
# 6 -0.010978 0.006621 -0.001216 -0.006449 -0.017282 0.057377
#
#
# Mechanical properties :
#
#
# Convention : Reuss Voigt Hill
#
# Bulk Modulus (GPa) = 26.88756 31.49209 29.18982
# Shear Modulus (GPa) = 21.87389 35.46262 28.66825
#
# Velocity S-wave (km/s) = 3.05190 3.88591 3.49388
# Velocity P-wave (km/s) = 4.88546 5.79165 5.35775
#
# Compressibility (1/GPa) = 0.03719192
#
# Stress axis : x y z
#
# Youngs Moduli (GPa) = 62.30916 81.02967 68.54357
#
# Poissons Ratio (x) = 0.17189 0.10702
# Poissons Ratio (y) = 0.13217 -0.05408
# Poissons Ratio (z) = 0.09729 -0.06393
#
# Static dielectric constant tensor:
#      x y z
#    x 1.981240 -0.035630 -0.000140 
#    y -0.035630 1.963310 0.009220 
#    z -0.000140 0.009220 1.893260 
# 
# From -- ./inp_files/537345.got.cif
#   From: 2010.05.17/outbox.cif.g08.bks.cpg/sg2_269_cif.got.tgz:537345.got - 2010.06.03 11:33:40.
