data_PCOD9009312
_publ_section_title
;
Structure prediction by ZEFSAII (Michael W. Deem and Ramdas Pophale) SiO2 
 PCOD9009312
Probable space group: P -1
;
_chemical_formula_sum "Si O2"
_cell_formula_units_Z 14
_cell_length_a 16.771115
_cell_length_b 7.325781
_cell_length_c 8.226578
_cell_angle_alpha 57.640520
_cell_angle_beta 80.534143
_cell_angle_gamma 119.331701
_cell_volume 606.669645
_symmetry_space_group_name_H-M "P -1"
_symmetry_group_IT_number 2
_symmetry_cell_setting 'triclinic'
loop_
_space_group_symop_operation_xyz
x,y,z
-x,-y,-z
loop_
_atom_site_type_symbol
_atom_site_label
_atom_site_fract_x
_atom_site_fract_y
_atom_site_fract_z
Si Si1 0.254150 0.257856 0.190333
Si Si2 0.807544 0.057646 0.962737
Si Si3 0.594410 0.852184 0.267915
Si Si4 0.125614 0.250654 0.771288
Si Si5 0.508622 0.120202 0.258923
Si Si6 0.891913 0.667451 0.637328
Si Si7 0.711473 0.094989 0.461531
O O1 0.209216 0.401397 0.202655
O O2 0.180461 0.033565 0.172300
O O3 0.248381 0.065688 0.421831
O O4 0.381588 0.529754 0.959314
O O5 0.892065 0.412235 0.794047
O O6 0.684113 0.935749 0.068374
O O7 0.819473 0.884758 0.167727
O O8 0.500000 0.500000 0.500000
O O9 0.530490 0.958881 0.209582
O O10 0.666521 0.008519 0.334928
O O11 0.124550 0.332360 0.549137
O O12 0.195774 0.550124 0.712399
O O13 0.000000 0.000000 0.000000
O O14 0.500000 0.000000 0.500000
O O15 0.392873 0.032810 0.325244
O O16 0.000000 0.000000 0.500000
#
# Coordination Sequence:
#
# PCOD9009312 Si02
#       7
#     2   2   2   2   2   2   2
#     4  12  24  47  72 106 149 186 240 305 356 432
#     4  12  25  47  76 102 149 189 238 300 364 424
#     4  11  22  42  69 105 144 190 237 293 361 429
#     4  12  28  49  77 106 142 195 244 297 367 429
#     4  10  21  39  68 102 142 185 236 285 355 428
#     4  12  29  48  74 110 141 190 248 298 363 430
#     4  11  24  44  71 107 146 189 245 298 360 432
#
# _framework density 23.076809999999998
#
# number of rings (size 3 to 8) (size 9 to 14) (size 15 to 20)
#    0.000    0.571    2.857    6.429    4.000    1.714 
#    0.000    2.143    0.000    0.000    0.000    0.000 
#    0.000    0.000    0.000    0.000    0.000    0.000 
#
# Total GULP energy -78407.045016 kJ/mol
# GULP energy per Si atom -5600.503215 kJ/mol
# Density = 2.302429 g / cm^3
# Si number density = 23.076810 Si / 1000 Ang^3
#
#
#
# Elastic Constant Matrix: (Units=GPa)
#
#
# Indices 1 2 3 4 5 6 
#
# 1 43.9805 17.1126 9.4550 -5.1948 5.1400 -7.6682
# 2 17.1126 131.1677 41.8452 -28.6749 2.5753 4.4271
# 3 9.4550 41.8452 91.5679 -28.6928 -0.5191 5.0884
# 4 -5.1948 -28.6749 -28.6928 53.7403 -3.6177 -2.9374
# 5 5.1400 2.5753 -0.5191 -3.6177 51.3363 -6.7069
# 6 -7.6682 4.4271 5.0884 -2.9374 -6.7069 39.0466
#
#
#
# Elastic Compliance Matrix: (Units=1/GPa)
#
#
# Indices 1 2 3 4 5 6 
#
# 1 0.025335 -0.002911 -0.001503 0.000264 -0.001704 0.005229
# 2 -0.002911 0.009724 -0.003085 0.003193 -0.000141 -0.001056
# 3 -0.001503 -0.003085 0.014401 0.005876 0.000700 -0.001260
# 4 0.000264 0.003193 0.005876 0.023641 0.001668 0.000989
# 5 -0.001704 -0.000141 0.000700 0.001668 0.020198 0.003185
# 6 0.005229 -0.001056 -0.001260 0.000989 0.003185 0.027543
#
#
# Mechanical properties :
#
#
# Convention : Reuss Voigt Hill
#
# Bulk Modulus (GPa) = 29.01713 44.83795 36.92754
# Shear Modulus (GPa) = 33.93815 42.04486 37.99151
#
# Velocity S-wave (km/s) = 3.83908 4.27306 4.06187
# Velocity P-wave (km/s) = 5.67916 6.61948 6.16727
#
# Compressibility (1/GPa) = 0.03446240
#
# Stress axis : x y z
#
# Youngs Moduli (GPa) = 39.47091 102.83662 69.43978
#
# Poissons Ratio (x) = 0.29936 0.10438
# Poissons Ratio (y) = 0.11490 0.21421
# Poissons Ratio (z) = 0.05933 0.31723
#
# Static dielectric constant tensor:
#      x y z
#    x 1.898920 -0.032570 -0.021770 
#    y -0.032570 1.859560 0.019830 
#    z -0.021770 0.019830 1.860550 
# 
# From -- ./inp_files/323317.got.cif
#   From: 2010.05.17/outbox.cif.g08.bks.cpg/sg2_162_cif.got.tgz:323317.got - 2010.06.03 11:33:40.
