data_PCOD9009661
_publ_section_title
;
Structure prediction by ZEFSAII (Michael W. Deem and Ramdas Pophale) SiO2 
 PCOD9009661
Probable space group: P -1
;
_chemical_formula_sum "Si O2"
_cell_formula_units_Z 14
_cell_length_a 9.645944
_cell_length_b 9.592202
_cell_length_c 11.309327
_cell_angle_alpha 103.390068
_cell_angle_beta 125.365094
_cell_angle_gamma 47.250137
_cell_volume 603.455939
_symmetry_space_group_name_H-M "P -1"
_symmetry_group_IT_number 2
_symmetry_cell_setting 'triclinic'
loop_
_space_group_symop_operation_xyz
x,y,z
-x,-y,-z
loop_
_atom_site_type_symbol
_atom_site_label
_atom_site_fract_x
_atom_site_fract_y
_atom_site_fract_z
Si Si1 0.596374 0.436326 0.292613
Si Si2 0.866890 0.587527 0.075505
Si Si3 0.077794 0.697150 0.789165
Si Si4 0.759838 0.157192 0.699845
Si Si5 0.354918 0.209312 0.411508
Si Si6 0.490496 0.848593 0.777739
Si Si7 0.982535 0.250437 0.648628
O O1 0.719924 0.379216 0.216082
O O2 0.364290 0.668445 0.231753
O O3 0.537171 0.307035 0.269123
O O4 0.794736 0.365621 0.473457
O O5 0.830699 0.450492 0.085340
O O6 0.998766 0.617899 0.236411
O O7 0.622342 0.799295 0.956225
O O8 0.000000 0.500000 0.000000
O O9 0.899998 0.680917 0.641893
O O10 0.918042 0.931836 0.777766
O O11 0.528366 0.238559 0.530934
O O12 0.910102 0.164673 0.684878
O O13 0.358561 0.189301 0.267941
O O14 0.500000 0.000000 0.500000
O O15 0.237916 0.066871 0.688182
#
# Coordination Sequence:
#
# PCOD9009661 Si02
#       7
#     2   2   2   2   2   2   2
#     4  12  25  44  80 109 140 185 246 301 358 420
#     4  12  27  47  70 101 150 196 236 287 364 437
#     4  11  25  47  69 108 147 183 242 304 352 421
#     4  11  23  43  73 108 141 185 235 301 355 416
#     4  10  21  39  72 103 141 179 235 294 354 410
#     4  12  24  46  73 107 147 192 234 296 364 430
#     4  12  24  46  75 110 142 189 242 294 362 429
#
# _framework density 23.199705000000002
#
# number of rings (size 3 to 8) (size 9 to 14) (size 15 to 20)
#    0.000    0.571    4.286    4.714    0.000    5.143 
#    2.571    1.429    0.000    0.000    0.000    0.000 
#    0.000    0.000    0.000    0.000    0.000    0.000 
#
# Total GULP energy -78191.530781 kJ/mol
# GULP energy per Si atom -5585.109342 kJ/mol
# Density = 2.314690 g / cm^3
# Si number density = 23.199705 Si / 1000 Ang^3
#
#
#
# Elastic Constant Matrix: (Units=GPa)
#
#
# Indices 1 2 3 4 5 6 
#
# 1 124.7441 33.5829 1.5400 -2.1974 -24.0314 6.5553
# 2 33.5829 105.0460 12.4141 1.0751 -29.6542 1.1493
# 3 1.5400 12.4141 62.1289 -4.1427 -11.1884 13.1498
# 4 -2.1974 1.0751 -4.1427 32.4252 12.8995 -0.1481
# 5 -24.0314 -29.6542 -11.1884 12.8995 35.5944 -6.5269
# 6 6.5553 1.1493 13.1498 -0.1481 -6.5269 36.6253
#
#
#
# Elastic Compliance Matrix: (Units=1/GPa)
#
#
# Indices 1 2 3 4 5 6 
#
# 1 0.009585 -0.001499 0.001261 -0.001521 0.005975 -0.001063
# 2 -0.001499 0.013727 -0.001367 -0.005703 0.012527 0.002538
# 3 0.001261 -0.001367 0.018412 0.000829 0.004088 -0.006062
# 4 -0.001521 -0.005703 0.000829 0.039089 -0.020290 -0.003304
# 5 0.005975 0.012527 0.004088 -0.020290 0.052361 0.006319
# 6 -0.001063 0.002538 -0.006062 -0.003304 0.006319 0.030703
#
#
# Mechanical properties :
#
#
# Convention : Reuss Voigt Hill
#
# Bulk Modulus (GPa) = 25.96493 42.99921 34.48207
# Shear Modulus (GPa) = 27.78940 37.22114 32.50527
#
# Velocity S-wave (km/s) = 3.46473 4.00982 3.74720
# Velocity P-wave (km/s) = 5.21747 6.32557 5.79805
#
# Compressibility (1/GPa) = 0.03851348
#
# Stress axis : x y z
#
# Youngs Moduli (GPa) = 104.33452 72.84705 54.31264
#
# Poissons Ratio (x) = 0.10922 -0.06851
# Poissons Ratio (y) = 0.15643 0.07426
# Poissons Ratio (z) = -0.13161 0.09960
#
# Static dielectric constant tensor:
#      x y z
#    x 1.845130 -0.057650 0.077290 
#    y -0.057650 1.959990 -0.027940 
#    z 0.077290 -0.027940 2.001370 
# 
# From -- ./inp_files/382083.got.cif
#   From: 2010.05.17/outbox.cif.g08.bks.cpg/sg2_192_cif.got.tgz:382083.got - 2010.06.03 11:33:40.
