data_PCOD9009288
_publ_section_title
;
Structure prediction by ZEFSAII (Michael W. Deem and Ramdas Pophale) SiO2 
 PCOD9009288
Probable space group: P -1
;
_chemical_formula_sum "Si O2"
_cell_formula_units_Z 15
_cell_length_a 8.728075
_cell_length_b 4.862769
_cell_length_c 16.744635
_cell_angle_alpha 78.595524
_cell_angle_beta 116.958827
_cell_angle_gamma 98.930600
_cell_volume 619.198068
_symmetry_space_group_name_H-M "P -1"
_symmetry_group_IT_number 2
_symmetry_cell_setting 'triclinic'
loop_
_space_group_symop_operation_xyz
x,y,z
-x,-y,-z
loop_
_atom_site_type_symbol
_atom_site_label
_atom_site_fract_x
_atom_site_fract_y
_atom_site_fract_z
Si Si1 0.180565 0.203905 0.686098
Si Si2 0.358481 0.647899 0.381379
Si Si3 0.350358 0.753708 0.545376
Si Si4 0.998415 0.738995 0.104471
Si Si5 0.004209 0.629848 0.717437
Si Si6 0.000000 0.000000 0.500000
Si Si7 0.522556 0.982075 0.738044
Si Si8 0.199800 0.305662 0.091900
O O1 0.377741 0.133527 0.743026
O O2 0.059779 0.958942 0.716172
O O3 0.132557 0.162711 0.585048
O O4 0.131857 0.500056 0.691096
O O5 0.357105 0.847605 0.447048
O O6 0.546689 0.527154 0.429035
O O7 0.190114 0.428545 0.359340
O O8 0.338501 0.794347 0.282872
O O9 0.444903 0.849539 0.644923
O O10 0.154738 0.806679 0.515375
O O11 0.974177 0.548461 0.187752
O O12 0.144330 0.601352 0.093437
O O13 0.062197 0.065016 0.110443
O O14 0.830950 0.715194 0.008800
O O15 0.617373 0.768261 0.827043
#
# Coordination Sequence:
#
# PCOD9009288 Si02
#       8
#     2   2   2   2   2   1   2   2
#     4  11  28  41  67  92 141 178 224 261 355 385
#     4  11  23  39  69  93 129 168 239 271 332 378
#     4  10  23  39  64  97 128 175 224 280 329 397
#     4  10  21  39  68 100 129 164 222 272 336 390
#     4  12  24  45  65 100 132 179 219 283 323 408
#     4  10  22  46  60  92 140 178 218 270 338 398
#     4  11  24  42  63  95 131 174 217 281 326 404
#     4  10  21  39  68 100 128 168 214 281 332 391
#
# _framework density 24.224879000000001
#
# number of rings (size 3 to 8) (size 9 to 14) (size 15 to 20)
#    0.000    1.333    2.667    2.000    5.600    4.800 
#    0.000    1.333    0.000    0.000    0.000    0.000 
#    0.000    0.000    0.000    0.000    0.000    0.000 
#
# Total GULP energy -83547.221476 kJ/mol
# GULP energy per Si atom -5569.814765 kJ/mol
# Density = 2.416974 g / cm^3
# Si number density = 24.224879 Si / 1000 Ang^3
#
#
#
# Elastic Constant Matrix: (Units=GPa)
#
#
# Indices 1 2 3 4 5 6 
#
# 1 98.4055 30.7229 49.3358 -12.1427 10.3435 -21.6766
# 2 30.7229 75.7904 7.9607 -3.1752 3.9941 -19.9534
# 3 49.3358 7.9607 119.5534 -8.8176 20.2093 -19.3662
# 4 -12.1427 -3.1752 -8.8176 28.3110 -10.6945 10.1406
# 5 10.3435 3.9941 20.2093 -10.6945 35.4938 -9.2824
# 6 -21.6766 -19.9534 -19.3662 10.1406 -9.2824 39.5390
#
#
#
# Elastic Compliance Matrix: (Units=1/GPa)
#
#
# Indices 1 2 3 4 5 6 
#
# 1 0.015360 -0.004877 -0.005494 0.003805 0.001009 0.002530
# 2 -0.004877 0.016804 0.001966 -0.002351 -0.000394 0.007280
# 3 -0.005494 0.001966 0.011705 -0.001401 -0.004946 0.002912
# 4 0.003805 -0.002351 -0.001401 0.043337 0.010825 -0.008360
# 5 0.001009 -0.000394 -0.004946 0.010825 0.034876 0.003343
# 6 0.002530 0.007280 0.002912 -0.008360 0.003343 0.034707
#
#
# Mechanical properties :
#
#
# Convention : Reuss Voigt Hill
#
# Bulk Modulus (GPa) = 36.95681 52.19868 44.57775
# Shear Modulus (GPa) = 27.37950 34.38411 30.88180
#
# Velocity S-wave (km/s) = 3.36553 3.77154 3.57430
# Velocity P-wave (km/s) = 5.51282 6.36870 5.95615
#
# Compressibility (1/GPa) = 0.02705861
#
# Stress axis : x y z
#
# Youngs Moduli (GPa) = 65.10540 59.51117 85.43367
#
# Poissons Ratio (x) = 0.29024 0.46936
# Poissons Ratio (y) = 0.31752 -0.16797
# Poissons Ratio (z) = 0.35768 -0.11700
#
# Static dielectric constant tensor:
#      x y z
#    x 1.955300 0.133530 0.007960 
#    y 0.133530 1.942360 -0.036890 
#    z 0.007960 -0.036890 1.923960 
# 
# From -- ./inp_files/140287.got.cif
#   From: 2010.05.17/outbox.cif.g08.bks.cpg/sg2_71_cif.got.tgz:140287.got - 2010.06.03 11:33:40.
