data_PCOD9009519
_publ_section_title
;
Structure prediction by ZEFSAII (Michael W. Deem and Ramdas Pophale) SiO2 
 PCOD9009519
Probable space group: P -1
;
_chemical_formula_sum "Si O2"
_cell_formula_units_Z 16
_cell_length_a 19.290232
_cell_length_b 6.126239
_cell_length_c 8.613366
_cell_angle_alpha 55.608633
_cell_angle_beta 54.413514
_cell_angle_gamma 70.297767
_cell_volume 683.040061
_symmetry_space_group_name_H-M "P -1"
_symmetry_group_IT_number 2
_symmetry_cell_setting 'triclinic'
loop_
_space_group_symop_operation_xyz
x,y,z
-x,-y,-z
loop_
_atom_site_type_symbol
_atom_site_label
_atom_site_fract_x
_atom_site_fract_y
_atom_site_fract_z
Si Si1 0.089443 0.772633 0.495619
Si Si2 0.175644 0.352643 0.125342
Si Si3 0.020065 0.004896 0.212046
Si Si4 0.508758 0.179181 0.579770
Si Si5 0.681162 0.982154 0.583389
Si Si6 0.334444 0.047064 0.013491
Si Si7 0.866463 0.085685 0.158467
Si Si8 0.246568 0.537565 0.282797
O O1 0.171177 0.587927 0.483567
O O2 0.040079 0.765395 0.400229
O O3 0.128943 0.070787 0.311331
O O4 0.021143 0.762963 0.723444
O O5 0.196766 0.436828 0.239001
O O6 0.271299 0.293565 0.959115
O O7 0.129191 0.598140 0.004612
O O8 0.940776 0.962389 0.218542
O O9 0.107299 0.043481 0.989277
O O10 0.500000 0.500000 0.500000
O O11 0.602738 0.113469 0.546567
O O12 0.500000 0.000000 0.500000
O O13 0.430999 0.075430 0.827488
O O14 0.674539 0.016245 0.764899
O O15 0.774224 0.049862 0.367620
O O16 0.681095 0.667236 0.680820
O O17 0.291989 0.806783 0.075220
#
# Coordination Sequence:
#
# PCOD9009519 Si02
#       8
#     2   2   2   2   2   2   2   2
#     4  10  21  43  61  95 130 190 238 295 360 433
#     4  10  21  39  69  95 138 178 236 296 363 428
#     4  10  22  40  61  93 137 177 247 295 360 431
#     4  12  30  50  80 118 153 187 238 304 369 433
#     4  11  26  46  73 100 144 189 241 289 367 442
#     4  10  24  46  75 102 140 188 239 288 360 442
#     4  11  22  42  62  98 136 180 233 304 364 422
#     4  10  21  42  70  97 134 192 237 286 354 440
#
# _framework density 23.424688
#
# number of rings (size 3 to 8) (size 9 to 14) (size 15 to 20)
#    0.000    1.500    1.250    3.375    7.000    1.500 
#   15.750    0.000    0.000    0.000    0.000    0.000 
#    0.000    0.000    0.000    0.000    0.000    0.000 
#
# Total GULP energy -89203.291990 kJ/mol
# GULP energy per Si atom -5575.205749 kJ/mol
# Density = 2.337137 g / cm^3
# Si number density = 23.424688 Si / 1000 Ang^3
#
#
#
# Elastic Constant Matrix: (Units=GPa)
#
#
# Indices 1 2 3 4 5 6 
#
# 1 111.5409 45.5290 36.5506 11.8926 -11.6746 -12.7249
# 2 45.5290 118.9877 41.7346 8.0002 -6.7994 -13.4502
# 3 36.5506 41.7346 131.1689 35.3367 -24.6801 7.8440
# 4 11.8926 8.0002 35.3367 37.1059 -6.4240 -8.8431
# 5 -11.6746 -6.7994 -24.6801 -6.4240 37.7008 4.8572
# 6 -12.7249 -13.4502 7.8440 -8.8431 4.8572 41.4525
#
#
#
# Elastic Compliance Matrix: (Units=1/GPa)
#
#
# Indices 1 2 3 4 5 6 
#
# 1 0.011414 -0.003283 -0.002003 -0.000199 0.001259 0.002628
# 2 -0.003283 0.011286 -0.004145 0.003309 -0.001690 0.004343
# 3 -0.002003 -0.004145 0.015031 -0.013558 0.007263 -0.008548
# 4 -0.000199 0.003309 -0.013558 0.041771 -0.002876 0.012826
# 5 0.001259 -0.001690 0.007263 -0.002876 0.031629 -0.005856
# 6 0.002628 0.004343 -0.008548 0.012826 -0.005856 0.031380
#
#
# Mechanical properties :
#
#
# Convention : Reuss Voigt Hill
#
# Bulk Modulus (GPa) = 52.99451 67.70287 60.34869
# Shear Modulus (GPa) = 29.82181 39.11075 34.46628
#
# Velocity S-wave (km/s) = 3.57191 4.09055 3.84000
# Velocity P-wave (km/s) = 6.29952 7.16068 6.74386
#
# Compressibility (1/GPa) = 0.01886988
#
# Stress axis : x y z
#
# Youngs Moduli (GPa) = 87.60917 88.60452 66.52864
#
# Poissons Ratio (x) = 0.29086 0.13324
# Poissons Ratio (y) = 0.28759 0.27579
# Poissons Ratio (z) = 0.17546 0.36730
#
# Static dielectric constant tensor:
#      x y z
#    x 1.902150 0.050030 0.037190 
#    y 0.050030 1.989840 0.005540 
#    z 0.037190 0.005540 1.918550 
# 
# From -- ./inp_files/340100.got.cif
#   From: 2010.05.17/outbox.cif.g08.bks.cpg/sg2_171_cif.got.tgz:340100.got - 2010.06.03 11:33:40.
