data_PCOD9009136
_publ_section_title
;
Structure prediction by ZEFSAII (Michael W. Deem and Ramdas Pophale) SiO2 
 PCOD9009136
Probable space group: P -1
;
_chemical_formula_sum "Si O2"
_cell_formula_units_Z 16
_cell_length_a 9.705269
_cell_length_b 8.859151
_cell_length_c 16.334619
_cell_angle_alpha 98.146375
_cell_angle_beta 60.542466
_cell_angle_gamma 55.480957
_cell_volume 816.482370
_symmetry_space_group_name_H-M "P -1"
_symmetry_group_IT_number 2
_symmetry_cell_setting 'triclinic'
loop_
_space_group_symop_operation_xyz
x,y,z
-x,-y,-z
loop_
_atom_site_type_symbol
_atom_site_label
_atom_site_fract_x
_atom_site_fract_y
_atom_site_fract_z
Si Si1 0.480590 0.372133 0.840584
Si Si2 0.276853 0.802852 0.412156
Si Si3 0.458864 0.620802 0.604984
Si Si4 0.070913 0.176340 0.996377
Si Si5 0.181023 0.631882 0.183595
Si Si6 0.976741 0.999475 0.142607
Si Si7 0.660172 0.028292 0.437204
Si Si8 0.630081 0.783923 0.002894
O O1 0.598647 0.236499 0.710851
O O2 0.613543 0.434877 0.829585
O O3 0.205060 0.597180 0.922328
O O4 0.509171 0.226496 0.893288
O O5 0.364733 0.571892 0.395011
O O6 0.341216 0.866299 0.473499
O O7 0.000000 0.000000 0.500000
O O8 0.500000 0.500000 0.500000
O O9 0.200332 0.783650 0.730669
O O10 0.456254 0.796897 0.590899
O O11 0.196835 0.240275 0.991970
O O12 0.095903 0.036206 0.051369
O O13 0.158956 0.025076 0.878146
O O14 0.243710 0.425006 0.110871
O O15 0.144222 0.777209 0.131085
O O16 0.931489 0.803919 0.316706
O O17 0.500000 0.000000 0.500000
O O18 0.500000 0.000000 0.000000
#
# Coordination Sequence:
#
# PCOD9009136 Si02
#       8
#     2   2   2   2   2   2   2   2
#     4  12  24  43  69  92 131 172 217 266 327 384
#     4  11  22  43  65  94 126 167 221 263 311 388
#     4   9  20  38  64  92 121 167 212 256 311 381
#     4  11  24  40  67  98 124 166 215 268 322 377
#     4  11  24  43  64  91 130 173 213 264 328 386
#     4  10  21  39  67  90 127 166 217 258 321 387
#     4  10  23  42  66  94 127 168 214 267 325 374
#     4  12  28  43  62  98 137 166 215 268 327 384
#
# _framework density 19.596257999999999
#
# number of rings (size 3 to 8) (size 9 to 14) (size 15 to 20)
#    0.000    1.250    3.750    1.500    5.250    1.000 
#    2.250    0.625    0.000    0.000    0.000    0.000 
#    0.000    0.000    0.000    0.000    0.000    0.000 
#
# Total GULP energy -89300.814057 kJ/mol
# GULP energy per Si atom -5581.300879 kJ/mol
# Density = 1.955166 g / cm^3
# Si number density = 19.596258 Si / 1000 Ang^3
#
#
#
# Elastic Constant Matrix: (Units=GPa)
#
#
# Indices 1 2 3 4 5 6 
#
# 1 125.8754 21.6025 33.4435 1.5471 -1.6365 11.5702
# 2 21.6025 102.7037 38.7490 4.5789 -7.8582 4.0532
# 3 33.4435 38.7490 127.4840 -4.4232 15.2498 8.3894
# 4 1.5471 4.5789 -4.4232 32.7953 1.2246 0.1760
# 5 -1.6365 -7.8582 15.2498 1.2246 31.3099 -0.3016
# 6 11.5702 4.0532 8.3894 0.1760 -0.3016 22.6715
#
#
#
# Elastic Compliance Matrix: (Units=1/GPa)
#
#
# Indices 1 2 3 4 5 6 
#
# 1 0.008990 -0.000862 -0.002023 -0.000603 0.001227 -0.003664
# 2 -0.000862 0.011954 -0.004085 -0.002367 0.005037 -0.000100
# 3 -0.002023 -0.004085 0.010615 0.002349 -0.006415 -0.002269
# 4 -0.000603 -0.002367 0.002349 0.031282 -0.002997 -0.000421
# 5 0.001227 0.005037 -0.006415 -0.002997 0.036522 0.001356
# 6 -0.003664 -0.000100 -0.002269 -0.000421 0.001356 0.046857
#
#
# Mechanical properties :
#
#
# Convention : Reuss Voigt Hill
#
# Bulk Modulus (GPa) = 56.76047 60.40590 58.58319
# Shear Modulus (GPa) = 30.11443 34.83988 32.47716
#
# Velocity S-wave (km/s) = 3.92439 4.22107 4.07543
# Velocity P-wave (km/s) = 7.04005 7.39248 7.21841
#
# Compressibility (1/GPa) = 0.01761789
#
# Stress axis : x y z
#
# Youngs Moduli (GPa) = 111.23512 83.65166 94.20929
#
# Poissons Ratio (x) = 0.07214 0.19057
# Poissons Ratio (y) = 0.09593 0.38488
# Poissons Ratio (z) = 0.22501 0.34175
#
# Static dielectric constant tensor:
#      x y z
#    x 1.700550 -0.005420 0.017760 
#    y -0.005420 1.725270 -0.005400 
#    z 0.017760 -0.005400 1.709500 
# 
# From -- ./inp_files/205820.got.cif
#   From: 2010.05.17/outbox.cif.g08.bks.cpg/sg2_103_cif.got.tgz:205820.got - 2010.06.03 11:33:40.
