data_PCOD9009927
_publ_section_title
;
Structure prediction by ZEFSAII (Michael W. Deem and Ramdas Pophale) SiO2 
 PCOD9009927
Probable space group: P -1
;
_chemical_formula_sum "Si O2"
_cell_formula_units_Z 14
_cell_length_a 13.843771
_cell_length_b 17.132950
_cell_length_c 24.733128
_cell_angle_alpha 162.794003
_cell_angle_beta 152.523576
_cell_angle_gamma 24.230082
_cell_volume 705.876640
_symmetry_space_group_name_H-M "P -1"
_symmetry_group_IT_number 2
_symmetry_cell_setting 'triclinic'
loop_
_space_group_symop_operation_xyz
x,y,z
-x,-y,-z
loop_
_atom_site_type_symbol
_atom_site_label
_atom_site_fract_x
_atom_site_fract_y
_atom_site_fract_z
Si Si1 0.717783 0.262904 0.415496
Si Si2 0.464303 0.711631 0.778667
Si Si3 0.866882 0.301354 0.299570
Si Si4 0.024731 0.598330 0.786497
Si Si5 0.973415 0.242105 0.692459
Si Si6 0.803798 0.394959 0.010717
Si Si7 0.310000 0.702248 0.905656
O O1 0.500000 0.500000 0.500000
O O2 0.634926 0.253594 0.308069
O O3 0.917071 0.372152 0.585448
O O4 0.828660 0.942255 0.286970
O O5 0.287174 0.682405 0.713904
O O6 0.716221 0.411176 0.703584
O O7 0.500000 0.000000 0.000000
O O8 0.698646 0.381549 0.216182
O O9 0.000000 0.500000 0.500000
O O10 0.071317 0.960235 0.168196
O O11 0.144734 0.604111 0.793600
O O12 0.208450 0.532353 0.883453
O O13 0.812075 0.936243 0.913099
O O14 0.000000 0.000000 0.500000
O O15 0.021266 0.490222 0.851465
O O16 0.561219 0.555839 0.963521
#
# Coordination Sequence:
#
# PCOD9009927 Si02
#       7
#     2   2   2   2   2   2   2
#     4  12  24  40  71  99 138 175 228 282 342 405
#     4  12  27  46  69 102 143 180 227 289 344 404
#     4  11  26  47  65  94 141 184 226 278 342 413
#     4  10  21  40  61 103 132 173 224 285 338 403
#     4  12  24  43  71 105 133 179 229 283 343 410
#     4  11  22  41  68  98 135 170 234 285 334 405
#     4  10  23  39  68  92 135 179 224 280 345 395
#
# _framework density 19.833494999999999
#
# number of rings (size 3 to 8) (size 9 to 14) (size 15 to 20)
#    0.000    0.857    4.286    2.143    4.000    3.429 
#    0.000    0.000    0.000    0.000    0.000    0.000 
#    0.000    0.000    0.000    0.000    0.000    0.000 
#
# Total GULP energy -78299.190902 kJ/mol
# GULP energy per Si atom -5592.799350 kJ/mol
# Density = 1.978835 g / cm^3
# Si number density = 19.833495 Si / 1000 Ang^3
#
#
#
# Elastic Constant Matrix: (Units=GPa)
#
#
# Indices 1 2 3 4 5 6 
#
# 1 119.9977 20.8965 43.1638 -9.8951 -17.9598 19.5595
# 2 20.8965 110.6947 24.3936 -18.0985 -24.1052 22.0940
# 3 43.1638 24.3936 117.8236 -3.0415 1.9323 5.5244
# 4 -9.8951 -18.0985 -3.0415 25.8302 12.4739 -1.8538
# 5 -17.9598 -24.1052 1.9323 12.4739 37.8433 -4.3615
# 6 19.5595 22.0940 5.5244 -1.8538 -4.3615 36.4677
#
#
#
# Elastic Compliance Matrix: (Units=1/GPa)
#
#
# Indices 1 2 3 4 5 6 
#
# 1 0.011489 0.001344 -0.004261 0.001902 0.005253 -0.005606
# 2 0.001344 0.013200 -0.002843 0.005797 0.006448 -0.007222
# 3 -0.004261 -0.002843 0.010607 -0.000276 -0.004065 0.001901
# 4 0.001902 0.005797 -0.000276 0.048989 -0.011934 -0.003427
# 5 0.005253 0.006448 -0.004065 -0.011934 0.036901 -0.002302
# 6 -0.005606 -0.007222 0.001901 -0.003427 -0.002302 0.034066
#
#
# Mechanical properties :
#
#
# Convention : Reuss Voigt Hill
#
# Bulk Modulus (GPa) = 42.05885 58.38040 50.21962
# Shear Modulus (GPa) = 28.62080 37.36571 32.99325
#
# Velocity S-wave (km/s) = 3.80288 4.34518 4.08304
# Velocity P-wave (km/s) = 6.36667 7.39414 6.89956
#
# Compressibility (1/GPa) = 0.02377621
#
# Stress axis : x y z
#
# Youngs Moduli (GPa) = 87.03861 75.75841 94.27410
#
# Poissons Ratio (x) = -0.10183 0.40174
# Poissons Ratio (y) = -0.11699 0.26800
# Poissons Ratio (z) = 0.37091 0.21536
#
# Static dielectric constant tensor:
#      x y z
#    x 1.759660 0.091380 -0.021850 
#    y 0.091380 1.807790 -0.035280 
#    z -0.021850 -0.035280 1.683820 
# 
# From -- ./inp_files/184682.got.cif
#   From: 2010.05.17/outbox.cif.g08.bks.cpg/sg2_93_cif.got.tgz:184682.got - 2010.06.03 11:33:40.
