data_PCOD9009169
_publ_section_title
;
Structure prediction by ZEFSAII (Michael W. Deem and Ramdas Pophale) SiO2 
 PCOD9009169
Probable space group: P -1
;
_chemical_formula_sum "Si O2"
_cell_formula_units_Z 16
_cell_length_a 13.527429
_cell_length_b 21.613180
_cell_length_c 9.185004
_cell_angle_alpha 94.109738
_cell_angle_beta 107.820213
_cell_angle_gamma 20.616755
_cell_volume 691.200866
_symmetry_space_group_name_H-M "P -1"
_symmetry_group_IT_number 2
_symmetry_cell_setting 'triclinic'
loop_
_space_group_symop_operation_xyz
x,y,z
-x,-y,-z
loop_
_atom_site_type_symbol
_atom_site_label
_atom_site_fract_x
_atom_site_fract_y
_atom_site_fract_z
Si Si1 0.553559 0.712011 0.373098
Si Si2 0.848984 0.744338 0.476367
Si Si3 0.088745 0.305848 0.168703
Si Si4 0.147952 0.162923 0.006143
Si Si5 0.075994 0.910691 0.388112
Si Si6 0.536280 0.114362 0.095815
Si Si7 0.888884 0.552292 0.215040
Si Si8 0.722580 0.437181 0.584592
O O1 0.179727 0.892312 0.290449
O O2 0.562276 0.738276 0.224120
O O3 0.892899 0.465269 0.472146
O O4 0.707721 0.671335 0.556756
O O5 0.773631 0.787926 0.621485
O O6 0.118174 0.644374 0.519652
O O7 0.485041 0.958175 0.242747
O O8 0.418603 0.133507 0.170713
O O9 0.870415 0.496972 0.116746
O O10 0.890679 0.357964 0.022551
O O11 0.065084 0.244914 0.825755
O O12 0.172578 0.081202 0.925519
O O13 0.435799 0.657942 0.529522
O O14 0.000000 0.000000 0.500000
O O15 0.725432 0.066150 0.239217
O O16 0.165937 0.355301 0.890333
O O17 0.500000 0.500000 0.500000
#
# Coordination Sequence:
#
# PCOD9009169 Si02
#       8
#     2   2   2   2   2   2   2   2
#     4   9  20  41  65  91 128 162 202 262 318 365
#     4  10  21  42  67  92 126 165 212 261 312 368
#     4  11  24  38  66  96 128 159 217 267 304 365
#     4  12  24  41  66  95 124 170 210 259 314 374
#     4  11  25  41  63  91 130 166 205 255 318 375
#     4  12  23  40  65  93 125 169 209 254 318 375
#     4  10  21  39  67  94 119 162 215 260 306 365
#     4  11  23  43  67  88 129 167 210 255 319 376
#
# _framework density 23.148118
#
# number of rings (size 3 to 8) (size 9 to 14) (size 15 to 20)
#    0.000    1.250    2.500    3.750    3.500    0.500 
#    0.000    0.625    0.000    0.000    0.000    0.000 
#    0.000    0.000    0.000    0.000    0.000    0.000 
#
# Total GULP energy -89077.886976 kJ/mol
# GULP energy per Si atom -5567.367936 kJ/mol
# Density = 2.309543 g / cm^3
# Si number density = 23.148118 Si / 1000 Ang^3
#
#
#
# Elastic Constant Matrix: (Units=GPa)
#
#
# Indices 1 2 3 4 5 6 
#
# 1 106.5620 33.0346 36.4159 22.0757 -7.6042 -2.0897
# 2 33.0346 72.7105 37.8733 25.5414 4.0307 17.5875
# 3 36.4159 37.8733 100.1828 27.9462 -15.4581 -6.9495
# 4 22.0757 25.5414 27.9462 33.6400 9.9018 3.2100
# 5 -7.6042 4.0307 -15.4581 9.9018 44.4631 10.0374
# 6 -2.0897 17.5875 -6.9495 3.2100 10.0374 47.9193
#
#
#
# Elastic Compliance Matrix: (Units=1/GPa)
#
#
# Indices 1 2 3 4 5 6 
#
# 1 0.012219 -0.003646 -0.000987 -0.005441 0.002956 0.001473
# 2 -0.003646 0.024180 -0.005645 -0.010281 -0.000441 -0.009071
# 3 -0.000987 -0.005645 0.017472 -0.012387 0.008353 0.003643
# 4 -0.005441 -0.010281 -0.012387 0.056306 -0.017199 0.001571
# 5 0.002956 -0.000441 0.008353 -0.017199 0.030619 -0.003759
# 6 0.001473 -0.009071 0.003643 0.001571 -0.003759 0.025473
#
#
# Mechanical properties :
#
#
# Convention : Reuss Voigt Hill
#
# Bulk Modulus (GPa) = 30.01736 54.90032 42.45884
# Shear Modulus (GPa) = 25.26146 36.67991 30.97069
#
# Velocity S-wave (km/s) = 3.30706 3.98499 3.66175
# Velocity P-wave (km/s) = 5.25146 6.70388 6.02162
#
# Compressibility (1/GPa) = 0.03331405
#
# Stress axis : x y z
#
# Youngs Moduli (GPa) = 81.84089 41.35566 57.23589
#
# Poissons Ratio (x) = 0.15080 0.05649
# Poissons Ratio (y) = 0.29842 0.32310
# Poissons Ratio (z) = 0.08078 0.23346
#
# Static dielectric constant tensor:
#      x y z
#    x 1.939630 -0.004030 0.012690 
#    y -0.004030 1.925870 -0.035990 
#    z 0.012690 -0.035990 1.925270 
# 
# From -- ./inp_files/320112.got.cif
#   From: 2010.05.17/outbox.cif.g08.bks.cpg/sg2_161_cif.got.tgz:320112.got - 2010.06.03 11:33:40.
