data_PCOD9009493
_publ_section_title
;
Structure prediction by ZEFSAII (Michael W. Deem and Ramdas Pophale) SiO2 
 PCOD9009493
Probable space group: P -1
;
_chemical_formula_sum "Si O2"
_cell_formula_units_Z 12
_cell_length_a 8.455566
_cell_length_b 20.020050
_cell_length_c 13.357453
_cell_angle_alpha 22.797695
_cell_angle_beta 131.693833
_cell_angle_gamma 120.093332
_cell_volume 603.437448
_symmetry_space_group_name_H-M "P -1"
_symmetry_group_IT_number 2
_symmetry_cell_setting 'triclinic'
loop_
_space_group_symop_operation_xyz
x,y,z
-x,-y,-z
loop_
_atom_site_type_symbol
_atom_site_label
_atom_site_fract_x
_atom_site_fract_y
_atom_site_fract_z
Si Si1 0.718870 0.339216 0.771102
Si Si2 0.980977 0.127260 0.673785
Si Si3 0.212188 0.678485 0.407771
Si Si4 0.043153 0.516555 0.724773
Si Si5 0.676290 0.963122 0.221815
Si Si6 0.511063 0.720492 0.636634
O O1 0.500000 0.500000 0.500000
O O2 0.742425 0.367322 0.624353
O O3 0.921887 0.370286 0.873095
O O4 0.684287 0.146429 0.023881
O O5 0.066936 0.275812 0.559518
O O6 0.715673 0.188859 0.513088
O O7 0.070336 0.133643 0.589336
O O8 0.096907 0.906008 0.055551
O O9 0.069567 0.572308 0.545269
O O10 0.435802 0.619358 0.653740
O O11 0.280540 0.416138 0.022093
O O12 0.598142 0.857416 0.421064
O O13 0.500000 0.000000 0.000000
#
# Coordination Sequence:
#
# PCOD9009493 Si02
#       6
#     2   2   2   2   2   2
#     4  11  24  39  63  93 123 164 206 259 305 364
#     4  10  21  39  69  89 119 172 208 243 303 374
#     4  10  21  41  67  88 120 172 211 237 306 386
#     4  11  23  39  62  99 126 151 208 265 312 350
#     4  11  22  41  65  90 121 168 217 241 302 386
#     4  11  22  40  67  93 126 158 208 262 304 362
#
# _framework density 19.886071999999999
#
# number of rings (size 3 to 8) (size 9 to 14) (size 15 to 20)
#    0.000    1.333    3.333    5.500    2.333    1.333 
#    3.000    3.333    0.000    0.000    0.000    0.000 
#    0.000    0.000    0.000    0.000    0.000    0.000 
#
# Total GULP energy -66800.587515 kJ/mol
# GULP energy per Si atom -5566.715626 kJ/mol
# Density = 1.984081 g / cm^3
# Si number density = 19.886072 Si / 1000 Ang^3
#
#
#
# Elastic Constant Matrix: (Units=GPa)
#
#
# Indices 1 2 3 4 5 6 
#
# 1 113.2381 24.8518 48.9217 -21.2063 -4.1583 3.5239
# 2 24.8518 112.3331 53.2859 -14.1131 3.5918 11.9330
# 3 48.9217 53.2859 65.4773 -4.7626 -8.9116 -5.3655
# 4 -21.2063 -14.1131 -4.7626 32.2094 10.7207 -2.7017
# 5 -4.1583 3.5918 -8.9116 10.7207 31.3805 -13.6216
# 6 3.5239 11.9330 -5.3655 -2.7017 -13.6216 32.8061
#
#
#
# Elastic Compliance Matrix: (Units=1/GPa)
#
#
# Indices 1 2 3 4 5 6 
#
# 1 0.031386 0.027055 -0.051428 0.035647 -0.041271 -0.035824
# 2 0.027055 0.049089 -0.069494 0.044603 -0.060210 -0.053454
# 3 -0.051428 -0.069494 0.125580 -0.071341 0.098700 0.086447
# 4 0.035647 0.044603 -0.071341 0.083185 -0.073016 -0.055188
# 5 -0.041271 -0.060210 0.098700 -0.073016 0.124537 0.088173
# 6 -0.035824 -0.053454 0.086447 -0.055188 0.088173 0.099978
#
#
# Mechanical properties :
#
#
# Convention : Reuss Voigt Hill
#
# Bulk Modulus (GPa) = 54.58128 60.57415 57.57772
# Shear Modulus (GPa) = 7.06618 30.21182 18.63900
#
# Velocity S-wave (km/s) = 1.88707 3.90198 3.06484
# Velocity P-wave (km/s) = 5.67932 7.12933 6.44523
#
# Compressibility (1/GPa) = 0.01832130
#
# Stress axis : x y z
#
# Youngs Moduli (GPa) = 31.86091 20.37125 7.96306
#
# Poissons Ratio (x) = -0.55115 0.40953
# Poissons Ratio (y) = -0.86200 0.55338
# Poissons Ratio (z) = 1.63855 1.41568
#
# Static dielectric constant tensor:
#      x y z
#    x 1.790660 0.097130 -0.025000 
#    y 0.097130 1.788580 -0.050110 
#    z -0.025000 -0.050110 1.763680 
# 
# From -- ./inp_files/147439.got.cif
#   From: 2010.05.17/outbox.cif.g08.bks.cpg/sg2_74_cif.got.tgz:147439.got - 2010.06.03 11:33:40.
