data_PCOD9009419
_publ_section_title
;
Structure prediction by ZEFSAII (Michael W. Deem and Ramdas Pophale) SiO2 
 PCOD9009419
Probable space group: P -1
;
_chemical_formula_sum "Si O2"
_cell_formula_units_Z 16
_cell_length_a 11.086318
_cell_length_b 8.771067
_cell_length_c 15.349721
_cell_angle_alpha 36.307706
_cell_angle_beta 68.750906
_cell_angle_gamma 55.640258
_cell_volume 716.430923
_symmetry_space_group_name_H-M "P -1"
_symmetry_group_IT_number 2
_symmetry_cell_setting 'triclinic'
loop_
_space_group_symop_operation_xyz
x,y,z
-x,-y,-z
loop_
_atom_site_type_symbol
_atom_site_label
_atom_site_fract_x
_atom_site_fract_y
_atom_site_fract_z
Si Si1 0.784317 0.149358 0.714712
Si Si2 0.492231 0.633683 0.536388
Si Si3 0.615917 0.683921 0.772882
Si Si4 0.630484 0.377421 0.245606
Si Si5 0.304299 0.319846 0.057127
Si Si6 0.008146 0.179523 0.040328
Si Si7 0.050272 0.214627 0.554121
Si Si8 0.041397 0.608580 0.223675
O O1 0.663099 0.491975 0.588896
O O2 0.927744 0.110548 0.644119
O O3 0.698914 0.979641 0.784408
O O4 0.845898 0.999517 0.859891
O O5 0.500000 0.500000 0.500000
O O6 0.410422 0.562174 0.669285
O O7 0.418723 0.983145 0.388134
O O8 0.499478 0.645307 0.762106
O O9 0.614773 0.636380 0.899688
O O10 0.787282 0.475687 0.796831
O O11 0.786330 0.064193 0.342512
O O12 0.639414 0.634702 0.070928
O O13 0.130656 0.568847 0.988805
O O14 0.964687 0.929666 0.140792
O O15 0.029043 0.335870 0.878674
O O16 0.040702 0.355355 0.397349
O O17 0.000000 0.500000 0.500000
#
# Coordination Sequence:
#
# PCOD9009419 Si02
#       8
#     2   2   2   2   2   2   2   2
#     4  12  24  44  70  94 148 183 223 291 357 407
#     4  12  26  48  67 105 145 189 231 291 352 419
#     4  11  23  45  73 101 140 183 236 299 344 417
#     4  12  25  43  76 102 139 189 245 280 353 423
#     4  11  24  45  67 103 142 184 234 291 353 418
#     4  10  21  39  68  97 137 178 221 292 348 408
#     4  12  23  41  71 109 135 183 240 291 347 426
#     4  10  21  41  66 104 135 174 239 284 347 412
#
# _framework density 22.332926
#
# number of rings (size 3 to 8) (size 9 to 14) (size 15 to 20)
#    0.000    0.750    5.000    2.625    0.000    0.500 
#    2.250    5.625    0.000    0.000    0.000    0.000 
#    0.000    0.000    0.000    0.000    0.000    0.000 
#
# Total GULP energy -89363.450198 kJ/mol
# GULP energy per Si atom -5585.215637 kJ/mol
# Density = 2.228210 g / cm^3
# Si number density = 22.332926 Si / 1000 Ang^3
#
#
#
# Elastic Constant Matrix: (Units=GPa)
#
#
# Indices 1 2 3 4 5 6 
#
# 1 61.6492 26.3616 49.8597 20.7924 3.5014 -3.8084
# 2 26.3616 78.5224 31.7202 13.6764 1.4889 -6.7381
# 3 49.8597 31.7202 152.3405 24.4589 15.3702 -6.5099
# 4 20.7924 13.6764 24.4589 40.7069 -4.4666 7.0697
# 5 3.5014 1.4889 15.3702 -4.4666 45.2970 -6.8900
# 6 -3.8084 -6.7381 -6.5099 7.0697 -6.8900 23.2125
#
#
#
# Elastic Compliance Matrix: (Units=1/GPa)
#
#
# Indices 1 2 3 4 5 6 
#
# 1 0.026328 -0.004474 -0.006053 -0.009021 -0.000109 0.004038
# 2 -0.004474 0.015610 -0.001178 -0.002975 0.000633 0.004561
# 3 -0.006053 -0.001178 0.009586 -0.002820 -0.002815 0.001377
# 4 -0.009021 -0.002975 -0.002820 0.034420 0.003220 -0.012662
# 5 -0.000109 0.000633 -0.002815 0.003220 0.024185 0.005574
# 6 0.004038 0.004561 0.001377 -0.012662 0.005574 0.050964
#
#
# Mechanical properties :
#
#
# Convention : Reuss Voigt Hill
#
# Bulk Modulus (GPa) = 35.56792 56.48834 46.02813
# Shear Modulus (GPa) = 25.79001 34.14798 29.96900
#
# Velocity S-wave (km/s) = 3.40192 3.91454 3.66720
# Velocity P-wave (km/s) = 5.60281 6.76610 6.21175
#
# Compressibility (1/GPa) = 0.02811523
#
# Stress axis : x y z
#
# Youngs Moduli (GPa) = 37.98286 64.06032 104.31548
#
# Poissons Ratio (x) = 0.28658 0.63146
# Poissons Ratio (y) = 0.16992 0.12283
# Poissons Ratio (z) = 0.22992 0.07543
#
# Static dielectric constant tensor:
#      x y z
#    x 1.862440 0.069150 -0.019060 
#    y 0.069150 1.878320 0.022520 
#    z -0.019060 0.022520 1.825400 
# 
# From -- ./inp_files/514902.got.cif
#   From: 2010.05.17/outbox.cif.g08.bks.cpg/sg2_258_cif.got.tgz:514902.got - 2010.06.03 11:33:40.
