data_PCOD9009857
_publ_section_title
;
Structure prediction by ZEFSAII (Michael W. Deem and Ramdas Pophale) SiO2 
 PCOD9009857
Probable space group: P -1
;
_chemical_formula_sum "Si O2"
_cell_formula_units_Z 16
_cell_length_a 13.002913
_cell_length_b 13.185953
_cell_length_c 5.497899
_cell_angle_alpha 99.392001
_cell_angle_beta 105.751647
_cell_angle_gamma 42.744409
_cell_volume 614.830599
_symmetry_space_group_name_H-M "P -1"
_symmetry_group_IT_number 2
_symmetry_cell_setting 'triclinic'
loop_
_space_group_symop_operation_xyz
x,y,z
-x,-y,-z
loop_
_atom_site_type_symbol
_atom_site_label
_atom_site_fract_x
_atom_site_fract_y
_atom_site_fract_z
Si Si1 0.220304 0.848107 0.361610
Si Si2 0.003544 0.835683 0.478486
Si Si3 0.510492 0.382085 0.239089
Si Si4 0.752812 0.330246 0.067857
Si Si5 0.861443 0.590962 0.256954
Si Si6 0.363180 0.107981 0.262966
Si Si7 0.047082 0.297498 0.003273
Si Si8 0.464006 0.191394 0.974915
O O1 0.118420 0.847198 0.473904
O O2 0.402549 0.706646 0.488457
O O3 0.192091 0.816899 0.069378
O O4 0.152193 0.007621 0.441458
O O5 0.980938 0.786080 0.199690
O O6 0.105417 0.715005 0.716648
O O7 0.335042 0.545074 0.153392
O O8 0.521258 0.266936 0.059159
O O9 0.618064 0.395415 0.197296
O O10 0.878720 0.681572 0.148583
O O11 0.000000 0.500000 0.500000
O O12 0.682312 0.708537 0.266196
O O13 0.900169 0.465605 0.064273
O O14 0.390933 0.197205 0.180154
O O15 0.500000 0.000000 0.500000
O O16 0.185231 0.208450 0.257550
O O17 0.402699 0.983473 0.063217
#
# Coordination Sequence:
#
# PCOD9009857 Si02
#       8
#     2   2   2   2   2   2   2   2
#     4  10  21  40  60  88 126 163 208 262 304 368
#     4  10  22  38  62  89 124 162 210 256 309 379
#     4  10  22  39  59  91 124 162 211 260 306 375
#     4  10  22  40  60  90 125 166 210 258 310 373
#     4  10  22  39  59  89 122 158 200 251 309 378
#     4  10  21  41  61  89 122 159 203 260 309 373
#     4  10  22  39  60  90 124 156 203 255 308 371
#     4  10  22  38  61  89 122 157 208 254 308 373
#
# _framework density 26.023429
#
# number of rings (size 3 to 8) (size 9 to 14) (size 15 to 20)
#    0.000    2.000    0.000    2.250    3.500    1.000 
#    0.000    2.500    0.000    0.000    0.000    0.000 
#    0.000    0.000    0.000    0.000    0.000    0.000 
#
# Total GULP energy -89367.268600 kJ/mol
# GULP energy per Si atom -5585.454288 kJ/mol
# Density = 2.596420 g / cm^3
# Si number density = 26.023429 Si / 1000 Ang^3
#
#
#
# Elastic Constant Matrix: (Units=GPa)
#
#
# Indices 1 2 3 4 5 6 
#
# 1 52.7878 23.6843 3.1807 -11.7450 21.5099 6.2179
# 2 23.6843 136.4230 34.7067 -2.9187 16.4173 -12.7239
# 3 3.1807 34.7067 100.7664 -17.1717 21.9348 -4.2856
# 4 -11.7450 -2.9187 -17.1717 45.1708 -7.0782 3.9346
# 5 21.5099 16.4173 21.9348 -7.0782 27.7459 2.4057
# 6 6.2179 -12.7239 -4.2856 3.9346 2.4057 34.4154
#
#
#
# Elastic Compliance Matrix: (Units=1/GPa)
#
#
# Indices 1 2 3 4 5 6 
#
# 1 0.034197 -0.005017 0.007597 0.007748 -0.027045 -0.006082
# 2 -0.005017 0.009385 -0.003283 -0.002319 -0.000027 0.004234
# 3 0.007597 -0.003283 0.014794 0.005177 -0.014293 -0.000337
# 4 0.007748 -0.002319 0.005177 0.026098 -0.001681 -0.004479
# 5 -0.027045 -0.000027 -0.014293 -0.001681 0.068022 -0.001466
# 6 -0.006082 0.004234 -0.000337 -0.004479 -0.001466 0.032294
#
#
# Mechanical properties :
#
#
# Convention : Reuss Voigt Hill
#
# Bulk Modulus (GPa) = 17.55282 45.90231 31.72756
# Shear Modulus (GPa) = 24.36821 36.69345 30.53083
#
# Velocity S-wave (km/s) = 3.06338 3.75909 3.42892
# Velocity P-wave (km/s) = 4.38999 6.04303 5.28158
#
# Compressibility (1/GPa) = 0.05697091
#
# Stress axis : x y z
#
# Youngs Moduli (GPa) = 29.24195 106.55371 67.59457
#
# Poissons Ratio (x) = 0.53454 -0.51353
# Poissons Ratio (y) = 0.14670 0.22193
# Poissons Ratio (z) = -0.22216 0.34985
#
# Static dielectric constant tensor:
#      x y z
#    x 2.062300 -0.031570 0.018550 
#    y -0.031570 2.101650 -0.082800 
#    z 0.018550 -0.082800 2.190400 
# 
# From -- ./inp_files/98529.got.cif
#   From: 2010.05.17/outbox.cif.g08.bks.cpg/sg2_50_cif.got.tgz:98529.got - 2010.06.03 11:33:40.
