data_PCOD9009771
_publ_section_title
;
Structure prediction by ZEFSAII (Michael W. Deem and Ramdas Pophale) SiO2 
 PCOD9009771
Probable space group: P -1
;
_chemical_formula_sum "Si O2"
_cell_formula_units_Z 16
_cell_length_a 20.302382
_cell_length_b 6.147487
_cell_length_c 19.818203
_cell_angle_alpha 59.864959
_cell_angle_beta 20.040517
_cell_angle_gamma 70.593800
_cell_volume 646.938444
_symmetry_space_group_name_H-M "P -1"
_symmetry_group_IT_number 2
_symmetry_cell_setting 'triclinic'
loop_
_space_group_symop_operation_xyz
x,y,z
-x,-y,-z
loop_
_atom_site_type_symbol
_atom_site_label
_atom_site_fract_x
_atom_site_fract_y
_atom_site_fract_z
Si Si1 0.934541 0.980885 0.315286
Si Si2 0.411686 0.555231 0.349255
Si Si3 0.338932 0.630099 0.645519
Si Si4 0.028557 0.588135 0.356658
Si Si5 0.756567 0.064168 0.615178
Si Si6 0.084342 0.481876 0.792387
Si Si7 0.646713 0.257067 0.226633
Si Si8 0.383930 0.706343 0.111760
O O1 0.744343 0.720071 0.500586
O O2 0.095559 0.850575 0.199565
O O3 0.859005 0.039303 0.451038
O O4 0.972513 0.256688 0.194531
O O5 0.404240 0.805487 0.273536
O O6 0.292763 0.545341 0.536271
O O7 0.613293 0.496121 0.180940
O O8 0.500000 0.500000 0.500000
O O9 0.128926 0.431215 0.833877
O O10 0.334366 0.679407 0.721421
O O11 0.443403 0.945403 0.462312
O O12 0.957270 0.294119 0.430656
O O13 0.795152 0.509300 0.628950
O O14 0.213357 0.669791 0.221647
O O15 0.607412 0.773099 0.844668
O O16 0.869675 0.244082 0.998972
O O17 0.500000 0.000000 0.000000
#
# Coordination Sequence:
#
# PCOD9009771 Si02
#       8
#     2   2   2   2   2   2   2   2
#     4  10  21  40  59  85 124 158 202 252 293 358
#     4  10  21  42  58  90 127 154 210 255 290 372
#     4  11  23  43  63  91 125 154 205 258 298 371
#     4   9  19  37  59  87 120 156 200 245 293 359
#     4   9  20  37  58  85 121 158 197 249 297 349
#     4  11  23  41  63  91 122 161 206 250 308 361
#     4  11  24  40  65  90 118 164 202 247 316 360
#     4   9  18  37  61  87 120 157 196 247 297 348
#
# _framework density 24.731876
#
# number of rings (size 3 to 8) (size 9 to 14) (size 15 to 20)
#    0.000    2.000    2.500    0.375    1.750    2.000 
#    6.750    5.625    0.000    0.000    0.000    0.000 
#    0.000    0.000    0.000    0.000    0.000    0.000 
#
# Total GULP energy -89178.217079 kJ/mol
# GULP energy per Si atom -5573.638567 kJ/mol
# Density = 2.467559 g / cm^3
# Si number density = 24.731876 Si / 1000 Ang^3
#
#
#
# Elastic Constant Matrix: (Units=GPa)
#
#
# Indices 1 2 3 4 5 6 
#
# 1 117.1832 19.3658 8.0768 -9.8263 -31.1688 1.7099
# 2 19.3658 38.5665 13.4637 -11.8614 -0.7352 1.1227
# 3 8.0768 13.4637 57.2847 -9.3812 -12.7341 0.6664
# 4 -9.8263 -11.8614 -9.3812 28.3007 -4.6642 4.8161
# 5 -31.1688 -0.7352 -12.7341 -4.6642 50.0309 1.9388
# 6 1.7099 1.1227 0.6664 4.8161 1.9388 41.1631
#
#
#
# Elastic Compliance Matrix: (Units=1/GPa)
#
#
# Indices 1 2 3 4 5 6 
#
# 1 0.011811 -0.005174 0.002088 0.004200 0.008254 -0.001263
# 2 -0.005174 0.033785 -0.006295 0.010003 -0.003334 -0.001618
# 3 0.002088 -0.006295 0.021367 0.006610 0.007316 -0.001379
# 4 0.004200 0.010003 0.006610 0.045729 0.008954 -0.006326
# 5 0.008254 -0.003334 0.007316 0.008954 0.027884 -0.002731
# 6 -0.001263 -0.001618 -0.001379 -0.006326 -0.002731 0.025281
#
#
# Mechanical properties :
#
#
# Convention : Reuss Voigt Hill
#
# Bulk Modulus (GPa) = 20.74675 32.76079 26.75377
# Shear Modulus (GPa) = 24.91469 35.37414 30.14442
#
# Velocity S-wave (km/s) = 3.17739 3.78604 3.49499
# Velocity P-wave (km/s) = 4.67632 5.69098 5.20842
#
# Compressibility (1/GPa) = 0.04820032
#
# Stress axis : x y z
#
# Youngs Moduli (GPa) = 84.66825 29.59907 46.80174
#
# Poissons Ratio (x) = 0.15314 -0.09773
# Poissons Ratio (y) = 0.43806 0.29463
# Poissons Ratio (z) = -0.17679 0.18633
#
# Static dielectric constant tensor:
#      x y z
#    x 1.923070 -0.024810 0.035640 
#    y -0.024810 2.029960 -0.000090 
#    z 0.035640 -0.000090 2.099030 
# 
# From -- ./inp_files/11158.got.cif
#   From: 2010.05.17/outbox.cif.g08.bks.cpg/sg2_6_cif.got.tgz:11158.got - 2010.06.03 11:33:40.
