data_PCOD9009789
_publ_section_title
;
Structure prediction by ZEFSAII (Michael W. Deem and Ramdas Pophale) SiO2 
 PCOD9009789
Probable space group: P -1
;
_chemical_formula_sum "Si O2"
_cell_formula_units_Z 16
_cell_length_a 12.046585
_cell_length_b 5.156858
_cell_length_c 13.243928
_cell_angle_alpha 90.674201
_cell_angle_beta 113.108597
_cell_angle_gamma 90.271923
_cell_volume 756.639672
_symmetry_space_group_name_H-M "P -1"
_symmetry_group_IT_number 2
_symmetry_cell_setting 'triclinic'
loop_
_space_group_symop_operation_xyz
x,y,z
-x,-y,-z
loop_
_atom_site_type_symbol
_atom_site_label
_atom_site_fract_x
_atom_site_fract_y
_atom_site_fract_z
Si Si1 0.938151 0.918868 0.625353
Si Si2 0.284064 0.958290 0.061313
Si Si3 0.193585 0.039508 0.818133
Si Si4 0.271706 0.075988 0.281712
Si Si5 0.164407 0.586778 0.500078
Si Si6 0.701739 0.456313 0.242049
Si Si7 0.625614 0.419927 0.593375
Si Si8 0.554799 0.537910 0.907571
O O1 0.840841 0.928814 0.681884
O O2 0.927611 0.637030 0.570016
O O3 0.067002 0.986876 0.718234
O O4 0.895746 0.134320 0.531609
O O5 0.344948 0.678188 0.075237
O O6 0.233713 0.006112 0.154894
O O7 0.387639 0.177637 0.081782
O O8 0.191049 0.996091 0.936833
O O9 0.283768 0.825135 0.804364
O O10 0.243321 0.323569 0.810241
O O11 0.332464 0.358579 0.312304
O O12 0.366375 0.860839 0.353424
O O13 0.221812 0.536101 0.628497
O O14 0.274862 0.579327 0.459960
O O15 0.559975 0.502331 0.206870
O O16 0.500000 0.500000 0.500000
O O17 0.500000 0.500000 0.000000
#
# Coordination Sequence:
#
# PCOD9009789 Si02
#       8
#     2   2   2   2   2   2   2   2
#     4  10  23  44  62  87 126 158 204 263 294 350
#     4  12  24  40  65  93 122 164 203 245 310 364
#     4  12  24  41  64  89 121 165 208 249 302 358
#     4  10  23  40  62  90 122 157 202 250 304 354
#     4  10  23  40  61  90 124 159 203 251 306 357
#     4  12  25  39  63  94 121 162 206 245 309 369
#     4  10  21  40  59  89 122 160 201 248 296 365
#     4  12  23  43  61  88 133 160 195 260 297 359
#
# _framework density 21.146127
#
# number of rings (size 3 to 8) (size 9 to 14) (size 15 to 20)
#    0.000    1.000    2.500    3.750    3.500    3.500 
#    0.000    0.000    0.000    7.500    0.000    0.000 
#    0.000    0.000    0.000    0.000    0.000    0.000 
#
# Total GULP energy -89579.571221 kJ/mol
# GULP energy per Si atom -5598.723201 kJ/mol
# Density = 2.109800 g / cm^3
# Si number density = 21.146127 Si / 1000 Ang^3
#
#
#
# Elastic Constant Matrix: (Units=GPa)
#
#
# Indices 1 2 3 4 5 6 
#
# 1 31.3128 2.7935 4.9769 -2.9231 8.3083 1.8989
# 2 2.7935 85.9258 -1.3541 -4.6106 -1.7541 -8.0650
# 3 4.9769 -1.3541 116.9582 -8.0102 0.1774 -7.7469
# 4 -2.9231 -4.6106 -8.0102 29.7649 -3.3719 0.4363
# 5 8.3083 -1.7541 0.1774 -3.3719 45.3650 5.9751
# 6 1.8989 -8.0650 -7.7469 0.4363 5.9751 24.7247
#
#
#
# Elastic Compliance Matrix: (Units=1/GPa)
#
#
# Indices 1 2 3 4 5 6 
#
# 1 0.034171 -0.001340 -0.001457 0.002123 -0.005865 -0.002138
# 2 -0.001340 0.012189 0.000603 0.001893 0.000307 0.004160
# 3 -0.001457 0.000603 0.008982 0.002325 0.000023 0.003076
# 4 0.002123 0.001893 0.002325 0.034981 0.002273 0.000016
# 5 -0.005865 0.000307 0.000023 0.002273 0.023994 -0.005281
# 6 -0.002138 0.004160 0.003076 0.000016 -0.005281 0.044207
#
#
# Mechanical properties :
#
#
# Convention : Reuss Voigt Hill
#
# Bulk Modulus (GPa) = 19.62577 27.44772 23.53674
# Shear Modulus (GPa) = 27.79364 35.15628 31.47496
#
# Velocity S-wave (km/s) = 3.62934 4.08185 3.86223
# Velocity P-wave (km/s) = 5.18305 5.93494 5.57169
#
# Compressibility (1/GPa) = 0.05095343
#
# Stress axis : x y z
#
# Youngs Moduli (GPa) = 29.26462 82.03901 111.33371
#
# Poissons Ratio (x) = 0.10996 0.16220
# Poissons Ratio (y) = 0.03923 -0.06712
# Poissons Ratio (z) = 0.04264 -0.04946
#
# Static dielectric constant tensor:
#      x y z
#    x 1.743180 -0.004790 -0.018230 
#    y -0.004790 1.725720 -0.002580 
#    z -0.018230 -0.002580 1.753260 
# 
# From -- ./inp_files/69185.got.cif
#   From: 2010.05.17/outbox.cif.g08.bks.cpg/sg2_35_cif.got.tgz:69185.got - 2010.06.03 11:33:40.
