data_PCOD9009726
_publ_section_title
;
Structure prediction by ZEFSAII (Michael W. Deem and Ramdas Pophale) SiO2 
 PCOD9009726
Probable space group: P -1
;
_chemical_formula_sum "Si O2"
_cell_formula_units_Z 16
_cell_length_a 15.704647
_cell_length_b 17.810727
_cell_length_c 11.774772
_cell_angle_alpha 114.202836
_cell_angle_beta 129.610910
_cell_angle_gamma 25.119146
_cell_volume 925.473858
_symmetry_space_group_name_H-M "P -1"
_symmetry_group_IT_number 2
_symmetry_cell_setting 'triclinic'
loop_
_space_group_symop_operation_xyz
x,y,z
-x,-y,-z
loop_
_atom_site_type_symbol
_atom_site_label
_atom_site_fract_x
_atom_site_fract_y
_atom_site_fract_z
Si Si1 0.217935 0.018453 0.579194
Si Si2 0.818928 0.151946 0.332403
Si Si3 0.733603 0.854630 0.447858
Si Si4 0.093546 0.291354 0.245822
Si Si5 0.806605 0.665157 0.216306
Si Si6 0.152803 0.468643 0.179042
Si Si7 0.213977 0.010300 0.841614
Si Si8 0.200214 0.595367 0.137308
O O1 0.208546 0.270853 0.643580
O O2 0.003637 0.096563 0.399153
O O3 0.185519 0.126265 0.554284
O O4 0.175406 0.054194 0.701570
O O5 0.763410 0.103588 0.192066
O O6 0.525508 0.387021 0.269183
O O7 0.000000 0.000000 0.500000
O O8 0.405789 0.085054 0.336346
O O9 0.467685 0.227547 0.320635
O O10 0.885144 0.754001 0.635197
O O11 0.952933 0.477074 0.238455
O O12 0.929308 0.342851 0.054733
O O13 0.980429 0.595770 0.226288
O O14 0.498321 0.858785 0.028247
O O15 0.158176 0.545563 0.153479
O O16 0.000000 0.500000 0.000000
O O17 0.963690 0.218244 0.829639
#
# Coordination Sequence:
#
# PCOD9009726 Si02
#       8
#     2   2   2   2   2   2   2   2
#     4  11  21  40  56  85 123 150 188 239 286 338
#     4  10  21  40  58  83 118 155 187 243 283 332
#     4  11  24  38  58  89 114 155 196 231 289 344
#     4  11  22  39  60  83 120 153 189 242 284 341
#     4  12  21  37  61  88 118 150 188 239 292 346
#     4  12  19  33  60  86 120 147 177 239 297 341
#     4  11  22  35  64  88 114 152 192 235 291 348
#     4  12  21  38  60  87 117 152 196 230 289 347
#
# _framework density 17.288440999999999
#
# number of rings (size 3 to 8) (size 9 to 14) (size 15 to 20)
#    0.000    0.750    8.750    1.125    0.000    3.000 
#    2.250    0.625    0.000    0.750    0.000    0.000 
#    0.000    0.000    0.000    0.000    0.000    0.000 
#
# Total GULP energy -89357.656186 kJ/mol
# GULP energy per Si atom -5584.853512 kJ/mol
# Density = 1.724909 g / cm^3
# Si number density = 17.288441 Si / 1000 Ang^3
#
#
#
# Elastic Constant Matrix: (Units=GPa)
#
#
# Indices 1 2 3 4 5 6 
#
# 1 62.9144 32.4832 38.9113 0.2693 10.5943 -12.5213
# 2 32.4832 106.8571 24.7859 -0.5507 4.1090 -26.8181
# 3 38.9113 24.7859 76.1700 -5.8891 0.1744 -19.9251
# 4 0.2693 -0.5507 -5.8891 25.4663 -5.5309 2.9149
# 5 10.5943 4.1090 0.1744 -5.5309 29.6627 -4.1619
# 6 -12.5213 -26.8181 -19.9251 2.9149 -4.1619 17.1261
#
#
#
# Elastic Compliance Matrix: (Units=1/GPa)
#
#
# Indices 1 2 3 4 5 6 
#
# 1 0.029438 -0.007501 -0.015737 -0.005492 -0.011877 -0.010485
# 2 -0.007501 0.017697 0.005936 -0.000697 0.004314 0.030300
# 3 -0.015737 0.005936 0.027960 0.005305 0.010095 0.031869
# 4 -0.005492 -0.000697 0.005305 0.043053 0.009500 -0.003953
# 5 -0.011877 0.004314 0.010095 0.009500 0.041639 0.018318
# 6 -0.010485 0.030300 0.031869 -0.003953 0.018318 0.140374
#
#
# Mechanical properties :
#
#
# Convention : Reuss Voigt Hill
#
# Bulk Modulus (GPa) = 24.69815 48.70023 36.69919
# Shear Modulus (GPa) = 14.35698 24.43512 19.39605
#
# Velocity S-wave (km/s) = 2.88486 3.76357 3.35312
# Velocity P-wave (km/s) = 5.04118 6.86414 6.02204
#
# Compressibility (1/GPa) = 0.04048885
#
# Stress axis : x y z
#
# Youngs Moduli (GPa) = 33.97004 56.50742 35.76545
#
# Poissons Ratio (x) = 0.42388 0.56285
# Poissons Ratio (y) = 0.25482 -0.21230
# Poissons Ratio (z) = 0.53460 -0.33542
#
# Static dielectric constant tensor:
#      x y z
#    x 1.582240 0.006950 0.009430 
#    y 0.006950 1.595670 0.009550 
#    z 0.009430 0.009550 1.582780 
# 
# From -- ./inp_files/425057.got.cif
#   From: 2010.05.17/outbox.cif.g08.bks.cpg/sg2_213_cif.got.tgz:425057.got - 2010.06.03 11:33:40.
