data_PCOD9009260
_publ_section_title
;
Structure prediction by ZEFSAII (Michael W. Deem and Ramdas Pophale) SiO2 
 PCOD9009260
Probable space group: P -1
;
_chemical_formula_sum "Si O2"
_cell_formula_units_Z 16
_cell_length_a 12.794975
_cell_length_b 8.204071
_cell_length_c 13.435957
_cell_angle_alpha 135.936016
_cell_angle_beta 123.892536
_cell_angle_gamma 80.399528
_cell_volume 744.366318
_symmetry_space_group_name_H-M "P -1"
_symmetry_group_IT_number 2
_symmetry_cell_setting 'triclinic'
loop_
_space_group_symop_operation_xyz
x,y,z
-x,-y,-z
loop_
_atom_site_type_symbol
_atom_site_label
_atom_site_fract_x
_atom_site_fract_y
_atom_site_fract_z
Si Si1 0.652027 0.840752 0.713712
Si Si2 0.465804 0.211907 0.017450
Si Si3 0.030821 0.433326 0.595511
Si Si4 0.430210 0.551858 0.315272
Si Si5 0.705413 0.377738 0.068773
Si Si6 0.899004 0.717815 0.790788
Si Si7 0.134345 0.447652 0.077419
Si Si8 0.165438 0.121853 0.781458
O O1 0.533793 0.773133 0.538062
O O2 0.612908 0.683998 0.729601
O O3 0.765986 0.748915 0.690429
O O4 0.706805 0.135242 0.903130
O O5 0.488814 0.451715 0.208361
O O6 0.555092 0.302721 0.003829
O O7 0.302919 0.075895 0.850628
O O8 0.500000 0.000000 0.000000
O O9 0.966206 0.577335 0.696263
O O10 0.000000 0.500000 0.500000
O O11 0.192424 0.552848 0.753066
O O12 0.955267 0.128107 0.435713
O O13 0.301823 0.606622 0.226908
O O14 0.776957 0.625241 0.145609
O O15 0.868991 0.572649 0.815241
O O16 0.000000 0.000000 0.000000
O O17 0.117309 0.197536 0.893957
O O18 0.000000 0.500000 0.000000
#
# Coordination Sequence:
#
# PCOD9009260 Si02
#       8
#     2   2   2   2   2   2   2   2
#     4  10  21  39  67  98 133 172 229 283 335 396
#     4  11  22  41  70  97 134 181 226 278 337 406
#     4  12  26  43  69 101 135 181 235 283 337 412
#     4   9  21  40  65 102 128 173 235 275 331 408
#     4  12  24  43  66  99 142 182 222 285 346 403
#     4  11  22  40  68  97 128 174 231 280 334 398
#     4  10  22  43  68  95 133 179 219 282 340 401
#     4  11  26  45  65 101 141 180 225 279 349 411
#
# _framework density 21.494795
#
# number of rings (size 3 to 8) (size 9 to 14) (size 15 to 20)
#    0.000    1.250    2.500    3.000    5.250    1.000 
#    0.000    5.000    0.000    0.000    0.000    0.000 
#    0.000    0.000    0.000    0.000    0.000    0.000 
#
# Total GULP energy -89262.011116 kJ/mol
# GULP energy per Si atom -5578.875695 kJ/mol
# Density = 2.144587 g / cm^3
# Si number density = 21.494795 Si / 1000 Ang^3
#
#
#
# Elastic Constant Matrix: (Units=GPa)
#
#
# Indices 1 2 3 4 5 6 
#
# 1 89.1895 3.4027 6.1692 0.1085 -8.6915 -15.5569
# 2 3.4027 69.3514 26.8450 -8.2509 13.6692 -11.6372
# 3 6.1692 26.8450 112.6414 -5.9605 8.9206 -17.7289
# 4 0.1085 -8.2509 -5.9605 38.8503 -1.3818 11.9628
# 5 -8.6915 13.6692 8.9206 -1.3818 26.2672 -11.6131
# 6 -15.5569 -11.6372 -17.7289 11.9628 -11.6131 35.0813
#
#
#
# Elastic Compliance Matrix: (Units=1/GPa)
#
#
# Indices 1 2 3 4 5 6 
#
# 1 0.013924 -0.001317 0.000217 -0.003034 0.009491 0.010024
# 2 -0.001317 0.017783 -0.003370 0.003033 -0.008489 -0.000232
# 3 0.000217 -0.003370 0.010323 -0.000493 0.000261 0.004450
# 4 -0.003034 0.003033 -0.000493 0.030096 -0.006594 -0.013035
# 5 0.009491 -0.008489 0.000261 -0.006594 0.054895 0.021946
# 6 0.010024 -0.000232 0.004450 -0.013035 0.021946 0.046832
#
#
# Mechanical properties :
#
#
# Convention : Reuss Voigt Hill
#
# Bulk Modulus (GPa) = 30.22016 38.22403 34.22210
# Shear Modulus (GPa) = 25.79672 35.69077 30.74374
#
# Velocity S-wave (km/s) = 3.46806 4.07927 3.78602
# Velocity P-wave (km/s) = 5.48875 6.32525 5.92179
#
# Compressibility (1/GPa) = 0.03309049
#
# Stress axis : x y z
#
# Youngs Moduli (GPa) = 71.81634 56.23237 96.87553
#
# Poissons Ratio (x) = 0.07404 -0.02099
# Poissons Ratio (y) = 0.09456 0.32646
# Poissons Ratio (z) = -0.01556 0.18949
#
# Static dielectric constant tensor:
#      x y z
#    x 1.857010 0.013260 0.087570 
#    y 0.013260 1.817790 0.004500 
#    z 0.087570 0.004500 1.799230 
# 
# From -- ./inp_files/516438.got.cif
#   From: 2010.05.17/outbox.cif.g08.bks.cpg/sg2_259_cif.got.tgz:516438.got - 2010.06.03 11:33:40.
