data_PCOD9009001
_publ_section_title
;
Structure prediction by ZEFSAII (Michael W. Deem and Ramdas Pophale) SiO2 
 PCOD9009001
Probable space group: P -1
;
_chemical_formula_sum "Si O2"
_cell_formula_units_Z 12
_cell_length_a 7.777521
_cell_length_b 5.185595
_cell_length_c 13.312415
_cell_angle_alpha 90.770352
_cell_angle_beta 73.639049
_cell_angle_gamma 115.608920
_cell_volume 460.901912
_symmetry_space_group_name_H-M "P -1"
_symmetry_group_IT_number 2
_symmetry_cell_setting 'triclinic'
loop_
_space_group_symop_operation_xyz
x,y,z
-x,-y,-z
loop_
_atom_site_type_symbol
_atom_site_label
_atom_site_fract_x
_atom_site_fract_y
_atom_site_fract_z
Si Si1 0.953440 0.440045 0.759172
Si Si2 0.324224 0.866339 0.443950
Si Si3 0.865736 0.734027 0.088389
Si Si4 0.147111 0.252994 0.563839
Si Si5 0.632186 0.334200 0.961399
Si Si6 0.678031 0.920682 0.282412
O O1 0.007495 0.282934 0.839297
O O2 0.964900 0.276986 0.655201
O O3 0.750790 0.427502 0.836774
O O4 0.130556 0.767838 0.728077
O O5 0.226666 0.527280 0.479702
O O6 0.470853 0.943508 0.324796
O O7 0.500000 0.000000 0.500000
O O8 0.171383 0.000036 0.496728
O O9 0.698072 0.797422 0.171616
O O10 0.784290 0.454947 0.031223
O O11 0.000000 0.000000 0.000000
O O12 0.295669 0.281171 0.635336
O O13 0.500000 0.500000 0.000000
O O14 0.500000 0.000000 0.000000
#
# Coordination Sequence:
#
# PCOD9009001 Si02
#       6
#     2   2   2   2   2   2
#     4  11  22  38  65  90 122 164 210 249 309 365
#     4  10  17  29  48  89 130 149 181 255 314 350
#     4  11  23  41  64  91 122 167 212 259 307 368
#     4  10  19  31  53  86 132 150 189 247 319 351
#     4  12  28  44  61  88 127 165 209 259 312 366
#     4  10  20  31  60  88 124 156 203 244 313 356
#
# _framework density 26.035907999999999
#
# number of rings (size 3 to 8) (size 9 to 14) (size 15 to 20)
#    0.000    1.333    5.000    3.500    7.000    0.000 
#    0.000    0.000    0.000    0.000    0.000    7.000 
#    0.000    0.000    0.000    0.000    0.000    0.000 
#
# Total GULP energy -67149.711747 kJ/mol
# GULP energy per Si atom -5595.809312 kJ/mol
# Density = 2.597665 g / cm^3
# Si number density = 26.035908 Si / 1000 Ang^3
#
#
#
# Elastic Constant Matrix: (Units=GPa)
#
#
# Indices 1 2 3 4 5 6 
#
# 1 97.3771 32.9783 52.5855 -5.7317 -45.7668 -30.1374
# 2 32.9783 196.5980 87.2944 8.1748 -14.1191 -13.0751
# 3 52.5855 87.2944 200.6347 32.5211 -49.3520 -6.5648
# 4 -5.7317 8.1748 32.5211 61.7724 -9.2941 5.2332
# 5 -45.7668 -14.1191 -49.3520 -9.2941 68.4723 9.1264
# 6 -30.1374 -13.0751 -6.5648 5.2332 9.1264 42.0098
#
#
#
# Elastic Compliance Matrix: (Units=1/GPa)
#
#
# Indices 1 2 3 4 5 6 
#
# 1 0.020957 -0.000947 -0.002698 0.004163 0.010909 0.011429
# 2 -0.000947 0.006524 -0.002980 0.000283 -0.001555 0.001188
# 3 -0.002698 -0.002980 0.008331 -0.003583 0.003346 -0.001842
# 4 0.004163 0.000283 -0.003583 0.018897 0.002886 -0.000466
# 5 0.010909 -0.001555 0.003346 0.002886 0.024076 0.002275
# 6 0.011429 0.001188 -0.001842 -0.000466 0.002275 0.031649
#
#
# Mechanical properties :
#
#
# Convention : Reuss Voigt Hill
#
# Bulk Modulus (GPa) = 44.32175 93.36957 68.84566
# Shear Modulus (GPa) = 38.10831 55.90100 47.00466
#
# Velocity S-wave (km/s) = 3.82996 4.63868 4.25358
# Velocity P-wave (km/s) = 6.05131 8.03925 7.11505
#
# Compressibility (1/GPa) = 0.02256228
#
# Stress axis : x y z
#
# Youngs Moduli (GPa) = 47.71754 153.27777 120.02649
#
# Poissons Ratio (x) = 0.14514 0.32384
# Poissons Ratio (y) = 0.04518 0.35768
# Poissons Ratio (z) = 0.12875 0.45677
#
# Static dielectric constant tensor:
#      x y z
#    x 2.286400 0.110510 -0.046210 
#    y 0.110510 1.950070 0.061460 
#    z -0.046210 0.061460 2.113240 
# 
# From -- ./inp_files/38929.got.cif
#   From: 2010.05.17/outbox.cif.g08.bks.cpg/sg2_20_cif.got.tgz:38929.got - 2010.06.03 11:33:40.
