data_PCOD9009784
_publ_section_title
;
Structure prediction by ZEFSAII (Michael W. Deem and Ramdas Pophale) SiO2 
 PCOD9009784
Probable space group: P -1
;
_chemical_formula_sum "Si O2"
_cell_formula_units_Z 16
_cell_length_a 9.887377
_cell_length_b 21.670428
_cell_length_c 5.459658
_cell_angle_alpha 118.303002
_cell_angle_beta 38.628813
_cell_angle_gamma 114.265175
_cell_volume 641.221805
_symmetry_space_group_name_H-M "P -1"
_symmetry_group_IT_number 2
_symmetry_cell_setting 'triclinic'
loop_
_space_group_symop_operation_xyz
x,y,z
-x,-y,-z
loop_
_atom_site_type_symbol
_atom_site_label
_atom_site_fract_x
_atom_site_fract_y
_atom_site_fract_z
Si Si1 0.446114 0.433897 0.778555
Si Si2 0.213894 0.473161 0.761066
Si Si3 0.071315 0.767929 0.879562
Si Si4 0.201560 0.063366 0.030631
Si Si5 0.332538 0.704860 0.769262
Si Si6 0.065298 0.919947 0.055561
Si Si7 0.354762 0.215257 0.156411
Si Si8 0.121826 0.327489 0.416523
O O1 0.222574 0.443283 0.968663
O O2 0.621171 0.457085 0.356513
O O3 0.512666 0.357636 0.612774
O O4 0.500000 0.500000 0.000000
O O5 0.243911 0.403724 0.421276
O O6 0.000000 0.500000 0.000000
O O7 0.283693 0.757372 0.719130
O O8 0.998346 0.696784 0.706495
O O9 0.114920 0.839263 0.798345
O O10 0.855354 0.781193 0.362651
O O11 0.028762 0.073541 0.520815
O O12 0.365856 0.132662 0.938573
O O13 0.103757 0.066454 0.899548
O O14 0.250672 0.982957 0.867074
O O15 0.440625 0.747700 0.923449
O O16 0.087595 0.673098 0.109689
O O17 0.275162 0.265354 0.148311
#
# Coordination Sequence:
#
# PCOD9009784 Si02
#       8
#     2   2   2   2   2   2   2   2
#     4  11  26  41  60  87 118 154 200 253 309 375
#     4  11  24  42  61  86 116 155 200 250 312 372
#     4  10  23  37  62  89 117 163 203 250 311 370
#     4   9  17  33  62  91 126 167 211 261 312 377
#     4  11  24  40  57  89 122 154 204 257 307 373
#     4   9  17  34  60  94 124 165 216 257 312 378
#     4  10  21  40  59  88 122 160 204 250 309 369
#     4  11  22  40  61  84 121 156 200 253 306 370
#
# _framework density 24.952363999999999
#
# number of rings (size 3 to 8) (size 9 to 14) (size 15 to 20)
#    0.000    1.750    3.750    0.000    3.500    1.500 
#    0.000    0.625    0.000    0.750    0.000    0.000 
#    0.000    0.000    0.000    0.000    0.000    0.000 
#
# Total GULP energy -89259.030547 kJ/mol
# GULP energy per Si atom -5578.689409 kJ/mol
# Density = 2.489557 g / cm^3
# Si number density = 24.952364 Si / 1000 Ang^3
#
#
#
# Elastic Constant Matrix: (Units=GPa)
#
#
# Indices 1 2 3 4 5 6 
#
# 1 118.8134 23.5276 9.5150 8.6260 -1.6664 3.3202
# 2 23.5276 181.5673 10.7141 16.2915 -11.2232 7.7892
# 3 9.5150 10.7141 52.2314 8.5883 0.9750 1.3104
# 4 8.6260 16.2915 8.5883 30.7389 6.8851 1.1125
# 5 -1.6664 -11.2232 0.9750 6.8851 31.2873 6.0671
# 6 3.3202 7.7892 1.3104 1.1125 6.0671 47.3513
#
#
#
# Elastic Compliance Matrix: (Units=1/GPa)
#
#
# Indices 1 2 3 4 5 6 
#
# 1 0.008833 -0.000847 -0.001131 -0.001854 0.000706 -0.000496
# 2 -0.000847 0.006228 -0.000562 -0.003586 0.003244 -0.001281
# 3 -0.001131 -0.000562 0.020310 -0.005113 0.000290 -0.000307
# 4 -0.001854 -0.003586 -0.005113 0.038566 -0.009951 0.001230
# 5 0.000706 0.003244 0.000290 -0.009951 0.036316 -0.005010
# 6 -0.000496 -0.001281 -0.000307 0.001230 -0.005010 0.021986
#
#
# Mechanical properties :
#
#
# Convention : Reuss Voigt Hill
#
# Bulk Modulus (GPa) = 33.01303 48.90286 40.95794
# Shear Modulus (GPa) = 33.91781 42.46587 38.19184
#
# Velocity S-wave (km/s) = 3.69087 4.12986 3.91652
# Velocity P-wave (km/s) = 5.60558 6.51015 6.07472
#
# Compressibility (1/GPa) = 0.03029107
#
# Stress axis : x y z
#
# Youngs Moduli (GPa) = 113.20957 160.57237 49.23695
#
# Poissons Ratio (x) = 0.13593 0.05570
# Poissons Ratio (y) = 0.09584 0.02767
# Poissons Ratio (z) = 0.12808 0.09024
#
# Static dielectric constant tensor:
#      x y z
#    x 2.063890 -0.109080 0.103680 
#    y -0.109080 2.107310 -0.175010 
#    z 0.103680 -0.175010 2.133930 
# 
# From -- ./inp_files/11071.got.cif
#   From: 2010.05.17/outbox.cif.g08.bks.cpg/sg2_6_cif.got.tgz:11071.got - 2010.06.03 11:33:40.
