data_PCOD9009536
_publ_section_title
;
Structure prediction by ZEFSAII (Michael W. Deem and Ramdas Pophale) SiO2 
 PCOD9009536
Probable space group: P -1
;
_chemical_formula_sum "Si O2"
_cell_formula_units_Z 16
_cell_length_a 8.210788
_cell_length_b 13.356538
_cell_length_c 12.070341
_cell_angle_alpha 56.224080
_cell_angle_beta 125.524004
_cell_angle_gamma 81.142218
_cell_volume 635.001695
_symmetry_space_group_name_H-M "P -1"
_symmetry_group_IT_number 2
_symmetry_cell_setting 'triclinic'
loop_
_space_group_symop_operation_xyz
x,y,z
-x,-y,-z
loop_
_atom_site_type_symbol
_atom_site_label
_atom_site_fract_x
_atom_site_fract_y
_atom_site_fract_z
Si Si1 0.652314 0.714503 0.253095
Si Si2 0.874301 0.391754 0.634390
Si Si3 0.919652 0.753117 0.527595
Si Si4 0.540100 0.021755 0.376780
Si Si5 0.942162 0.387853 0.906577
Si Si6 0.021495 0.053308 0.856685
Si Si7 0.205943 0.866015 0.505722
Si Si8 0.782913 0.481699 0.019202
O O1 0.668093 0.564670 0.374284
O O2 0.847003 0.692429 0.439282
O O3 0.814659 0.681585 0.224906
O O4 0.342810 0.899231 0.035646
O O5 0.780242 0.441738 0.694548
O O6 0.915792 0.235711 0.714105
O O7 0.972669 0.862827 0.432246
O O8 0.654603 0.874365 0.430057
O O9 0.182999 0.607105 0.799968
O O10 0.778499 0.025087 0.477134
O O11 0.500000 0.000000 0.500000
O O12 0.243212 0.201423 0.112845
O O13 0.844462 0.382162 0.991734
O O14 0.986336 0.510741 0.872124
O O15 0.828273 0.078212 0.668980
O O16 0.000000 0.000000 0.000000
O O17 0.497874 0.673372 0.762844
#
# Coordination Sequence:
#
# PCOD9009536 Si02
#       8
#     2   2   2   2   2   2   2   2
#     4  11  26  47  77 102 137 192 244 288 358 421
#     4  11  24  48  73 104 134 188 247 286 348 429
#     4  12  22  46  72 101 137 180 234 296 354 415
#     4  11  24  41  68 100 133 180 228 281 356 415
#     4  10  21  39  69  98 128 172 230 284 338 417
#     4  12  29  46  70 104 149 193 233 298 350 417
#     4  11  27  45  63 104 146 177 233 291 352 424
#     4  10  22  41  69  98 136 176 221 292 353 406
#
# _framework density 25.196787
#
# number of rings (size 3 to 8) (size 9 to 14) (size 15 to 20)
#    0.000    1.000    3.750    1.875    7.000    0.500 
#    2.250    0.000    0.000    0.000    0.000    0.000 
#    0.000    0.000    0.000    0.000    0.000    0.000 
#
# Total GULP energy -89532.368460 kJ/mol
# GULP energy per Si atom -5595.773029 kJ/mol
# Density = 2.513944 g / cm^3
# Si number density = 25.196787 Si / 1000 Ang^3
#
#
#
# Elastic Constant Matrix: (Units=GPa)
#
#
# Indices 1 2 3 4 5 6 
#
# 1 65.6224 14.7598 21.9919 8.1019 -11.0818 -3.6566
# 2 14.7598 116.3797 45.1762 -5.1652 -6.9898 -8.7327
# 3 21.9919 45.1762 105.4769 10.6914 -19.3819 -8.2003
# 4 8.1019 -5.1652 10.6914 38.5777 -7.6261 -8.6150
# 5 -11.0818 -6.9898 -19.3819 -7.6261 32.5140 3.8673
# 6 -3.6566 -8.7327 -8.2003 -8.6150 3.8673 29.0363
#
#
#
# Elastic Compliance Matrix: (Units=1/GPa)
#
#
# Indices 1 2 3 4 5 6 
#
# 1 0.017160 -0.001243 -0.002110 -0.002452 0.003753 -0.000036
# 2 -0.001243 0.010896 -0.004605 0.003584 -0.000334 0.002928
# 3 -0.002110 -0.004605 0.013211 -0.002623 0.005483 0.000572
# 4 -0.002452 0.003584 -0.002623 0.030421 0.004501 0.008455
# 5 0.003753 -0.000334 0.005483 0.004501 0.036478 -0.001602
# 6 -0.000036 0.002928 0.000572 0.008455 -0.001602 0.038199
#
#
# Mechanical properties :
#
#
# Convention : Reuss Voigt Hill
#
# Bulk Modulus (GPa) = 39.44643 50.14832 44.79738
# Shear Modulus (GPa) = 29.28569 33.72901 31.50735
#
# Velocity S-wave (km/s) = 3.41292 3.66269 3.54001
# Velocity P-wave (km/s) = 5.58749 6.15085 5.87592
#
# Compressibility (1/GPa) = 0.02535083
#
# Stress axis : x y z
#
# Youngs Moduli (GPa) = 58.27539 91.77304 75.69608
#
# Poissons Ratio (x) = 0.11411 0.15972
# Poissons Ratio (y) = 0.07246 0.34856
# Poissons Ratio (z) = 0.12296 0.42259
#
# Static dielectric constant tensor:
#      x y z
#    x 2.081890 0.008490 -0.015050 
#    y 0.008490 1.937720 0.012380 
#    z -0.015050 0.012380 1.982040 
# 
# From -- ./inp_files/398824.got.cif
#   From: 2010.05.17/outbox.cif.g08.bks.cpg/sg2_200_cif.got.tgz:398824.got - 2010.06.03 11:33:40.
