data_PCOD9009640
_publ_section_title
;
Structure prediction by ZEFSAII (Michael W. Deem and Ramdas Pophale) SiO2 
 PCOD9009640
Probable space group: P -1
;
_chemical_formula_sum "Si O2"
_cell_formula_units_Z 16
_cell_length_a 12.881376
_cell_length_b 18.075653
_cell_length_c 9.300823
_cell_angle_alpha 138.357203
_cell_angle_beta 140.973284
_cell_angle_gamma 37.132816
_cell_volume 775.132297
_symmetry_space_group_name_H-M "P -1"
_symmetry_group_IT_number 2
_symmetry_cell_setting 'triclinic'
loop_
_space_group_symop_operation_xyz
x,y,z
-x,-y,-z
loop_
_atom_site_type_symbol
_atom_site_label
_atom_site_fract_x
_atom_site_fract_y
_atom_site_fract_z
Si Si1 0.645609 0.219838 0.106273
Si Si2 0.583855 0.060972 0.288080
Si Si3 0.583179 0.712857 0.763279
Si Si4 0.449897 0.135201 0.567131
Si Si5 0.249558 0.568573 0.519991
Si Si6 0.067620 0.420132 0.606018
Si Si7 0.987683 0.106439 0.531600
Si Si8 0.979865 0.359302 0.920011
O O1 0.475813 0.251223 0.082887
O O2 0.657109 0.343688 0.252400
O O3 0.834007 0.135664 0.284486
O O4 0.614196 0.157742 0.842152
O O5 0.566813 0.178763 0.348291
O O6 0.465582 0.111360 0.379438
O O7 0.802628 0.955332 0.404326
O O8 0.500000 0.000000 0.000000
O O9 0.589638 0.580938 0.543724
O O10 0.793275 0.690497 0.923306
O O11 0.248707 0.272170 0.576120
O O12 0.500000 0.000000 0.500000
O O13 0.115783 0.602294 0.283847
O O14 0.112040 0.585514 0.528948
O O15 0.000000 0.500000 0.500000
O O16 0.105529 0.513209 0.886872
O O17 0.951479 0.239997 0.760481
O O18 0.000000 0.000000 0.500000
#
# Coordination Sequence:
#
# PCOD9009640 Si02
#       8
#     2   2   2   2   2   2   2   2
#     4  11  24  42  65 101 138 171 220 283 343 389
#     4  12  25  44  69  95 133 176 237 270 333 414
#     4  11  19  39  69  95 131 179 222 270 324 411
#     4  12  28  45  70  99 137 183 227 283 339 407
#     4  10  22  40  67  97 132 170 222 274 334 395
#     4  11  24  45  68 101 135 179 229 276 338 400
#     4  11  24  42  68 104 134 179 223 282 337 398
#     4  10  21  39  71  95 129 177 228 270 325 402
#
# _framework density 20.641638
#
# number of rings (size 3 to 8) (size 9 to 14) (size 15 to 20)
#    0.000    1.000    2.500    5.625    3.500    1.500 
#    2.250    1.250    0.000    0.000    0.000    0.000 
#    0.000    0.000    0.000    0.000    0.000    0.000 
#
# Total GULP energy -89392.790860 kJ/mol
# GULP energy per Si atom -5587.049429 kJ/mol
# Density = 2.059466 g / cm^3
# Si number density = 20.641638 Si / 1000 Ang^3
#
#
#
# Elastic Constant Matrix: (Units=GPa)
#
#
# Indices 1 2 3 4 5 6 
#
# 1 87.8433 27.8824 32.0074 12.0041 -20.3329 14.0216
# 2 27.8824 123.5171 38.0397 16.6162 0.0416 9.4811
# 3 32.0074 38.0397 113.8954 7.3107 -8.1928 7.0664
# 4 12.0041 16.6162 7.3107 27.0245 0.5028 7.3331
# 5 -20.3329 0.0416 -8.1928 0.5028 24.6598 6.4144
# 6 14.0216 9.4811 7.0664 7.3331 6.4144 45.1047
#
#
#
# Elastic Compliance Matrix: (Units=1/GPa)
#
#
# Indices 1 2 3 4 5 6 
#
# 1 0.018415 -0.002253 -0.002570 -0.004668 0.016088 -0.006377
# 2 -0.002253 0.009999 -0.002623 -0.004417 -0.002685 0.000110
# 3 -0.002570 -0.002623 0.010518 0.000021 0.001514 -0.000516
# 4 -0.004668 -0.004417 0.000021 0.042965 -0.003647 -0.004090
# 5 0.016088 -0.002685 0.001514 -0.003647 0.057591 -0.012271
# 6 -0.006377 0.000110 -0.000516 -0.004090 -0.012271 0.026621
#
#
# Mechanical properties :
#
#
# Convention : Reuss Voigt Hill
#
# Bulk Modulus (GPa) = 41.59737 57.90166 49.74951
# Shear Modulus (GPa) = 26.45292 34.51287 30.48290
#
# Velocity S-wave (km/s) = 3.58373 4.09345 3.84704
# Velocity P-wave (km/s) = 6.10902 7.10307 6.62471
#
# Compressibility (1/GPa) = 0.02403998
#
# Stress axis : x y z
#
# Youngs Moduli (GPa) = 54.30256 100.00805 95.07761
#
# Poissons Ratio (x) = 0.22537 0.24434
# Poissons Ratio (y) = 0.12237 0.24936
# Poissons Ratio (z) = 0.13956 0.26229
#
# Static dielectric constant tensor:
#      x y z
#    x 1.746200 0.009900 0.022650 
#    y 0.009900 1.846780 0.015930 
#    z 0.022650 0.015930 1.719920 
# 
# From -- ./inp_files/280048.got.cif
#   From: 2010.05.17/outbox.cif.g08.bks.cpg/sg2_141_cif.got.tgz:280048.got - 2010.06.03 11:33:40.
