data_PCOD9009272
_publ_section_title
;
Structure prediction by ZEFSAII (Michael W. Deem and Ramdas Pophale) SiO2 
 PCOD9009272
Probable space group: P -1
;
_chemical_formula_sum "Si O2"
_cell_formula_units_Z 16
_cell_length_a 11.795199
_cell_length_b 19.885751
_cell_length_c 8.916100
_cell_angle_alpha 97.565305
_cell_angle_beta 83.646637
_cell_angle_gamma 159.448515
_cell_volume 727.289482
_symmetry_space_group_name_H-M "P -1"
_symmetry_group_IT_number 2
_symmetry_cell_setting 'triclinic'
loop_
_space_group_symop_operation_xyz
x,y,z
-x,-y,-z
loop_
_atom_site_type_symbol
_atom_site_label
_atom_site_fract_x
_atom_site_fract_y
_atom_site_fract_z
Si Si1 0.347907 0.543348 0.327003
Si Si2 0.217495 0.327962 0.610591
Si Si3 0.571027 0.725205 0.058102
Si Si4 0.296718 0.089952 0.128567
Si Si5 0.263443 0.605594 0.591713
Si Si6 0.224327 0.877465 0.610134
Si Si7 0.494938 0.069429 0.943980
Si Si8 0.852390 0.567046 0.193285
O O1 0.637845 0.650238 0.303276
O O2 0.329066 0.572203 0.182259
O O3 0.436045 0.649174 0.466793
O O4 0.032011 0.324715 0.362311
O O5 0.500000 0.500000 0.500000
O O6 0.129451 0.347316 0.717648
O O7 0.930023 0.152497 0.487290
O O8 0.535821 0.778274 0.999255
O O9 0.486898 0.629282 0.901979
O O10 0.932633 0.916274 0.124176
O O11 0.490479 0.213632 0.289427
O O12 0.315489 0.022086 0.063316
O O13 0.109652 0.467535 0.692906
O O14 0.000000 0.500000 0.500000
O O15 0.500000 0.000000 0.500000
O O16 0.337706 0.974057 0.775239
O O17 0.866009 0.292664 0.922716
O O18 0.500000 0.000000 0.000000
#
# Coordination Sequence:
#
# PCOD9009272 Si02
#       8
#     2   2   2   2   2   2   2   2
#     4  11  24  43  72 102 127 187 226 284 339 409
#     4  10  21  39  67  99 133 173 222 271 348 393
#     4  10  25  46  68  95 139 175 241 273 340 405
#     4  10  27  47  67  98 136 187 221 290 336 398
#     4  11  25  44  73  97 138 174 235 278 345 411
#     4  11  22  43  67 102 141 173 219 286 344 402
#     4  12  27  42  67 101 139 177 228 276 346 409
#     4  11  23  45  67 100 138 181 217 286 342 405
#
# _framework density 21.999493999999999
#
# number of rings (size 3 to 8) (size 9 to 14) (size 15 to 20)
#    0.000    1.250    3.750    0.750   10.500    3.000 
#    2.250    0.000    0.000    0.000    0.000    0.000 
#    0.000    0.000    0.000    0.000    0.000    0.000 
#
# Total GULP energy -89289.865746 kJ/mol
# GULP energy per Si atom -5580.616609 kJ/mol
# Density = 2.194942 g / cm^3
# Si number density = 21.999494 Si / 1000 Ang^3
#
#
#
# Elastic Constant Matrix: (Units=GPa)
#
#
# Indices 1 2 3 4 5 6 
#
# 1 73.2216 27.9333 25.6224 11.4062 -1.4899 -5.2574
# 2 27.9333 61.1557 47.9718 20.7600 11.2374 11.2954
# 3 25.6224 47.9718 97.4505 23.6311 9.3806 -9.2724
# 4 11.4062 20.7600 23.6311 50.1721 -6.6428 6.0154
# 5 -1.4899 11.2374 9.3806 -6.6428 39.9620 -3.9753
# 6 -5.2574 11.2954 -9.2724 6.0154 -3.9753 27.6412
#
#
#
# Elastic Compliance Matrix: (Units=1/GPa)
#
#
# Indices 1 2 3 4 5 6 
#
# 1 0.018704 -0.012628 0.001942 -0.000536 0.004715 0.010164
# 2 -0.012628 0.047877 -0.020480 -0.005472 -0.012972 -0.029511
# 3 0.001942 -0.020480 0.022409 -0.004404 0.001574 0.017441
# 4 -0.000536 -0.005472 -0.004404 0.025725 0.006429 -0.004017
# 5 0.004715 -0.012972 0.001574 0.006429 0.030513 0.009715
# 6 0.010164 -0.029511 0.017441 -0.004017 0.009715 0.058293
#
#
# Mechanical properties :
#
#
# Convention : Reuss Voigt Hill
#
# Bulk Modulus (GPa) = 37.51395 48.32030 42.91713
# Shear Modulus (GPa) = 18.19903 32.24175 25.22039
#
# Velocity S-wave (km/s) = 2.87931 3.83243 3.38954
# Velocity P-wave (km/s) = 5.30501 6.44944 5.90502
#
# Compressibility (1/GPa) = 0.02665675
#
# Stress axis : x y z
#
# Youngs Moduli (GPa) = 53.46314 20.88686 44.62522
#
# Poissons Ratio (x) = 0.26377 -0.08666
# Poissons Ratio (y) = 0.67515 0.91394
# Poissons Ratio (z) = -0.10382 0.42777
#
# Static dielectric constant tensor:
#      x y z
#    x 1.825590 0.000280 0.013590 
#    y 0.000280 1.861880 0.030750 
#    z 0.013590 0.030750 1.893210 
# 
# From -- ./inp_files/283099.got.cif
#   From: 2010.05.17/outbox.cif.g08.bks.cpg/sg2_142_cif.got.tgz:283099.got - 2010.06.03 11:33:40.
