data_PCOD9009983
_publ_section_title
;
Structure prediction by ZEFSAII (Michael W. Deem and Ramdas Pophale) SiO2 
 PCOD9009983
Probable space group: P -1
;
_chemical_formula_sum "Si O2"
_cell_formula_units_Z 16
_cell_length_a 5.543211
_cell_length_b 5.328671
_cell_length_c 23.162144
_cell_angle_alpha 81.313743
_cell_angle_beta 108.042414
_cell_angle_gamma 101.732020
_cell_volume 634.075487
_symmetry_space_group_name_H-M "P -1"
_symmetry_group_IT_number 2
_symmetry_cell_setting 'triclinic'
loop_
_space_group_symop_operation_xyz
x,y,z
-x,-y,-z
loop_
_atom_site_type_symbol
_atom_site_label
_atom_site_fract_x
_atom_site_fract_y
_atom_site_fract_z
Si Si1 0.471367 0.273401 0.459225
Si Si2 0.905067 0.123819 0.429979
Si Si3 0.217340 0.150017 0.683316
Si Si4 0.893767 0.402430 0.271654
Si Si5 0.738606 0.221419 0.795400
Si Si6 0.319435 0.539662 0.931139
Si Si7 0.195495 0.991576 0.961718
Si Si8 0.618951 0.665007 0.835719
O O1 0.500000 0.500000 0.500000
O O2 0.177899 0.248069 0.418133
O O3 0.699189 0.301430 0.428121
O O4 0.500000 0.000000 0.500000
O O5 0.767639 0.917297 0.380779
O O6 0.000000 0.000000 0.500000
O O7 0.049159 0.885595 0.705519
O O8 0.101260 0.405039 0.680362
O O9 0.488525 0.185340 0.735810
O O10 0.054920 0.576445 0.229854
O O11 0.605171 0.351941 0.228165
O O12 0.692778 0.382998 0.843642
O O13 0.792220 0.937067 0.823387
O O14 0.124477 0.719913 0.933315
O O15 0.487624 0.680765 0.887396
O O16 0.198067 0.249822 0.916109
O O17 0.500000 0.500000 0.000000
O O18 0.500000 0.000000 0.000000
O O19 0.000000 0.000000 0.000000
#
# Coordination Sequence:
#
# PCOD9009983 Si02
#       8
#     2   2   2   2   2   2   2   2
#     4  10  22  40  62  88 131 173 211 257 314 386
#     4  10  23  43  65  99 135 171 217 267 330 400
#     4  10  23  39  65  92 126 166 213 271 325 390
#     4  10  22  42  63  93 122 163 222 269 327 383
#     4  10  21  41  66  88 126 163 219 270 328 381
#     4  10  21  40  62  92 134 165 214 265 328 399
#     4  10  21  40  61  88 130 172 211 258 311 385
#     4  10  21  41  63  93 124 167 212 270 325 391
#
# _framework density 25.233588999999998
#
# number of rings (size 3 to 8) (size 9 to 14) (size 15 to 20)
#    0.000    2.000    0.000    2.250    1.750    4.000 
#   15.750    0.000    0.000    0.000    0.000    0.000 
#    0.000    0.000    0.000    0.000    0.000    0.000 
#
# Total GULP energy -89385.026739 kJ/mol
# GULP energy per Si atom -5586.564171 kJ/mol
# Density = 2.517616 g / cm^3
# Si number density = 25.233589 Si / 1000 Ang^3
#
#
#
# Elastic Constant Matrix: (Units=GPa)
#
#
# Indices 1 2 3 4 5 6 
#
# 1 129.1633 42.4661 15.5335 7.5904 -5.4945 -12.4441
# 2 42.4661 182.4909 45.5307 10.5751 6.1427 1.2392
# 3 15.5335 45.5307 89.8423 15.8436 -5.1639 -16.0083
# 4 7.5904 10.5751 15.8436 51.2174 -0.6502 -7.6865
# 5 -5.4945 6.1427 -5.1639 -0.6502 41.7323 3.0722
# 6 -12.4441 1.2392 -16.0083 -7.6865 3.0722 40.2416
#
#
#
# Elastic Compliance Matrix: (Units=1/GPa)
#
#
# Indices 1 2 3 4 5 6 
#
# 1 0.008755 -0.002118 0.000196 -0.000506 0.001285 0.002656
# 2 -0.002118 0.006957 -0.003586 -0.000371 -0.001587 -0.002245
# 3 0.000196 -0.003586 0.014476 -0.002959 0.001915 0.005218
# 4 -0.000506 -0.000371 -0.002959 0.020995 -0.000250 0.002707
# 5 0.001285 -0.001587 0.001915 -0.000250 0.024651 -0.000722
# 6 0.002656 -0.002245 0.005218 0.002707 -0.000722 0.028388
#
#
# Mechanical properties :
#
#
# Convention : Reuss Voigt Hill
#
# Bulk Modulus (GPa) = 52.15783 67.61745 59.88764
# Shear Modulus (GPa) = 41.10868 46.50267 43.80567
#
# Velocity S-wave (km/s) = 4.04062 4.29754 4.17106
# Velocity P-wave (km/s) = 6.51795 7.17495 6.85433
#
# Compressibility (1/GPa) = 0.01917258
#
# Stress axis : x y z
#
# Youngs Moduli (GPa) = 114.21657 143.73205 69.08218
#
# Poissons Ratio (x) = 0.30447 -0.01355
# Poissons Ratio (y) = 0.24194 0.24770
# Poissons Ratio (z) = -0.02240 0.51537
#
# Static dielectric constant tensor:
#      x y z
#    x 1.352370 -0.282220 -0.337760 
#    y -0.282220 1.879760 -0.079800 
#    z -0.337760 -0.079800 1.851440 
# 
# From -- ./inp_files/603269.got.cif
#   From: 2010.05.17/outbox.cif.g08.bks.cpg/sg2_302_cif.got.tgz:603269.got - 2010.06.03 11:33:40.
