data_PCOD9009413
_publ_section_title
;
Structure prediction by ZEFSAII (Michael W. Deem and Ramdas Pophale) SiO2 
 PCOD9009413
Probable space group: P -1
;
_chemical_formula_sum "Si O2"
_cell_formula_units_Z 16
_cell_length_a 13.866938
_cell_length_b 8.703706
_cell_length_c 12.427268
_cell_angle_alpha 101.576952
_cell_angle_beta 41.565355
_cell_angle_gamma 121.099762
_cell_volume 805.257256
_symmetry_space_group_name_H-M "P -1"
_symmetry_group_IT_number 2
_symmetry_cell_setting 'triclinic'
loop_
_space_group_symop_operation_xyz
x,y,z
-x,-y,-z
loop_
_atom_site_type_symbol
_atom_site_label
_atom_site_fract_x
_atom_site_fract_y
_atom_site_fract_z
Si Si1 0.516970 0.337178 0.510446
Si Si2 0.195490 0.554456 0.539796
Si Si3 0.636658 0.280072 0.184481
Si Si4 0.985791 0.582333 0.909644
Si Si5 0.654066 0.107642 0.710363
Si Si6 0.946151 0.131075 0.619090
Si Si7 0.820914 0.984319 0.140670
Si Si8 0.284617 0.003196 0.001603
O O1 0.500000 0.500000 0.500000
O O2 0.638711 0.401029 0.522242
O O3 0.603353 0.283405 0.338245
O O4 0.325537 0.161191 0.675487
O O5 0.054816 0.534290 0.740489
O O6 0.255741 0.731982 0.435305
O O7 0.108471 0.350374 0.527276
O O8 0.444609 0.113797 0.276456
O O9 0.776229 0.497794 0.062526
O O10 0.742798 0.191988 0.043300
O O11 0.116642 0.805983 0.848033
O O12 0.000000 0.500000 0.000000
O O13 0.798327 0.139858 0.678778
O O14 0.487608 0.114678 0.888717
O O15 0.854927 0.039062 0.797356
O O16 0.000000 0.000000 0.500000
O O17 0.741513 0.922288 0.077798
O O18 0.000000 0.000000 0.000000
#
# Coordination Sequence:
#
# PCOD9009413 Si02
#       8
#     2   2   2   2   2   2   2   2
#     4  12  25  39  66 105 144 176 217 277 348 408
#     4  12  23  42  69  95 133 177 233 273 332 416
#     4  10  21  39  68  97 132 176 221 261 333 411
#     4  12  20  38  66  99 134 178 216 262 333 417
#     4  10  23  45  69  94 131 182 239 269 330 406
#     4  12  27  45  69  97 132 176 234 298 345 383
#     4  12  25  40  65 106 146 174 218 277 347 410
#     4  10  22  44  69  91 131 181 225 271 334 405
#
# _framework density 19.869427000000002
#
# number of rings (size 3 to 8) (size 9 to 14) (size 15 to 20)
#    0.750    0.000    5.000    2.250    3.500    2.500 
#    0.000    0.625    0.000    0.000    0.000    0.000 
#    0.000    0.000    0.000    0.000    0.000    0.000 
#
# Total GULP energy -89131.066087 kJ/mol
# GULP energy per Si atom -5570.691630 kJ/mol
# Density = 1.982420 g / cm^3
# Si number density = 19.869427 Si / 1000 Ang^3
#
#
#
# Elastic Constant Matrix: (Units=GPa)
#
#
# Indices 1 2 3 4 5 6 
#
# 1 44.1102 23.7193 17.2369 -5.0104 -7.9962 -1.3512
# 2 23.7193 109.4442 59.2610 -16.7581 -0.7394 10.3299
# 3 17.2369 59.2610 151.1436 -16.0287 0.5294 -6.9626
# 4 -5.0104 -16.7581 -16.0287 47.6847 1.6796 -1.1659
# 5 -7.9962 -0.7394 0.5294 1.6796 29.0348 -8.5443
# 6 -1.3512 10.3299 -6.9626 -1.1659 -8.5443 28.8595
#
#
#
# Elastic Compliance Matrix: (Units=1/GPa)
#
#
# Indices 1 2 3 4 5 6 
#
# 1 0.028203 -0.006350 -0.000426 0.000410 0.009445 0.006303
# 2 -0.006350 0.014277 -0.004930 0.002637 -0.003678 -0.007580
# 3 -0.000426 -0.004930 0.008925 0.001298 0.000747 0.004172
# 4 0.000410 0.002637 0.001298 0.022417 -0.001154 -0.000048
# 5 0.009445 -0.003678 0.000747 -0.001154 0.041143 0.014074
# 6 0.006303 -0.007580 0.004172 -0.000048 0.014074 0.042830
#
#
# Mechanical properties :
#
#
# Convention : Reuss Voigt Hill
#
# Bulk Modulus (GPa) = 35.72300 56.12583 45.92441
# Shear Modulus (GPa) = 26.24123 34.74786 30.49454
#
# Velocity S-wave (km/s) = 3.63806 4.18641 3.92183
# Velocity P-wave (km/s) = 5.97204 7.18865 6.60840
#
# Compressibility (1/GPa) = 0.02799317
#
# Stress axis : x y z
#
# Youngs Moduli (GPa) = 35.45687 70.04113 112.04314
#
# Poissons Ratio (x) = 0.44477 0.04771
# Poissons Ratio (y) = 0.22516 0.55241
# Poissons Ratio (z) = 0.01510 0.34533
#
# Static dielectric constant tensor:
#      x y z
#    x 1.758650 -0.056640 -0.034010 
#    y -0.056640 2.080140 -0.079950 
#    z -0.034010 -0.079950 1.724350 
# 
# From -- ./inp_files/447774.got.cif
#   From: 2010.05.17/outbox.cif.g08.bks.cpg/sg2_224_cif.got.tgz:447774.got - 2010.06.03 11:33:40.
