data_PCOD9009175
_publ_section_title
;
Structure prediction by ZEFSAII (Michael W. Deem and Ramdas Pophale) SiO2 
 PCOD9009175
Probable space group: P -1
;
_chemical_formula_sum "Si O2"
_cell_formula_units_Z 16
_cell_length_a 5.333670
_cell_length_b 12.180571
_cell_length_c 13.666077
_cell_angle_alpha 61.829160
_cell_angle_beta 108.426989
_cell_angle_gamma 110.007472
_cell_volume 722.521699
_symmetry_space_group_name_H-M "P -1"
_symmetry_group_IT_number 2
_symmetry_cell_setting 'triclinic'
loop_
_space_group_symop_operation_xyz
x,y,z
-x,-y,-z
loop_
_atom_site_type_symbol
_atom_site_label
_atom_site_fract_x
_atom_site_fract_y
_atom_site_fract_z
Si Si1 0.668395 0.329778 0.063434
Si Si2 0.717374 0.611410 0.619079
Si Si3 0.303811 0.400681 0.152860
Si Si4 0.786752 0.408142 0.580494
Si Si5 0.044155 0.886847 0.123235
Si Si6 0.339027 0.880857 0.338180
Si Si7 0.953273 0.887820 0.463100
Si Si8 0.462058 0.847104 0.058843
O O1 0.475029 0.328676 0.133621
O O2 0.979967 0.344753 0.127867
O O3 0.648487 0.454926 0.944028
O O4 0.585507 0.212049 0.029088
O O5 0.620035 0.604352 0.721606
O O6 0.807537 0.482333 0.654535
O O7 0.490513 0.609354 0.508772
O O8 0.924161 0.747682 0.567527
O O9 0.817736 0.264346 0.648216
O O10 0.000000 0.500000 0.500000
O O11 0.239226 0.953356 0.206190
O O12 0.200327 0.800613 0.114663
O O13 0.739707 0.819229 0.146681
O O14 0.000000 0.000000 0.000000
O O15 0.659583 0.890454 0.378038
O O16 0.202800 0.910959 0.408662
O O17 0.000000 0.000000 0.500000
O O18 0.500000 0.000000 0.000000
#
# Coordination Sequence:
#
# PCOD9009175 Si02
#       8
#     2   2   2   2   2   2   2   2
#     4  10  22  42  60  92 127 166 212 253 310 388
#     4  10  23  41  63  97 126 167 215 265 325 376
#     4  10  23  40  64  89 127 168 207 257 313 378
#     4  10  21  39  67  94 129 158 215 272 316 381
#     4  10  22  40  62  93 127 161 207 264 313 381
#     4  11  23  42  68  96 128 166 216 266 333 371
#     4  11  24  45  64  94 131 172 216 263 316 395
#     4  10  21  40  62  87 128 160 210 259 308 369
#
# _framework density 22.144665
#
# number of rings (size 3 to 8) (size 9 to 14) (size 15 to 20)
#    0.000    1.750    1.250    1.875    3.500    1.000 
#   13.500    0.000    0.000    0.000    0.000    0.000 
#    0.000    0.000    0.000    0.000    0.000    0.000 
#
# Total GULP energy -89307.785556 kJ/mol
# GULP energy per Si atom -5581.736597 kJ/mol
# Density = 2.209426 g / cm^3
# Si number density = 22.144665 Si / 1000 Ang^3
#
#
#
# Elastic Constant Matrix: (Units=GPa)
#
#
# Indices 1 2 3 4 5 6 
#
# 1 125.1993 13.5286 14.9039 12.5419 -6.7440 -23.6977
# 2 13.5286 110.7050 19.8074 29.1477 -1.6287 -17.6636
# 3 14.9039 19.8074 86.5579 18.5575 -10.7837 -14.2228
# 4 12.5419 29.1477 18.5575 25.7210 -11.1666 -13.3071
# 5 -6.7440 -1.6287 -10.7837 -11.1666 29.8135 14.5045
# 6 -23.6977 -17.6636 -14.2228 -13.3071 14.5045 28.8904
#
#
#
# Elastic Compliance Matrix: (Units=1/GPa)
#
#
# Indices 1 2 3 4 5 6 
#
# 1 0.009648 0.000787 -0.000317 -0.002123 -0.002933 0.008734
# 2 0.000787 0.014229 0.000222 -0.017332 -0.008167 0.005571
# 3 -0.000317 0.000222 0.013873 -0.008592 0.000534 0.002481
# 4 -0.002123 -0.017332 -0.008592 0.079776 0.020548 0.009862
# 5 -0.002933 -0.008167 0.000534 0.020548 0.051854 -0.023706
# 6 0.008734 0.005571 0.002481 0.009862 -0.023706 0.062849
#
#
# Mechanical properties :
#
#
# Convention : Reuss Voigt Hill
#
# Bulk Modulus (GPa) = 25.55256 46.54909 36.05083
# Shear Modulus (GPa) = 20.50112 35.16647 27.83380
#
# Velocity S-wave (km/s) = 3.04597 3.98934 3.54914
# Velocity P-wave (km/s) = 4.89229 6.50276 5.75414
#
# Compressibility (1/GPa) = 0.03913501
#
# Stress axis : x y z
#
# Youngs Moduli (GPa) = 103.65186 70.27761 72.08424
#
# Poissons Ratio (x) = -0.05530 0.02282
# Poissons Ratio (y) = -0.08156 -0.01603
# Poissons Ratio (z) = 0.03281 -0.01562
#
# Static dielectric constant tensor:
#      x y z
#    x 1.568250 -0.060790 -0.159350 
#    y -0.060790 1.801050 -0.068590 
#    z -0.159350 -0.068590 1.772570 
# 
# From -- ./inp_files/364140.got.cif
#   From: 2010.05.17/outbox.cif.g08.bks.cpg/sg2_183_cif.got.tgz:364140.got - 2010.06.03 11:33:40.
