data_PCOD9009731
_publ_section_title
;
Structure prediction by ZEFSAII (Michael W. Deem and Ramdas Pophale) SiO2 
 PCOD9009731
Probable space group: P -1
;
_chemical_formula_sum "Si O2"
_cell_formula_units_Z 16
_cell_length_a 17.958317
_cell_length_b 8.991604
_cell_length_c 7.768175
_cell_angle_alpha 125.910180
_cell_angle_beta 110.996613
_cell_angle_gamma 105.090596
_cell_volume 742.516741
_symmetry_space_group_name_H-M "P -1"
_symmetry_group_IT_number 2
_symmetry_cell_setting 'triclinic'
loop_
_space_group_symop_operation_xyz
x,y,z
-x,-y,-z
loop_
_atom_site_type_symbol
_atom_site_label
_atom_site_fract_x
_atom_site_fract_y
_atom_site_fract_z
Si Si1 0.280489 0.486160 0.383487
Si Si2 0.584439 0.038997 0.719603
Si Si3 0.702916 0.070821 0.329359
Si Si4 0.889564 0.303104 0.847789
Si Si5 0.488376 0.278891 0.274606
Si Si6 0.781272 0.510675 0.053340
Si Si7 0.396663 0.258766 0.683859
Si Si8 0.810123 0.825999 0.582990
O O1 0.276687 0.697211 0.559840
O O2 0.394627 0.587264 0.597692
O O3 0.257078 0.445453 0.128029
O O4 0.201432 0.274928 0.304085
O O5 0.686530 0.295702 0.941591
O O6 0.500000 0.000000 0.500000
O O7 0.534154 0.947664 0.801492
O O8 0.595076 0.835561 0.552218
O O9 0.812565 0.147836 0.519731
O O10 0.640819 0.968866 0.388013
O O11 0.620432 0.852493 0.999677
O O12 0.845668 0.424667 0.985341
O O13 0.879216 0.107954 0.825265
O O14 0.000000 0.500000 0.000000
O O15 0.500000 0.500000 0.500000
O O16 0.837038 0.724898 0.381076
O O17 0.304605 0.268161 0.621143
O O18 0.500000 0.500000 0.000000
#
# Coordination Sequence:
#
# PCOD9009731 Si02
#       8
#     2   2   2   2   2   2   2   2
#     4  11  22  41  59  98 138 174 218 270 325 408
#     4  12  20  37  56  90 137 180 215 258 323 399
#     4  10  21  40  58  86 131 167 210 275 322 380
#     4  10  24  48  73  96 128 170 227 289 339 393
#     4  12  24  32  59  98 133 176 220 258 321 402
#     4  11  23  43  68  97 135 177 221 274 337 399
#     4  11  20  35  54  88 131 173 217 261 316 391
#     4  11  23  41  69  94 130 175 222 274 339 399
#
# _framework density 21.548335999999999
#
# number of rings (size 3 to 8) (size 9 to 14) (size 15 to 20)
#    0.000    1.000    5.000    4.125    3.500    0.500 
#    0.000    2.500    0.000    9.000    0.000    0.000 
#    0.000    0.000    0.000    0.000    0.000    0.000 
#
# Total GULP energy -89073.097510 kJ/mol
# GULP energy per Si atom -5567.068594 kJ/mol
# Density = 2.149929 g / cm^3
# Si number density = 21.548336 Si / 1000 Ang^3
#
#
#
# Elastic Constant Matrix: (Units=GPa)
#
#
# Indices 1 2 3 4 5 6 
#
# 1 67.7614 42.9121 18.5993 18.9170 4.3032 9.6932
# 2 42.9121 153.4475 48.1040 27.8243 8.1237 22.2007
# 3 18.5993 48.1040 51.7138 6.4671 1.6747 8.5951
# 4 18.9170 27.8243 6.4671 27.5317 4.5701 2.3772
# 5 4.3032 8.1237 1.6747 4.5701 30.4764 14.2381
# 6 9.6932 22.2007 8.5951 2.3772 14.2381 23.3313
#
#
#
# Elastic Compliance Matrix: (Units=1/GPa)
#
#
# Indices 1 2 3 4 5 6 
#
# 1 0.020776 -0.002015 -0.003315 -0.011325 0.002114 -0.005629
# 2 -0.002015 0.012439 -0.008366 -0.008940 0.002857 -0.008749
# 3 -0.003315 -0.008366 0.028164 0.004049 0.001708 -0.002492
# 4 -0.011325 -0.008940 0.004049 0.052767 -0.009955 0.012419
# 5 0.002114 0.002857 0.001708 -0.009955 0.048471 -0.032791
# 6 -0.005629 -0.008749 -0.002492 0.012419 -0.032791 0.073189
#
#
# Mechanical properties :
#
#
# Convention : Reuss Voigt Hill
#
# Bulk Modulus (GPa) = 29.42242 54.68370 42.05306
# Shear Modulus (GPa) = 18.21321 27.15505 22.68413
#
# Velocity S-wave (km/s) = 2.91043 3.55377 3.24807
# Velocity P-wave (km/s) = 4.99779 6.50164 5.79868
#
# Compressibility (1/GPa) = 0.03398769
#
# Stress axis : x y z
#
# Youngs Moduli (GPa) = 48.13214 80.39417 35.50625
#
# Poissons Ratio (x) = 0.16199 0.11769
# Poissons Ratio (y) = 0.09698 0.29705
# Poissons Ratio (z) = 0.15954 0.67259
#
# Static dielectric constant tensor:
#      x y z
#    x 1.812840 0.043710 -0.068480 
#    y 0.043710 1.980090 -0.139200 
#    z -0.068480 -0.139200 1.881730 
# 
# From -- ./inp_files/201021.got.cif
#   From: 2010.05.17/outbox.cif.g08.bks.cpg/sg2_101_cif.got.tgz:201021.got - 2010.06.03 11:33:40.
