data_PCOD9009944
_publ_section_title
;
Structure prediction by ZEFSAII (Michael W. Deem and Ramdas Pophale) SiO2 
 PCOD9009944
Probable space group: P -1
;
_chemical_formula_sum "Si O2"
_cell_formula_units_Z 16
_cell_length_a 7.208783
_cell_length_b 12.168651
_cell_length_c 13.888607
_cell_angle_alpha 32.647634
_cell_angle_beta 83.674418
_cell_angle_gamma 92.837828
_cell_volume 629.831018
_symmetry_space_group_name_H-M "P -1"
_symmetry_group_IT_number 2
_symmetry_cell_setting 'triclinic'
loop_
_space_group_symop_operation_xyz
x,y,z
-x,-y,-z
loop_
_atom_site_type_symbol
_atom_site_label
_atom_site_fract_x
_atom_site_fract_y
_atom_site_fract_z
Si Si1 0.162333 0.046334 0.794283
Si Si2 0.452047 0.814865 0.239463
Si Si3 0.185541 0.753731 0.848763
Si Si4 0.714024 0.799855 0.011558
Si Si5 0.713240 0.020440 0.513127
Si Si6 0.753208 0.382773 0.402189
Si Si7 0.750953 0.652069 0.915249
Si Si8 0.873878 0.519731 0.587092
O O1 0.316629 0.144500 0.795800
O O2 0.151425 0.246316 0.583385
O O3 0.250391 0.894415 0.834954
O O4 0.941760 0.926695 0.920705
O O5 0.360377 0.715557 0.421683
O O6 0.326566 0.652015 0.290118
O O7 0.401035 0.036156 0.069373
O O8 0.170593 0.895710 0.652035
O O9 0.958081 0.644142 0.957306
O O10 0.311197 0.589530 0.939867
O O11 0.667018 0.749019 0.938964
O O12 0.670629 0.569451 0.230178
O O13 0.745880 0.198001 0.462704
O O14 0.500000 0.000000 0.500000
O O15 0.748617 0.808822 0.711442
O O16 0.980737 0.493517 0.326819
O O17 0.000000 0.500000 0.500000
#
# Coordination Sequence:
#
# PCOD9009944 Si02
#       8
#     2   2   2   2   2   2   2   2
#     4  11  22  44  68  96 133 167 220 270 324 388
#     4  11  23  44  68  97 130 172 218 275 323 378
#     4  10  22  38  61  94 121 169 211 254 314 376
#     4  11  22  42  68  93 134 177 211 269 325 382
#     4  12  23  37  63  94 128 171 210 257 317 384
#     4  11  22  42  67  94 134 173 219 263 324 390
#     4  10  21  40  61  85 130 168 211 257 309 380
#     4  10  21  44  72  91 125 178 213 270 336 379
#
# _framework density 25.403641
#
# number of rings (size 3 to 8) (size 9 to 14) (size 15 to 20)
#    0.000    1.250    5.000    2.250    0.000    2.000 
#    2.250    0.625    0.000    0.000    0.000    0.000 
#    0.000    0.000    0.000    0.000    0.000    0.000 
#
# Total GULP energy -89554.120778 kJ/mol
# GULP energy per Si atom -5597.132549 kJ/mol
# Density = 2.534582 g / cm^3
# Si number density = 25.403641 Si / 1000 Ang^3
#
#
#
# Elastic Constant Matrix: (Units=GPa)
#
#
# Indices 1 2 3 4 5 6 
#
# 1 101.5799 18.5882 8.5727 -6.4954 -5.1793 11.3869
# 2 18.5882 81.2394 8.1662 -14.8896 -12.1540 9.1326
# 3 8.5727 8.1662 138.6671 -4.3616 20.6197 -4.2493
# 4 -6.4954 -14.8896 -4.3616 34.9044 0.9715 8.3383
# 5 -5.1793 -12.1540 20.6197 0.9715 43.6365 -7.6335
# 6 11.3869 9.1326 -4.2493 8.3383 -7.6335 40.2658
#
#
#
# Elastic Compliance Matrix: (Units=1/GPa)
#
#
# Indices 1 2 3 4 5 6 
#
# 1 0.010686 -0.001597 -0.000684 0.001928 0.000575 -0.003022
# 2 -0.001597 0.015027 -0.001251 0.006752 0.003777 -0.003771
# 3 -0.000684 -0.001251 0.007965 0.000337 -0.004119 0.000467
# 4 0.001928 0.006752 0.000337 0.034138 -0.000418 -0.009189
# 5 0.000575 0.003777 -0.004119 -0.000418 0.026637 0.003682
# 6 -0.003022 -0.003771 0.000467 -0.009189 0.003682 0.029195
#
#
# Mechanical properties :
#
#
# Convention : Reuss Voigt Hill
#
# Bulk Modulus (GPa) = 37.57525 43.57119 40.57322
# Shear Modulus (GPa) = 35.82095 42.83863 39.32979
#
# Velocity S-wave (km/s) = 3.75917 4.11094 3.93898
# Velocity P-wave (km/s) = 5.80217 6.30253 6.05752
#
# Compressibility (1/GPa) = 0.02661326
#
# Stress axis : x y z
#
# Youngs Moduli (GPa) = 93.58206 66.54660 125.55061
#
# Poissons Ratio (x) = 0.10629 0.08588
# Poissons Ratio (y) = 0.14947 0.15707
# Poissons Ratio (z) = 0.06402 0.08325
#
# Static dielectric constant tensor:
#      x y z
#    x 2.926720 -0.520130 -0.133710 
#    y -0.520130 2.254330 0.047680 
#    z -0.133710 0.047680 2.016700 
# 
# From -- ./inp_files/499728.got.cif
#   From: 2010.05.17/outbox.cif.g08.bks.cpg/sg2_250_cif.got.tgz:499728.got - 2010.06.03 11:33:40.
