data_PCOD9009945
_publ_section_title
;
Structure prediction by ZEFSAII (Michael W. Deem and Ramdas Pophale) SiO2 
 PCOD9009945
Probable space group: P -1
;
_chemical_formula_sum "Si O2"
_cell_formula_units_Z 16
_cell_length_a 14.313368
_cell_length_b 13.395187
_cell_length_c 12.820516
_cell_angle_alpha 45.871789
_cell_angle_beta 30.411369
_cell_angle_gamma 32.910647
_cell_volume 672.613073
_symmetry_space_group_name_H-M "P -1"
_symmetry_group_IT_number 2
_symmetry_cell_setting 'triclinic'
loop_
_space_group_symop_operation_xyz
x,y,z
-x,-y,-z
loop_
_atom_site_type_symbol
_atom_site_label
_atom_site_fract_x
_atom_site_fract_y
_atom_site_fract_z
Si Si1 0.768342 0.015740 0.736884
Si Si2 0.242799 0.981678 0.487123
Si Si3 0.729875 0.578438 0.062645
Si Si4 0.626050 0.626574 0.703144
Si Si5 0.100103 0.610214 0.739434
Si Si6 0.548238 0.388720 0.338064
Si Si7 0.175513 0.778146 0.147329
Si Si8 0.269198 0.129319 0.554812
O O1 0.521539 0.213221 0.868610
O O2 0.702518 0.998485 0.695492
O O3 0.000000 0.000000 0.500000
O O4 0.890913 0.824484 0.816725
O O5 0.334493 0.050841 0.431215
O O6 0.955098 0.110033 0.701809
O O7 0.348189 0.778400 0.561545
O O8 0.768229 0.517067 0.192707
O O9 0.720309 0.435676 0.117074
O O10 0.964682 0.560442 0.836147
O O11 0.521658 0.657178 0.665507
O O12 0.740779 0.421290 0.768819
O O13 0.794490 0.677409 0.513409
O O14 0.397017 0.757406 0.907118
O O15 0.309384 0.569428 0.494199
O O16 0.954714 0.865917 0.212928
O O17 0.500000 0.000000 0.500000
#
# Coordination Sequence:
#
# PCOD9009945 Si02
#       8
#     2   2   2   2   2   2   2   2
#     4  12  22  43  72  95 133 171 211 271 323 380
#     4  10  23  41  63  96 129 166 219 259 323 386
#     4  11  25  43  66  98 129 172 216 261 324 386
#     4  11  21  42  65  89 129 167 209 269 317 376
#     4  11  24  44  66  93 135 167 217 268 317 386
#     4  12  22  41  65  93 131 169 210 265 324 378
#     4   9  23  40  60  93 125 160 220 258 314 384
#     4  10  21  40  61  86 123 167 208 261 312 370
#
# _framework density 23.787821000000001
#
# number of rings (size 3 to 8) (size 9 to 14) (size 15 to 20)
#    0.750    0.500    3.750    2.625    0.000    3.000 
#    6.750    1.250    0.000    0.000    0.000    0.000 
#    0.000    0.000    0.000    0.000    0.000    0.000 
#
# Total GULP energy -89326.281345 kJ/mol
# GULP energy per Si atom -5582.892584 kJ/mol
# Density = 2.373368 g / cm^3
# Si number density = 23.787821 Si / 1000 Ang^3
#
#
#
# Elastic Constant Matrix: (Units=GPa)
#
#
# Indices 1 2 3 4 5 6 
#
# 1 44.7881 7.4028 -8.2618 -2.5619 -17.0079 1.8689
# 2 7.4028 110.4306 -1.2949 -2.8463 0.0398 -9.3403
# 3 -8.2618 -1.2949 35.8502 -2.6720 -17.6931 -0.3877
# 4 -2.5619 -2.8463 -2.6720 26.4337 8.6159 -5.2247
# 5 -17.0079 0.0398 -17.6931 8.6159 34.8573 -3.5375
# 6 1.8689 -9.3403 -0.3877 -5.2247 -3.5375 33.4221
#
#
#
# Elastic Compliance Matrix: (Units=1/GPa)
#
#
# Indices 1 2 3 4 5 6 
#
# 1 0.039800 -0.002492 0.025220 -0.004717 0.033407 0.000169
# 2 -0.002492 0.009503 -0.001001 0.001870 -0.001905 0.002874
# 3 0.025220 -0.001001 0.053552 -0.005128 0.041007 0.002470
# 4 -0.004717 0.001870 -0.005128 0.043095 -0.014962 0.005880
# 5 0.033407 -0.001905 0.041007 -0.014962 0.069821 0.003126
# 6 0.000169 0.002874 0.002470 0.005880 0.003126 0.031993
#
#
# Mechanical properties :
#
#
# Convention : Reuss Voigt Hill
#
# Bulk Modulus (GPa) = 6.83480 20.75124 13.79302
# Shear Modulus (GPa) = 19.75660 31.82414 25.79037
#
# Velocity S-wave (km/s) = 2.88503 3.66161 3.29627
# Velocity P-wave (km/s) = 3.73862 5.15935 4.50534
#
# Compressibility (1/GPa) = 0.14631008
#
# Stress axis : x y z
#
# Youngs Moduli (GPa) = 25.12536 105.23316 18.67331
#
# Poissons Ratio (x) = 0.26220 -0.47093
# Poissons Ratio (y) = 0.06260 0.01869
# Poissons Ratio (z) = -0.63365 0.10531
#
# Static dielectric constant tensor:
#      x y z
#    x 1.915520 -0.025750 -0.024700 
#    y -0.025750 2.006990 0.007090 
#    z -0.024700 0.007090 1.879140 
# 
# From -- ./inp_files/534230.got.cif
#   From: 2010.05.17/outbox.cif.g08.bks.cpg/sg2_268_cif.got.tgz:534230.got - 2010.06.03 11:33:40.
