data_PCOD9009531
_publ_section_title
;
Structure prediction by ZEFSAII (Michael W. Deem and Ramdas Pophale) SiO2 
 PCOD9009531
Probable space group: P -1
;
_chemical_formula_sum "Si O2"
_cell_formula_units_Z 16
_cell_length_a 15.340907
_cell_length_b 7.856756
_cell_length_c 9.172126
_cell_angle_alpha 108.929372
_cell_angle_beta 48.566686
_cell_angle_gamma 96.616352
_cell_volume 776.261834
_symmetry_space_group_name_H-M "P -1"
_symmetry_group_IT_number 2
_symmetry_cell_setting 'triclinic'
loop_
_space_group_symop_operation_xyz
x,y,z
-x,-y,-z
loop_
_atom_site_type_symbol
_atom_site_label
_atom_site_fract_x
_atom_site_fract_y
_atom_site_fract_z
Si Si1 0.734242 0.368920 0.478269
Si Si2 0.491990 0.452857 0.164486
Si Si3 0.823607 0.732134 0.357310
Si Si4 0.135683 0.020306 0.874090
Si Si5 0.199354 0.190623 0.142653
Si Si6 0.995017 0.214136 0.589383
Si Si7 0.370167 0.106124 0.184789
Si Si8 0.252383 0.580830 0.168376
O O1 0.591853 0.387895 0.616421
O O2 0.789564 0.530718 0.375086
O O3 0.751459 0.386110 0.641409
O O4 0.793275 0.170340 0.309885
O O5 0.405520 0.304645 0.219025
O O6 0.500000 0.500000 0.000000
O O7 0.626424 0.378345 0.028913
O O8 0.838565 0.803685 0.198683
O O9 0.943504 0.745042 0.316466
O O10 0.723965 0.889849 0.579857
O O11 0.166076 0.063065 0.017539
O O12 0.000000 0.000000 0.000000
O O13 0.082833 0.270506 0.383947
O O14 0.293558 0.088032 0.121620
O O15 0.253168 0.367149 0.080667
O O16 0.863720 0.309808 0.740830
O O17 0.000000 0.000000 0.500000
O O18 0.500000 0.000000 0.000000
#
# Coordination Sequence:
#
# PCOD9009531 Si02
#       8
#     2   2   2   2   2   2   2   2
#     4  10  21  43  66  90 132 174 215 270 327 395
#     4   9  18  36  63  96 116 164 215 259 331 372
#     4  10  23  43  63  94 129 176 217 263 332 387
#     4  12  27  43  65  96 140 178 213 267 338 391
#     4  11  23  42  60 103 125 165 225 263 331 389
#     4  11  22  37  64  97 124 163 226 278 318 380
#     4  10  21  39  69  97 128 162 220 277 317 387
#     4  11  20  38  70  91 128 169 218 280 318 389
#
# _framework density 20.611602000000001
#
# number of rings (size 3 to 8) (size 9 to 14) (size 15 to 20)
#    0.000    1.500    5.000    2.625    8.750    0.500 
#    2.250    2.500    0.000    3.000    0.000    0.000 
#    0.000    0.000    0.000    0.000    0.000    0.000 
#
# Total GULP energy -89159.188078 kJ/mol
# GULP energy per Si atom -5572.449255 kJ/mol
# Density = 2.056469 g / cm^3
# Si number density = 20.611602 Si / 1000 Ang^3
#
#
#
# Elastic Constant Matrix: (Units=GPa)
#
#
# Indices 1 2 3 4 5 6 
#
# 1 110.3090 2.2418 60.7655 5.4829 -32.5821 4.1987
# 2 2.2418 46.4600 8.9633 -1.2190 1.4284 0.8982
# 3 60.7655 8.9633 69.5119 10.5702 -22.1138 -9.1970
# 4 5.4829 -1.2190 10.5702 34.7224 1.6110 -4.1576
# 5 -32.5821 1.4284 -22.1138 1.6110 32.6516 11.2222
# 6 4.1987 0.8982 -9.1970 -4.1576 11.2222 27.1324
#
#
#
# Elastic Compliance Matrix: (Units=1/GPa)
#
#
# Indices 1 2 3 4 5 6 
#
# 1 0.026213 0.002178 -0.019258 -0.001383 0.019611 -0.018980
# 2 0.002178 0.022793 -0.006231 0.002254 -0.002533 -0.001811
# 3 -0.019258 -0.006231 0.034856 -0.006119 0.000152 0.014001
# 4 -0.001383 0.002254 -0.006119 0.032242 -0.009613 0.006982
# 5 0.019611 -0.002533 0.000152 -0.009613 0.061068 -0.029631
# 6 -0.018980 -0.001811 0.014001 0.006982 -0.029631 0.057924
#
#
# Mechanical properties :
#
#
# Convention : Reuss Voigt Hill
#
# Bulk Modulus (GPa) = 26.85284 41.13580 33.99432
# Shear Modulus (GPa) = 16.99920 29.18863 23.09391
#
# Velocity S-wave (km/s) = 2.87494 3.76723 3.35092
# Velocity P-wave (km/s) = 4.90680 6.23888 5.61250
#
# Compressibility (1/GPa) = 0.03724001
#
# Stress axis : x y z
#
# Youngs Moduli (GPa) = 38.14841 43.87325 28.68971
#
# Poissons Ratio (x) = -0.09556 0.55251
# Poissons Ratio (y) = -0.08309 0.17877
# Poissons Ratio (z) = 0.73466 0.27338
#
# Static dielectric constant tensor:
#      x y z
#    x 1.765240 -0.042360 -0.034360 
#    y -0.042360 1.799930 0.049860 
#    z -0.034360 0.049860 1.811760 
# 
# From -- ./inp_files/299112.got.cif
#   From: 2010.05.17/outbox.cif.g08.bks.cpg/sg2_150_cif.got.tgz:299112.got - 2010.06.03 11:33:40.
