data_PCOD9009472
_publ_section_title
;
Structure prediction by ZEFSAII (Michael W. Deem and Ramdas Pophale) SiO2 
 PCOD9009472
Probable space group: P -1
;
_chemical_formula_sum "Si O2"
_cell_formula_units_Z 16
_cell_length_a 17.667619
_cell_length_b 5.506717
_cell_length_c 10.048055
_cell_angle_alpha 95.087226
_cell_angle_beta 46.985198
_cell_angle_gamma 103.868848
_cell_volume 690.078769
_symmetry_space_group_name_H-M "P -1"
_symmetry_group_IT_number 2
_symmetry_cell_setting 'triclinic'
loop_
_space_group_symop_operation_xyz
x,y,z
-x,-y,-z
loop_
_atom_site_type_symbol
_atom_site_label
_atom_site_fract_x
_atom_site_fract_y
_atom_site_fract_z
Si Si1 0.520032 0.270387 0.055638
Si Si2 0.944323 0.011583 0.884946
Si Si3 0.045404 0.265899 0.390258
Si Si4 0.148216 0.331389 0.770086
Si Si5 0.417576 0.177472 0.710097
Si Si6 0.722818 0.578111 0.934847
Si Si7 0.230893 0.730212 0.897909
Si Si8 0.609089 0.601174 0.539813
O O1 0.452265 0.268430 0.272702
O O2 0.500000 0.500000 0.000000
O O3 0.644230 0.346610 0.947554
O O4 0.500000 0.000000 0.000000
O O5 0.047049 0.246396 0.790863
O O6 0.975199 0.803625 0.744527
O O7 0.847361 0.109430 0.942882
O O8 0.891417 0.878849 0.077409
O O9 0.171800 0.323783 0.269834
O O10 0.000000 0.500000 0.500000
O O11 0.000000 0.000000 0.500000
O O12 0.173857 0.602159 0.825892
O O13 0.265482 0.335617 0.574200
O O14 0.540174 0.308264 0.606885
O O15 0.398461 0.303911 0.598099
O O16 0.353259 0.891145 0.748368
O O17 0.352888 0.248642 0.916923
O O18 0.763520 0.488022 0.019198
#
# Coordination Sequence:
#
# PCOD9009472 Si02
#       8
#     2   2   2   2   2   2   2   2
#     4  11  29  49  71 100 145 195 231 287 365 430
#     4  11  24  42  63 101 148 182 232 287 374 415
#     4  12  26  44  71 104 138 192 250 289 335 420
#     4  11  23  41  67 101 143 180 224 307 364 421
#     4  10  21  39  69 103 130 170 235 305 358 410
#     4  11  24  45  72  97 140 181 238 301 355 420
#     4  12  19  40  72 103 134 188 230 288 376 425
#     4  10  21  44  65 103 136 174 243 290 358 422
#
# _framework density 23.185759000000001
#
# number of rings (size 3 to 8) (size 9 to 14) (size 15 to 20)
#    0.000    1.000    5.000    1.125    3.500    3.500 
#    0.000    0.000    0.000    0.000    0.000    0.000 
#    0.000    0.000    0.000    0.000    0.000    0.000 
#
# Total GULP energy -89305.191833 kJ/mol
# GULP energy per Si atom -5581.574490 kJ/mol
# Density = 2.313299 g / cm^3
# Si number density = 23.185759 Si / 1000 Ang^3
#
#
#
# Elastic Constant Matrix: (Units=GPa)
#
#
# Indices 1 2 3 4 5 6 
#
# 1 47.9426 25.4787 27.9004 -8.4456 -11.9277 22.9583
# 2 25.4787 155.9401 77.5270 -4.3781 -16.1486 34.4348
# 3 27.9004 77.5270 152.8998 -14.3085 -33.9479 16.8930
# 4 -8.4456 -4.3781 -14.3085 51.7964 8.8394 -7.8581
# 5 -11.9277 -16.1486 -33.9479 8.8394 26.5339 -11.8453
# 6 22.9583 34.4348 16.8930 -7.8581 -11.8453 49.3769
#
#
#
# Elastic Compliance Matrix: (Units=1/GPa)
#
#
# Indices 1 2 3 4 5 6 
#
# 1 0.029358 -0.000439 -0.002940 0.001618 0.003625 -0.011211
# 2 -0.000439 0.009971 -0.005064 -0.001026 -0.002888 -0.005873
# 3 -0.002940 -0.005064 0.012068 0.000888 0.012484 0.003906
# 4 0.001618 -0.001026 0.000888 0.020838 -0.004899 0.001800
# 5 0.003625 -0.002888 0.012484 -0.004899 0.059419 0.009532
# 6 -0.011211 -0.005873 0.003906 0.001800 0.009532 0.030798
#
#
# Mechanical properties :
#
#
# Convention : Reuss Voigt Hill
#
# Bulk Modulus (GPa) = 28.97552 68.73274 48.85413
# Shear Modulus (GPa) = 26.19986 40.59987 33.39986
#
# Velocity S-wave (km/s) = 3.36519 4.18912 3.79955
# Velocity P-wave (km/s) = 5.25582 7.28746 6.35337
#
# Compressibility (1/GPa) = 0.03451189
#
# Stress axis : x y z
#
# Youngs Moduli (GPa) = 34.06232 100.28972 82.86578
#
# Poissons Ratio (x) = 0.04400 0.24360
# Poissons Ratio (y) = 0.01494 0.41964
# Poissons Ratio (z) = 0.10013 0.50787
#
# Static dielectric constant tensor:
#      x y z
#    x 1.973760 -0.029000 0.049950 
#    y -0.029000 1.977170 -0.021020 
#    z 0.049950 -0.021020 1.996270 
# 
# From -- ./inp_files/468169.got.cif
#   From: 2010.05.17/outbox.cif.g08.bks.cpg/sg2_235_cif.got.tgz:468169.got - 2010.06.03 11:33:40.
