data_PCOD9009816
_publ_section_title
;
Structure prediction by ZEFSAII (Michael W. Deem and Ramdas Pophale) SiO2 
 PCOD9009816
Probable space group: P -1
;
_chemical_formula_sum "Si O2"
_cell_formula_units_Z 16
_cell_length_a 10.894733
_cell_length_b 18.632451
_cell_length_c 16.168174
_cell_angle_alpha 158.655081
_cell_angle_beta 146.204592
_cell_angle_gamma 43.689225
_cell_volume 643.110814
_symmetry_space_group_name_H-M "P -1"
_symmetry_group_IT_number 2
_symmetry_cell_setting 'triclinic'
loop_
_space_group_symop_operation_xyz
x,y,z
-x,-y,-z
loop_
_atom_site_type_symbol
_atom_site_label
_atom_site_fract_x
_atom_site_fract_y
_atom_site_fract_z
Si Si1 0.308554 0.648569 0.645246
Si Si2 0.133095 0.971754 0.809228
Si Si3 0.223665 0.312475 0.093597
Si Si4 0.549553 0.723301 0.453783
Si Si5 0.795752 0.702384 0.219976
Si Si6 0.106725 0.803691 0.350973
Si Si7 0.447954 0.940330 0.310225
Si Si8 0.036025 0.311482 0.238746
O O1 0.290064 0.868250 0.841675
O O2 0.265159 0.498366 0.380134
O O3 0.568863 0.653544 0.819117
O O4 0.133195 0.534609 0.493339
O O5 0.936862 0.777410 0.462379
O O6 0.225314 0.105297 0.922429
O O7 0.052994 0.139139 0.996397
O O8 0.992465 0.297941 0.900449
O O9 0.599912 0.869401 0.560166
O O10 0.784846 0.713669 0.618271
O O11 0.373651 0.809798 0.506866
O O12 0.399994 0.502694 0.106961
O O13 0.976189 0.693060 0.239464
O O14 0.666101 0.882367 0.329959
O O15 0.000000 0.000000 0.500000
O O16 0.500000 0.000000 0.500000
O O17 0.233417 0.750454 0.966016
#
# Coordination Sequence:
#
# PCOD9009816 Si02
#       8
#     2   2   2   2   2   2   2   2
#     4  10  23  39  66  97 146 181 240 291 350 424
#     4  11  22  39  70 100 139 191 237 285 364 421
#     4  10  21  40  60 104 141 188 232 289 354 430
#     4  12  28  47  75 110 148 184 243 300 362 429
#     4  12  26  45  76 110 139 197 240 295 365 428
#     4  12  23  43  72 103 148 182 232 293 367 428
#     4  12  27  51  77 102 147 190 250 299 350 428
#     4  11  27  47  70 106 143 188 242 300 354 421
#
# _framework density 24.879072000000001
#
# number of rings (size 3 to 8) (size 9 to 14) (size 15 to 20)
#    0.000    0.750    3.750    2.625    5.250    6.000 
#    0.000    0.000    0.000    0.000    0.000    0.000 
#    0.000    0.000    0.000    0.000    0.000    0.000 
#
# Total GULP energy -89511.990091 kJ/mol
# GULP energy per Si atom -5594.499381 kJ/mol
# Density = 2.482245 g / cm^3
# Si number density = 24.879072 Si / 1000 Ang^3
#
#
#
# Elastic Constant Matrix: (Units=GPa)
#
#
# Indices 1 2 3 4 5 6 
#
# 1 86.7960 30.4222 29.9251 -5.6240 9.6669 -1.0810
# 2 30.4222 105.2292 20.0361 0.5995 9.2881 -2.9174
# 3 29.9251 20.0361 108.9969 -10.8229 -0.4963 0.5374
# 4 -5.6240 0.5995 -10.8229 48.2201 -0.6282 8.9925
# 5 9.6669 9.2881 -0.4963 -0.6282 37.9472 3.2542
# 6 -1.0810 -2.9174 0.5374 8.9925 3.2542 36.7722
#
#
#
# Elastic Compliance Matrix: (Units=1/GPa)
#
#
# Indices 1 2 3 4 5 6 
#
# 1 0.014138 -0.003221 -0.003216 0.000884 -0.002862 0.000244
# 2 -0.003221 0.010884 -0.001235 -0.001041 -0.001981 0.001217
# 3 -0.003216 -0.001235 0.010515 0.002206 0.001382 -0.001008
# 4 0.000884 -0.001041 0.002206 0.022415 0.000914 -0.005651
# 5 -0.002862 -0.001981 0.001382 0.000914 0.027853 -0.002950
# 6 0.000244 0.001217 -0.001008 -0.005651 -0.002950 0.028956
#
#
# Mechanical properties :
#
#
# Convention : Reuss Voigt Hill
#
# Bulk Modulus (GPa) = 49.52041 51.30985 50.41513
# Shear Modulus (GPa) = 36.54043 39.29713 37.91878
#
# Velocity S-wave (km/s) = 3.83655 3.97864 3.90824
# Velocity P-wave (km/s) = 6.29072 6.46332 6.37760
#
# Compressibility (1/GPa) = 0.02019369
#
# Stress axis : x y z
#
# Youngs Moduli (GPa) = 70.73148 91.87932 95.10366
#
# Poissons Ratio (x) = 0.29592 0.30585
# Poissons Ratio (y) = 0.22780 0.11744
# Poissons Ratio (z) = 0.22747 0.11345
#
# Static dielectric constant tensor:
#      x y z
#    x 2.018110 -0.036770 0.011300 
#    y -0.036770 1.983930 0.001190 
#    z 0.011300 0.001190 2.007500 
# 
# From -- ./inp_files/570833.got.cif
#   From: 2010.05.17/outbox.cif.g08.bks.cpg/sg2_286_cif.got.tgz:570833.got - 2010.06.03 11:33:40.
