data_PCOD9009937
_publ_section_title
;
Structure prediction by ZEFSAII (Michael W. Deem and Ramdas Pophale) SiO2 
 PCOD9009937
Probable space group: P -1
;
_chemical_formula_sum "Si O2"
_cell_formula_units_Z 16
_cell_length_a 12.044239
_cell_length_b 9.673685
_cell_length_c 13.000306
_cell_angle_alpha 62.693860
_cell_angle_beta 79.634180
_cell_angle_gamma 36.238146
_cell_volume 741.705767
_symmetry_space_group_name_H-M "P -1"
_symmetry_group_IT_number 2
_symmetry_cell_setting 'triclinic'
loop_
_space_group_symop_operation_xyz
x,y,z
-x,-y,-z
loop_
_atom_site_type_symbol
_atom_site_label
_atom_site_fract_x
_atom_site_fract_y
_atom_site_fract_z
Si Si1 0.977980 0.984876 0.778782
Si Si2 0.173623 0.711871 0.632675
Si Si3 0.376576 0.826031 0.307867
Si Si4 0.108517 0.561679 0.366684
Si Si5 0.632063 0.859215 0.689388
Si Si6 0.051887 0.643816 0.036063
Si Si7 0.824760 0.609840 0.356682
Si Si8 0.299923 0.145514 0.022103
O O1 0.790281 0.112451 0.709515
O O2 0.927709 0.219759 0.728098
O O3 0.153324 0.775762 0.734569
O O4 0.021109 0.849779 0.925427
O O5 0.394295 0.497134 0.621648
O O6 0.149598 0.552482 0.677418
O O7 0.000000 0.000000 0.500000
O O8 0.334632 0.991986 0.353028
O O9 0.361041 0.963585 0.167779
O O10 0.318944 0.259232 0.390885
O O11 0.101890 0.552469 0.493575
O O12 0.948618 0.625673 0.322385
O O13 0.786996 0.582088 0.827548
O O14 0.409359 0.086602 0.691256
O O15 0.146341 0.450218 0.985835
O O16 0.838156 0.806806 0.042315
O O17 0.500000 0.000000 0.000000
#
# Coordination Sequence:
#
# PCOD9009937 Si02
#       8
#     2   2   2   2   2   2   2   2
#     4  11  22  39  59  91 123 150 190 247 299 344
#     4  11  21  39  61  88 116 151 193 250 294 341
#     4   9  21  36  59  88 116 150 195 239 292 348
#     4  11  23  40  61  82 119 163 194 244 290 347
#     4  10  21  40  61  85 116 158 197 238 288 351
#     4   9  20  34  56  88 118 151 194 237 289 351
#     4  10  23  43  60  86 114 157 207 237 291 353
#     4   9  16  32  57  83 116 155 189 233 288 344
#
# _framework density 21.571895999999999
#
# number of rings (size 3 to 8) (size 9 to 14) (size 15 to 20)
#    0.000    2.000    1.250    2.625    0.000    5.000 
#    2.250    0.625    0.000    0.000    0.000    0.000 
#    0.000    0.000    0.000    0.000    0.000    0.000 
#
# Total GULP energy -89365.033575 kJ/mol
# GULP energy per Si atom -5585.314598 kJ/mol
# Density = 2.152280 g / cm^3
# Si number density = 21.571896 Si / 1000 Ang^3
#
#
#
# Elastic Constant Matrix: (Units=GPa)
#
#
# Indices 1 2 3 4 5 6 
#
# 1 76.7925 60.5261 61.5035 -29.8095 -26.5864 4.8948
# 2 60.5261 88.1545 -34.6380 -11.3287 -10.1698 -0.7160
# 3 61.5035 -34.6380 -35.7308 -5.6696 -8.3535 -16.4220
# 4 -29.8095 -11.3287 -5.6696 28.6644 1.1351 3.0129
# 5 -26.5864 -10.1698 -8.3535 1.1351 26.2550 -2.3055
# 6 4.8948 -0.7160 -16.4220 3.0129 -2.3055 29.7090
#
#
#
# Elastic Compliance Matrix: (Units=1/GPa)
#
#
# Indices 1 2 3 4 5 6 
#
# 1 0.013659 0.000303 0.014014 0.015817 0.018190 0.005311
# 2 0.000303 0.008850 -0.006963 0.002802 0.001057 -0.003888
# 3 0.014014 -0.006963 -0.000132 0.011677 0.010692 -0.002904
# 4 0.015817 0.002802 0.011677 0.054035 0.018470 -0.000130
# 5 0.018190 0.001057 0.010692 0.018470 0.060022 0.005723
# 6 0.005311 -0.003888 -0.002904 -0.000130 0.005723 0.031543
#
#
# Mechanical properties :
#
#
# Convention : Reuss Voigt Hill
#
# Bulk Modulus (GPa) = 26.96634 33.77770 30.37202
# Shear Modulus (GPa) = 30.18754 19.71398 24.95076
#
# Velocity S-wave (km/s) = 3.74490 3.02631 3.40462
# Velocity P-wave (km/s) = 5.58810 5.28239 5.43739
#
# Compressibility (1/GPa) = 0.03708326
#
# Stress axis : x y z
#
# Youngs Moduli (GPa) = 73.21408 112.99119 -7561.17759
#
# Poissons Ratio (x) = -0.03421 105.96146
# Poissons Ratio (y) = -0.02217 -52.65060
# Poissons Ratio (z) = -1.02601 0.78679
#
# Static dielectric constant tensor:
#      x y z
#    x 1.806080 -0.015690 0.023770 
#    y -0.015690 1.789680 0.027730 
#    z 0.023770 0.027730 1.835160 
# 
# From -- ./inp_files/398512.got.cif
#   From: 2010.05.17/outbox.cif.g08.bks.cpg/sg2_200_cif.got.tgz:398512.got - 2010.06.03 11:33:40.
