data_PCOD9009716
_publ_section_title
;
Structure prediction by ZEFSAII (Michael W. Deem and Ramdas Pophale) SiO2 
 PCOD9009716
Probable space group: P -1
;
_chemical_formula_sum "Si O2"
_cell_formula_units_Z 16
_cell_length_a 7.358349
_cell_length_b 13.004988
_cell_length_c 18.059243
_cell_angle_alpha 35.262389
_cell_angle_beta 60.082800
_cell_angle_gamma 84.279039
_cell_volume 682.148210
_symmetry_space_group_name_H-M "P -1"
_symmetry_group_IT_number 2
_symmetry_cell_setting 'triclinic'
loop_
_space_group_symop_operation_xyz
x,y,z
-x,-y,-z
loop_
_atom_site_type_symbol
_atom_site_label
_atom_site_fract_x
_atom_site_fract_y
_atom_site_fract_z
Si Si1 0.866623 0.021067 0.728711
Si Si2 0.474503 0.401045 0.845244
Si Si3 0.887437 0.590587 0.211408
Si Si4 0.580402 0.089352 0.546537
Si Si5 0.230590 0.095366 0.487268
Si Si6 0.311017 0.265628 0.719254
Si Si7 0.224504 0.520826 0.394307
Si Si8 0.645457 0.069611 0.166475
O O1 0.649415 0.055456 0.730831
O O2 0.719639 0.812642 0.937469
O O3 0.963490 0.981455 0.656066
O O4 0.123064 0.261412 0.566737
O O5 0.294388 0.404988 0.816476
O O6 0.635373 0.643708 0.709905
O O7 0.695375 0.404137 0.751683
O O8 0.741997 0.331074 0.411775
O O9 0.907748 0.731846 0.195023
O O10 0.163189 0.696797 0.052734
O O11 0.424439 0.100269 0.504761
O O12 0.370977 0.910704 0.754456
O O13 0.765036 0.031647 0.509364
O O14 0.500000 0.500000 0.500000
O O15 0.504895 0.295745 0.725888
O O16 0.241751 0.065225 0.799369
O O17 0.000000 0.500000 0.500000
#
# Coordination Sequence:
#
# PCOD9009716 Si02
#       8
#     2   2   2   2   2   2   2   2
#     4  11  23  39  60  88 124 158 194 241 296 352
#     4   9  21  38  61  85 116 157 197 240 289 351
#     4  10  22  39  59  88 119 153 201 244 288 351
#     4  10  21  42  66  89 113 154 202 248 297 343
#     4   9  21  42  67  86 115 154 200 249 293 351
#     4  11  22  39  61  86 120 158 196 246 292 341
#     4  10  21  40  57  85 119 158 199 233 289 350
#     4  12  24  37  59  91 122 157 194 243 300 349
#
# _framework density 23.455314000000001
#
# number of rings (size 3 to 8) (size 9 to 14) (size 15 to 20)
#    0.000    1.750    2.500    1.875    1.750    5.000 
#    0.000    5.000    0.000    0.000    0.000    0.000 
#    0.000    0.000    0.000    0.000    0.000    0.000 
#
# Total GULP energy -89379.238523 kJ/mol
# GULP energy per Si atom -5586.202408 kJ/mol
# Density = 2.340193 g / cm^3
# Si number density = 23.455314 Si / 1000 Ang^3
#
#
#
# Elastic Constant Matrix: (Units=GPa)
#
#
# Indices 1 2 3 4 5 6 
#
# 1 32.1653 25.3829 11.8272 -1.4938 -2.8114 -3.3234
# 2 25.3829 145.0505 47.4207 35.3332 0.9747 -28.5064
# 3 11.8272 47.4207 146.9230 34.6694 10.3618 -11.6725
# 4 -1.4938 35.3332 34.6694 29.8646 -0.8775 -7.4939
# 5 -2.8114 0.9747 10.3618 -0.8775 35.5239 6.3424
# 6 -3.3234 -28.5064 -11.6725 -7.4939 6.3424 22.8783
#
#
#
# Elastic Compliance Matrix: (Units=1/GPa)
#
#
# Indices 1 2 3 4 5 6 
#
# 1 0.044287 -0.012786 -0.005851 0.022559 0.007395 -0.007144
# 2 -0.012786 0.015726 0.001593 -0.017700 -0.004863 0.014101
# 3 -0.005851 0.001593 0.010596 -0.013789 -0.004524 0.003279
# 4 0.022559 -0.017700 -0.013789 0.070520 0.008963 -0.005197
# 5 0.007395 -0.004863 -0.004524 0.008963 0.032812 -0.013453
# 6 -0.007144 0.014101 0.003279 -0.005197 -0.013453 0.063941
#
#
# Mechanical properties :
#
#
# Convention : Reuss Voigt Hill
#
# Bulk Modulus (GPa) = 27.38051 54.82227 41.10139
# Shear Modulus (GPa) = 17.59678 33.62056 25.60867
#
# Velocity S-wave (km/s) = 2.74200 3.79012 3.30783
# Velocity P-wave (km/s) = 4.66085 6.52512 5.67013
#
# Compressibility (1/GPa) = 0.03652232
#
# Stress axis : x y z
#
# Youngs Moduli (GPa) = 22.58018 63.58863 94.37238
#
# Poissons Ratio (x) = 0.81305 0.55213
# Poissons Ratio (y) = 0.28871 -0.15037
# Poissons Ratio (z) = 0.13211 -0.10132
#
# Static dielectric constant tensor:
#      x y z
#    x 2.000800 -0.013830 -0.027010 
#    y -0.013830 1.917100 0.024600 
#    z -0.027010 0.024600 1.855850 
# 
# From -- ./inp_files/49329.got.cif
#   From: 2010.05.17/outbox.cif.g08.bks.cpg/sg2_25_cif.got.tgz:49329.got - 2010.06.03 11:33:40.
