data_PCOD9009678
_publ_section_title
;
Structure prediction by ZEFSAII (Michael W. Deem and Ramdas Pophale) SiO2 
 PCOD9009678
Probable space group: P -1
;
_chemical_formula_sum "Si O2"
_cell_formula_units_Z 14
_cell_length_a 9.387032
_cell_length_b 5.312284
_cell_length_c 10.901872
_cell_angle_alpha 79.114619
_cell_angle_beta 103.079655
_cell_angle_gamma 75.563736
_cell_volume 495.178147
_symmetry_space_group_name_H-M "P -1"
_symmetry_group_IT_number 2
_symmetry_cell_setting 'triclinic'
loop_
_space_group_symop_operation_xyz
x,y,z
-x,-y,-z
loop_
_atom_site_type_symbol
_atom_site_label
_atom_site_fract_x
_atom_site_fract_y
_atom_site_fract_z
Si Si1 0.738167 0.496254 0.858024
Si Si2 0.959272 0.839280 0.140722
Si Si3 0.190079 0.018405 0.551319
Si Si4 0.277572 0.502481 0.633367
Si Si5 0.487649 0.313382 0.429873
Si Si6 0.077204 0.238302 0.260162
Si Si7 0.357469 0.262332 0.937923
O O1 0.808705 0.743716 0.829800
O O2 0.639895 0.523972 0.711226
O O3 0.892324 0.238503 0.914653
O O4 0.651024 0.541441 0.965213
O O5 0.793538 0.834490 0.072390
O O6 0.015754 0.552024 0.252629
O O7 0.961746 0.089600 0.200285
O O8 0.119874 0.773640 0.582062
O O9 0.196816 0.275007 0.598444
O O10 0.358540 0.791403 0.626734
O O11 0.179166 0.067594 0.401221
O O12 0.403730 0.455106 0.537314
O O13 0.348272 0.392210 0.790050
O O14 0.500000 0.000000 0.500000
O O15 0.500000 0.000000 0.000000
#
# Coordination Sequence:
#
# PCOD9009678 Si02
#       7
#     2   2   2   2   2   2   2
#     4  10  24  45  75 108 146 190 244 296 363 420
#     4  10  25  48  72 110 140 191 245 297 365 423
#     4  10  21  43  69 105 144 184 234 296 352 427
#     4  10  25  43  65 107 145 186 239 291 358 422
#     4  10  21  39  73 105 143 181 242 291 353 420
#     4  10  22  46  78 107 142 186 246 300 359 423
#     4  12  27  51  73 104 149 195 242 301 361 439
#
# _framework density 28.272652000000001
#
# number of rings (size 3 to 8) (size 9 to 14) (size 15 to 20)
#    1.714    0.000    0.000    3.857    0.000    8.000 
#    5.143    4.286    0.000    0.000    0.000    0.000 
#    0.000    0.000    0.000    0.000    0.000    0.000 
#
# Total GULP energy -78142.920481 kJ/mol
# GULP energy per Si atom -5581.637177 kJ/mol
# Density = 2.820830 g / cm^3
# Si number density = 28.272652 Si / 1000 Ang^3
#
#
#
# Elastic Constant Matrix: (Units=GPa)
#
#
# Indices 1 2 3 4 5 6 
#
# 1 99.3846 -4.4980 21.1271 4.7928 -21.8547 4.9113
# 2 -4.4980 154.2175 21.2920 20.0047 -31.8441 15.0572
# 3 21.1271 21.2920 150.4012 19.6402 -22.8046 5.9835
# 4 4.7928 20.0047 19.6402 43.2581 -0.5346 -2.2928
# 5 -21.8547 -31.8441 -22.8046 -0.5346 53.8477 -1.0090
# 6 4.9113 15.0572 5.9835 -2.2928 -1.0090 55.1159
#
#
#
# Elastic Compliance Matrix: (Units=1/GPa)
#
#
# Indices 1 2 3 4 5 6 
#
# 1 0.011699 0.001980 -0.000781 -0.001867 0.005542 -0.001475
# 2 0.001980 0.008533 0.000048 -0.004253 0.005779 -0.002584
# 3 -0.000781 0.000048 0.007676 -0.003431 0.002912 -0.000866
# 4 -0.001867 -0.004253 -0.003431 0.026939 -0.004407 0.002741
# 5 0.005542 0.005779 0.002912 -0.004407 0.025388 -0.002107
# 6 -0.001475 -0.002584 -0.000866 0.002741 -0.002107 0.019150
#
#
# Mechanical properties :
#
#
# Convention : Reuss Voigt Hill
#
# Bulk Modulus (GPa) = 32.89299 53.31618 43.10459
# Shear Modulus (GPa) = 46.71820 54.84981 50.78400
#
# Velocity S-wave (km/s) = 4.06940 4.40936 4.24279
# Velocity P-wave (km/s) = 5.80857 6.69493 6.26744
#
# Compressibility (1/GPa) = 0.03040162
#
# Stress axis : x y z
#
# Youngs Moduli (GPa) = 85.47673 117.19635 130.28047
#
# Poissons Ratio (x) = -0.23199 0.10173
# Poissons Ratio (y) = -0.16920 -0.00631
# Poissons Ratio (z) = 0.06675 -0.00567
#
# Static dielectric constant tensor:
#      x y z
#    x 2.482980 0.053080 -0.068500 
#    y 0.053080 2.143260 0.029770 
#    z -0.068500 0.029770 2.164440 
# 
# From -- ./inp_files/410339.got.cif
#   From: 2010.05.17/outbox.cif.g08.bks.cpg/sg2_206_cif.got.tgz:410339.got - 2010.06.03 11:33:40.
