data_PCOD9009226
_publ_section_title
;
Structure prediction by ZEFSAII (Michael W. Deem and Ramdas Pophale) SiO2 
 PCOD9009226
Probable space group: P -1
;
_chemical_formula_sum "Si O2"
_cell_formula_units_Z 16
_cell_length_a 11.709081
_cell_length_b 13.014780
_cell_length_c 9.790683
_cell_angle_alpha 140.811970
_cell_angle_beta 126.499344
_cell_angle_gamma 76.287410
_cell_volume 680.190536
_symmetry_space_group_name_H-M "P -1"
_symmetry_group_IT_number 2
_symmetry_cell_setting 'triclinic'
loop_
_space_group_symop_operation_xyz
x,y,z
-x,-y,-z
loop_
_atom_site_type_symbol
_atom_site_label
_atom_site_fract_x
_atom_site_fract_y
_atom_site_fract_z
Si Si1 0.495089 0.317902 0.245421
Si Si2 0.073587 0.717931 0.802816
Si Si3 0.621397 0.207819 0.480123
Si Si4 0.903460 0.657132 0.370309
Si Si5 0.564457 0.364384 0.855304
Si Si6 0.427271 0.827838 0.092569
Si Si7 0.853378 0.805685 0.213367
Si Si8 0.025656 0.634470 0.988310
O O1 0.500000 0.500000 0.500000
O O2 0.573389 0.232293 0.319571
O O3 0.583175 0.335359 0.181679
O O4 0.308577 0.198763 0.959370
O O5 0.255907 0.812328 0.987145
O O6 0.000000 0.500000 0.500000
O O7 0.981711 0.774077 0.679479
O O8 0.048614 0.737320 0.965055
O O9 0.550142 0.315071 0.636517
O O10 0.807578 0.284097 0.726535
O O11 0.534567 0.006204 0.269551
O O12 0.845297 0.750235 0.308934
O O13 0.752733 0.475864 0.123994
O O14 0.012186 0.573248 0.288905
O O15 0.500000 0.500000 0.000000
O O16 0.501676 0.193059 0.733822
O O17 0.894700 0.663325 0.010928
O O18 0.000000 0.000000 0.500000
#
# Coordination Sequence:
#
# PCOD9009226 Si02
#       8
#     2   2   2   2   2   2   2   2
#     4  12  28  44  68 101 136 181 224 275 345 397
#     4  10  21  39  67  97 120 168 228 264 318 390
#     4  11  24  43  66 104 128 176 229 269 339 393
#     4  10  22  42  65  95 124 175 226 257 329 404
#     4  11  22  41  67  97 134 174 214 278 336 400
#     4  12  23  42  69  94 137 167 225 279 322 401
#     4  12  27  45  65  98 140 172 217 285 338 383
#     4  10  22  43  69  95 128 171 227 262 324 412
#
# _framework density 23.522821
#
# number of rings (size 3 to 8) (size 9 to 14) (size 15 to 20)
#    0.000    1.000    3.750    4.875    7.000    1.000 
#    0.000    0.625    0.000    0.000    0.000    0.000 
#    0.000    0.000    0.000    0.000    0.000    0.000 
#
# Total GULP energy -89481.091959 kJ/mol
# GULP energy per Si atom -5592.568247 kJ/mol
# Density = 2.346928 g / cm^3
# Si number density = 23.522821 Si / 1000 Ang^3
#
#
#
# Elastic Constant Matrix: (Units=GPa)
#
#
# Indices 1 2 3 4 5 6 
#
# 1 82.6053 16.7170 10.1534 -22.8929 -6.7887 6.7755
# 2 16.7170 108.9337 37.9932 -33.2208 14.4562 15.9881
# 3 10.1534 37.9932 64.8033 -22.9608 10.0052 2.2066
# 4 -22.8929 -33.2208 -22.9608 49.0552 0.3897 -6.7209
# 5 -6.7887 14.4562 10.0052 0.3897 27.6874 -0.8472
# 6 6.7755 15.9881 2.2066 -6.7209 -0.8472 29.6567
#
#
#
# Elastic Compliance Matrix: (Units=1/GPa)
#
#
# Indices 1 2 3 4 5 6 
#
# 1 0.014336 -0.000557 -0.000364 0.005907 0.003808 -0.001501
# 2 -0.000557 0.014779 -0.005060 0.006587 -0.006305 -0.006151
# 3 -0.000364 -0.005060 0.021638 0.006932 -0.005283 0.002621
# 4 0.005907 0.006587 0.006932 0.031091 -0.004888 0.001490
# 5 0.003808 -0.006305 -0.005283 -0.004888 0.042414 0.003026
# 6 -0.001501 -0.006151 0.002621 0.001490 0.003026 0.037607
#
#
# Mechanical properties :
#
#
# Convention : Reuss Voigt Hill
#
# Bulk Modulus (GPa) = 25.77913 42.89659 34.33786
# Shear Modulus (GPa) = 26.77289 34.04512 30.40900
#
# Velocity S-wave (km/s) = 3.37733 3.80850 3.59938
# Velocity P-wave (km/s) = 5.11776 6.13313 5.64831
#
# Compressibility (1/GPa) = 0.03879106
#
# Stress axis : x y z
#
# Youngs Moduli (GPa) = 69.75292 67.66541 46.21548
#
# Poissons Ratio (x) = 0.03768 0.01680
# Poissons Ratio (y) = 0.03885 0.23387
# Poissons Ratio (z) = 0.02536 0.34241
#
# Static dielectric constant tensor:
#      x y z
#    x 1.985380 -0.058360 -0.016600 
#    y -0.058360 1.950150 -0.002800 
#    z -0.016600 -0.002800 1.945590 
# 
# From -- ./inp_files/263611.got.cif
#   From: 2010.05.17/outbox.cif.g08.bks.cpg/sg2_132_cif.got.tgz:263611.got - 2010.06.03 11:33:40.
