data_PCOD9009744
_publ_section_title
;
Structure prediction by ZEFSAII (Michael W. Deem and Ramdas Pophale) SiO2 
 PCOD9009744
Probable space group: P -1
;
_chemical_formula_sum "Si O2"
_cell_formula_units_Z 16
_cell_length_a 11.582604
_cell_length_b 9.398542
_cell_length_c 18.649363
_cell_angle_alpha 127.846327
_cell_angle_beta 29.011587
_cell_angle_gamma 120.298344
_cell_volume 774.770841
_symmetry_space_group_name_H-M "P -1"
_symmetry_group_IT_number 2
_symmetry_cell_setting 'triclinic'
loop_
_space_group_symop_operation_xyz
x,y,z
-x,-y,-z
loop_
_atom_site_type_symbol
_atom_site_label
_atom_site_fract_x
_atom_site_fract_y
_atom_site_fract_z
Si Si1 0.905203 0.197413 0.261245
Si Si2 0.118457 0.363567 0.835479
Si Si3 0.396967 0.847269 0.458554
Si Si4 0.637128 0.175847 0.011038
Si Si5 0.581890 0.992661 0.117384
Si Si6 0.494572 0.927192 0.651790
Si Si7 0.640605 0.338459 0.916016
Si Si8 0.172782 0.431701 0.665839
O O1 0.827165 0.206980 0.389844
O O2 0.746684 0.066306 0.261778
O O3 0.831630 0.389541 0.323834
O O4 0.175706 0.122377 0.076824
O O5 0.375040 0.296583 0.708556
O O6 0.177236 0.458105 0.757467
O O7 0.926932 0.210573 0.873367
O O8 0.000000 0.500000 0.000000
O O9 0.500000 0.000000 0.500000
O O10 0.350295 0.932744 0.431999
O O11 0.556351 0.168969 0.135226
O O12 0.562873 0.325813 0.037894
O O13 0.500000 0.000000 0.000000
O O14 0.387099 0.855202 0.163448
O O15 0.573948 0.030622 0.216914
O O16 0.629971 0.728358 0.510595
O O17 0.915640 0.364751 0.771639
O O18 0.500000 0.500000 0.000000
#
# Coordination Sequence:
#
# PCOD9009744 Si02
#       8
#     2   2   2   2   2   2   2   2
#     4  11  22  38  63  90 126 164 205 247 321 377
#     4  11  23  36  65  96 130 163 212 264 320 376
#     4  10  21  40  58  91 129 167 197 252 328 376
#     4   9  21  39  62  91 123 166 213 254 312 373
#     4  11  23  39  66  94 120 164 221 258 290 393
#     4  11  24  38  62  93 129 158 206 257 323 365
#     4  10  21  42  64  89 122 167 211 259 319 366
#     4  11  23  40  61  87 130 167 197 261 326 375
#
# _framework density 20.651267000000001
#
# number of rings (size 3 to 8) (size 9 to 14) (size 15 to 20)
#    0.000    1.500    3.750    2.250    5.250    0.500 
#    0.000    0.000    0.000    1.500    0.000    0.000 
#    0.000    0.000    0.000    0.000    0.000    0.000 
#
# Total GULP energy -89091.771382 kJ/mol
# GULP energy per Si atom -5568.235711 kJ/mol
# Density = 2.060426 g / cm^3
# Si number density = 20.651267 Si / 1000 Ang^3
#
#
#
# Elastic Constant Matrix: (Units=GPa)
#
#
# Indices 1 2 3 4 5 6 
#
# 1 84.1957 34.2406 35.7331 -15.0853 13.3096 -18.5377
# 2 34.2406 90.4234 27.9360 -27.3413 12.4257 -24.8117
# 3 35.7331 27.9360 119.4954 -4.2098 12.7410 -11.3129
# 4 -15.0853 -27.3413 -4.2098 25.8622 -12.1084 3.9592
# 5 13.3096 12.4257 12.7410 -12.1084 26.6110 -11.6128
# 6 -18.5377 -24.8117 -11.3129 3.9592 -11.6128 31.9292
#
#
#
# Elastic Compliance Matrix: (Units=1/GPa)
#
#
# Indices 1 2 3 4 5 6 
#
# 1 0.016663 -0.001335 -0.003822 0.006687 -0.000026 0.006444
# 2 -0.001335 0.023898 -0.003788 0.026282 0.010745 0.017102
# 3 -0.003822 -0.003788 0.010504 -0.006723 -0.005554 -0.002628
# 4 0.006687 0.026282 -0.006723 0.082241 0.035826 0.024756
# 5 -0.000026 0.010745 -0.005554 0.035826 0.062256 0.024567
# 6 0.006444 0.017102 -0.002628 0.024756 0.024567 0.053285
#
#
# Mechanical properties :
#
#
# Convention : Reuss Voigt Hill
#
# Bulk Modulus (GPa) = 30.14450 54.43710 42.29080
# Shear Modulus (GPa) = 17.99874 29.96079 23.97977
#
# Velocity S-wave (km/s) = 2.95542 3.81306 3.41130
# Velocity P-wave (km/s) = 5.12587 6.76782 6.00325
#
# Compressibility (1/GPa) = 0.03317355
#
# Stress axis : x y z
#
# Youngs Moduli (GPa) = 60.01188 41.84406 95.20406
#
# Poissons Ratio (x) = 0.05587 0.36390
# Poissons Ratio (y) = 0.08013 0.36067
# Poissons Ratio (z) = 0.22939 0.15852
#
# Static dielectric constant tensor:
#      x y z
#    x 1.753590 -0.013200 -0.004520 
#    y -0.013200 1.850940 -0.038950 
#    z -0.004520 -0.038950 1.743030 
# 
# From -- ./inp_files/307166.got.cif
#   From: 2010.05.17/outbox.cif.g08.bks.cpg/sg2_154_cif.got.tgz:307166.got - 2010.06.03 11:33:40.
