data_PCOD9009666
_publ_section_title
;
Structure prediction by ZEFSAII (Michael W. Deem and Ramdas Pophale) SiO2 
 PCOD9009666
Probable space group: P -1
;
_chemical_formula_sum "Si O2"
_cell_formula_units_Z 10
_cell_length_a 16.115788
_cell_length_b 15.318513
_cell_length_c 10.030425
_cell_angle_alpha 44.085281
_cell_angle_beta 145.795933
_cell_angle_gamma 160.908920
_cell_volume 427.490619
_symmetry_space_group_name_H-M "P -1"
_symmetry_group_IT_number 2
_symmetry_cell_setting 'triclinic'
loop_
_space_group_symop_operation_xyz
x,y,z
-x,-y,-z
loop_
_atom_site_type_symbol
_atom_site_label
_atom_site_fract_x
_atom_site_fract_y
_atom_site_fract_z
Si Si1 0.837876 0.023263 0.446435
Si Si2 0.255045 0.193883 0.005131
Si Si3 0.892106 0.276264 0.735970
Si Si4 0.086709 0.425886 0.534425
Si Si5 0.778680 0.608909 0.714011
O O1 0.909267 0.195732 0.449457
O O2 0.990285 0.171919 0.341929
O O3 0.453452 0.688321 0.305321
O O4 0.047145 0.064073 0.738449
O O5 0.512516 0.277421 0.275757
O O6 0.500000 0.500000 0.000000
O O7 0.000000 0.000000 0.000000
O O8 0.033427 0.522676 0.690916
O O9 0.034928 0.346340 0.705927
O O10 0.500000 0.000000 0.500000
O O11 0.997563 0.260393 0.006742
O O12 0.500000 0.500000 0.500000
#
# Coordination Sequence:
#
# PCOD9009666 Si02
#       5
#     2   2   2   2   2
#     4  11  25  45  76 107 140 189 245 304 356 429
#     4  10  21  39  72 106 139 180 239 298 349 421
#     4  11  28  46  74 103 154 199 236 303 367 439
#     4  10  25  46  72 108 144 195 252 291 363 442
#     4  12  28  48  73 107 149 188 240 308 370 423
#
# _framework density 23.392326000000001
#
# number of rings (size 3 to 8) (size 9 to 14) (size 15 to 20)
#    0.000    1.200    0.000    4.200   16.800    1.600 
#    0.000    0.000    0.000    0.000    0.000    0.000 
#    0.000    0.000    0.000    0.000    0.000    0.000 
#
# Total GULP energy -55985.722209 kJ/mol
# GULP energy per Si atom -5598.572221 kJ/mol
# Density = 2.333908 g / cm^3
# Si number density = 23.392326 Si / 1000 Ang^3
#
#
#
# Elastic Constant Matrix: (Units=GPa)
#
#
# Indices 1 2 3 4 5 6 
#
# 1 116.6545 32.7975 35.7663 -23.0161 0.7231 5.2051
# 2 32.7975 115.7339 31.6362 -8.2444 -8.1453 14.6664
# 3 35.7663 31.6362 141.3731 -17.6068 -22.5055 7.1316
# 4 -23.0161 -8.2444 -17.6068 48.3346 6.7333 -3.8113
# 5 0.7231 -8.1453 -22.5055 6.7333 31.4418 -6.6265
# 6 5.2051 14.6664 7.1316 -3.8113 -6.6265 59.8981
#
#
#
# Elastic Compliance Matrix: (Units=1/GPa)
#
#
# Indices 1 2 3 4 5 6 
#
# 1 0.010808 -0.002366 -0.002190 0.004405 -0.003414 -0.000197
# 2 -0.002366 0.010006 -0.001365 -0.000254 0.001312 -0.001953
# 3 -0.002190 -0.001365 0.009017 0.001197 0.005934 0.000183
# 4 0.004405 -0.000254 0.001197 0.023823 -0.004290 0.000578
# 5 -0.003414 0.001312 0.005934 -0.004290 0.038065 0.003207
# 6 -0.000197 -0.001953 0.000183 0.000578 0.003207 0.017560
#
#
# Mechanical properties :
#
#
# Convention : Reuss Voigt Hill
#
# Bulk Modulus (GPa) = 55.58502 63.79571 59.69037
# Shear Modulus (GPa) = 39.33406 46.17234 42.75320
#
# Velocity S-wave (km/s) = 4.10505 4.44759 4.27975
# Velocity P-wave (km/s) = 6.80311 7.32844 7.07065
#
# Compressibility (1/GPa) = 0.01799046
#
# Stress axis : x y z
#
# Youngs Moduli (GPa) = 92.52420 99.94256 110.89819
#
# Poissons Ratio (x) = 0.23644 0.24284
# Poissons Ratio (y) = 0.21889 0.15134
# Poissons Ratio (z) = 0.20261 0.13639
#
# Static dielectric constant tensor:
#      x y z
#    x 1.884100 -0.065980 0.019660 
#    y -0.065980 1.936050 0.020500 
#    z 0.019660 0.020500 1.878010 
# 
# From -- ./inp_files/16445.got.cif
#   From: 2010.05.17/outbox.cif.g08.bks.cpg/sg2_9_cif.got.tgz:16445.got - 2010.06.03 11:33:40.
