data_PCOD9009056
_publ_section_title
;
Structure prediction by ZEFSAII (Michael W. Deem and Ramdas Pophale) SiO2 
 PCOD9009056
Probable space group: P -1
;
_chemical_formula_sum "Si O2"
_cell_formula_units_Z 14
_cell_length_a 8.560210
_cell_length_b 14.220561
_cell_length_c 10.816798
_cell_angle_alpha 87.220919
_cell_angle_beta 102.143337
_cell_angle_gamma 151.243586
_cell_volume 592.863443
_symmetry_space_group_name_H-M "P -1"
_symmetry_group_IT_number 2
_symmetry_cell_setting 'triclinic'
loop_
_space_group_symop_operation_xyz
x,y,z
-x,-y,-z
loop_
_atom_site_type_symbol
_atom_site_label
_atom_site_fract_x
_atom_site_fract_y
_atom_site_fract_z
Si Si1 0.886803 0.216022 0.416129
Si Si2 0.307792 0.609822 0.465716
Si Si3 0.525285 0.322552 0.797876
Si Si4 0.847573 0.656493 0.980605
Si Si5 0.797566 0.015635 0.612844
Si Si6 0.513087 0.035144 0.144065
Si Si7 0.225824 0.038574 0.972970
O O1 0.891558 0.125334 0.501185
O O2 0.216166 0.452933 0.480905
O O3 0.528601 0.091538 0.384012
O O4 0.827562 0.164566 0.266678
O O5 0.339556 0.636051 0.319213
O O6 0.000000 0.500000 0.500000
O O7 0.647690 0.835370 0.563620
O O8 0.784837 0.531582 0.895216
O O9 0.155123 0.184180 0.732754
O O10 0.437158 0.189093 0.882527
O O11 0.957966 0.812359 0.922644
O O12 0.500000 0.500000 0.000000
O O13 0.138656 0.795869 0.128697
O O14 0.477105 0.128516 0.117007
O O15 0.500000 0.000000 0.000000
O O16 0.000000 0.000000 0.000000
#
# Coordination Sequence:
#
# PCOD9009056 Si02
#       7
#     2   2   2   2   2   2   2
#     4  10  21  44  61  89 134 171 217 274 328 396
#     4  10  24  42  62  94 128 174 231 272 327 389
#     4  12  22  41  68  99 132 174 223 275 338 397
#     4  10  21  39  66  99 133 172 216 268 335 400
#     4  10  23  40  67  92 126 177 222 273 331 389
#     4  10  22  40  63  95 134 170 213 269 331 400
#     4  10  22  40  66  96 137 167 214 270 329 397
#
# _framework density 23.614205999999999
#
# number of rings (size 3 to 8) (size 9 to 14) (size 15 to 20)
#    0.857    0.857    1.429    3.000    2.000    1.714 
#    2.571    4.286    0.000    0.000    0.000    0.000 
#    0.000    0.000    0.000    0.000    0.000    0.000 
#
# Total GULP energy -77970.368511 kJ/mol
# GULP energy per Si atom -5569.312037 kJ/mol
# Density = 2.356046 g / cm^3
# Si number density = 23.614206 Si / 1000 Ang^3
#
#
#
# Elastic Constant Matrix: (Units=GPa)
#
#
# Indices 1 2 3 4 5 6 
#
# 1 62.1250 33.5857 18.9140 0.9989 -10.8142 -2.7313
# 2 33.5857 143.6989 34.9402 -2.0647 -4.4118 -27.1334
# 3 18.9140 34.9402 64.5981 2.1990 3.6434 -20.6517
# 4 0.9989 -2.0647 2.1990 50.4654 -0.2965 -11.7150
# 5 -10.8142 -4.4118 3.6434 -0.2965 45.2035 -6.8825
# 6 -2.7313 -27.1334 -20.6517 -11.7150 -6.8825 34.1042
#
#
#
# Elastic Compliance Matrix: (Units=1/GPa)
#
#
# Indices 1 2 3 4 5 6 
#
# 1 0.020603 -0.004270 -0.005398 -0.001400 0.004231 -0.004643
# 2 -0.004270 0.009886 -0.001869 0.002303 0.001241 0.007433
# 3 -0.005398 -0.001869 0.021801 0.001763 -0.001454 0.011594
# 4 -0.001400 0.002303 0.001763 0.022373 0.001536 0.010783
# 5 0.004231 0.001241 -0.001454 0.001536 0.024277 0.005873
# 6 -0.004643 0.007433 0.011594 0.010783 0.005873 0.046774
#
#
# Mechanical properties :
#
#
# Convention : Reuss Voigt Hill
#
# Bulk Modulus (GPa) = 34.22860 49.47799 41.85330
# Shear Modulus (GPa) = 28.00689 38.15342 33.08016
#
# Velocity S-wave (km/s) = 3.44760 4.02394 3.74686
# Velocity P-wave (km/s) = 5.51129 6.52591 6.03994
#
# Compressibility (1/GPa) = 0.02921533
#
# Stress axis : x y z
#
# Youngs Moduli (GPa) = 48.53569 101.15133 45.87046
#
# Poissons Ratio (x) = 0.43189 0.24763
# Poissons Ratio (y) = 0.20724 0.08574
# Poissons Ratio (z) = 0.26202 0.18906
#
# Static dielectric constant tensor:
#      x y z
#    x 2.157890 0.200300 -0.108630 
#    y 0.200300 2.020240 -0.064820 
#    z -0.108630 -0.064820 2.147850 
# 
# From -- ./inp_files/399123.got.cif
#   From: 2010.05.17/outbox.cif.g08.bks.cpg/sg2_200_cif.got.tgz:399123.got - 2010.06.03 11:33:40.
