data_PCOD9009962
_publ_section_title
;
Structure prediction by ZEFSAII (Michael W. Deem and Ramdas Pophale) SiO2 
 PCOD9009962
Probable space group: P -1
;
_chemical_formula_sum "Si O2"
_cell_formula_units_Z 16
_cell_length_a 26.423507
_cell_length_b 5.607561
_cell_length_c 11.918988
_cell_angle_alpha 128.509970
_cell_angle_beta 148.239917
_cell_angle_gamma 62.905193
_cell_volume 715.580677
_symmetry_space_group_name_H-M "P -1"
_symmetry_group_IT_number 2
_symmetry_cell_setting 'triclinic'
loop_
_space_group_symop_operation_xyz
x,y,z
-x,-y,-z
loop_
_atom_site_type_symbol
_atom_site_label
_atom_site_fract_x
_atom_site_fract_y
_atom_site_fract_z
Si Si1 0.424737 0.863565 0.185829
Si Si2 0.375003 0.806819 0.334486
Si Si3 0.452376 0.287349 0.950572
Si Si4 0.247001 0.123252 0.906967
Si Si5 0.126229 0.868826 0.404136
Si Si6 0.752670 0.094113 0.572083
Si Si7 0.775841 0.784969 0.853318
Si Si8 0.917514 0.841247 0.936238
O O1 0.401203 0.905893 0.284211
O O2 0.516808 0.110030 0.384517
O O3 0.451089 0.529021 0.119783
O O4 0.320926 0.891983 0.945387
O O5 0.298516 0.022418 0.289118
O O6 0.317039 0.458966 0.129056
O O7 0.342374 0.159985 0.667171
O O8 0.500000 0.500000 0.000000
O O9 0.500000 0.000000 0.000000
O O10 0.159483 0.053008 0.633608
O O11 0.209134 0.096061 0.955887
O O12 0.216333 0.913544 0.501468
O O13 0.096059 0.495272 0.247806
O O14 0.031696 0.973593 0.201095
O O15 0.728311 0.424462 0.657414
O O16 0.848875 0.041845 0.803786
O O17 0.872530 0.800763 0.965380
#
# Coordination Sequence:
#
# PCOD9009962 Si02
#       8
#     2   2   2   2   2   2   2   2
#     4  10  23  39  61  90 129 176 226 266 334 407
#     4  10  21  40  61  87 129 174 220 266 335 406
#     4  12  29  42  68 106 141 180 230 285 344 408
#     4  11  22  39  65  94 129 175 215 286 335 410
#     4  10  23  41  68  96 126 168 229 279 348 404
#     4  11  23  43  68  90 137 174 227 275 343 404
#     4  10  23  39  63  95 128 176 218 275 348 403
#     4  10  22  43  67  94 127 172 222 286 340 411
#
# _framework density 22.359463000000002
#
# number of rings (size 3 to 8) (size 9 to 14) (size 15 to 20)
#    0.000    1.500    0.000    3.750   10.500    1.500 
#    0.000    2.500    0.000    0.000    0.000    0.000 
#    0.000    0.000    0.000    0.000    0.000    0.000 
#
# Total GULP energy -89405.305147 kJ/mol
# GULP energy per Si atom -5587.831572 kJ/mol
# Density = 2.230857 g / cm^3
# Si number density = 22.359463 Si / 1000 Ang^3
#
#
#
# Elastic Constant Matrix: (Units=GPa)
#
#
# Indices 1 2 3 4 5 6 
#
# 1 78.5544 7.0360 43.2402 7.9869 -2.0407 -6.6857
# 2 7.0360 87.0364 6.7745 3.9706 4.5335 -15.3664
# 3 43.2402 6.7745 86.9675 0.9396 -1.8523 -4.9958
# 4 7.9869 3.9706 0.9396 24.3690 -0.2504 -2.5173
# 5 -2.0407 4.5335 -1.8523 -0.2504 30.5397 -0.1200
# 6 -6.6857 -15.3664 -4.9958 -2.5173 -0.1200 32.0291
#
#
#
# Elastic Compliance Matrix: (Units=1/GPa)
#
#
# Indices 1 2 3 4 5 6 
#
# 1 0.018414 -0.000243 -0.008954 -0.005447 0.000686 0.001905
# 2 -0.000243 0.012752 -0.000562 -0.001391 -0.001932 0.005863
# 3 -0.008954 -0.000562 0.016009 0.002471 0.000479 0.000554
# 4 -0.005447 -0.001391 0.002471 0.043160 0.000354 0.001975
# 5 0.000686 -0.001932 0.000479 0.000354 0.033107 -0.000557
# 6 0.001905 0.005863 0.000554 0.001975 -0.000557 0.034672
#
#
# Mechanical properties :
#
#
# Convention : Reuss Voigt Hill
#
# Bulk Modulus (GPa) = 36.15472 40.73999 38.44736
# Shear Modulus (GPa) = 26.75945 30.42140 28.59043
#
# Velocity S-wave (km/s) = 3.46321 3.69258 3.57973
# Velocity P-wave (km/s) = 5.67421 6.03657 5.85819
#
# Compressibility (1/GPa) = 0.02765891
#
# Stress axis : x y z
#
# Youngs Moduli (GPa) = 54.30639 78.41910 62.46320
#
# Poissons Ratio (x) = 0.01902 0.55927
# Poissons Ratio (y) = 0.01317 0.03511
# Poissons Ratio (z) = 0.48624 0.04408
#
# Static dielectric constant tensor:
#      x y z
#    x 1.860850 0.022670 -0.003270 
#    y 0.022670 1.854470 -0.022550 
#    z -0.003270 -0.022550 1.836990 
# 
# From -- ./inp_files/39248.got.cif
#   From: 2010.05.17/outbox.cif.g08.bks.cpg/sg2_20_cif.got.tgz:39248.got - 2010.06.03 11:33:40.
