data_PCOD9009112
_publ_section_title
;
Structure prediction by ZEFSAII (Michael W. Deem and Ramdas Pophale) SiO2 
 PCOD9009112
Probable space group: P -1
;
_chemical_formula_sum "Si O2"
_cell_formula_units_Z 14
_cell_length_a 11.780445
_cell_length_b 24.789036
_cell_length_c 5.367939
_cell_angle_alpha 67.983549
_cell_angle_beta 88.733278
_cell_angle_gamma 31.585726
_cell_volume 601.916082
_symmetry_space_group_name_H-M "P -1"
_symmetry_group_IT_number 2
_symmetry_cell_setting 'triclinic'
loop_
_space_group_symop_operation_xyz
x,y,z
-x,-y,-z
loop_
_atom_site_type_symbol
_atom_site_label
_atom_site_fract_x
_atom_site_fract_y
_atom_site_fract_z
Si Si1 0.537420 0.159425 0.565575
Si Si2 0.798554 0.839580 0.172686
Si Si3 0.034158 0.855146 0.069240
Si Si4 0.618859 0.582492 0.791029
Si Si5 0.883430 0.726694 0.858903
Si Si6 0.654472 0.222567 0.169727
Si Si7 0.246773 0.369307 0.540707
O O1 0.371651 0.198945 0.301990
O O2 0.658004 0.166488 0.459772
O O3 0.294432 0.286209 0.554112
O O4 0.779836 0.008664 0.933626
O O5 0.898090 0.762669 0.555681
O O6 0.953999 0.825681 0.107010
O O7 0.827687 0.784537 0.024230
O O8 0.500000 0.000000 0.000000
O O9 0.320112 0.722518 0.433400
O O10 0.074172 0.872640 0.779138
O O11 0.531628 0.634055 0.992346
O O12 0.769666 0.573362 0.762481
O O13 0.822969 0.442470 0.894432
O O14 0.516300 0.255691 0.885644
O O15 0.000000 0.500000 0.500000
#
# Coordination Sequence:
#
# PCOD9009112 Si02
#       7
#     2   2   2   2   2   2   2
#     4  11  24  42  73 107 141 192 239 302 364 434
#     4  12  29  51  76 109 142 192 252 303 355 427
#     4  11  26  45  70 100 150 185 246 301 362 430
#     4  10  25  43  68 106 143 190 234 303 361 437
#     4  12  28  48  80 106 145 193 248 295 367 424
#     4  10  23  41  68 104 145 186 240 291 373 427
#     4  10  21  39  67 104 146 183 238 295 364 435
#
# _framework density 23.259056000000001
#
# number of rings (size 3 to 8) (size 9 to 14) (size 15 to 20)
#    0.000    1.143    1.429    2.571   10.000    9.714 
#    0.000    0.000    0.000    0.000    0.000    0.000 
#    0.000    0.000    0.000    0.000    0.000    0.000 
#
# Total GULP energy -78009.412405 kJ/mol
# GULP energy per Si atom -5572.100886 kJ/mol
# Density = 2.320612 g / cm^3
# Si number density = 23.259056 Si / 1000 Ang^3
#
#
#
# Elastic Constant Matrix: (Units=GPa)
#
#
# Indices 1 2 3 4 5 6 
#
# 1 137.3277 44.6079 31.1810 -2.4932 -3.4285 1.5893
# 2 44.6079 131.3233 45.5619 -10.1047 -10.8857 29.9683
# 3 31.1810 45.5619 95.4067 -21.1900 -4.9158 15.7615
# 4 -2.4932 -10.1047 -21.1900 44.4680 0.6955 -1.4541
# 5 -3.4285 -10.8857 -4.9158 0.6955 26.9916 -1.1338
# 6 1.5893 29.9683 15.7615 -1.4541 -1.1338 36.0129
#
#
#
# Elastic Compliance Matrix: (Units=1/GPa)
#
#
# Indices 1 2 3 4 5 6 
#
# 1 0.008685 -0.002998 -0.002171 -0.001125 -0.000346 0.003005
# 2 -0.002998 0.011923 -0.002978 0.000794 0.003514 -0.008343
# 3 -0.002171 -0.002978 0.014579 0.006020 0.000875 -0.003536
# 4 -0.001125 0.000794 0.006020 0.025394 0.000527 -0.002204
# 5 -0.000346 0.003514 0.000875 0.000527 0.038481 -0.002059
# 6 0.003005 -0.008343 -0.003536 -0.002204 -0.002059 0.035972
#
#
# Mechanical properties :
#
#
# Convention : Reuss Voigt Hill
#
# Bulk Modulus (GPa) = 52.92995 67.41769 60.17382
# Shear Modulus (GPa) = 31.72084 37.67496 34.69790
#
# Velocity S-wave (km/s) = 3.69698 4.02904 3.86658
# Velocity P-wave (km/s) = 6.40544 7.11988 6.77209
#
# Compressibility (1/GPa) = 0.01889290
#
# Stress axis : x y z
#
# Youngs Moduli (GPa) = 115.14469 83.87342 68.58985
#
# Poissons Ratio (x) = 0.25145 0.14890
# Poissons Ratio (y) = 0.34519 0.20427
# Poissons Ratio (z) = 0.24997 0.24979
#
# Static dielectric constant tensor:
#      x y z
#    x 1.905630 -0.064380 -0.017680 
#    y -0.064380 1.708820 0.023390 
#    z -0.017680 0.023390 1.941050 
# 
# From -- ./inp_files/68165.got.cif
#   From: 2010.05.17/outbox.cif.g08.bks.cpg/sg2_35_cif.got.tgz:68165.got - 2010.06.03 11:33:40.
