data_PCOD9009054
_publ_section_title
;
Structure prediction by ZEFSAII (Michael W. Deem and Ramdas Pophale) SiO2 
 PCOD9009054
Probable space group: P -1
;
_chemical_formula_sum "Si O2"
_cell_formula_units_Z 13
_cell_length_a 14.514244
_cell_length_b 7.876091
_cell_length_c 9.136102
_cell_angle_alpha 46.802930
_cell_angle_beta 49.603904
_cell_angle_gamma 67.477639
_cell_volume 576.385635
_symmetry_space_group_name_H-M "P -1"
_symmetry_group_IT_number 2
_symmetry_cell_setting 'triclinic'
loop_
_space_group_symop_operation_xyz
x,y,z
-x,-y,-z
loop_
_atom_site_type_symbol
_atom_site_label
_atom_site_fract_x
_atom_site_fract_y
_atom_site_fract_z
Si Si1 0.539246 0.716826 0.225831
Si Si2 0.500000 0.000000 0.500000
Si Si3 0.033840 0.244704 0.901553
Si Si4 0.264534 0.057880 0.897741
Si Si5 0.913661 0.269257 0.565348
Si Si6 0.602340 0.868460 0.776863
Si Si7 0.872627 0.059399 0.416329
O O1 0.500000 0.500000 0.500000
O O2 0.664728 0.838590 0.092325
O O3 0.437712 0.893059 0.248655
O O4 0.560602 0.673162 0.058115
O O5 0.365694 0.037149 0.684364
O O6 0.532986 0.860123 0.700680
O O7 0.164212 0.225479 0.853830
O O8 0.043850 0.459046 0.654210
O O9 0.928434 0.250589 0.127859
O O10 0.000000 0.000000 0.000000
O O11 0.189564 0.811336 0.163066
O O12 0.862543 0.184659 0.508171
O O13 0.026005 0.120009 0.566211
O O14 0.746604 0.917167 0.582281
#
# Coordination Sequence:
#
# PCOD9009054 Si02
#       7
#     2   1   2   2   2   2   2
#     4  10  22  38  64  96 126 177 223 275 328 393
#     4  10  22  42  64  94 132 178 216 284 330 412
#     4  11  24  40  64  99 137 175 216 278 351 405
#     4  10  22  41  63  92 131 173 228 267 338 397
#     4  10  22  41  66  95 136 173 225 281 330 403
#     4  10  21  40  63  91 135 168 227 271 334 395
#     4  10  21  39  66  99 129 178 226 274 333 405
#
# _framework density 22.554345000000001
#
# number of rings (size 3 to 8) (size 9 to 14) (size 15 to 20)
#    0.000    1.846    1.538    1.385    2.154    3.692 
#    0.000   10.000    0.000    0.000    0.000    0.000 
#    0.000    0.000    0.000    0.000    0.000    0.000 
#
# Total GULP energy -72411.627426 kJ/mol
# GULP energy per Si atom -5570.125187 kJ/mol
# Density = 2.250301 g / cm^3
# Si number density = 22.554345 Si / 1000 Ang^3
#
#
#
# Elastic Constant Matrix: (Units=GPa)
#
#
# Indices 1 2 3 4 5 6 
#
# 1 99.5480 -2.4538 27.7768 4.3554 6.1099 -1.3454
# 2 -2.4538 36.0466 37.9894 5.6887 -1.4655 3.0074
# 3 27.7768 37.9894 186.0528 11.1850 25.3351 -3.2104
# 4 4.3554 5.6887 11.1850 45.7149 2.0474 -2.7020
# 5 6.1099 -1.4655 25.3351 2.0474 36.8211 8.8193
# 6 -1.3454 3.0074 -3.2104 -2.7020 8.8193 18.9399
#
#
#
# Elastic Compliance Matrix: (Units=1/GPa)
#
#
# Indices 1 2 3 4 5 6 
#
# 1 0.010781 0.003228 -0.002215 -0.000900 -0.000030 -0.000237
# 2 0.003228 0.041490 -0.010591 -0.004271 0.012088 -0.014392
# 3 -0.002215 -0.010591 0.009057 0.000066 -0.007907 0.006751
# 4 -0.000900 -0.004271 0.000066 0.022891 -0.002556 0.005081
# 5 -0.000030 0.012088 -0.007907 -0.002556 0.038375 -0.021496
# 6 -0.000237 -0.014392 0.006751 0.005081 -0.021496 0.066946
#
#
# Mechanical properties :
#
#
# Convention : Reuss Voigt Hill
#
# Bulk Modulus (GPa) = 23.71181 49.80801 36.75991
# Shear Modulus (GPa) = 22.44651 37.51752 29.98201
#
# Velocity S-wave (km/s) = 3.15813 4.08294 3.64994
# Velocity P-wave (km/s) = 4.88205 6.66023 5.83922
#
# Compressibility (1/GPa) = 0.04217307
#
# Stress axis : x y z
#
# Youngs Moduli (GPa) = 92.75634 24.10232 110.40960
#
# Poissons Ratio (x) = -0.07781 0.24452
# Poissons Ratio (y) = -0.29946 1.16937
# Poissons Ratio (z) = 0.20542 0.25527
#
# Static dielectric constant tensor:
#      x y z
#    x 1.848750 0.041140 0.038140 
#    y 0.041140 1.857530 0.001690 
#    z 0.038140 0.001690 1.890080 
# 
# From -- ./inp_files/59109.got.cif
#   From: 2010.05.17/outbox.cif.g08.bks.cpg/sg2_30_cif.got.tgz:59109.got - 2010.06.03 11:33:40.
