data_PCOD9009274
_publ_section_title
;
Structure prediction by ZEFSAII (Michael W. Deem and Ramdas Pophale) SiO2 
 PCOD9009274
Probable space group: P -1
;
_chemical_formula_sum "Si O2"
_cell_formula_units_Z 15
_cell_length_a 11.533702
_cell_length_b 11.531112
_cell_length_c 11.191670
_cell_angle_alpha 37.823962
_cell_angle_beta 126.216399
_cell_angle_gamma 139.715409
_cell_volume 589.927585
_symmetry_space_group_name_H-M "P -1"
_symmetry_group_IT_number 2
_symmetry_cell_setting 'triclinic'
loop_
_space_group_symop_operation_xyz
x,y,z
-x,-y,-z
loop_
_atom_site_type_symbol
_atom_site_label
_atom_site_fract_x
_atom_site_fract_y
_atom_site_fract_z
Si Si1 0.329497 0.072858 0.802932
Si Si2 0.919680 0.644581 0.306923
Si Si3 0.426974 0.801725 0.514888
Si Si4 0.264519 0.617264 0.147701
Si Si5 0.282594 0.264796 0.285963
Si Si6 0.500000 0.500000 0.000000
Si Si7 0.723036 0.979855 0.902348
Si Si8 0.906239 0.767569 0.468416
O O1 0.542622 0.232260 0.790925
O O2 0.241843 0.197975 0.605123
O O3 0.243615 0.808119 0.922658
O O4 0.290561 0.038903 0.949096
O O5 0.717147 0.443234 0.301650
O O6 0.888841 0.713861 0.360736
O O7 0.000000 0.500000 0.500000
O O8 0.069160 0.864438 0.140123
O O9 0.563025 0.766385 0.563036
O O10 0.500000 0.000000 0.500000
O O11 0.342638 0.869979 0.309844
O O12 0.275995 0.460630 0.185846
O O13 0.118604 0.441312 0.299962
O O14 0.327653 0.325310 0.125451
O O15 0.096411 0.014289 0.398864
O O16 0.589934 0.722398 0.972943
#
# Coordination Sequence:
#
# PCOD9009274 Si02
#       8
#     2   2   2   2   2   1   2   2
#     4  11  26  45  72 100 133 185 229 288 339 403
#     4  10  21  39  67  99 134 174 225 278 338 404
#     4  11  22  41  69  97 137 179 221 279 346 409
#     4  11  25  47  68  98 137 177 238 280 338 410
#     4  12  25  45  69 100 137 183 224 282 348 406
#     4  12  22  44  66 102 146 168 224 284 344 416
#     4  11  23  44  68 103 137 174 228 283 343 405
#     4  12  25  46  68 102 138 181 232 280 343 408
#
# _framework density 25.426848
#
# number of rings (size 3 to 8) (size 9 to 14) (size 15 to 20)
#    0.000    0.800    4.000    4.000    0.000    4.267 
#    2.400    0.000    0.000    0.000    0.000    0.000 
#    0.000    0.000    0.000    0.000    0.000    0.000 
#
# Total GULP energy -83843.651777 kJ/mol
# GULP energy per Si atom -5589.576785 kJ/mol
# Density = 2.536898 g / cm^3
# Si number density = 25.426848 Si / 1000 Ang^3
#
#
#
# Elastic Constant Matrix: (Units=GPa)
#
#
# Indices 1 2 3 4 5 6 
#
# 1 98.3466 24.7857 6.4014 -13.7567 5.5500 -15.8481
# 2 24.7857 87.8768 2.2721 -37.4367 -7.3045 -10.6527
# 3 6.4014 2.2721 81.6217 -15.4709 7.4747 -3.5525
# 4 -13.7567 -37.4367 -15.4709 43.0947 0.5334 -8.7710
# 5 5.5500 -7.3045 7.4747 0.5334 55.9216 -2.9210
# 6 -15.8481 -10.6527 -3.5525 -8.7710 -2.9210 39.8299
#
#
#
# Elastic Compliance Matrix: (Units=1/GPa)
#
#
# Indices 1 2 3 4 5 6 
#
# 1 0.011903 -0.001132 0.000179 0.003961 -0.001117 0.005240
# 2 -0.001132 0.023379 0.004177 0.023777 0.002988 0.011630
# 3 0.000179 0.004177 0.014279 0.009747 -0.001238 0.004518
# 4 0.003961 0.023777 0.009747 0.052787 0.001981 0.020574
# 5 -0.001117 0.002988 -0.001238 0.001981 0.018637 0.002047
# 6 0.005240 0.011630 0.004518 0.020574 0.002047 0.035386
#
#
# Mechanical properties :
#
#
# Convention : Reuss Voigt Hill
#
# Bulk Modulus (GPa) = 17.85436 37.19596 27.52516
# Shear Modulus (GPa) = 29.65744 43.39495 36.52619
#
# Velocity S-wave (km/s) = 3.41894 4.13565 3.79426
# Velocity P-wave (km/s) = 4.75633 6.12088 5.48123
#
# Compressibility (1/GPa) = 0.05600873
#
# Stress axis : x y z
#
# Youngs Moduli (GPa) = 84.01070 42.77397 70.03409
#
# Poissons Ratio (x) = 0.04844 -0.01254
# Poissons Ratio (y) = 0.09514 -0.29256
# Poissons Ratio (z) = -0.01504 -0.17868
#
# Static dielectric constant tensor:
#      x y z
#    x 1.690120 -0.539690 -0.361460 
#    y -0.539690 0.889520 -0.791380 
#    z -0.361460 -0.791380 1.460880 
# 
# From -- ./inp_files/425125.got.cif
#   From: 2010.05.17/outbox.cif.g08.bks.cpg/sg2_213_cif.got.tgz:425125.got - 2010.06.03 11:33:40.
