data_PCOD9009902
_publ_section_title
;
Structure prediction by ZEFSAII (Michael W. Deem and Ramdas Pophale) SiO2 
 PCOD9009902
Probable space group: P -1
;
_chemical_formula_sum "Si O2"
_cell_formula_units_Z 15
_cell_length_a 18.741929
_cell_length_b 9.506840
_cell_length_c 15.209700
_cell_angle_alpha 48.071807
_cell_angle_beta 159.990570
_cell_angle_gamma 140.432611
_cell_volume 570.742323
_symmetry_space_group_name_H-M "P -1"
_symmetry_group_IT_number 2
_symmetry_cell_setting 'triclinic'
loop_
_space_group_symop_operation_xyz
x,y,z
-x,-y,-z
loop_
_atom_site_type_symbol
_atom_site_label
_atom_site_fract_x
_atom_site_fract_y
_atom_site_fract_z
Si Si1 0.706212 0.120839 0.525861
Si Si2 0.705038 0.591889 0.619782
Si Si3 0.000000 0.000000 0.500000
Si Si4 0.136616 0.361111 0.817700
Si Si5 0.881326 0.346159 0.808287
Si Si6 0.594153 0.213552 0.833619
Si Si7 0.757211 0.159695 0.297476
Si Si8 0.603087 0.483047 0.220137
O O1 0.713990 0.152804 0.624483
O O2 0.715222 0.333931 0.404347
O O3 0.982053 0.189789 0.789401
O O4 0.492715 0.905838 0.313674
O O5 0.500000 0.500000 0.500000
O O6 0.726062 0.425884 0.647807
O O7 0.604053 0.722679 0.397302
O O8 0.973204 0.715281 0.928667
O O9 0.138258 0.950684 0.597841
O O10 0.792665 0.727493 0.377641
O O11 0.235647 0.628017 0.827273
O O12 0.953185 0.264906 0.561307
O O13 0.369056 0.348081 0.069985
O O14 0.117987 0.571508 0.935605
O O15 0.514297 0.013616 0.895551
O O16 0.500000 0.500000 0.000000
#
# Coordination Sequence:
#
# PCOD9009902 Si02
#       8
#     2   2   1   2   2   2   2   2
#     4  11  25  41  63  97 127 169 221 253 310 384
#     4   9  21  45  71  96 130 159 198 267 324 381
#     4  12  24  36  64  92 118 180 222 258 312 378
#     4  10  21  43  58  82 137 170 203 271 306 351
#     4  10  23  44  68  96 128 162 205 262 324 383
#     4  10  23  41  67  95 129 167 207 268 314 375
#     4  10  21  40  60  93 125 167 223 255 309 375
#     4  12  24  40  59  85 129 173 216 270 308 352
#
# _framework density 26.281563999999999
#
# number of rings (size 3 to 8) (size 9 to 14) (size 15 to 20)
#    0.000    1.600    2.667    1.600    3.733    6.400 
#    0.000    6.000    0.000    0.000    0.000    0.000 
#    0.000    0.000    0.000    0.000    0.000    0.000 
#
# Total GULP energy -83667.248173 kJ/mol
# GULP energy per Si atom -5577.816545 kJ/mol
# Density = 2.622175 g / cm^3
# Si number density = 26.281564 Si / 1000 Ang^3
#
#
#
# Elastic Constant Matrix: (Units=GPa)
#
#
# Indices 1 2 3 4 5 6 
#
# 1 145.1231 32.9279 42.7716 7.8233 17.3027 -25.2991
# 2 32.9279 88.3114 21.9230 8.2707 2.3821 -31.4984
# 3 42.7716 21.9230 61.2678 8.9272 3.4716 -11.8173
# 4 7.8233 8.2707 8.9272 42.1914 2.7439 1.0673
# 5 17.3027 2.3821 3.4716 2.7439 37.4328 13.3803
# 6 -25.2991 -31.4984 -11.8173 1.0673 13.3803 58.4436
#
#
#
# Elastic Compliance Matrix: (Units=1/GPa)
#
#
# Indices 1 2 3 4 5 6 
#
# 1 0.010118 -0.000721 -0.005654 -0.000281 -0.005561 0.004127
# 2 -0.000721 0.015569 -0.002964 -0.002294 -0.003162 0.008245
# 3 -0.005654 -0.002964 0.021757 -0.003040 0.000937 0.000195
# 4 -0.000281 -0.002294 -0.003040 0.024934 -0.000438 -0.002328
# 5 -0.005561 -0.003162 0.000937 -0.000438 0.033578 -0.011601
# 6 0.004127 0.008245 0.000195 -0.002328 -0.011601 0.026079
#
#
# Mechanical properties :
#
#
# Convention : Reuss Voigt Hill
#
# Bulk Modulus (GPa) = 34.76183 54.43860 44.60021
# Shear Modulus (GPa) = 31.19129 40.75222 35.97175
#
# Velocity S-wave (km/s) = 3.44875 3.94204 3.70362
# Velocity P-wave (km/s) = 5.39573 6.44035 5.94105
#
# Compressibility (1/GPa) = 0.02876719
#
# Stress axis : x y z
#
# Youngs Moduli (GPa) = 98.83253 64.22915 45.96287
#
# Poissons Ratio (x) = 0.04631 0.25985
# Poissons Ratio (y) = 0.07126 0.13623
# Poissons Ratio (z) = 0.55875 0.19037
#
# Static dielectric constant tensor:
#      x y z
#    x 2.147710 0.082580 -0.010970 
#    y 0.082580 2.114430 -0.015110 
#    z -0.010970 -0.015110 2.061320 
# 
# From -- ./inp_files/577290.got.cif
#   From: 2010.05.17/outbox.cif.g08.bks.cpg/sg2_289_cif.got.tgz:577290.got - 2010.06.03 11:33:40.
