data_PCOD9009395
_publ_section_title
;
Structure prediction by ZEFSAII (Michael W. Deem and Ramdas Pophale) SiO2 
 PCOD9009395
Probable space group: P -1
;
_chemical_formula_sum "Si O2"
_cell_formula_units_Z 16
_cell_length_a 8.411837
_cell_length_b 8.831851
_cell_length_c 20.052501
_cell_angle_alpha 56.993737
_cell_angle_beta 33.880102
_cell_angle_gamma 63.685753
_cell_volume 696.311274
_symmetry_space_group_name_H-M "P -1"
_symmetry_group_IT_number 2
_symmetry_cell_setting 'triclinic'
loop_
_space_group_symop_operation_xyz
x,y,z
-x,-y,-z
loop_
_atom_site_type_symbol
_atom_site_label
_atom_site_fract_x
_atom_site_fract_y
_atom_site_fract_z
Si Si1 0.798153 0.292641 0.217343
Si Si2 0.029043 0.990820 0.877283
Si Si3 0.833134 0.676660 0.538458
Si Si4 0.201118 0.573210 0.060884
Si Si5 0.606502 0.020424 0.125753
Si Si6 0.930512 0.042646 0.358406
Si Si7 0.863750 0.648469 0.291874
Si Si8 0.193865 0.709475 0.530010
O O1 0.485477 0.372165 0.315298
O O2 0.848057 0.158879 0.294896
O O3 0.048580 0.442417 0.093146
O O4 0.826312 0.170155 0.172203
O O5 0.980980 0.156397 0.803630
O O6 0.251992 0.064471 0.838043
O O7 0.743556 0.942241 0.029313
O O8 0.924033 0.490290 0.360743
O O9 0.000000 0.500000 0.500000
O O10 0.014150 0.764654 0.515151
O O11 0.979643 0.574073 0.199312
O O12 0.500000 0.500000 0.000000
O O13 0.273239 0.773757 0.963864
O O14 0.270856 0.021922 0.243896
O O15 0.839821 0.155505 0.428515
O O16 0.808431 0.837571 0.454198
O O17 0.526641 0.683753 0.404379
#
# Coordination Sequence:
#
# PCOD9009395 Si02
#       8
#     2   2   2   2   2   2   2   2
#     4  12  25  43  69 100 138 175 224 282 334 394
#     4  10  23  40  67 100 135 172 224 280 332 394
#     4  12  28  42  66 105 139 169 221 286 337 390
#     4  11  21  43  66  95 130 176 226 273 329 399
#     4  10  22  44  69  96 132 184 220 271 334 401
#     4  12  24  45  70  95 138 181 223 266 340 407
#     4  10  21  39  68  96 131 176 227 267 330 404
#     4  11  22  41  69  94 130 184 223 269 331 403
#
# _framework density 22.97823
#
# number of rings (size 3 to 8) (size 9 to 14) (size 15 to 20)
#    0.000    1.000    2.500    3.750    3.500    3.000 
#    0.000    1.250    0.000    0.000    0.000    0.000 
#    0.000    0.000    0.000    0.000    0.000    0.000 
#
# Total GULP energy -89523.701667 kJ/mol
# GULP energy per Si atom -5595.231354 kJ/mol
# Density = 2.292593 g / cm^3
# Si number density = 22.978230 Si / 1000 Ang^3
#
#
#
# Elastic Constant Matrix: (Units=GPa)
#
#
# Indices 1 2 3 4 5 6 
#
# 1 55.8687 4.0222 28.4502 13.5143 -7.4971 -8.4481
# 2 4.0222 76.7384 44.1869 16.7973 -5.6714 -8.8952
# 3 28.4502 44.1869 130.7768 21.5028 -14.8291 0.7596
# 4 13.5143 16.7973 21.5028 40.3774 -9.5098 3.5434
# 5 -7.4971 -5.6714 -14.8291 -9.5098 38.3859 -0.6500
# 6 -8.4481 -8.8952 0.7596 3.5434 -0.6500 31.2273
#
#
#
# Elastic Compliance Matrix: (Units=1/GPa)
#
#
# Indices 1 2 3 4 5 6 
#
# 1 0.023588 0.004568 -0.005342 -0.007348 0.001545 0.008678
# 2 0.004568 0.018728 -0.006299 -0.006694 -0.000306 0.007477
# 3 -0.005342 -0.006299 0.011336 -0.000827 0.002143 -0.003377
# 4 -0.007348 -0.006694 -0.000827 0.032313 0.005136 -0.007434
# 5 0.001545 -0.000306 0.002143 0.005136 0.028413 0.000287
# 6 0.008678 0.007477 -0.003377 -0.007434 0.000287 0.037433
#
#
# Mechanical properties :
#
#
# Convention : Reuss Voigt Hill
#
# Bulk Modulus (GPa) = 25.31286 46.30027 35.80656
# Shear Modulus (GPa) = 27.91352 34.44641 31.17997
#
# Velocity S-wave (km/s) = 3.48915 3.87601 3.68766
# Velocity P-wave (km/s) = 5.22228 6.34229 5.80934
#
# Compressibility (1/GPa) = 0.03950561
#
# Stress axis : x y z
#
# Youngs Moduli (GPa) = 42.39518 53.39511 88.21621
#
# Poissons Ratio (x) = -0.24392 0.47125
# Poissons Ratio (y) = -0.19367 0.55570
# Poissons Ratio (z) = 0.22647 0.33635
#
# Static dielectric constant tensor:
#      x y z
#    x 1.891620 -0.017330 0.036500 
#    y -0.017330 1.878490 -0.010810 
#    z 0.036500 -0.010810 1.841320 
# 
# From -- ./inp_files/587381.got.cif
#   From: 2010.05.17/outbox.cif.g08.bks.cpg/sg2_294_cif.got.tgz:587381.got - 2010.06.03 11:33:40.
