data_PCOD9009183
_publ_section_title
;
Structure prediction by ZEFSAII (Michael W. Deem and Ramdas Pophale) SiO2 
 PCOD9009183
Probable space group: P -1
;
_chemical_formula_sum "Si O2"
_cell_formula_units_Z 14
_cell_length_a 14.725815
_cell_length_b 6.806809
_cell_length_c 23.874345
_cell_angle_alpha 60.455688
_cell_angle_beta 161.369488
_cell_angle_gamma 122.275961
_cell_volume 645.632442
_symmetry_space_group_name_H-M "P -1"
_symmetry_group_IT_number 2
_symmetry_cell_setting 'triclinic'
loop_
_space_group_symop_operation_xyz
x,y,z
-x,-y,-z
loop_
_atom_site_type_symbol
_atom_site_label
_atom_site_fract_x
_atom_site_fract_y
_atom_site_fract_z
Si Si1 0.526739 0.386104 0.091338
Si Si2 0.557690 0.320685 0.432469
Si Si3 0.380300 0.835968 0.633608
Si Si4 0.458521 0.548183 0.146831
Si Si5 0.125026 0.831441 0.262486
Si Si6 0.867086 0.006585 0.359708
Si Si7 0.778506 0.308505 0.782045
O O1 0.529660 0.560747 0.120402
O O2 0.778674 0.247296 0.262801
O O3 0.500000 0.500000 0.000000
O O4 0.215761 0.199367 0.943342
O O5 0.631646 0.283500 0.416932
O O6 0.814661 0.297206 0.627992
O O7 0.438825 0.547057 0.340725
O O8 0.294117 0.099484 0.326219
O O9 0.382187 0.642005 0.708223
O O10 0.109723 0.952045 0.467463
O O11 0.672778 0.044706 0.779306
O O12 0.585485 0.792475 0.216474
O O13 0.113241 0.442341 0.970264
O O14 0.250380 0.717999 0.298497
O O15 0.000000 0.000000 0.500000
#
# Coordination Sequence:
#
# PCOD9009183 Si02
#       7
#     2   2   2   2   2   2   2
#     4  11  26  44  69  97 137 173 226 279 330 398
#     4  10  21  39  67  94 135 172 220 276 330 395
#     4  11  25  40  69 101 131 175 229 270 331 403
#     4  11  25  46  67  99 137 174 224 278 335 397
#     4   9  21  41  61  97 132 173 219 275 330 397
#     4  12  27  46  70  95 137 184 222 272 342 396
#     4  10  22  41  68  97 130 175 220 276 337 389
#
# _framework density 21.684163999999999
#
# number of rings (size 3 to 8) (size 9 to 14) (size 15 to 20)
#    0.000    1.429    1.429    2.143    6.000    1.143 
#    5.143    0.000    0.000    0.000    0.000    0.000 
#    0.000    0.000    0.000    0.000    0.000    0.000 
#
# Total GULP energy -78313.594897 kJ/mol
# GULP energy per Si atom -5593.828207 kJ/mol
# Density = 2.163481 g / cm^3
# Si number density = 21.684164 Si / 1000 Ang^3
#
#
#
# Elastic Constant Matrix: (Units=GPa)
#
#
# Indices 1 2 3 4 5 6 
#
# 1 97.0489 32.2943 19.0042 -17.2055 -10.2646 -6.3052
# 2 32.2943 88.9603 26.3048 5.1331 -10.6619 -13.8619
# 3 19.0042 26.3048 70.5697 -7.3778 -7.3240 -10.4357
# 4 -17.2055 5.1331 -7.3778 45.4476 -3.9149 5.6045
# 5 -10.2646 -10.6619 -7.3240 -3.9149 29.8181 -4.4198
# 6 -6.3052 -13.8619 -10.4357 5.6045 -4.4198 25.5502
#
#
#
# Elastic Compliance Matrix: (Units=1/GPa)
#
#
# Indices 1 2 3 4 5 6 
#
# 1 0.013368 -0.004507 -0.000991 0.005733 0.003468 -0.000209
# 2 -0.004507 0.015883 -0.003675 -0.004722 0.003744 0.007687
# 3 -0.000991 -0.003675 0.017163 0.002540 0.003611 0.004839
# 4 0.005733 -0.004722 0.002540 0.026069 0.003559 -0.005212
# 5 0.003468 0.003744 0.003611 0.003559 0.038953 0.010320
# 6 -0.000209 0.007687 0.004839 -0.005212 0.010320 0.048163
#
#
# Mechanical properties :
#
#
# Convention : Reuss Voigt Hill
#
# Bulk Modulus (GPa) = 35.62930 45.75393 40.69162
# Shear Modulus (GPa) = 26.69490 32.09490 29.39490
#
# Velocity S-wave (km/s) = 3.51248 3.85139 3.68583
# Velocity P-wave (km/s) = 5.73731 6.39715 6.07619
#
# Compressibility (1/GPa) = 0.02806679
#
# Stress axis : x y z
#
# Youngs Moduli (GPa) = 74.80652 62.96064 58.26454
#
# Poissons Ratio (x) = 0.28379 0.05776
# Poissons Ratio (y) = 0.33718 0.21411
# Poissons Ratio (z) = 0.07416 0.23137
#
# Static dielectric constant tensor:
#      x y z
#    x 1.781610 0.015050 0.016750 
#    y 0.015050 1.783710 0.040240 
#    z 0.016750 0.040240 1.793210 
# 
# From -- ./inp_files/85340.got.cif
#   From: 2010.05.17/outbox.cif.g08.bks.cpg/sg2_43_cif.got.tgz:85340.got - 2010.06.03 11:33:40.
