data_PCOD9009085
_publ_section_title
;
Structure prediction by ZEFSAII (Michael W. Deem and Ramdas Pophale) SiO2 
 PCOD9009085
Probable space group: P -1
;
_chemical_formula_sum "Si O2"
_cell_formula_units_Z 16
_cell_length_a 12.268185
_cell_length_b 8.416691
_cell_length_c 9.258862
_cell_angle_alpha 88.092314
_cell_angle_beta 79.682291
_cell_angle_gamma 128.681032
_cell_volume 721.010885
_symmetry_space_group_name_H-M "P -1"
_symmetry_group_IT_number 2
_symmetry_cell_setting 'triclinic'
loop_
_space_group_symop_operation_xyz
x,y,z
-x,-y,-z
loop_
_atom_site_type_symbol
_atom_site_label
_atom_site_fract_x
_atom_site_fract_y
_atom_site_fract_z
Si Si1 0.150624 0.159259 0.302260
Si Si2 0.137743 0.574006 0.618246
Si Si3 0.392503 0.040021 0.482159
Si Si4 0.157718 0.247369 0.633584
Si Si5 0.614933 0.738420 0.276602
Si Si6 0.130189 0.495735 0.284175
Si Si7 0.443993 0.292360 0.194055
Si Si8 0.544207 0.203833 0.910910
O O1 0.195272 0.226905 0.459642
O O2 0.099911 0.285456 0.258253
O O3 0.289092 0.219564 0.186569
O O4 0.015815 0.918708 0.326079
O O5 0.204721 0.469399 0.661756
O O6 0.113140 0.496850 0.460789
O O7 0.992413 0.493976 0.737718
O O8 0.238735 0.822457 0.570821
O O9 0.431525 0.228476 0.561995
O O10 0.406935 0.109523 0.312511
O O11 0.500000 0.000000 0.500000
O O12 0.227133 0.186033 0.729541
O O13 0.521155 0.503856 0.255069
O O14 0.576007 0.843001 0.171166
O O15 0.297894 0.671445 0.199942
O O16 0.541403 0.328881 0.036866
O O17 0.500000 0.000000 0.000000
#
# Coordination Sequence:
#
# PCOD9009085 Si02
#       8
#     2   2   2   2   2   2   2   2
#     4  10  21  39  67 101 133 177 223 277 338 406
#     4  10  22  38  67 103 133 173 222 285 339 391
#     4  12  24  39  69 104 137 171 227 290 340 388
#     4  10  22  39  69 102 136 170 227 285 339 391
#     4  12  24  44  67 102 134 178 235 284 328 402
#     4  10  21  40  65  95 135 174 228 271 336 407
#     4  12  25  42  71  97 139 183 226 274 346 410
#     4  12  27  45  68  99 139 184 223 278 348 416
#
# _framework density 22.191064999999998
#
# number of rings (size 3 to 8) (size 9 to 14) (size 15 to 20)
#    0.000    1.000    2.500    4.500    8.750    0.000 
#    0.000    0.625    2.750    3.000    0.000    0.000 
#    0.000    0.000    0.000    0.000    0.000    0.000 
#
# Total GULP energy -89335.709462 kJ/mol
# GULP energy per Si atom -5583.481841 kJ/mol
# Density = 2.214056 g / cm^3
# Si number density = 22.191065 Si / 1000 Ang^3
#
#
#
# Elastic Constant Matrix: (Units=GPa)
#
#
# Indices 1 2 3 4 5 6 
#
# 1 144.0665 13.9430 47.4191 -17.6665 -2.9638 -2.0254
# 2 13.9430 35.7214 12.9115 -11.4561 -0.0459 -1.4214
# 3 47.4191 12.9115 50.8027 -5.7274 -2.7318 -7.6536
# 4 -17.6665 -11.4561 -5.7274 22.9848 -5.3982 1.8227
# 5 -2.9638 -0.0459 -2.7318 -5.3982 38.2266 -4.6823
# 6 -2.0254 -1.4214 -7.6536 1.8227 -4.6823 26.6928
#
#
#
# Elastic Compliance Matrix: (Units=1/GPa)
#
#
# Indices 1 2 3 4 5 6 
#
# 1 0.010986 0.001561 -0.010160 0.007073 0.000841 -0.002332
# 2 0.001561 0.036136 -0.008763 0.017569 0.001855 -0.001344
# 3 -0.010160 -0.008763 0.032315 -0.004352 0.001958 0.008669
# 4 0.007073 0.017569 -0.004352 0.058743 0.008268 -0.002337
# 5 0.000841 0.001855 0.001958 0.008268 0.028159 0.005099
# 6 -0.002332 -0.001344 0.008669 -0.002337 0.005099 0.040754
#
#
# Mechanical properties :
#
#
# Convention : Reuss Voigt Hill
#
# Bulk Modulus (GPa) = 22.36477 42.12642 32.24559
# Shear Modulus (GPa) = 19.47640 28.00199 23.73919
#
# Velocity S-wave (km/s) = 2.96576 3.55612 3.27427
# Velocity P-wave (km/s) = 4.67202 5.99049 5.37186
#
# Compressibility (1/GPa) = 0.04471319
#
# Stress axis : x y z
#
# Youngs Moduli (GPa) = 91.02448 27.67325 30.94561
#
# Poissons Ratio (x) = -0.04319 0.31440
# Poissons Ratio (y) = -0.14206 0.27117
# Poissons Ratio (z) = 0.92478 0.24249
#
# Static dielectric constant tensor:
#      x y z
#    x 1.879400 -0.013690 0.025770 
#    y -0.013690 1.858860 -0.016300 
#    z 0.025770 -0.016300 1.812680 
# 
# From -- ./inp_files/243986.got.cif
#   From: 2010.05.17/outbox.cif.g08.bks.cpg/sg2_122_cif.got.tgz:243986.got - 2010.06.03 11:33:40.
