data_PCOD9009478
_publ_section_title
;
Structure prediction by ZEFSAII (Michael W. Deem and Ramdas Pophale) SiO2 
 PCOD9009478
Probable space group: P -1
;
_chemical_formula_sum "Si O2"
_cell_formula_units_Z 10
_cell_length_a 9.029607
_cell_length_b 5.404278
_cell_length_c 13.808767
_cell_angle_alpha 98.852769
_cell_angle_beta 137.338325
_cell_angle_gamma 72.706697
_cell_volume 433.816884
_symmetry_space_group_name_H-M "P -1"
_symmetry_group_IT_number 2
_symmetry_cell_setting 'triclinic'
loop_
_space_group_symop_operation_xyz
x,y,z
-x,-y,-z
loop_
_atom_site_type_symbol
_atom_site_label
_atom_site_fract_x
_atom_site_fract_y
_atom_site_fract_z
Si Si1 0.997518 0.547561 0.386298
Si Si2 0.380326 0.860314 0.207854
Si Si3 0.737518 0.839950 0.653635
Si Si4 0.444654 0.670685 0.633207
Si Si5 0.515033 0.770331 0.069550
O O1 0.758689 0.701631 0.236592
O O2 0.000000 0.500000 0.500000
O O3 0.081576 0.280919 0.347947
O O4 0.197774 0.686456 0.475664
O O5 0.210330 0.989955 0.221655
O O6 0.545090 0.051736 0.304997
O O7 0.493676 0.564373 0.275505
O O8 0.326243 0.857033 0.068951
O O9 0.347545 0.386116 0.346537
O O10 0.500000 0.000000 0.500000
O O11 0.500000 0.500000 0.000000
O O12 0.500000 0.000000 0.000000
#
# Coordination Sequence:
#
# PCOD9009478 Si02
#       5
#     2   2   2   2   2
#     4  12  23  43  74 110 131 183 234 288 341 409
#     4  10  22  42  68  95 141 176 217 280 347 397
#     4  10  21  39  69 107 139 170 223 296 346 397
#     4  10  21  39  69 103 136 163 230 282 346 386
#     4  12  28  48  66  99 147 185 227 284 346 407
#
# _framework density 23.051202
#
# number of rings (size 3 to 8) (size 9 to 14) (size 15 to 20)
#    1.200    0.000    4.000    1.800    0.000    4.000 
#    0.000    2.000    0.000    0.000    0.000    0.000 
#    0.000    0.000    0.000    0.000    0.000    0.000 
#
# Total GULP energy -55732.561421 kJ/mol
# GULP energy per Si atom -5573.256142 kJ/mol
# Density = 2.299874 g / cm^3
# Si number density = 23.051202 Si / 1000 Ang^3
#
#
#
# Elastic Constant Matrix: (Units=GPa)
#
#
# Indices 1 2 3 4 5 6 
#
# 1 94.2328 56.9539 58.8852 -10.1304 -43.8383 -18.6497
# 2 56.9539 121.0602 53.9604 -5.2261 -35.1606 15.1808
# 3 58.8852 53.9604 113.0161 -14.1126 -26.9067 -6.3658
# 4 -10.1304 -5.2261 -14.1126 41.9573 -7.9937 -10.6660
# 5 -43.8383 -35.1606 -26.9067 -7.9937 49.5241 9.7401
# 6 -18.6497 15.1808 -6.3658 -10.6660 9.7401 55.8684
#
#
#
# Elastic Compliance Matrix: (Units=1/GPa)
#
#
# Indices 1 2 3 4 5 6 
#
# 1 0.030342 -0.007040 -0.006262 0.010378 0.018137 0.010147
# 2 -0.007040 0.015079 -0.003336 -0.002223 0.003861 -0.007925
# 3 -0.006262 -0.003336 0.014171 0.003113 0.000092 0.001009
# 4 0.010378 -0.002223 0.003113 0.031639 0.012787 0.008234
# 5 0.018137 0.003861 0.000092 0.012787 0.041042 0.000302
# 6 0.010147 -0.007925 0.001009 0.008234 0.000302 0.025074
#
#
# Mechanical properties :
#
#
# Convention : Reuss Voigt Hill
#
# Bulk Modulus (GPa) = 38.00123 74.21203 56.10663
# Shear Modulus (GPa) = 25.07586 40.03728 32.55657
#
# Velocity S-wave (km/s) = 3.30181 4.17212 3.76221
# Velocity P-wave (km/s) = 5.57291 7.44802 6.57763
#
# Compressibility (1/GPa) = 0.02631494
#
# Stress axis : x y z
#
# Youngs Moduli (GPa) = 32.95811 66.31945 70.56493
#
# Poissons Ratio (x) = 0.46689 0.44189
# Poissons Ratio (y) = 0.23202 0.23541
# Poissons Ratio (z) = 0.20639 0.22124
#
# Static dielectric constant tensor:
#      x y z
#    x 1.993700 -0.056530 -0.049440 
#    y -0.056530 1.884910 0.032170 
#    z -0.049440 0.032170 1.901540 
# 
# From -- ./inp_files/130455.got.cif
#   From: 2010.05.17/outbox.cif.g08.bks.cpg/sg2_66_cif.got.tgz:130455.got - 2010.06.03 11:33:40.
