data_PCOD9009236
_publ_section_title
;
Structure prediction by ZEFSAII (Michael W. Deem and Ramdas Pophale) SiO2 
 PCOD9009236
Probable space group: P -1
;
_chemical_formula_sum "Si O2"
_cell_formula_units_Z 14
_cell_length_a 9.578267
_cell_length_b 9.868472
_cell_length_c 9.983804
_cell_angle_alpha 113.618841
_cell_angle_beta 83.693687
_cell_angle_gamma 136.481026
_cell_volume 570.451215
_symmetry_space_group_name_H-M "P -1"
_symmetry_group_IT_number 2
_symmetry_cell_setting 'triclinic'
loop_
_space_group_symop_operation_xyz
x,y,z
-x,-y,-z
loop_
_atom_site_type_symbol
_atom_site_label
_atom_site_fract_x
_atom_site_fract_y
_atom_site_fract_z
Si Si1 0.546347 0.562531 0.823549
Si Si2 0.025302 0.410349 0.584311
Si Si3 0.193696 0.247819 0.394593
Si Si4 0.244070 0.966863 0.346934
Si Si5 0.829286 0.499243 0.123168
Si Si6 0.735848 0.874315 0.163640
Si Si7 0.478363 0.944504 0.136531
O O1 0.640261 0.619846 0.690510
O O2 0.364455 0.543112 0.844180
O O3 0.441791 0.332692 0.801256
O O4 0.721624 0.760292 0.987853
O O5 0.962317 0.234982 0.804612
O O6 0.807848 0.162451 0.562635
O O7 0.000000 0.500000 0.500000
O O8 0.175209 0.389480 0.525578
O O9 0.241429 0.140102 0.434535
O O10 0.962771 0.047554 0.274348
O O11 0.439714 0.052322 0.280247
O O12 0.258723 0.673028 0.053263
O O13 0.881361 0.447891 0.232511
O O14 0.500000 0.000000 0.000000
O O15 0.664088 0.982509 0.176854
#
# Coordination Sequence:
#
# PCOD9009236 Si02
#       7
#     2   2   2   2   2   2   2
#     4  10  21  39  67  97 132 169 220 269 334 380
#     4  10  25  42  65  95 133 178 223 264 327 392
#     4  12  23  43  70  95 131 178 220 268 325 397
#     4  10  22  42  68  96 131 171 217 277 324 386
#     4   9  21  42  64  95 134 170 218 269 329 388
#     4  10  22  40  61 102 133 164 219 277 321 393
#     4  11  23  40  67  99 132 171 219 271 338 389
#
# _framework density 24.541975999999998
#
# number of rings (size 3 to 8) (size 9 to 14) (size 15 to 20)
#    0.857    0.857    1.429    3.000    4.000    0.571 
#    0.000    2.143    0.000    0.000    0.000    0.000 
#    0.000    0.000    0.000    0.000    0.000    0.000 
#
# Total GULP energy -78336.530796 kJ/mol
# GULP energy per Si atom -5595.466485 kJ/mol
# Density = 2.448612 g / cm^3
# Si number density = 24.541976 Si / 1000 Ang^3
#
#
#
# Elastic Constant Matrix: (Units=GPa)
#
#
# Indices 1 2 3 4 5 6 
#
# 1 106.8630 47.7014 36.0610 -6.1437 -8.7258 -31.4668
# 2 47.7014 99.7627 27.1747 -12.9128 -4.6220 -25.1684
# 3 36.0610 27.1747 67.0336 -0.8914 -3.2339 -7.0569
# 4 -6.1437 -12.9128 -0.8914 49.1619 7.8677 9.4074
# 5 -8.7258 -4.6220 -3.2339 7.8677 45.3308 -5.1442
# 6 -31.4668 -25.1684 -7.0569 9.4074 -5.1442 45.9546
#
#
#
# Elastic Compliance Matrix: (Units=1/GPa)
#
#
# Indices 1 2 3 4 5 6 
#
# 1 0.015725 -0.003800 -0.005885 -0.001297 0.003401 0.008429
# 2 -0.003800 0.014089 -0.003165 0.002269 0.000565 0.004227
# 3 -0.005885 -0.003165 0.019056 -0.000651 -0.000294 -0.002736
# 4 -0.001297 0.002269 -0.000651 0.022409 -0.004503 -0.004837
# 5 0.003401 0.000565 -0.000294 -0.004503 0.024240 0.006229
# 6 0.008429 0.004227 -0.002736 -0.004837 0.006229 0.031115
#
#
# Mechanical properties :
#
#
# Convention : Reuss Voigt Hill
#
# Bulk Modulus (GPa) = 43.15765 55.05928 49.10847
# Shear Modulus (GPa) = 31.23915 38.93760 35.08837
#
# Velocity S-wave (km/s) = 3.57162 3.98750 3.78528
# Velocity P-wave (km/s) = 5.88490 6.60936 6.25762
#
# Compressibility (1/GPa) = 0.02317086
#
# Stress axis : x y z
#
# Youngs Moduli (GPa) = 63.59387 70.97692 52.47755
#
# Poissons Ratio (x) = 0.26969 0.30881
# Poissons Ratio (y) = 0.24163 0.16609
# Poissons Ratio (z) = 0.37423 0.22465
#
# Static dielectric constant tensor:
#      x y z
#    x 1.902400 0.017870 0.002610 
#    y 0.017870 2.021880 0.065360 
#    z 0.002610 0.065360 1.995140 
# 
# From -- ./inp_files/212428.got.cif
#   From: 2010.05.17/outbox.cif.g08.bks.cpg/sg2_107_cif.got.tgz:212428.got - 2010.06.03 11:33:40.
