data_PCOD9009421
_publ_section_title
;
Structure prediction by ZEFSAII (Michael W. Deem and Ramdas Pophale) SiO2 
 PCOD9009421
Probable space group: P -1
;
_chemical_formula_sum "Si O2"
_cell_formula_units_Z 16
_cell_length_a 8.312057
_cell_length_b 21.534761
_cell_length_c 9.345186
_cell_angle_alpha 28.342591
_cell_angle_beta 101.195810
_cell_angle_gamma 113.667499
_cell_volume 676.872571
_symmetry_space_group_name_H-M "P -1"
_symmetry_group_IT_number 2
_symmetry_cell_setting 'triclinic'
loop_
_space_group_symop_operation_xyz
x,y,z
-x,-y,-z
loop_
_atom_site_type_symbol
_atom_site_label
_atom_site_fract_x
_atom_site_fract_y
_atom_site_fract_z
Si Si1 0.799687 0.927209 0.533931
Si Si2 0.502836 0.315328 0.518233
Si Si3 0.128629 0.139477 0.634822
Si Si4 0.444781 0.912944 0.844976
Si Si5 0.502544 0.328226 0.813041
Si Si6 0.807656 0.213392 0.381351
Si Si7 0.846747 0.374091 0.334560
Si Si8 0.106245 0.499387 0.374017
O O1 0.823083 0.910387 0.404540
O O2 0.706610 0.034194 0.310265
O O3 0.663721 0.764928 0.914642
O O4 0.000000 0.000000 0.500000
O O5 0.320325 0.252206 0.519221
O O6 0.558683 0.184011 0.821649
O O7 0.698455 0.428327 0.247451
O O8 0.461792 0.356260 0.585540
O O9 0.000246 0.211010 0.429115
O O10 0.000000 0.000000 0.000000
O O11 0.648255 0.059533 0.597876
O O12 0.435126 0.798154 0.955140
O O13 0.688254 0.477401 0.597306
O O14 0.754199 0.235091 0.489510
O O15 0.839570 0.351808 0.009352
O O16 0.963363 0.369762 0.503436
O O17 0.000000 0.500000 0.000000
O O18 0.000000 0.500000 0.500000
#
# Coordination Sequence:
#
# PCOD9009421 Si02
#       8
#     2   2   2   2   2   2   2   2
#     4  12  24  37  61  97 139 162 208 263 336 399
#     4  10  22  40  65  94 131 168 217 265 328 382
#     4  12  25  40  61  98 143 170 204 272 339 399
#     4  10  21  39  68  98 126 168 215 262 340 392
#     4  10  22  40  68  92 130 163 220 271 323 392
#     4  11  23  41  67  96 134 168 222 267 327 392
#     4  10  23  41  66  95 122 177 232 262 308 384
#     4  11  21  43  70  94 124 172 234 269 308 381
#
# _framework density 23.638127000000001
#
# number of rings (size 3 to 8) (size 9 to 14) (size 15 to 20)
#    0.750    0.500    3.750    2.625    5.250    1.000 
#    0.000    2.500    0.000    1.500    0.000    0.000 
#    0.000    0.000    0.000    0.000    0.000    0.000 
#
# Total GULP energy -89347.083457 kJ/mol
# GULP energy per Si atom -5584.192716 kJ/mol
# Density = 2.358433 g / cm^3
# Si number density = 23.638127 Si / 1000 Ang^3
#
#
#
# Elastic Constant Matrix: (Units=GPa)
#
#
# Indices 1 2 3 4 5 6 
#
# 1 88.7375 49.3917 16.8368 2.3149 -19.0817 16.3711
# 2 49.3917 162.6042 20.9420 18.7801 -14.1994 14.0617
# 3 16.8368 20.9420 48.3982 -1.4395 -16.5051 -9.4527
# 4 2.3149 18.7801 -1.4395 32.2704 -7.0750 -12.9508
# 5 -19.0817 -14.1994 -16.5051 -7.0750 45.1029 4.6662
# 6 16.3711 14.0617 -9.4527 -12.9508 4.6662 59.9873
#
#
#
# Elastic Compliance Matrix: (Units=1/GPa)
#
#
# Indices 1 2 3 4 5 6 
#
# 1 0.015676 -0.003596 -0.003070 0.000186 0.004846 -0.004256
# 2 -0.003596 0.008586 -0.003468 -0.006209 -0.000766 -0.002859
# 3 -0.003070 -0.003468 0.027691 0.008151 0.008283 0.007130
# 4 0.000186 -0.006209 0.008151 0.040759 0.006363 0.010994
# 5 0.004846 -0.000766 0.008283 0.006363 0.028077 -0.000648
# 6 -0.004256 -0.002859 0.007130 0.010994 -0.000648 0.022049
#
#
# Mechanical properties :
#
#
# Convention : Reuss Voigt Hill
#
# Bulk Modulus (GPa) = 31.56303 52.67564 42.11934
# Shear Modulus (GPa) = 28.79047 41.64342 35.21694
#
# Velocity S-wave (km/s) = 3.49373 4.20182 3.86403
# Velocity P-wave (km/s) = 5.44577 6.77296 6.14530
#
# Compressibility (1/GPa) = 0.03168263
#
# Stress axis : x y z
#
# Youngs Moduli (GPa) = 63.79261 116.46210 36.11334
#
# Poissons Ratio (x) = 0.41886 0.11088
# Poissons Ratio (y) = 0.22943 0.12525
# Poissons Ratio (z) = 0.19586 0.40393
#
# Static dielectric constant tensor:
#      x y z
#    x 1.998820 -0.039090 -0.075390 
#    y -0.039090 1.922940 0.016070 
#    z -0.075390 0.016070 2.112490 
# 
# From -- ./inp_files/223032.got.cif
#   From: 2010.05.17/outbox.cif.g08.bks.cpg/sg2_112_cif.got.tgz:223032.got - 2010.06.03 11:33:40.
