data_PCOD9010163
_publ_section_title
;
Structure prediction by ZEFSAII (Michael W. Deem and Ramdas Pophale) SiO2 
 PCOD9010163
Probable space group: P -1
;
_chemical_formula_sum "Si O2"
_cell_formula_units_Z 16
_cell_length_a 7.534780
_cell_length_b 15.027452
_cell_length_c 16.096847
_cell_angle_alpha 143.579904
_cell_angle_beta 100.032339
_cell_angle_gamma 54.612644
_cell_volume 703.853184
_symmetry_space_group_name_H-M "P -1"
_symmetry_group_IT_number 2
_symmetry_cell_setting 'triclinic'
loop_
_space_group_symop_operation_xyz
x,y,z
-x,-y,-z
loop_
_atom_site_type_symbol
_atom_site_label
_atom_site_fract_x
_atom_site_fract_y
_atom_site_fract_z
Si Si1 0.645987 0.672817 0.255690
Si Si2 0.966793 0.792657 0.981249
Si Si3 0.647130 0.940106 0.335763
Si Si4 0.483712 0.374401 0.152308
Si Si5 0.215835 0.099568 0.138283
Si Si6 0.384802 0.553786 0.622170
Si Si7 0.458870 0.169765 0.329405
Si Si8 0.837399 0.236959 0.709291
O O1 0.683718 0.758083 0.245321
O O2 0.435230 0.672489 0.212913
O O3 0.914604 0.430015 0.132939
O O4 0.507617 0.857466 0.457317
O O5 0.811711 0.861671 0.933320
O O6 0.236267 0.721567 0.929177
O O7 0.750077 0.003305 0.182641
O O8 0.945133 0.826135 0.258722
O O9 0.483836 0.044219 0.315366
O O10 0.443677 0.465315 0.309707
O O11 0.250866 0.580813 0.227519
O O12 0.545322 0.161456 0.009198
O O13 0.258407 0.225456 0.286697
O O14 0.929312 0.200840 0.215605
O O15 0.500000 0.500000 0.500000
O O16 0.379873 0.381676 0.515467
O O17 0.000000 0.000000 0.500000
#
# Coordination Sequence:
#
# PCOD9010163 Si02
#       8
#     2   2   2   2   2   2   2   2
#     4   9  20  40  63  90 119 176 207 261 318 386
#     4  10  21  40  63  84 129 165 208 252 321 383
#     4  10  21  40  62  89 130 160 220 263 315 370
#     4  10  21  41  65  89 121 171 213 252 317 390
#     4  11  23  41  62  92 129 164 206 257 324 383
#     4  11  22  41  64  92 126 162 212 261 313 376
#     4  12  24  39  61  98 127 161 206 270 316 368
#     4   9  18  38  63  88 118 167 215 250 312 380
#
# _framework density 22.732013999999999
#
# number of rings (size 3 to 8) (size 9 to 14) (size 15 to 20)
#    0.000    1.750    0.000    6.750    1.750    0.500 
#   11.250    1.250    0.000    0.000    0.000    0.000 
#    0.000    0.000    0.000    0.000    0.000    0.000 
#
# Total GULP energy -89483.530412 kJ/mol
# GULP energy per Si atom -5592.720651 kJ/mol
# Density = 2.268027 g / cm^3
# Si number density = 22.732014 Si / 1000 Ang^3
#
#
#
# Elastic Constant Matrix: (Units=GPa)
#
#
# Indices 1 2 3 4 5 6 
#
# 1 40.8826 17.3955 -0.1662 1.9211 0.2118 7.5055
# 2 17.3955 91.5226 26.6394 15.8580 -1.5902 12.7212
# 3 -0.1662 26.6394 59.6748 17.7385 10.2449 6.0843
# 4 1.9211 15.8580 17.7385 43.4808 6.8827 1.3190
# 5 0.2118 -1.5902 10.2449 6.8827 29.1373 2.8208
# 6 7.5055 12.7212 6.0843 1.3190 2.8208 35.8539
#
#
#
# Elastic Compliance Matrix: (Units=1/GPa)
#
#
# Indices 1 2 3 4 5 6 
#
# 1 0.027655 -0.005606 0.003278 -0.000195 -0.001201 -0.004255
# 2 -0.005606 0.014835 -0.006038 -0.003243 0.004055 -0.003265
# 3 0.003278 -0.006038 0.022575 -0.006042 -0.006706 -0.001625
# 4 -0.000195 -0.003243 -0.006042 0.027345 -0.004663 0.001578
# 5 -0.001201 0.004055 -0.006706 -0.004663 0.038290 -0.002890
# 6 -0.004255 -0.003265 -0.001625 0.001578 -0.002890 0.030385
#
#
# Mechanical properties :
#
#
# Convention : Reuss Voigt Hill
#
# Bulk Modulus (GPa) = 20.68959 31.09085 25.89022
# Shear Modulus (GPa) = 25.78264 31.57516 28.67890
#
# Velocity S-wave (km/s) = 3.37144 3.73100 3.55577
# Velocity P-wave (km/s) = 4.92715 5.68043 5.31714
#
# Compressibility (1/GPa) = 0.04833349
#
# Stress axis : x y z
#
# Youngs Moduli (GPa) = 36.15918 67.40646 44.29718
#
# Poissons Ratio (x) = 0.37789 -0.14519
# Poissons Ratio (y) = 0.20271 0.26745
# Poissons Ratio (z) = -0.11852 0.40698
#
# Static dielectric constant tensor:
#      x y z
#    x 1.868760 0.001100 -0.014390 
#    y 0.001100 1.804430 0.042950 
#    z -0.014390 0.042950 1.873540 
# 
# From -- ./inp_files/461413.got.cif
#   From: 2010.05.17/outbox.cif.g08.bks.cpg/sg2_231_cif.got.tgz:461413.got - 2010.06.03 11:33:40.
