data_PCOD9010191
_publ_section_title
;
Structure prediction by ZEFSAII (Michael W. Deem and Ramdas Pophale) SiO2 
 PCOD9010191
Probable space group: P -1
;
_chemical_formula_sum "Si O2"
_cell_formula_units_Z 16
_cell_length_a 17.411979
_cell_length_b 10.628573
_cell_length_c 8.991616
_cell_angle_alpha 53.575972
_cell_angle_beta 104.576839
_cell_angle_gamma 60.003100
_cell_volume 715.216577
_symmetry_space_group_name_H-M "P -1"
_symmetry_group_IT_number 2
_symmetry_cell_setting 'triclinic'
loop_
_space_group_symop_operation_xyz
x,y,z
-x,-y,-z
loop_
_atom_site_type_symbol
_atom_site_label
_atom_site_fract_x
_atom_site_fract_y
_atom_site_fract_z
Si Si1 0.121860 0.241969 0.065921
Si Si2 0.494732 0.828774 0.058318
Si Si3 0.229595 0.668838 0.286176
Si Si4 0.414995 0.203002 0.173809
Si Si5 0.976041 0.790104 0.710278
Si Si6 0.273730 0.148494 0.965189
Si Si7 0.945358 0.345046 0.697409
Si Si8 0.185743 0.726638 0.901307
O O1 0.087846 0.468308 0.956298
O O2 0.244788 0.059510 0.131008
O O3 0.978990 0.416071 0.789903
O O4 0.137739 0.092654 0.310674
O O5 0.641850 0.510023 0.412973
O O6 0.494430 0.845727 0.868251
O O7 0.500000 0.000000 0.000000
O O8 0.364311 0.964765 0.989503
O O9 0.169325 0.596712 0.350187
O O10 0.276147 0.589578 0.192348
O O11 0.094566 0.007220 0.987725
O O12 0.500000 0.000000 0.500000
O O13 0.351136 0.161124 0.081962
O O14 0.282965 0.517339 0.956670
O O15 0.063923 0.793012 0.816597
O O16 0.897395 0.981129 0.391341
O O17 0.119823 0.463982 0.611628
#
# Coordination Sequence:
#
# PCOD9010191 Si02
#       8
#     2   2   2   2   2   2   2   2
#     4  11  22  41  60 100 135 176 204 265 333 396
#     4  10  21  40  62  90 130 166 220 271 309 383
#     4  11  22  38  66  99 127 163 224 272 316 373
#     4  11  23  37  66  94 124 172 221 267 319 376
#     4  10  23  36  62  96 134 164 209 261 330 384
#     4  11  22  41  62  94 131 171 220 258 320 395
#     4  11  23  36  67  95 132 166 214 270 320 381
#     4  11  21  38  64  93 128 164 213 270 315 373
#
# _framework density 22.370847000000001
#
# number of rings (size 3 to 8) (size 9 to 14) (size 15 to 20)
#    0.000    1.250    5.000    2.625    3.500    0.000 
#    0.000    0.625    0.000    3.000    0.000    0.000 
#    0.000    0.000    0.000    0.000    0.000    0.000 
#
# Total GULP energy -89417.593395 kJ/mol
# GULP energy per Si atom -5588.599587 kJ/mol
# Density = 2.231993 g / cm^3
# Si number density = 22.370847 Si / 1000 Ang^3
#
#
#
# Elastic Constant Matrix: (Units=GPa)
#
#
# Indices 1 2 3 4 5 6 
#
# 1 91.5663 38.1529 18.8782 0.7759 -27.0078 -31.7788
# 2 38.1529 73.8917 28.5564 14.1956 -15.5703 -35.3238
# 3 18.8782 28.5564 102.4487 10.4058 -10.8506 -8.3224
# 4 0.7759 14.1956 10.4058 32.9511 -8.3638 0.5648
# 5 -27.0078 -15.5703 -10.8506 -8.3638 26.3463 10.2161
# 6 -31.7788 -35.3238 -8.3224 0.5648 10.2161 44.7407
#
#
#
# Elastic Compliance Matrix: (Units=1/GPa)
#
#
# Indices 1 2 3 4 5 6 
#
# 1 0.020275 -0.004506 -0.000724 0.005915 0.017090 0.006732
# 2 -0.004506 0.028701 -0.004539 -0.011252 -0.000408 0.018851
# 3 -0.000724 -0.004539 0.011266 -0.001087 0.001801 -0.002400
# 4 0.005915 -0.011252 -0.001087 0.039319 0.014849 -0.008772
# 5 0.017090 -0.000408 0.001801 0.014849 0.061495 -0.002077
# 6 0.006732 0.018851 -0.002400 -0.008772 -0.002077 0.042154
#
#
# Mechanical properties :
#
#
# Convention : Reuss Voigt Hill
#
# Bulk Modulus (GPa) = 24.56726 48.78685 36.67705
# Shear Modulus (GPa) = 21.15819 32.96223 27.06021
#
# Velocity S-wave (km/s) = 3.07871 3.84271 3.48173
# Velocity P-wave (km/s) = 4.86247 6.44548 5.70911
#
# Compressibility (1/GPa) = 0.04070458
#
# Stress axis : x y z
#
# Youngs Moduli (GPa) = 49.32257 34.84181 88.76490
#
# Poissons Ratio (x) = 0.15699 0.06426
# Poissons Ratio (y) = 0.22223 0.40289
# Poissons Ratio (z) = 0.03571 0.15814
#
# Static dielectric constant tensor:
#      x y z
#    x 1.834830 -0.024990 -0.004030 
#    y -0.024990 1.903500 -0.008750 
#    z -0.004030 -0.008750 1.812970 
# 
# From -- ./inp_files/332900.got.cif
#   From: 2010.05.17/outbox.cif.g08.bks.cpg/sg2_167_cif.got.tgz:332900.got - 2010.06.03 11:33:40.
