data_PCOD9010250
_publ_section_title
;
Structure prediction by ZEFSAII (Michael W. Deem and Ramdas Pophale) SiO2 
 PCOD9010250
Probable space group: P -1
;
_chemical_formula_sum "Si O2"
_cell_formula_units_Z 14
_cell_length_a 17.484595
_cell_length_b 9.010997
_cell_length_c 20.505452
_cell_angle_alpha 38.826294
_cell_angle_beta 17.194886
_cell_angle_gamma 45.539463
_cell_volume 581.822507
_symmetry_space_group_name_H-M "P -1"
_symmetry_group_IT_number 2
_symmetry_cell_setting 'triclinic'
loop_
_space_group_symop_operation_xyz
x,y,z
-x,-y,-z
loop_
_atom_site_type_symbol
_atom_site_label
_atom_site_fract_x
_atom_site_fract_y
_atom_site_fract_z
Si Si1 0.474165 0.613241 0.685408
Si Si2 0.922151 0.026048 0.128101
Si Si3 0.470053 0.476476 0.886035
Si Si4 0.972183 0.901318 0.347452
Si Si5 0.153735 0.962532 0.320855
Si Si6 0.784601 0.451982 0.807587
Si Si7 0.123534 0.276817 0.995589
O O1 0.273149 0.788856 0.778280
O O2 0.454410 0.531907 0.803779
O O3 0.757992 0.774936 0.378388
O O4 0.382790 0.383137 0.790982
O O5 0.155491 0.139985 0.949700
O O6 0.000000 0.000000 0.000000
O O7 0.731512 0.667909 0.632374
O O8 0.244695 0.549434 0.089812
O O9 0.423808 0.181904 0.032954
O O10 0.185909 0.787240 0.172888
O O11 0.919619 0.098202 0.271223
O O12 0.051336 0.019209 0.312996
O O13 0.948832 0.333824 0.496940
O O14 0.000000 0.000000 0.500000
O O15 0.500000 0.500000 0.000000
O O16 0.000000 0.500000 0.000000
#
# Coordination Sequence:
#
# PCOD9010250 Si02
#       7
#     2   2   2   2   2   2   2
#     4  10  21  40  62  93 128 173 214 274 327 391
#     4  10  22  39  64  91 132 169 220 272 330 387
#     4  11  23  41  67  95 134 174 226 275 335 405
#     4  12  23  44  72  95 138 182 220 281 345 391
#     4  10  23  44  66 100 134 175 227 278 336 404
#     4  11  25  44  66 100 135 176 227 280 335 400
#     4  10  22  42  66  99 133 171 221 270 331 398
#
# _framework density 24.06232
#
# number of rings (size 3 to 8) (size 9 to 14) (size 15 to 20)
#    0.000    1.429    4.286    0.429    2.000    1.143 
#    5.143    4.286    0.000    0.000    0.000    0.000 
#    0.000    0.000    0.000    0.000    0.000    0.000 
#
# Total GULP energy -78120.826058 kJ/mol
# GULP energy per Si atom -5580.059004 kJ/mol
# Density = 2.400755 g / cm^3
# Si number density = 24.062320 Si / 1000 Ang^3
#
#
#
# Elastic Constant Matrix: (Units=GPa)
#
#
# Indices 1 2 3 4 5 6 
#
# 1 179.1042 48.3659 56.4803 -9.7683 22.5141 49.6824
# 2 48.3659 80.2413 50.4760 -21.7271 7.2860 15.7734
# 3 56.4803 50.4760 128.3531 -28.5391 10.8195 13.5718
# 4 -9.7683 -21.7271 -28.5391 29.6233 4.6860 -10.5813
# 5 22.5141 7.2860 10.8195 4.6860 50.7671 -8.6237
# 6 49.6824 15.7734 13.5718 -10.5813 -8.6237 50.3834
#
#
#
# Elastic Compliance Matrix: (Units=1/GPa)
#
#
# Indices 1 2 3 4 5 6 
#
# 1 0.010716 -0.003383 -0.002894 -0.004721 -0.005011 -0.010578
# 2 -0.003383 0.019785 -0.004008 0.009766 -0.001380 0.000036
# 3 -0.002894 -0.004008 0.012548 0.009272 -0.001253 0.002461
# 4 -0.004721 0.009766 0.009272 0.052340 -0.004532 0.009317
# 5 -0.005011 -0.001380 -0.001253 -0.004532 0.024319 0.008922
# 6 -0.010578 0.000036 0.002461 0.009317 0.008922 0.033088
#
#
# Mechanical properties :
#
#
# Convention : Reuss Voigt Hill
#
# Bulk Modulus (GPa) = 44.48606 77.59368 61.03987
# Shear Modulus (GPa) = 27.64580 41.64654 34.64617
#
# Velocity S-wave (km/s) = 3.39326 4.16478 3.79865
# Velocity P-wave (km/s) = 5.82067 7.44608 6.68298
#
# Compressibility (1/GPa) = 0.02247895
#
# Stress axis : x y z
#
# Youngs Moduli (GPa) = 93.31816 50.54254 79.69570
#
# Poissons Ratio (x) = 0.17097 0.23064
# Poissons Ratio (y) = 0.31567 0.31945
# Poissons Ratio (z) = 0.27007 0.20259
#
# Static dielectric constant tensor:
#      x y z
#    x 1.942780 -0.015300 -0.010740 
#    y -0.015300 1.994410 0.010040 
#    z -0.010740 0.010040 1.951580 
# 
# From -- ./inp_files/599181.got.cif
#   From: 2010.05.17/outbox.cif.g08.bks.cpg/sg2_300_cif.got.tgz:599181.got - 2010.06.03 11:33:40.
