data_PCOD9010606
_publ_section_title
;
Structure prediction by ZEFSAII (Michael W. Deem and Ramdas Pophale) SiO2 
 PCOD9010606
Probable space group: P -1
;
_chemical_formula_sum "Si O2"
_cell_formula_units_Z 16
_cell_length_a 11.321941
_cell_length_b 8.199214
_cell_length_c 11.113958
_cell_angle_alpha 122.365666
_cell_angle_beta 118.663097
_cell_angle_gamma 52.638565
_cell_volume 673.976162
_symmetry_space_group_name_H-M "P -1"
_symmetry_group_IT_number 2
_symmetry_cell_setting 'triclinic'
loop_
_space_group_symop_operation_xyz
x,y,z
-x,-y,-z
loop_
_atom_site_type_symbol
_atom_site_label
_atom_site_fract_x
_atom_site_fract_y
_atom_site_fract_z
Si Si1 0.403783 0.549553 0.638969
Si Si2 0.300397 0.612898 0.890162
Si Si3 0.696757 0.015118 0.831388
Si Si4 0.100686 0.240621 0.944131
Si Si5 0.027653 0.079326 0.235667
Si Si6 0.207599 0.252463 0.751740
Si Si7 0.058780 0.752727 0.481560
Si Si8 0.455064 0.848621 0.603935
O O1 0.364001 0.590734 0.776476
O O2 0.472056 0.693470 0.665852
O O3 0.513174 0.299114 0.556893
O O4 0.241743 0.621976 0.519890
O O5 0.291146 0.399358 0.843584
O O6 0.117946 0.786116 0.868037
O O7 0.368455 0.733640 0.055636
O O8 0.814338 0.973384 0.765729
O O9 0.571155 0.946156 0.707004
O O10 0.796364 0.860786 0.928939
O O11 0.212896 0.168389 0.855769
O O12 0.986261 0.138612 0.830868
O O13 0.000000 0.500000 0.000000
O O14 0.989888 0.221122 0.393124
O O15 0.028307 0.360926 0.673669
O O16 0.289251 0.053881 0.620080
O O17 0.000000 0.000000 0.500000
#
# Coordination Sequence:
#
# PCOD9010606 Si02
#       8
#     2   2   2   2   2   2   2   2
#     4  10  24  45  65  95 131 175 216 264 328 387
#     4  10  23  42  66  93 131 168 220 272 314 384
#     4  11  24  42  65  94 135 174 210 264 332 388
#     4  11  22  39  67  97 128 166 223 271 315 377
#     4  10  21  40  63  97 129 166 216 270 323 378
#     4  12  24  41  68  99 130 168 219 271 321 381
#     4  11  21  41  71  95 126 167 222 274 314 376
#     4  11  25  43  65  95 132 175 216 259 333 392
#
# _framework density 23.739712999999998
#
# number of rings (size 3 to 8) (size 9 to 14) (size 15 to 20)
#    0.000    1.250    2.500    4.500    5.250    4.000 
#    0.000    0.000    0.000    0.000    0.000    0.000 
#    0.000    0.000    0.000    0.000    0.000    0.000 
#
# Total GULP energy -89591.803901 kJ/mol
# GULP energy per Si atom -5599.487744 kJ/mol
# Density = 2.368568 g / cm^3
# Si number density = 23.739713 Si / 1000 Ang^3
#
#
#
# Elastic Constant Matrix: (Units=GPa)
#
#
# Indices 1 2 3 4 5 6 
#
# 1 172.5495 16.4314 39.6338 17.7826 5.6949 10.9097
# 2 16.4314 58.5137 3.0338 18.6034 3.0856 -3.3215
# 3 39.6338 3.0338 47.4994 21.0228 8.0016 0.8146
# 4 17.7826 18.6034 21.0228 35.6373 -2.3629 -1.9396
# 5 5.6949 3.0856 8.0016 -2.3629 40.4176 12.3417
# 6 10.9097 -3.3215 0.8146 -1.9396 12.3417 29.4239
#
#
#
# Elastic Compliance Matrix: (Units=1/GPa)
#
#
# Indices 1 2 3 4 5 6 
#
# 1 0.007703 -0.002633 -0.007260 0.001735 0.001744 -0.003570
# 2 -0.002633 0.022964 0.008572 -0.015840 -0.005394 0.004550
# 3 -0.007260 0.008572 0.038942 -0.024222 -0.010388 0.005342
# 4 0.001735 -0.015840 -0.024222 0.050247 0.009432 -0.002405
# 5 0.001744 -0.005394 -0.010388 0.009432 0.031679 -0.013634
# 6 -0.003570 0.004550 0.005342 -0.002405 -0.013634 0.041235
#
#
# Mechanical properties :
#
#
# Convention : Reuss Voigt Hill
#
# Bulk Modulus (GPa) = 14.93268 44.08449 29.50859
# Shear Modulus (GPa) = 22.96379 35.72668 29.34524
#
# Velocity S-wave (km/s) = 3.11354 3.88356 3.51967
# Velocity P-wave (km/s) = 4.38513 6.22251 5.38279
#
# Compressibility (1/GPa) = 0.06696721
#
# Stress axis : x y z
#
# Youngs Moduli (GPa) = 129.81943 43.54669 25.67940
#
# Poissons Ratio (x) = 0.11465 0.18642
# Poissons Ratio (y) = 0.34179 -0.22011
# Poissons Ratio (z) = 0.94243 -0.37327
#
# Static dielectric constant tensor:
#      x y z
#    x 1.867430 -0.011370 0.005360 
#    y -0.011370 1.961740 -0.004070 
#    z 0.005360 -0.004070 1.919660 
# 
# From -- ./inp_files/420098.got.cif
#   From: 2010.05.17/outbox.cif.g08.bks.cpg/sg2_211_cif.got.tgz:420098.got - 2010.06.03 11:33:40.
