data_PCOD9010100
_publ_section_title
;
Structure prediction by ZEFSAII (Michael W. Deem and Ramdas Pophale) SiO2 
 PCOD9010100
Probable space group: P -1
;
_chemical_formula_sum "Si O2"
_cell_formula_units_Z 14
_cell_length_a 9.736305
_cell_length_b 16.260826
_cell_length_c 7.254123
_cell_angle_alpha 98.247530
_cell_angle_beta 46.927747
_cell_angle_gamma 117.977593
_cell_volume 712.497877
_symmetry_space_group_name_H-M "P -1"
_symmetry_group_IT_number 2
_symmetry_cell_setting 'triclinic'
loop_
_space_group_symop_operation_xyz
x,y,z
-x,-y,-z
loop_
_atom_site_type_symbol
_atom_site_label
_atom_site_fract_x
_atom_site_fract_y
_atom_site_fract_z
Si Si1 0.780105 0.419715 0.272178
Si Si2 0.973655 0.953499 0.808681
Si Si3 0.939973 0.370099 0.481842
Si Si4 0.213616 0.265305 0.160367
Si Si5 0.442992 0.728406 0.894553
Si Si6 0.606241 0.460908 0.745737
Si Si7 0.356954 0.048701 0.190829
O O1 0.845877 0.377887 0.374075
O O2 0.656980 0.472600 0.485760
O O3 0.637188 0.334560 0.235384
O O4 0.000000 0.500000 0.000000
O O5 0.889790 0.839900 0.866619
O O6 0.795541 0.962223 0.849025
O O7 0.194984 0.001482 0.498722
O O8 0.000000 0.000000 0.000000
O O9 0.748273 0.328724 0.796479
O O10 0.039836 0.299603 0.355819
O O11 0.146728 0.474102 0.382262
O O12 0.330851 0.262710 0.241460
O O13 0.422500 0.347278 0.884192
O O14 0.490528 0.836849 0.872720
O O15 0.500000 0.500000 0.000000
O O16 0.500000 0.000000 0.000000
#
# Coordination Sequence:
#
# PCOD9010100 Si02
#       7
#     2   2   2   2   2   2   2
#     4  12  23  39  66  93 124 162 209 254 301 371
#     4  10  23  41  64  91 126 162 207 261 308 364
#     4  11  22  42  62  90 130 162 201 258 306 362
#     4  10  22  42  62  87 127 168 198 253 315 360
#     4  11  23  40  66  91 125 166 206 255 309 365
#     4  10  21  40  62  85 126 164 195 249 309 362
#     4  10  23  42  63  93 126 162 208 259 309 365
#
# _framework density 19.649180999999999
#
# number of rings (size 3 to 8) (size 9 to 14) (size 15 to 20)
#    0.000    1.429    2.857    2.143    2.000    1.714 
#    5.143    4.286    0.000    0.000    0.000    0.000 
#    0.000    0.000    0.000    0.000    0.000    0.000 
#
# Total GULP energy -77998.952439 kJ/mol
# GULP energy per Si atom -5571.353746 kJ/mol
# Density = 1.960446 g / cm^3
# Si number density = 19.649181 Si / 1000 Ang^3
#
#
#
# Elastic Constant Matrix: (Units=GPa)
#
#
# Indices 1 2 3 4 5 6 
#
# 1 85.3910 55.1597 51.9902 31.4413 -4.6467 5.9435
# 2 55.1597 148.6019 82.5280 7.3177 11.1717 22.4552
# 3 51.9902 82.5280 153.4747 19.2300 -1.4642 6.7986
# 4 31.4413 7.3177 19.2300 42.0391 2.2145 3.1225
# 5 -4.6467 11.1717 -1.4642 2.2145 32.8676 11.6268
# 6 5.9435 22.4552 6.7986 3.1225 11.6268 36.0728
#
#
#
# Elastic Compliance Matrix: (Units=1/GPa)
#
#
# Indices 1 2 3 4 5 6 
#
# 1 0.024197 -0.007638 -0.002004 -0.016239 0.006907 0.000325
# 2 -0.007638 0.013204 -0.005126 0.006372 -0.004413 -0.005124
# 3 -0.002004 -0.005126 0.010218 -0.002464 0.001626 0.001285
# 4 -0.016239 0.006372 -0.002464 0.036428 -0.006341 -0.001936
# 5 0.006907 -0.004413 0.001626 -0.006341 0.036960 -0.010062
# 6 0.000325 -0.005124 0.001285 -0.001936 -0.010062 0.034026
#
#
# Mechanical properties :
#
#
# Convention : Reuss Voigt Hill
#
# Bulk Modulus (GPa) = 55.29750 85.20260 70.25005
# Shear Modulus (GPa) = 26.23343 35.38186 30.80765
#
# Velocity S-wave (km/s) = 3.65785 4.24804 3.96395
# Velocity P-wave (km/s) = 6.78552 8.21689 7.53527
#
# Compressibility (1/GPa) = 0.01808400
#
# Stress axis : x y z
#
# Youngs Moduli (GPa) = 41.32776 75.73749 97.86309
#
# Poissons Ratio (x) = 0.57845 0.19608
# Poissons Ratio (y) = 0.31564 0.50166
# Poissons Ratio (z) = 0.08281 0.38824
#
# Static dielectric constant tensor:
#      x y z
#    x 1.719260 -0.080750 -0.055030 
#    y -0.080750 1.707450 0.008630 
#    z -0.055030 0.008630 1.678510 
# 
# From -- ./inp_files/48112.got.cif
#   From: 2010.05.17/outbox.cif.g08.bks.cpg/sg2_25_cif.got.tgz:48112.got - 2010.06.03 11:33:40.
