data_PCOD9010507
_publ_section_title
;
Structure prediction by ZEFSAII (Michael W. Deem and Ramdas Pophale) SiO2 
 PCOD9010507
Probable space group: P -1
;
_chemical_formula_sum "Si O2"
_cell_formula_units_Z 11
_cell_length_a 5.579890
_cell_length_b 4.977437
_cell_length_c 17.626521
_cell_angle_alpha 120.170157
_cell_angle_beta 90.553538
_cell_angle_gamma 82.525781
_cell_volume 418.751553
_symmetry_space_group_name_H-M "P -1"
_symmetry_group_IT_number 2
_symmetry_cell_setting 'triclinic'
loop_
_space_group_symop_operation_xyz
x,y,z
-x,-y,-z
loop_
_atom_site_type_symbol
_atom_site_label
_atom_site_fract_x
_atom_site_fract_y
_atom_site_fract_z
Si Si1 0.936032 0.105317 0.929674
Si Si2 0.029220 0.450840 0.272405
Si Si3 0.582513 0.766893 0.117479
Si Si4 0.500000 0.000000 0.500000
Si Si5 0.783934 0.600048 0.572277
Si Si6 0.474059 0.503282 0.762034
O O1 0.967660 0.807630 0.830114
O O2 0.650808 0.228820 0.936388
O O3 0.149958 0.289872 0.925871
O O4 0.000000 0.000000 0.000000
O O5 0.096000 0.316416 0.336439
O O6 0.249681 0.628698 0.273834
O O7 0.752786 0.622427 0.296829
O O8 0.552892 0.122811 0.202694
O O9 0.559734 0.536374 0.154040
O O10 0.653647 0.300179 0.549144
O O11 0.392661 0.143688 0.437615
O O12 0.000000 0.500000 0.500000
#
# Coordination Sequence:
#
# PCOD9010507 Si02
#       6
#     2   2   2   1   2   2
#     4  10  21  42  66 100 137 181 230 283 342 413
#     4  10  24  43  69 101 138 184 228 289 349 423
#     4  10  21  40  63  92 132 176 224 279 334 399
#     4  10  26  46  74 104 144 184 246 298 372 436
#     4  11  25  48  72 108 144 190 242 303 371 438
#     4  10  22  41  64  98 130 175 228 274 341 408
#
# _framework density 26.268560000000001
#
# number of rings (size 3 to 8) (size 9 to 14) (size 15 to 20)
#    0.000    1.818    0.000    2.182    5.091    5.818 
#    3.273   21.818    0.000    0.000    0.000    0.000 
#    0.000    0.000    0.000    0.000    0.000    0.000 
#
# Total GULP energy -61345.396233 kJ/mol
# GULP energy per Si atom -5576.854203 kJ/mol
# Density = 2.620877 g / cm^3
# Si number density = 26.268560 Si / 1000 Ang^3
#
#
#
# Elastic Constant Matrix: (Units=GPa)
#
#
# Indices 1 2 3 4 5 6 
#
# 1 257.0237 53.3704 70.4394 -17.4231 13.7916 -8.6505
# 2 53.3704 111.8223 46.9335 -18.9570 0.4582 10.0077
# 3 70.4394 46.9335 191.4211 -47.3875 28.0531 -7.1388
# 4 -17.4231 -18.9570 -47.3875 55.5479 -3.7115 2.9046
# 5 13.7916 0.4582 28.0531 -3.7115 57.2486 -7.4475
# 6 -8.6505 10.0077 -7.1388 2.9046 -7.4475 43.8335
#
#
#
# Elastic Compliance Matrix: (Units=1/GPa)
#
#
# Indices 1 2 3 4 5 6 
#
# 1 0.004650 -0.001849 -0.001239 -0.000312 -0.000376 0.001095
# 2 -0.001849 0.011208 -0.001862 0.001888 0.000976 -0.003186
# 3 -0.001239 -0.001862 0.007999 0.005557 -0.003171 0.000576
# 4 -0.000312 0.001888 0.005557 0.023272 -0.001331 -0.001356
# 5 -0.000376 0.000976 -0.003171 -0.001331 0.019351 0.002563
# 6 0.001095 -0.003186 0.000576 -0.001356 0.002563 0.024376
#
#
# Mechanical properties :
#
#
# Convention : Reuss Voigt Hill
#
# Bulk Modulus (GPa) = 71.64981 100.19489 85.92235
# Shear Modulus (GPa) = 47.43470 57.29425 52.36448
#
# Velocity S-wave (km/s) = 4.25403 4.67529 4.46963
# Velocity P-wave (km/s) = 7.17385 8.20791 7.70824
#
# Compressibility (1/GPa) = 0.01395677
#
# Stress axis : x y z
#
# Youngs Moduli (GPa) = 215.05275 89.22268 125.02226
#
# Poissons Ratio (x) = 0.16493 0.15492
# Poissons Ratio (y) = 0.39754 0.23281
# Poissons Ratio (z) = 0.26648 0.16615
#
# Static dielectric constant tensor:
#      x y z
#    x 2.116380 -0.046170 -0.037510 
#    y -0.046170 2.020920 0.140440 
#    z -0.037510 0.140440 2.069560 
# 
# From -- ./inp_files/3580.got.cif
#   From: 2010.05.17/outbox.cif.g08.bks.cpg/sg2_2_cif.got.tgz:3580.got - 2010.06.03 11:33:40.
