data_PCOD9010073
_publ_section_title
;
Structure prediction by ZEFSAII (Michael W. Deem and Ramdas Pophale) SiO2 
 PCOD9010073
Probable space group: P -1
;
_chemical_formula_sum "Si O2"
_cell_formula_units_Z 14
_cell_length_a 12.210648
_cell_length_b 5.482268
_cell_length_c 16.127120
_cell_angle_alpha 61.137198
_cell_angle_beta 42.919598
_cell_angle_gamma 82.037351
_cell_volume 600.559722
_symmetry_space_group_name_H-M "P -1"
_symmetry_group_IT_number 2
_symmetry_cell_setting 'triclinic'
loop_
_space_group_symop_operation_xyz
x,y,z
-x,-y,-z
loop_
_atom_site_type_symbol
_atom_site_label
_atom_site_fract_x
_atom_site_fract_y
_atom_site_fract_z
Si Si1 0.327963 0.363415 0.696784
Si Si2 0.081097 0.562720 0.352894
Si Si3 0.079888 0.243968 0.986287
Si Si4 0.457566 0.641488 0.085797
Si Si5 0.180850 0.199985 0.110022
Si Si6 0.348752 0.130989 0.567558
Si Si7 0.901319 0.323895 0.325293
O O1 0.270612 0.371455 0.820782
O O2 0.287983 0.076554 0.706179
O O3 0.535438 0.519129 0.558926
O O4 0.210384 0.514506 0.686668
O O5 0.259922 0.497180 0.250150
O O6 0.000000 0.500000 0.500000
O O7 0.939358 0.384834 0.391048
O O8 0.141937 0.915203 0.238169
O O9 0.084089 0.092440 0.095742
O O10 0.000000 0.500000 0.000000
O O11 0.000000 0.000000 0.000000
O O12 0.500000 0.500000 0.000000
O O13 0.619672 0.632456 0.049872
O O14 0.500000 0.000000 0.000000
O O15 0.091729 0.411338 0.166212
O O16 0.500000 0.000000 0.500000
O O17 0.207338 0.009986 0.594693
#
# Coordination Sequence:
#
# PCOD9010073 Si02
#       7
#     2   2   2   2   2   2   2
#     4  10  21  40  61  98 140 177 229 284 352 420
#     4  11  25  45  70 103 137 184 245 302 352 421
#     4  12  25  41  70 105 139 183 235 282 347 436
#     4  10  22  46  72  98 138 185 235 300 359 413
#     4  11  24  44  70  97 141 185 231 292 363 421
#     4   9  20  37  62  91 137 184 224 289 344 421
#     4  11  19  39  70  91 134 178 229 286 360 410
#
# _framework density 23.311585999999998
#
# number of rings (size 3 to 8) (size 9 to 14) (size 15 to 20)
#    0.000    1.429    2.857    2.571    2.000    0.571 
#   10.286    0.000    0.000    0.000    0.000    0.000 
#    0.000    0.000    0.000    0.000    0.000    0.000 
#
# Total GULP energy -77940.985986 kJ/mol
# GULP energy per Si atom -5567.213285 kJ/mol
# Density = 2.325853 g / cm^3
# Si number density = 23.311586 Si / 1000 Ang^3
#
#
#
# Elastic Constant Matrix: (Units=GPa)
#
#
# Indices 1 2 3 4 5 6 
#
# 1 116.5713 28.9527 58.8043 13.3233 -4.7151 22.6947
# 2 28.9527 101.9611 38.7204 28.8703 3.0201 13.1752
# 3 58.8043 38.7204 129.9428 32.3494 5.0143 2.2521
# 4 13.3233 28.8703 32.3494 45.6960 7.5376 -8.3903
# 5 -4.7151 3.0201 5.0143 7.5376 46.2490 10.9892
# 6 22.6947 13.1752 2.2521 -8.3903 10.9892 46.4420
#
#
#
# Elastic Compliance Matrix: (Units=1/GPa)
#
#
# Indices 1 2 3 4 5 6 
#
# 1 0.013219 -0.000340 -0.005463 -0.001785 0.004004 -0.007369
# 2 -0.000340 0.013707 -0.001743 -0.008707 0.002031 -0.005691
# 3 -0.005463 -0.001743 0.012006 -0.005221 -0.001360 0.001960
# 4 -0.001785 -0.008707 -0.005221 0.034991 -0.007530 0.011699
# 5 0.004004 0.002031 -0.001360 -0.007530 0.025622 -0.009890
# 6 -0.007369 -0.005691 0.001960 0.011699 -0.009890 0.031106
#
#
# Mechanical properties :
#
#
# Convention : Reuss Voigt Hill
#
# Bulk Modulus (GPa) = 41.94673 66.82558 54.38615
# Shear Modulus (GPa) = 32.53301 42.47724 37.50512
#
# Velocity S-wave (km/s) = 3.73979 4.27330 4.01541
# Velocity P-wave (km/s) = 6.05649 7.28537 6.69916
#
# Compressibility (1/GPa) = 0.02383976
#
# Stress axis : x y z
#
# Youngs Moduli (GPa) = 75.64626 72.95762 83.29445
#
# Poissons Ratio (x) = 0.02480 0.45507
# Poissons Ratio (y) = 0.02572 0.14515
# Poissons Ratio (z) = 0.41328 0.12713
#
# Static dielectric constant tensor:
#      x y z
#    x 1.922260 0.031750 -0.099970 
#    y 0.031750 2.169660 -0.110680 
#    z -0.099970 -0.110680 2.429450 
# 
# From -- ./inp_files/510803.got.cif
#   From: 2010.05.17/outbox.cif.g08.bks.cpg/sg2_256_cif.got.tgz:510803.got - 2010.06.03 11:33:40.
