data_PCOD9010200
_publ_section_title
;
Structure prediction by ZEFSAII (Michael W. Deem and Ramdas Pophale) SiO2 
 PCOD9010200
Probable space group: P -1
;
_chemical_formula_sum "Si O2"
_cell_formula_units_Z 16
_cell_length_a 5.162349
_cell_length_b 28.178011
_cell_length_c 11.387277
_cell_angle_alpha 24.650812
_cell_angle_beta 81.777310
_cell_angle_gamma 82.032510
_cell_volume 683.630776
_symmetry_space_group_name_H-M "P -1"
_symmetry_group_IT_number 2
_symmetry_cell_setting 'triclinic'
loop_
_space_group_symop_operation_xyz
x,y,z
-x,-y,-z
loop_
_atom_site_type_symbol
_atom_site_label
_atom_site_fract_x
_atom_site_fract_y
_atom_site_fract_z
Si Si1 0.431051 0.170296 0.115884
Si Si2 0.207501 0.297535 0.129934
Si Si3 0.475010 0.022277 0.649430
Si Si4 0.939849 0.868877 0.305761
Si Si5 0.461814 0.824880 0.267289
Si Si6 0.960930 0.501115 0.142422
Si Si7 0.445790 0.364320 0.509139
Si Si8 0.246667 0.766408 0.851304
O O1 0.347773 0.288026 0.795904
O O2 0.311130 0.107250 0.380037
O O3 0.714756 0.202841 0.082268
O O4 0.425106 0.073860 0.234401
O O5 0.184308 0.174005 0.469698
O O6 0.995659 0.299061 0.036496
O O7 0.496915 0.308148 0.036328
O O8 0.135649 0.382919 0.048610
O O9 0.699689 0.106930 0.490111
O O10 0.382313 0.939056 0.943584
O O11 0.214473 0.801965 0.416916
O O12 0.724655 0.844656 0.276353
O O13 0.000000 0.000000 0.000000
O O14 0.520853 0.723021 0.404392
O O15 0.733106 0.415157 0.387742
O O16 0.235388 0.460509 0.271692
O O17 0.000000 0.500000 0.000000
#
# Coordination Sequence:
#
# PCOD9010200 Si02
#       8
#     2   2   2   2   2   2   2   2
#     4   8  19  40  67  94 126 163 204 251 301 368
#     4  12  24  41  62  89 124 168 205 252 315 367
#     4   8  17  39  65  94 127 164 199 245 316 365
#     4  12  24  38  59  93 128 161 201 247 308 377
#     4  11  21  38  62  92 122 160 203 258 304 366
#     4  12  26  45  66  90 122 163 208 262 310 360
#     4  11  23  43  67  93 119 157 215 258 300 358
#     4  10  21  40  62  91 125 164 200 249 306 372
#
# _framework density 23.404447999999999
#
# number of rings (size 3 to 8) (size 9 to 14) (size 15 to 20)
#    0.750    0.750    0.000    6.000    0.000    1.000 
#    0.000    8.750    0.000    0.000    0.000    0.000 
#    0.000    0.000    0.000    0.000    0.000    0.000 
#
# Total GULP energy -89237.290186 kJ/mol
# GULP energy per Si atom -5577.330637 kJ/mol
# Density = 2.335118 g / cm^3
# Si number density = 23.404448 Si / 1000 Ang^3
#
#
#
# Elastic Constant Matrix: (Units=GPa)
#
#
# Indices 1 2 3 4 5 6 
#
# 1 -1024.6683-1071.6597 -384.3001-1087.6035 -269.4631 352.9180
# 2 -1071.6597 -985.6485 -366.2986-1074.9900 -259.8948 354.6657
# 3 -384.3001 -366.2986 -77.7571 -366.8653 -89.3336 115.3846
# 4 -1087.6035-1074.9900 -366.8653-1001.3062 -247.2946 336.0132
# 5 -269.4631 -259.8948 -89.3336 -247.2946 -33.5289 77.1177
# 6 352.9180 354.6657 115.3846 336.0132 77.1177 -82.2731
#
#
#
# Elastic Compliance Matrix: (Units=1/GPa)
#
#
# Indices 1 2 3 4 5 6 
#
# 1 0.010197 -0.005878 0.000731 -0.004415 0.002217 0.003473
# 2 -0.005878 0.009879 -0.003513 -0.002916 -0.002391 -0.001707
# 3 0.000731 -0.003513 0.019808 -0.002885 0.000838 0.004771
# 4 -0.004415 -0.002916 -0.002885 0.011923 -0.006969 0.006608
# 5 0.002217 -0.002391 0.000838 -0.006969 0.038530 0.008030
# 6 0.003473 -0.001707 0.004771 0.006608 0.008030 0.036592
#
#
# Mechanical properties :
#
#
# Convention : Reuss Voigt Hill
#
# Bulk Modulus (GPa) = 44.32208 -636.95453 -296.31622
# Shear Modulus (GPa) = 32.94452 -241.14268 -104.09908
#
# Velocity S-wave (km/s) = 3.75589 -10.16152 -6.67644
# Velocity P-wave (km/s) = 6.14716 20.25876 13.64972
#
# Compressibility (1/GPa) = 0.02256212
#
# Stress axis : x y z
#
# Youngs Moduli (GPa) = 98.06805 101.22874 50.48473
#
# Poissons Ratio (x) = 0.59503 -0.03689
# Poissons Ratio (y) = 0.57645 0.17738
# Poissons Ratio (z) = -0.07167 0.35566
#
# Static dielectric constant tensor:
#      x y z
#    x 1.907760 -0.044650 0.029880 
#    y -0.044650 1.936140 -0.017520 
#    z 0.029880 -0.017520 1.881190 
# 
# From -- ./inp_files/371583.got.cif
#   From: 2010.05.17/outbox.cif.g08.bks.cpg/sg2_186_cif.got.tgz:371583.got - 2010.06.03 11:33:40.
