data_PCOD9010563
_publ_section_title
;
Structure prediction by ZEFSAII (Michael W. Deem and Ramdas Pophale) SiO2 
 PCOD9010563
Probable space group: P -1
;
_chemical_formula_sum "Si O2"
_cell_formula_units_Z 14
_cell_length_a 10.340345
_cell_length_b 13.588148
_cell_length_c 7.546780
_cell_angle_alpha 134.930910
_cell_angle_beta 65.262391
_cell_angle_gamma 91.845349
_cell_volume 622.004919
_symmetry_space_group_name_H-M "P -1"
_symmetry_group_IT_number 2
_symmetry_cell_setting 'triclinic'
loop_
_space_group_symop_operation_xyz
x,y,z
-x,-y,-z
loop_
_atom_site_type_symbol
_atom_site_label
_atom_site_fract_x
_atom_site_fract_y
_atom_site_fract_z
Si Si1 0.053989 0.638188 0.453132
Si Si2 0.956429 0.864654 0.105753
Si Si3 0.768055 0.578468 0.597231
Si Si4 0.211054 0.789016 0.346111
Si Si5 0.464010 0.666778 0.323032
Si Si6 0.691825 0.329373 0.214702
Si Si7 0.637098 0.836973 0.259364
O O1 0.168007 0.523642 0.389039
O O2 0.137823 0.667432 0.272668
O O3 0.920289 0.580331 0.419150
O O4 0.981198 0.798576 0.806761
O O5 0.800315 0.844717 0.230811
O O6 0.916887 0.040988 0.379129
O O7 0.121515 0.767530 0.979511
O O8 0.677446 0.501651 0.439194
O O9 0.668684 0.743725 0.939047
O O10 0.312344 0.780926 0.449883
O O11 0.326741 0.734239 0.044141
O O12 0.410105 0.677500 0.569709
O O13 0.589621 0.735730 0.297397
O O14 0.500000 0.500000 0.000000
O O15 0.500000 0.000000 0.500000
#
# Coordination Sequence:
#
# PCOD9010563 Si02
#       7
#     2   2   2   2   2   2   2
#     4   9  18  34  64  87 121 164 207 263 307 365
#     4  10  21  40  63  95 129 162 216 261 313 378
#     4   9  18  37  57  90 121 160 213 255 312 369
#     4  12  22  38  66  96 127 167 213 260 320 376
#     4  12  24  44  65  92 130 171 211 261 321 376
#     4  11  24  39  66  95 127 165 217 263 314 379
#     4  11  21  38  68  91 124 175 212 257 319 379
#
# _framework density 22.507857999999999
#
# number of rings (size 3 to 8) (size 9 to 14) (size 15 to 20)
#    0.000    1.429    5.714    1.714    0.000    1.143 
#    0.000    0.714    3.143    0.000    0.000    0.000 
#    0.000    0.000    0.000    0.000    0.000    0.000 
#
# Total GULP energy -78196.639603 kJ/mol
# GULP energy per Si atom -5585.474257 kJ/mol
# Density = 2.245663 g / cm^3
# Si number density = 22.507858 Si / 1000 Ang^3
#
#
#
# Elastic Constant Matrix: (Units=GPa)
#
#
# Indices 1 2 3 4 5 6 
#
# 1 60.0963 43.5368 -0.0089 -7.0569 -19.1325 8.8927
# 2 43.5368 114.6932 40.1604 -18.2293 -7.4676 26.2278
# 3 -0.0089 40.1604 100.2499 6.1360 -16.3882 -12.0597
# 4 -7.0569 -18.2293 6.1360 40.4398 -0.6696 -5.9930
# 5 -19.1325 -7.4676 -16.3882 -0.6696 29.6962 -4.7137
# 6 8.8927 26.2278 -12.0597 -5.9930 -4.7137 32.9840
#
#
#
# Elastic Compliance Matrix: (Units=1/GPa)
#
#
# Indices 1 2 3 4 5 6 
#
# 1 0.042703 -0.025463 0.018396 -0.003321 0.034323 0.019762
# 2 -0.025463 0.031646 -0.020434 0.008427 -0.023924 -0.027658
# 3 0.018396 -0.020434 0.025227 -0.006041 0.024128 0.022862
# 4 -0.003321 0.008427 -0.006041 0.028316 -0.003245 -0.003333
# 5 0.034323 -0.023924 0.024128 -0.003245 0.067400 0.027634
# 6 0.019762 -0.027658 0.022862 -0.003333 0.027634 0.058685
#
#
# Mechanical properties :
#
#
# Convention : Reuss Voigt Hill
#
# Bulk Modulus (GPa) = 22.43492 49.15734 35.79613
# Shear Modulus (GPa) = 15.43990 33.38074 24.41032
#
# Velocity S-wave (km/s) = 2.62196 3.85524 3.29678
# Velocity P-wave (km/s) = 4.37670 6.45792 5.51635
#
# Compressibility (1/GPa) = 0.04457336
#
# Stress axis : x y z
#
# Youngs Moduli (GPa) = 23.41781 31.59955 39.64044
#
# Poissons Ratio (x) = 0.80463 -0.72922
# Poissons Ratio (y) = 0.59630 0.81000
# Poissons Ratio (z) = -0.43079 0.64569
#
# Static dielectric constant tensor:
#      x y z
#    x 1.895210 0.032150 -0.028350 
#    y 0.032150 1.857520 -0.002320 
#    z -0.028350 -0.002320 1.859020 
# 
# From -- ./inp_files/271160.got.cif
#   From: 2010.05.17/outbox.cif.g08.bks.cpg/sg2_136_cif.got.tgz:271160.got - 2010.06.03 11:33:40.
