data_PCOD9010058
_publ_section_title
;
Structure prediction by ZEFSAII (Michael W. Deem and Ramdas Pophale) SiO2 
 PCOD9010058
Probable space group: P -1
;
_chemical_formula_sum "Si O2"
_cell_formula_units_Z 16
_cell_length_a 12.478035
_cell_length_b 8.919842
_cell_length_c 29.890799
_cell_angle_alpha 33.775500
_cell_angle_beta 150.954614
_cell_angle_gamma 127.850014
_cell_volume 815.349172
_symmetry_space_group_name_H-M "P -1"
_symmetry_group_IT_number 2
_symmetry_cell_setting 'triclinic'
loop_
_space_group_symop_operation_xyz
x,y,z
-x,-y,-z
loop_
_atom_site_type_symbol
_atom_site_label
_atom_site_fract_x
_atom_site_fract_y
_atom_site_fract_z
Si Si1 0.409534 0.842120 0.298927
Si Si2 0.439422 0.716255 0.050273
Si Si3 0.043863 0.164748 0.607329
Si Si4 0.066669 0.217194 0.000871
Si Si5 0.126653 0.140987 0.209353
Si Si6 0.481283 0.333270 0.077573
Si Si7 0.662686 0.149717 0.545150
Si Si8 0.200122 0.892498 0.637625
O O1 0.493604 0.493921 0.408494
O O2 0.212394 0.034552 0.142292
O O3 0.306399 0.941748 0.286205
O O4 0.634611 0.925816 0.351207
O O5 0.529963 0.526009 0.085748
O O6 0.610242 0.457139 0.210890
O O7 0.147487 0.808334 0.919579
O O8 0.500000 0.000000 0.000000
O O9 0.858617 0.137875 0.582230
O O10 0.000000 0.500000 0.500000
O O11 0.314162 0.996595 0.767018
O O12 0.057551 0.995187 0.607480
O O13 0.233873 0.317915 0.004985
O O14 0.869440 0.533799 0.867638
O O15 0.000000 0.000000 0.000000
O O16 0.203823 0.000464 0.322070
O O17 0.500000 0.500000 0.000000
O O18 0.500000 0.000000 0.500000
O O19 0.000000 0.000000 0.500000
#
# Coordination Sequence:
#
# PCOD9010058 Si02
#       8
#     2   2   2   2   2   2   2   2
#     4  12  24  47  65 100 141 176 231 283 338 406
#     4  10  23  42  65  97 128 170 224 268 336 404
#     4  11  21  43  68  90 134 174 220 279 325 397
#     4  11  22  43  69  99 133 176 230 275 336 409
#     4  11  25  44  69  98 141 178 219 291 340 399
#     4  10  21  40  61  94 130 164 214 274 330 388
#     4  12  27  44  67 103 135 182 232 275 347 404
#     4  11  25  42  69 101 132 175 226 277 340 407
#
# _framework density 19.623494999999998
#
# number of rings (size 3 to 8) (size 9 to 14) (size 15 to 20)
#    0.000    1.000    5.000    3.000    3.500    4.000 
#    0.000    0.000    0.000    0.000    0.000    0.000 
#    0.000    0.000    0.000    0.000    0.000    0.000 
#
# Total GULP energy -89241.814341 kJ/mol
# GULP energy per Si atom -5577.613396 kJ/mol
# Density = 1.957883 g / cm^3
# Si number density = 19.623495 Si / 1000 Ang^3
#
#
#
# Elastic Constant Matrix: (Units=GPa)
#
#
# Indices 1 2 3 4 5 6 
#
# 1 132.0581 34.6799 46.4832 3.5587 3.9858 -14.6846
# 2 34.6799 131.3236 38.4106 -23.6768 -0.0134 -4.3053
# 3 46.4832 38.4106 108.2351 -22.3428 -10.4028 -8.6374
# 4 3.5587 -23.6768 -22.3428 37.5426 -9.3570 -3.8648
# 5 3.9858 -0.0134 -10.4028 -9.3570 38.3261 -4.2654
# 6 -14.6846 -4.3053 -8.6374 -3.8648 -4.2654 16.2989
#
#
#
# Elastic Compliance Matrix: (Units=1/GPa)
#
#
# Indices 1 2 3 4 5 6 
#
# 1 0.010631 -0.002273 -0.004968 -0.005833 -0.003427 0.004065
# 2 -0.002273 0.009691 -0.000753 0.006570 0.001880 0.002163
# 3 -0.004968 -0.000753 0.015796 0.012530 0.008863 0.008987
# 4 -0.005833 0.006570 0.012530 0.044902 0.017000 0.018216
# 5 -0.003427 0.001880 0.008863 0.017000 0.034699 0.015218
# 6 0.004065 0.002163 0.008987 0.018216 0.015218 0.078651
#
#
# Mechanical properties :
#
#
# Convention : Reuss Voigt Hill
#
# Bulk Modulus (GPa) = 49.68104 67.86270 58.77187
# Shear Modulus (GPa) = 23.03421 35.23639 29.13530
#
# Velocity S-wave (km/s) = 3.42980 4.24208 3.85738
# Velocity P-wave (km/s) = 6.40756 7.65840 7.06073
#
# Compressibility (1/GPa) = 0.02012840
#
# Stress axis : x y z
#
# Youngs Moduli (GPa) = 94.06758 103.18786 63.30819
#
# Poissons Ratio (x) = 0.23456 0.31451
# Poissons Ratio (y) = 0.21382 0.04770
# Poissons Ratio (z) = 0.46733 0.07775
#
# Static dielectric constant tensor:
#      x y z
#    x 1.802140 0.097120 -0.715270 
#    y 0.097120 1.758270 -0.638450 
#    z -0.715270 -0.638450 5.894720 
# 
# From -- ./inp_files/433937.got.cif
#   From: 2010.05.17/outbox.cif.g08.bks.cpg/sg2_217_cif.got.tgz:433937.got - 2010.06.03 11:33:40.
