data_PCOD9010547
_publ_section_title
;
Structure prediction by ZEFSAII (Michael W. Deem and Ramdas Pophale) SiO2 
 PCOD9010547
Probable space group: P -1
;
_chemical_formula_sum "Si O2"
_cell_formula_units_Z 16
_cell_length_a 12.384137
_cell_length_b 9.816743
_cell_length_c 13.268703
_cell_angle_alpha 102.928837
_cell_angle_beta 142.871083
_cell_angle_gamma 102.407074
_cell_volume 705.847446
_symmetry_space_group_name_H-M "P -1"
_symmetry_group_IT_number 2
_symmetry_cell_setting 'triclinic'
loop_
_space_group_symop_operation_xyz
x,y,z
-x,-y,-z
loop_
_atom_site_type_symbol
_atom_site_label
_atom_site_fract_x
_atom_site_fract_y
_atom_site_fract_z
Si Si1 0.915236 0.724121 0.403239
Si Si2 0.790670 0.483901 0.698706
Si Si3 0.772025 0.186071 0.543017
Si Si4 0.715022 0.183900 0.935478
Si Si5 0.565222 0.616336 0.434767
Si Si6 0.442285 0.634096 0.025832
Si Si7 0.055010 0.909980 0.750168
Si Si8 0.772428 0.693262 0.024190
O O1 0.726697 0.753778 0.248491
O O2 0.040463 0.820382 0.618530
O O3 0.109861 0.802529 0.473129
O O4 0.731801 0.494541 0.219659
O O5 0.762945 0.348117 0.573096
O O6 0.708564 0.591798 0.614088
O O7 0.609418 0.366539 0.636614
O O8 0.075348 0.645923 0.951231
O O9 0.958490 0.227576 0.771951
O O10 0.507732 0.988912 0.320894
O O11 0.620638 0.253568 0.952621
O O12 0.824277 0.122284 0.079628
O O13 0.773782 0.789872 0.549376
O O14 0.390608 0.420610 0.211957
O O15 0.350046 0.469347 0.009932
O O16 0.195956 0.129762 0.892198
#
# Coordination Sequence:
#
# PCOD9010547 Si02
#       8
#     2   2   2   2   2   2   2   2
#     4  10  21  40  63  94 128 170 206 254 310 378
#     4  10  22  46  65  93 125 169 207 264 318 370
#     4  11  24  40  65  95 130 167 207 256 319 374
#     4  11  23  43  63  93 131 166 211 256 314 373
#     4  10  23  43  70  89 127 165 214 261 316 369
#     4  10  21  40  64  88 131 173 203 251 315 373
#     4  11  24  40  66  98 125 165 214 259 308 374
#     4  11  22  41  65  96 125 164 212 258 309 372
#
# _framework density 22.667787000000001
#
# number of rings (size 3 to 8) (size 9 to 14) (size 15 to 20)
#    0.000    1.500    3.750    1.500    0.000    8.000 
#    0.000    5.000    0.000    0.000    0.000    0.000 
#    0.000    0.000    0.000    0.000    0.000    0.000 
#
# Total GULP energy -89335.248165 kJ/mol
# GULP energy per Si atom -5583.453010 kJ/mol
# Density = 2.261619 g / cm^3
# Si number density = 22.667787 Si / 1000 Ang^3
#
#
#
# Elastic Constant Matrix: (Units=GPa)
#
#
# Indices 1 2 3 4 5 6 
#
# 1 108.6294 19.5045 45.7859 0.7771 17.3475 -7.4908
# 2 19.5045 67.8493 8.1290 9.9686 11.9620 -10.9173
# 3 45.7859 8.1290 127.4770 8.5762 11.0774 3.5610
# 4 0.7771 9.9686 8.5762 37.4588 10.0231 -1.9089
# 5 17.3475 11.9620 11.0774 10.0231 35.3874 -9.1007
# 6 -7.4908 -10.9173 3.5610 -1.9089 -9.1007 20.2646
#
#
#
# Elastic Compliance Matrix: (Units=1/GPa)
#
#
# Indices 1 2 3 4 5 6 
#
# 1 0.012125 -0.002267 -0.004100 0.002477 -0.003970 0.002431
# 2 -0.002267 0.017461 -0.000101 -0.003717 -0.001796 0.007430
# 3 -0.004100 -0.000101 0.009699 -0.001915 -0.001513 -0.004134
# 4 0.002477 -0.003717 -0.001915 0.030220 -0.008342 -0.001651
# 5 -0.003970 -0.001796 -0.001513 -0.008342 0.037183 0.013744
# 6 0.002431 0.007430 -0.004134 -0.001651 0.013744 0.060992
#
#
# Mechanical properties :
#
#
# Convention : Reuss Voigt Hill
#
# Bulk Modulus (GPa) = 37.95103 50.08826 44.01965
# Shear Modulus (GPa) = 26.39955 33.99126 30.19541
#
# Velocity S-wave (km/s) = 3.41637 3.87659 3.65373
# Velocity P-wave (km/s) = 5.68689 6.49476 6.10420
#
# Compressibility (1/GPa) = 0.02634975
#
# Stress axis : x y z
#
# Youngs Moduli (GPa) = 82.47687 57.27211 103.10056
#
# Poissons Ratio (x) = 0.12983 0.42269
# Poissons Ratio (y) = 0.18697 0.01037
# Poissons Ratio (z) = 0.33814 0.00576
#
# Static dielectric constant tensor:
#      x y z
#    x 1.907260 0.024370 0.007430 
#    y 0.024370 1.842620 -0.007410 
#    z 0.007430 -0.007410 1.869630 
# 
# From -- ./inp_files/519862.got.cif
#   From: 2010.05.17/outbox.cif.g08.bks.cpg/sg2_260_cif.got.tgz:519862.got - 2010.06.03 11:33:40.
