data_PCOD9010928
_publ_section_title
;
Structure prediction by ZEFSAII (Michael W. Deem and Ramdas Pophale) SiO2 
 PCOD9010928
Probable space group: P -1
;
_chemical_formula_sum "Si O2"
_cell_formula_units_Z 12
_cell_length_a 5.363263
_cell_length_b 11.608119
_cell_length_c 12.325803
_cell_angle_alpha 133.088367
_cell_angle_beta 58.885587
_cell_angle_gamma 123.279297
_cell_volume 455.677925
_symmetry_space_group_name_H-M "P -1"
_symmetry_group_IT_number 2
_symmetry_cell_setting 'triclinic'
loop_
_space_group_symop_operation_xyz
x,y,z
-x,-y,-z
loop_
_atom_site_type_symbol
_atom_site_label
_atom_site_fract_x
_atom_site_fract_y
_atom_site_fract_z
Si Si1 0.339205 0.589096 0.936974
Si Si2 0.290782 0.726781 0.825550
Si Si3 0.354745 0.803858 0.619827
Si Si4 0.064292 0.992505 0.107908
Si Si5 0.195148 0.857879 0.269626
Si Si6 0.463052 0.702975 0.302783
O O1 0.332416 0.587791 0.806338
O O2 0.559051 0.482168 0.851119
O O3 0.387399 0.773572 0.090760
O O4 0.000000 0.500000 0.000000
O O5 0.242624 0.703906 0.692865
O O6 0.606299 0.878631 0.856893
O O7 0.060908 0.803584 0.992595
O O8 0.334673 0.697278 0.449176
O O9 0.159645 0.930590 0.729818
O O10 0.689266 0.943204 0.640431
O O11 0.000000 0.000000 0.000000
O O12 0.287180 0.794517 0.323154
O O13 0.831556 0.793897 0.286526
#
# Coordination Sequence:
#
# PCOD9010928 Si02
#       6
#     2   2   2   2   2   2
#     4  10  23  44  68  93 134 179 223 270 327 406
#     4  10  21  40  64  96 129 171 226 269 335 387
#     4  11  24  39  70  97 135 168 221 284 330 388
#     4   9  19  36  61  96 125 166 217 273 322 384
#     4  11  24  44  70  97 136 175 228 268 326 395
#     4  11  26  44  66 103 135 180 215 272 337 393
#
# _framework density 26.334388000000001
#
# number of rings (size 3 to 8) (size 9 to 14) (size 15 to 20)
#    0.000    1.667    0.000    4.500    9.333    0.667 
#   12.000    0.833    0.000    0.000    0.000    0.000 
#    0.000    0.000    0.000    0.000    0.000    0.000 
#
# Total GULP energy -67100.994861 kJ/mol
# GULP energy per Si atom -5591.749572 kJ/mol
# Density = 2.627445 g / cm^3
# Si number density = 26.334388 Si / 1000 Ang^3
#
#
#
# Elastic Constant Matrix: (Units=GPa)
#
#
# Indices 1 2 3 4 5 6 
#
# 1 106.3252 21.1780 22.4789 -12.2845 3.1418 -13.7434
# 2 21.1780 98.3298 28.9835 -16.2412 19.9018 -22.2412
# 3 22.4789 28.9835 149.6373 -23.0052 14.1460 -17.2755
# 4 -12.2845 -16.2412 -23.0052 37.1195 -9.4454 15.2431
# 5 3.1418 19.9018 14.1460 -9.4454 29.9064 -7.9085
# 6 -13.7434 -22.2412 -17.2755 15.2431 -7.9085 48.1025
#
#
#
# Elastic Compliance Matrix: (Units=1/GPa)
#
#
# Indices 1 2 3 4 5 6 
#
# 1 0.010283 -0.001575 -0.000907 0.001884 0.001393 0.001516
# 2 -0.001575 0.013259 -0.001050 0.001371 -0.006733 0.003762
# 3 -0.000907 -0.001050 0.007775 0.003348 -0.001636 0.000718
# 4 0.001884 0.001371 0.003348 0.035001 0.006331 -0.007676
# 5 0.001393 -0.006733 -0.001636 0.006331 0.040921 0.001418
# 6 0.001516 0.003762 0.000718 -0.007676 0.001418 0.025885
#
#
# Mechanical properties :
#
#
# Convention : Reuss Voigt Hill
#
# Bulk Modulus (GPa) = 41.23232 55.50812 48.37022
# Shear Modulus (GPa) = 33.72190 41.80246 37.76218
#
# Velocity S-wave (km/s) = 3.58233 3.98851 3.79086
# Velocity P-wave (km/s) = 5.72730 6.50652 6.12931
#
# Compressibility (1/GPa) = 0.02425282
#
# Stress axis : x y z
#
# Youngs Moduli (GPa) = 97.24777 75.42169 128.62344
#
# Poissons Ratio (x) = 0.11881 0.11661
# Poissons Ratio (y) = 0.15320 0.13503
# Poissons Ratio (z) = 0.08817 0.07918
#
# Static dielectric constant tensor:
#      x y z
#    x 2.227080 0.022680 0.006830 
#    y 0.022680 2.124210 0.014510 
#    z 0.006830 0.014510 2.048310 
# 
# From -- ./inp_files/26233.got.cif
#   From: 2010.05.17/outbox.cif.g08.bks.cpg/sg2_14_cif.got.tgz:26233.got - 2010.06.03 11:33:40.
