data_PCOD9010897
_publ_section_title
;
Structure prediction by ZEFSAII (Michael W. Deem and Ramdas Pophale) SiO2 
 PCOD9010897
Probable space group: P -1
;
_chemical_formula_sum "Si O2"
_cell_formula_units_Z 16
_cell_length_a 12.924468
_cell_length_b 15.589800
_cell_length_c 9.679566
_cell_angle_alpha 113.745371
_cell_angle_beta 49.003620
_cell_angle_gamma 144.421995
_cell_volume 817.512578
_symmetry_space_group_name_H-M "P -1"
_symmetry_group_IT_number 2
_symmetry_cell_setting 'triclinic'
loop_
_space_group_symop_operation_xyz
x,y,z
-x,-y,-z
loop_
_atom_site_type_symbol
_atom_site_label
_atom_site_fract_x
_atom_site_fract_y
_atom_site_fract_z
Si Si1 0.168376 0.064013 0.275309
Si Si2 0.572387 0.953409 0.309890
Si Si3 0.486726 0.598804 0.392078
Si Si4 0.974274 0.894311 0.044797
Si Si5 0.107991 0.530137 0.068391
Si Si6 0.504727 0.614835 0.709997
Si Si7 0.473553 0.890072 0.033919
Si Si8 0.797551 0.394049 0.493806
O O1 0.331016 0.241061 0.236827
O O2 0.329597 0.066662 0.175224
O O3 0.000000 0.000000 0.500000
O O4 0.053058 0.968601 0.175706
O O5 0.512891 0.934513 0.188880
O O6 0.422598 0.782082 0.376234
O O7 0.500000 0.000000 0.500000
O O8 0.841189 0.078498 0.157674
O O9 0.715122 0.725085 0.182870
O O10 0.527918 0.655866 0.552841
O O11 0.439086 0.463339 0.371637
O O12 0.296987 0.557592 0.452344
O O13 0.000000 0.000000 0.000000
O O14 0.257968 0.702894 0.092903
O O15 0.913681 0.407815 0.270199
O O16 0.259387 0.519896 0.907015
O O17 0.000000 0.500000 0.000000
O O18 0.500000 0.000000 0.000000
O O19 0.000000 0.500000 0.500000
#
# Coordination Sequence:
#
# PCOD9010897 Si02
#       8
#     2   2   2   2   2   2   2   2
#     4  10  21  40  64  95 128 167 211 270 323 388
#     4  11  26  44  66  97 131 176 222 274 333 397
#     4  11  23  42  68  97 134 172 219 277 328 395
#     4  11  23  43  66  93 133 171 215 268 332 393
#     4  11  23  40  68  96 131 179 218 271 331 397
#     4  10  23  41  65 103 128 167 228 270 330 388
#     4  10  24  41  63  95 131 166 221 272 321 392
#     4  12  25  47  65  93 140 178 220 273 337 398
#
# _framework density 19.571565
#
# number of rings (size 3 to 8) (size 9 to 14) (size 15 to 20)
#    0.000    1.250    5.000    0.000    3.500    3.000 
#    2.250    1.250    0.000    0.000    0.000    0.000 
#    0.000    0.000    0.000    0.000    0.000    0.000 
#
# Total GULP energy -89186.073470 kJ/mol
# GULP energy per Si atom -5574.129592 kJ/mol
# Density = 1.952702 g / cm^3
# Si number density = 19.571565 Si / 1000 Ang^3
#
#
#
# Elastic Constant Matrix: (Units=GPa)
#
#
# Indices 1 2 3 4 5 6 
#
# 1 90.2881 27.0546 32.0539 -4.6879 -12.4319 -12.1585
# 2 27.0546 25.5898 7.7323 9.7701 -16.5051 -5.1810
# 3 32.0539 7.7323 141.8715 -5.1830 -17.4002 -2.4212
# 4 -4.6879 9.7701 -5.1830 33.4161 -5.5430 -2.3879
# 5 -12.4319 -16.5051 -17.4002 -5.5430 28.3091 -7.3160
# 6 -12.1585 -5.1810 -2.4212 -2.3879 -7.3160 29.5978
#
#
#
# Elastic Compliance Matrix: (Units=1/GPa)
#
#
# Indices 1 2 3 4 5 6 
#
# 1 0.020858 -0.029224 -0.003672 0.009770 -0.007696 0.002038
# 2 -0.029224 0.125668 0.007287 -0.026994 0.066019 0.024730
# 3 -0.003672 0.007287 0.008600 0.000314 0.008665 0.002638
# 4 0.009770 -0.026994 0.000314 0.038820 -0.003228 0.001648
# 5 -0.007696 0.066019 0.008665 -0.003228 0.082698 0.029285
# 6 0.002038 0.024730 0.002638 0.001648 0.029285 0.046540
#
#
# Mechanical properties :
#
#
# Convention : Reuss Voigt Hill
#
# Bulk Modulus (GPa) = 9.62395 43.49232 26.55814
# Shear Modulus (GPa) = 12.22378 30.99184 21.60781
#
# Velocity S-wave (km/s) = 2.50185 3.98366 3.32632
# Velocity P-wave (km/s) = 3.64330 6.59013 5.32463
#
# Compressibility (1/GPa) = 0.10390743
#
# Stress axis : x y z
#
# Youngs Moduli (GPa) = 47.94253 7.95750 116.27357
#
# Poissons Ratio (x) = 0.23255 0.42696
# Poissons Ratio (y) = 1.40107 -0.84723
# Poissons Ratio (z) = 0.17605 -0.05798
#
# Static dielectric constant tensor:
#      x y z
#    x 1.721890 -0.005520 -0.018950 
#    y -0.005520 1.750050 0.008670 
#    z -0.018950 0.008670 1.694660 
# 
# From -- ./inp_files/186706.got.cif
#   From: 2010.05.17/outbox.cif.g08.bks.cpg/sg2_94_cif.got.tgz:186706.got - 2010.06.03 11:33:40.
