data_PCOD9010546
_publ_section_title
;
Structure prediction by ZEFSAII (Michael W. Deem and Ramdas Pophale) SiO2 
 PCOD9010546
Probable space group: P -1
;
_chemical_formula_sum "Si O2"
_cell_formula_units_Z 14
_cell_length_a 23.342538
_cell_length_b 7.213621
_cell_length_c 12.490678
_cell_angle_alpha 66.497018
_cell_angle_beta 21.117858
_cell_angle_gamma 59.050948
_cell_volume 627.188218
_symmetry_space_group_name_H-M "P -1"
_symmetry_group_IT_number 2
_symmetry_cell_setting 'triclinic'
loop_
_space_group_symop_operation_xyz
x,y,z
-x,-y,-z
loop_
_atom_site_type_symbol
_atom_site_label
_atom_site_fract_x
_atom_site_fract_y
_atom_site_fract_z
Si Si1 0.690684 0.724196 0.686046
Si Si2 0.711145 0.923441 0.157658
Si Si3 0.003335 0.665905 0.864455
Si Si4 0.319861 0.693343 0.729223
Si Si5 0.492046 0.846021 0.213481
Si Si6 0.150620 0.250661 0.274596
Si Si7 0.948906 0.893344 0.313628
O O1 0.826147 0.479911 0.470939
O O2 0.808574 0.843430 0.502013
O O3 0.585005 0.888525 0.736219
O O4 0.554840 0.733525 0.013576
O O5 0.500000 0.000000 0.500000
O O6 0.727960 0.137953 0.126318
O O7 0.811141 0.838430 0.891601
O O8 0.822060 0.743593 0.095754
O O9 0.025516 0.886575 0.813463
O O10 0.000000 0.500000 0.000000
O O11 0.500000 0.500000 0.500000
O O12 0.358986 0.789583 0.528646
O O13 0.138754 0.676813 0.026461
O O14 0.666548 0.757297 0.000747
O O15 0.110880 0.089935 0.462589
O O16 0.000000 0.500000 0.500000
#
# Coordination Sequence:
#
# PCOD9010546 Si02
#       7
#     2   2   2   2   2   2   2
#     4  10  22  43  67  87 131 176 215 270 340 380
#     4  11  23  40  66  97 128 172 222 268 337 390
#     4  11  25  42  67  96 134 176 221 274 334 398
#     4  11  23  37  60  96 132 161 217 275 326 393
#     4  10  21  40  63  94 127 170 218 268 324 400
#     4  11  22  42  72  95 136 176 218 278 338 391
#     4  10  24  42  64  99 126 173 229 266 325 409
#
# _framework density 22.321845
#
# number of rings (size 3 to 8) (size 9 to 14) (size 15 to 20)
#    0.000    1.429    1.429    4.286    2.000    5.714 
#    0.000    6.429    0.000    0.000    0.000    0.000 
#    0.000    0.000    0.000    0.000    0.000    0.000 
#
# Total GULP energy -78174.689976 kJ/mol
# GULP energy per Si atom -5583.906427 kJ/mol
# Density = 2.227104 g / cm^3
# Si number density = 22.321845 Si / 1000 Ang^3
#
#
#
# Elastic Constant Matrix: (Units=GPa)
#
#
# Indices 1 2 3 4 5 6 
#
# 1 61.8402 27.6080 24.5619 13.7684 5.7877 -11.3513
# 2 27.6080 82.4402 21.8123 14.1977 11.9109 -6.2126
# 3 24.5619 21.8123 122.5493 15.2438 6.0115 -3.3119
# 4 13.7684 14.1977 15.2438 52.7972 -8.7177 -0.0208
# 5 5.7877 11.9109 6.0115 -8.7177 40.4059 3.0924
# 6 -11.3513 -6.2126 -3.3119 -0.0208 3.0924 33.8728
#
#
#
# Elastic Compliance Matrix: (Units=1/GPa)
#
#
# Indices 1 2 3 4 5 6 
#
# 1 0.021777 -0.005052 -0.002674 -0.003971 -0.002575 0.006343
# 2 -0.005052 0.015421 -0.001068 -0.003260 -0.004477 0.001438
# 3 -0.002674 -0.001068 0.009163 -0.001835 -0.001054 -0.000101
# 4 -0.003971 -0.003260 -0.001835 0.022515 0.006869 -0.002721
# 5 -0.002575 -0.004477 -0.001054 0.006869 0.028411 -0.004376
# 6 0.006343 0.001438 -0.000101 -0.002721 -0.004376 0.032299
#
#
# Mechanical properties :
#
#
# Convention : Reuss Voigt Hill
#
# Bulk Modulus (GPa) = 34.75385 46.08823 40.42104
# Shear Modulus (GPa) = 31.89463 38.27169 35.08316
#
# Velocity S-wave (km/s) = 3.78412 4.14519 3.96876
# Velocity P-wave (km/s) = 5.89033 6.60319 6.25692
#
# Compressibility (1/GPa) = 0.02877379
#
# Stress axis : x y z
#
# Youngs Moduli (GPa) = 45.91924 64.84733 109.13142
#
# Poissons Ratio (x) = 0.32758 0.29181
# Poissons Ratio (y) = 0.23196 0.11659
# Poissons Ratio (z) = 0.12278 0.06928
#
# Static dielectric constant tensor:
#      x y z
#    x 1.860320 -0.020360 0.003420 
#    y -0.020360 1.829170 -0.002220 
#    z 0.003420 -0.002220 1.880800 
# 
# From -- ./inp_files/220480.got.cif
#   From: 2010.05.17/outbox.cif.g08.bks.cpg/sg2_111_cif.got.tgz:220480.got - 2010.06.03 11:33:40.
