data_PCOD9010012
_publ_section_title
;
Structure prediction by ZEFSAII (Michael W. Deem and Ramdas Pophale) SiO2 
 PCOD9010012
Probable space group: P -1
;
_chemical_formula_sum "Si O2"
_cell_formula_units_Z 16
_cell_length_a 12.111940
_cell_length_b 16.072836
_cell_length_c 8.574257
_cell_angle_alpha 124.815366
_cell_angle_beta 74.066328
_cell_angle_gamma 142.129614
_cell_volume 788.181588
_symmetry_space_group_name_H-M "P -1"
_symmetry_group_IT_number 2
_symmetry_cell_setting 'triclinic'
loop_
_space_group_symop_operation_xyz
x,y,z
-x,-y,-z
loop_
_atom_site_type_symbol
_atom_site_label
_atom_site_fract_x
_atom_site_fract_y
_atom_site_fract_z
Si Si1 0.400327 0.423663 0.788946
Si Si2 0.153965 0.382567 0.637775
Si Si3 0.949426 0.896379 0.228151
Si Si4 0.830416 0.023495 0.501904
Si Si5 0.823960 0.374912 0.054565
Si Si6 0.211383 0.366919 0.252995
Si Si7 0.080784 0.492323 0.317757
Si Si8 0.565619 0.163712 0.648231
O O1 0.327245 0.471305 0.779353
O O2 0.204840 0.232439 0.710422
O O3 0.558752 0.483010 0.686062
O O4 0.500000 0.500000 0.000000
O O5 0.172824 0.514499 0.744494
O O6 0.157221 0.328192 0.413407
O O7 0.957730 0.213156 0.619702
O O8 0.138127 0.986913 0.339770
O O9 0.919689 0.995627 0.330689
O O10 0.887935 0.789479 0.985174
O O11 0.613424 0.894206 0.399289
O O12 0.895743 0.344727 0.119288
O O13 0.635367 0.231207 0.870949
O O14 0.000000 0.500000 0.000000
O O15 0.158121 0.437929 0.278648
O O16 0.252265 0.675790 0.359898
O O17 0.000000 0.500000 0.500000
O O18 0.500000 0.000000 0.500000
#
# Coordination Sequence:
#
# PCOD9010012 Si02
#       8
#     2   2   2   2   2   2   2   2
#     4   9  20  35  60  89 118 159 213 252 304 363
#     4  11  22  39  63  94 128 160 208 263 314 381
#     4   9  21  37  62  90 123 168 202 258 312 374
#     4  10  21  40  61  90 126 161 213 253 311 374
#     4  10  23  39  65  90 119 167 211 257 309 374
#     4  11  22  36  65  90 125 165 207 262 314 376
#     4  11  23  43  65  92 127 161 213 259 322 370
#     4  11  25  40  68  92 121 166 213 263 309 377
#
# _framework density 20.299890999999999
#
# number of rings (size 3 to 8) (size 9 to 14) (size 15 to 20)
#    0.000    1.750    1.250    2.625   15.750    0.500 
#    0.000    1.875    0.000    0.000    0.000    0.000 
#    0.000    0.000    0.000    0.000    0.000    0.000 
#
# Total GULP energy -89129.091557 kJ/mol
# GULP energy per Si atom -5570.568222 kJ/mol
# Density = 2.025369 g / cm^3
# Si number density = 20.299891 Si / 1000 Ang^3
#
#
#
# Elastic Constant Matrix: (Units=GPa)
#
#
# Indices 1 2 3 4 5 6 
#
# 1 114.4364 24.3113 25.9663 10.3589 29.4939 10.8336
# 2 24.3113 43.9342 16.0963 -3.2535 5.1877 -1.5248
# 3 25.9663 16.0963 104.8206 -1.2843 9.3713 10.4075
# 4 10.3589 -3.2535 -1.2843 25.3681 -2.5417 -2.6999
# 5 29.4939 5.1877 9.3713 -2.5417 41.8419 6.6456
# 6 10.8336 -1.5248 10.4075 -2.6999 6.6456 27.5720
#
#
#
# Elastic Compliance Matrix: (Units=1/GPa)
#
#
# Indices 1 2 3 4 5 6 
#
# 1 0.013739 -0.006858 -0.001297 -0.007824 -0.008378 -0.004035
# 2 -0.006858 0.028295 -0.003276 0.007038 0.001565 0.005808
# 3 -0.001297 -0.003276 0.010769 0.000221 -0.000508 -0.003593
# 4 -0.007824 0.007038 0.000221 0.044827 0.006324 0.006245
# 5 -0.008378 0.001565 -0.000508 0.006324 0.030616 -0.003190
# 6 -0.004035 0.005808 -0.003593 0.006245 -0.003190 0.040912
#
#
# Mechanical properties :
#
#
# Convention : Reuss Voigt Hill
#
# Bulk Modulus (GPa) = 33.39865 43.99321 38.69593
# Shear Modulus (GPa) = 24.75253 32.07756 28.41504
#
# Velocity S-wave (km/s) = 3.49570 3.97946 3.74540
# Velocity P-wave (km/s) = 5.72552 6.54473 6.14878
#
# Compressibility (1/GPa) = 0.02994133
#
# Stress axis : x y z
#
# Youngs Moduli (GPa) = 72.78432 35.34254 92.85691
#
# Poissons Ratio (x) = 0.24237 0.12040
# Poissons Ratio (y) = 0.49914 0.30424
# Poissons Ratio (z) = 0.09437 0.11580
#
# Static dielectric constant tensor:
#      x y z
#    x 1.861120 0.009690 0.008590 
#    y 0.009690 1.744440 0.012470 
#    z 0.008590 0.012470 1.783270 
# 
# From -- ./inp_files/274076.got.cif
#   From: 2010.05.17/outbox.cif.g08.bks.cpg/sg2_138_cif.got.tgz:274076.got - 2010.06.03 11:33:40.
