data_PCOD9010408
_publ_section_title
;
Structure prediction by ZEFSAII (Michael W. Deem and Ramdas Pophale) SiO2 
 PCOD9010408
Probable space group: P -1
;
_chemical_formula_sum "Si O2"
_cell_formula_units_Z 13
_cell_length_a 15.575602
_cell_length_b 19.985001
_cell_length_c 17.494581
_cell_angle_alpha 160.828400
_cell_angle_beta 157.919078
_cell_angle_gamma 21.408080
_cell_volume 599.832219
_symmetry_space_group_name_H-M "P -1"
_symmetry_group_IT_number 2
_symmetry_cell_setting 'triclinic'
loop_
_space_group_symop_operation_xyz
x,y,z
-x,-y,-z
loop_
_atom_site_type_symbol
_atom_site_label
_atom_site_fract_x
_atom_site_fract_y
_atom_site_fract_z
Si Si1 0.237671 0.139584 0.041265
Si Si2 0.746141 0.040616 0.734006
Si Si3 0.298246 0.786850 0.287461
Si Si4 0.720723 0.308608 0.154882
Si Si5 0.588184 0.842521 0.145344
Si Si6 0.445891 0.291734 0.254865
Si Si7 0.000000 0.500000 0.000000
O O1 0.372897 0.286425 0.277039
O O2 0.369589 0.010136 0.087745
O O3 0.935624 0.264928 0.937603
O O4 0.316534 0.939279 0.826053
O O5 0.721274 0.161906 0.763392
O O6 0.500000 0.000000 0.500000
O O7 0.758226 0.198872 0.983229
O O8 0.003534 0.801174 0.695202
O O9 0.566742 0.579534 0.309752
O O10 0.270162 0.015901 0.552293
O O11 0.545726 0.227222 0.972664
O O12 0.787881 0.628580 0.031845
O O13 0.500000 0.500000 0.500000
O O14 0.201651 0.325535 0.040532
#
# Coordination Sequence:
#
# PCOD9010408 Si02
#       7
#     2   2   2   2   2   2   1
#     4  10  23  39  61  95 132 170 226 278 323 400
#     4  11  24  47  71 100 140 175 228 287 344 406
#     4  12  24  43  71 100 137 183 224 281 346 401
#     4  11  25  44  70 101 137 178 228 284 339 413
#     4  11  23  43  65 102 138 179 234 278 335 409
#     4  10  21  40  63  89 128 177 223 274 333 387
#     4  10  22  40  66  92 138 176 224 278 330 392
#
# _framework density 21.672726999999998
#
# number of rings (size 3 to 8) (size 9 to 14) (size 15 to 20)
#    0.000    1.231    3.077    2.308    0.000    5.538 
#    2.769    6.923    0.000    0.000    0.000    0.000 
#    0.000    0.000    0.000    0.000    0.000    0.000 
#
# Total GULP energy -72409.492105 kJ/mol
# GULP energy per Si atom -5569.960931 kJ/mol
# Density = 2.162340 g / cm^3
# Si number density = 21.672727 Si / 1000 Ang^3
#
#
#
# Elastic Constant Matrix: (Units=GPa)
#
#
# Indices 1 2 3 4 5 6 
#
# 1 119.8329 37.5879 15.5020 -6.1835 17.2727 11.7139
# 2 37.5879 133.3725 12.2326 -12.0032 16.4996 2.7107
# 3 15.5020 12.2326 38.4036 -4.4338 19.2569 0.3814
# 4 -6.1835 -12.0032 -4.4338 11.2676 2.3401 5.6578
# 5 17.2727 16.4996 19.2569 2.3401 25.2982 1.2427
# 6 11.7139 2.7107 0.3814 5.6578 1.2427 33.9807
#
#
#
# Elastic Compliance Matrix: (Units=1/GPa)
#
#
# Indices 1 2 3 4 5 6 
#
# 1 0.010665 -0.001205 0.001201 0.009128 -0.008018 -0.004821
# 2 -0.001205 0.010147 0.004184 0.015232 -0.010261 -0.002602
# 3 0.001201 0.004184 0.051898 0.038159 -0.046288 -0.005991
# 4 0.009128 0.015232 0.038159 0.150975 -0.057813 -0.027813
# 5 -0.008018 -0.010261 -0.046288 -0.057813 0.091768 0.010372
# 6 -0.004821 -0.002602 -0.005991 -0.027813 0.010372 0.035617
#
#
# Mechanical properties :
#
#
# Convention : Reuss Voigt Hill
#
# Bulk Modulus (GPa) = 12.33500 46.91709 29.62605
# Shear Modulus (GPa) = 13.52328 29.19507 21.35918
#
# Velocity S-wave (km/s) = 2.50066 3.67425 3.14273
# Velocity P-wave (km/s) = 3.74721 6.30041 5.18347
#
# Compressibility (1/GPa) = 0.08107012
#
# Stress axis : x y z
#
# Youngs Moduli (GPa) = 93.76113 98.55401 19.26874
#
# Poissons Ratio (x) = 0.11871 -0.02314
# Poissons Ratio (y) = 0.11294 -0.08062
# Poissons Ratio (z) = -0.11257 -0.41236
#
# Static dielectric constant tensor:
#      x y z
#    x 1.805310 0.017540 -0.005710 
#    y 0.017540 1.778180 0.014130 
#    z -0.005710 0.014130 1.823920 
# 
# From -- ./inp_files/95860.got.cif
#   From: 2010.05.17/outbox.cif.g08.bks.cpg/sg2_48_cif.got.tgz:95860.got - 2010.06.03 11:33:40.
