data_PCOD9010501
_publ_section_title
;
Structure prediction by ZEFSAII (Michael W. Deem and Ramdas Pophale) SiO2 
 PCOD9010501
Probable space group: P -1
;
_chemical_formula_sum "Si O2"
_cell_formula_units_Z 16
_cell_length_a 7.930284
_cell_length_b 13.266393
_cell_length_c 9.027041
_cell_angle_alpha 91.706928
_cell_angle_beta 131.426111
_cell_angle_gamma 107.957017
_cell_volume 639.991296
_symmetry_space_group_name_H-M "P -1"
_symmetry_group_IT_number 2
_symmetry_cell_setting 'triclinic'
loop_
_space_group_symop_operation_xyz
x,y,z
-x,-y,-z
loop_
_atom_site_type_symbol
_atom_site_label
_atom_site_fract_x
_atom_site_fract_y
_atom_site_fract_z
Si Si1 0.167313 0.664750 0.718401
Si Si2 0.399738 0.035415 0.201560
Si Si3 0.255570 0.779294 0.365908
Si Si4 0.536114 0.169251 0.847260
Si Si5 0.360947 0.514550 0.677672
Si Si6 0.101650 0.152994 0.962707
Si Si7 0.790529 0.715647 0.379685
Si Si8 0.608076 0.678126 0.611696
O O1 0.360441 0.619084 0.771540
O O2 0.908097 0.550183 0.565645
O O3 0.077894 0.735050 0.554551
O O4 0.266177 0.740078 0.923341
O O5 0.495845 0.956997 0.165512
O O6 0.154701 0.954244 0.149924
O O7 0.585571 0.113049 0.437085
O O8 0.308011 0.108470 0.044110
O O9 0.357109 0.799577 0.256301
O O10 0.340134 0.683796 0.458105
O O11 0.976599 0.770732 0.187927
O O12 0.289758 0.190669 0.714708
O O13 0.365060 0.413092 0.771870
O O14 0.572894 0.569077 0.679686
O O15 0.202354 0.218662 0.177086
O O16 0.708853 0.695971 0.505984
#
# Coordination Sequence:
#
# PCOD9010501 Si02
#       8
#     2   2   2   2   2   2   2   2
#     4   9  20  36  50  69 102 134 175 199 244 297
#     4   9  17  28  48  76 108 127 156 208 253 293
#     4   9  18  30  47  79 106 127 160 207 253 298
#     4  10  17  29  51  77  95 126 169 208 240 294
#     4   9  20  38  48  69 105 139 160 213 244 286
#     4   9  16  28  47  74 101 135 154 192 257 302
#     4   9  18  32  50  74  98 129 167 208 244 286
#     4  10  18  32  51  75 105 127 168 204 250 293
#
# _framework density 25.000340000000001
#
# number of rings (size 3 to 8) (size 9 to 14) (size 15 to 20)
#    0.750    2.000    0.000    3.375    0.000    3.500 
#    2.250    1.250    0.000    3.000    0.000    7.875 
#    0.000    0.000    0.000    0.000    0.000    0.000 
#
# Total GULP energy -89234.278868 kJ/mol
# GULP energy per Si atom -5577.142429 kJ/mol
# Density = 2.494344 g / cm^3
# Si number density = 25.000340 Si / 1000 Ang^3
#
#
#
# Elastic Constant Matrix: (Units=GPa)
#
#
# Indices 1 2 3 4 5 6 
#
# 1 69.9306 29.5248 24.1242 7.8760 -0.9461 -24.6995
# 2 29.5248 121.9522 55.3837 -18.7009 -15.4702 -33.9555
# 3 24.1242 55.3837 109.4578 -8.5123 -16.3623 -19.2255
# 4 7.8760 -18.7009 -8.5123 48.5749 -13.9542 7.1701
# 5 -0.9461 -15.4702 -16.3623 -13.9542 27.7474 1.5649
# 6 -24.6995 -33.9555 -19.2255 7.1701 1.5649 58.8100
#
#
#
# Elastic Compliance Matrix: (Units=1/GPa)
#
#
# Indices 1 2 3 4 5 6 
#
# 1 0.020232 -0.004036 -0.003190 -0.008685 -0.008170 0.006401
# 2 -0.004036 0.014354 -0.003653 0.007584 0.009287 0.004227
# 3 -0.003190 -0.003653 0.013086 0.003472 0.007305 0.000212
# 4 -0.008685 0.007584 0.003472 0.032353 0.022401 -0.002674
# 5 -0.008170 0.009287 0.007305 0.022401 0.056507 0.000084
# 6 0.006401 0.004227 0.000212 -0.002674 0.000084 0.022526
#
#
# Mechanical properties :
#
#
# Convention : Reuss Voigt Hill
#
# Bulk Modulus (GPa) = 38.58563 57.71180 48.14871
# Shear Modulus (GPa) = 26.39166 39.84697 33.11931
#
# Velocity S-wave (km/s) = 3.25260 3.99665 3.64367
# Velocity P-wave (km/s) = 5.43815 6.66574 6.08299
#
# Compressibility (1/GPa) = 0.02591639
#
# Stress axis : x y z
#
# Youngs Moduli (GPa) = 49.42546 69.66748 76.41503
#
# Poissons Ratio (x) = 0.28116 0.24373
# Poissons Ratio (y) = 0.19947 0.27913
# Poissons Ratio (z) = 0.15765 0.25449
#
# Static dielectric constant tensor:
#      x y z
#    x 2.069060 -0.032930 0.016240 
#    y -0.032930 2.069530 -0.084570 
#    z 0.016240 -0.084570 1.975050 
# 
# From -- ./inp_files/399351.got.cif
#   From: 2010.05.17/outbox.cif.g08.bks.cpg/sg2_200_cif.got.tgz:399351.got - 2010.06.03 11:33:40.
