data_PCOD9010130
_publ_section_title
;
Structure prediction by ZEFSAII (Michael W. Deem and Ramdas Pophale) SiO2 
 PCOD9010130
Probable space group: P -1
;
_chemical_formula_sum "Si O2"
_cell_formula_units_Z 14
_cell_length_a 27.107852
_cell_length_b 11.698698
_cell_length_c 25.004973
_cell_angle_alpha 28.580285
_cell_angle_beta 10.114145
_cell_angle_gamma 27.575509
_cell_volume 643.142403
_symmetry_space_group_name_H-M "P -1"
_symmetry_group_IT_number 2
_symmetry_cell_setting 'triclinic'
loop_
_space_group_symop_operation_xyz
x,y,z
-x,-y,-z
loop_
_atom_site_type_symbol
_atom_site_label
_atom_site_fract_x
_atom_site_fract_y
_atom_site_fract_z
Si Si1 0.502792 0.033946 0.330040
Si Si2 0.593840 0.726487 0.986144
Si Si3 0.895571 0.951652 0.354134
Si Si4 0.432620 0.514672 0.503525
Si Si5 0.911302 0.516032 0.364580
Si Si6 0.199884 0.086090 0.412285
Si Si7 0.811957 0.735141 0.931843
O O1 0.273286 0.205426 0.543936
O O2 0.341039 0.049647 0.438512
O O3 0.602968 0.755185 0.360463
O O4 0.787949 0.127494 0.976619
O O5 0.795343 0.549466 0.887029
O O6 0.779633 0.728885 0.733188
O O7 0.299630 0.647173 0.321599
O O8 0.500000 0.000000 0.000000
O O9 0.834647 0.242524 0.317633
O O10 0.857367 0.818059 0.505141
O O11 0.500000 0.500000 0.500000
O O12 0.697430 0.575240 0.163847
O O13 0.986896 0.435618 0.256268
O O14 0.969626 0.931991 0.706453
O O15 0.518847 0.894600 0.151039
#
# Coordination Sequence:
#
# PCOD9010130 Si02
#       7
#     2   2   2   2   2   2   2
#     4  11  23  40  59  86 129 157 189 244 296 352
#     4  12  22  41  63  87 118 157 202 240 295 354
#     4  10  21  40  62  88 115 160 203 240 285 346
#     4   9  20  38  64  88 115 158 201 238 287 347
#     4  12  24  39  59  92 123 156 192 241 305 353
#     4  11  21  37  64  89 113 149 208 255 279 336
#     4  11  21  36  60  92 118 148 199 248 290 347
#
# _framework density 21.768117
#
# number of rings (size 3 to 8) (size 9 to 14) (size 15 to 20)
#    0.000    1.143    2.857    5.143    0.000    4.000 
#    0.000    4.286    0.000   10.286    0.000    0.000 
#    0.000    0.000    0.000    0.000    0.000    0.000 
#
# Total GULP energy -78279.506115 kJ/mol
# GULP energy per Si atom -5591.393294 kJ/mol
# Density = 2.171857 g / cm^3
# Si number density = 21.768117 Si / 1000 Ang^3
#
#
#
# Elastic Constant Matrix: (Units=GPa)
#
#
# Indices 1 2 3 4 5 6 
#
# 1 66.7317 -13.9696 27.1378 -11.4743 16.6030 -6.8095
# 2 -13.9696 44.9302 -2.9166 8.1655 3.2686 3.6695
# 3 27.1378 -2.9166 94.1584 0.6701 12.6562 1.9826
# 4 -11.4743 8.1655 0.6701 33.5487 -1.9701 0.1910
# 5 16.6030 3.2686 12.6562 -1.9701 42.9682 1.5571
# 6 -6.8095 3.6695 1.9826 0.1910 1.5571 18.5192
#
#
#
# Elastic Compliance Matrix: (Units=1/GPa)
#
#
# Indices 1 2 3 4 5 6 
#
# 1 0.021941 0.005275 -0.005390 0.005852 -0.007319 0.008154
# 2 0.005275 0.025229 -0.000108 -0.004556 -0.004038 -0.002661
# 3 -0.005390 -0.000108 0.012462 -0.002140 -0.001564 -0.003141
# 4 0.005852 -0.004556 -0.002140 0.032951 0.000120 0.002934
# 5 -0.007319 -0.004038 -0.001564 0.000120 0.027019 -0.003997
# 6 0.008154 -0.002661 -0.003141 0.002934 -0.003997 0.058166
#
#
# Mechanical properties :
#
#
# Convention : Reuss Voigt Hill
#
# Bulk Modulus (GPa) = 16.89567 25.14705 21.02136
# Shear Modulus (GPa) = 25.25997 32.04515 28.65256
#
# Velocity S-wave (km/s) = 3.41018 3.84098 3.63197
# Velocity P-wave (km/s) = 4.82538 5.59000 5.22170
#
# Compressibility (1/GPa) = 0.05918677
#
# Stress axis : x y z
#
# Youngs Moduli (GPa) = 45.57729 39.63698 80.24317
#
# Poissons Ratio (x) = -0.20908 0.43250
# Poissons Ratio (y) = -0.24041 0.00863
# Poissons Ratio (z) = 0.24565 0.00426
#
# Static dielectric constant tensor:
#      x y z
#    x 1.777000 0.005120 0.015030 
#    y 0.005120 1.848030 -0.010430 
#    z 0.015030 -0.010430 1.766340 
# 
# From -- ./inp_files/55823.got.cif
#   From: 2010.05.17/outbox.cif.g08.bks.cpg/sg2_28_cif.got.tgz:55823.got - 2010.06.03 11:33:40.
