data_PCOD9010325
_publ_section_title
;
Structure prediction by ZEFSAII (Michael W. Deem and Ramdas Pophale) SiO2 
 PCOD9010325
Probable space group: P -1
;
_chemical_formula_sum "Si O2"
_cell_formula_units_Z 14
_cell_length_a 7.902044
_cell_length_b 20.384030
_cell_length_c 6.528024
_cell_angle_alpha 114.908894
_cell_angle_beta 121.661174
_cell_angle_gamma 43.866917
_cell_volume 618.595079
_symmetry_space_group_name_H-M "P -1"
_symmetry_group_IT_number 2
_symmetry_cell_setting 'triclinic'
loop_
_space_group_symop_operation_xyz
x,y,z
-x,-y,-z
loop_
_atom_site_type_symbol
_atom_site_label
_atom_site_fract_x
_atom_site_fract_y
_atom_site_fract_z
Si Si1 0.733332 0.891773 0.961183
Si Si2 0.012572 0.490846 0.256110
Si Si3 0.936221 0.746352 0.233333
Si Si4 0.437876 0.277976 0.268518
Si Si5 0.600506 0.794995 0.462807
Si Si6 0.860233 0.111378 0.032505
Si Si7 0.736213 0.451683 0.745106
O O1 0.882344 0.831428 0.184122
O O2 0.932781 0.883060 0.924739
O O3 0.595532 0.858256 0.712971
O O4 0.500000 0.000000 0.000000
O O5 0.296829 0.385809 0.256745
O O6 0.031970 0.565309 0.265268
O O7 0.000000 0.500000 0.500000
O O8 0.776080 0.497218 0.023475
O O9 0.841150 0.762042 0.427001
O O10 0.213261 0.641719 0.267078
O O11 0.759287 0.731827 0.975733
O O12 0.413296 0.272582 0.490453
O O13 0.715712 0.186486 0.230538
O O14 0.362655 0.849052 0.226254
O O15 0.000000 0.000000 0.000000
O O16 0.500000 0.500000 0.500000
#
# Coordination Sequence:
#
# PCOD9010325 Si02
#       7
#     2   2   2   2   2   2   2
#     4  11  24  40  62  91 120 159 207 253 310 373
#     4  10  21  40  64  90 125 165 209 261 314 371
#     4   9  20  40  61  89 123 159 206 256 308 371
#     4   9  20  39  62  90 121 162 209 252 308 370
#     4  10  21  40  63  83 122 162 196 255 309 359
#     4  11  24  40  61  90 122 159 206 254 308 375
#     4  10  22  39  61  91 126 162 207 259 314 376
#
# _framework density 22.631931000000002
#
# number of rings (size 3 to 8) (size 9 to 14) (size 15 to 20)
#    0.000    2.000    0.000    3.429    0.000    9.714 
#    0.000    0.000    0.000    0.000    0.000    0.000 
#    0.000    0.000    0.000    0.000    0.000    0.000 
#
# Total GULP energy -77963.557627 kJ/mol
# GULP energy per Si atom -5568.825545 kJ/mol
# Density = 2.258042 g / cm^3
# Si number density = 22.631931 Si / 1000 Ang^3
#
#
#
# Elastic Constant Matrix: (Units=GPa)
#
#
# Indices 1 2 3 4 5 6 
#
# 1 72.2775 31.5066 20.1724 -9.8489 -6.5396 1.7404
# 2 31.5066 115.5848 36.9733 -16.5758 -11.5642 16.2236
# 3 20.1724 36.9733 141.6605 -12.5584 -9.4521 -1.6558
# 4 -9.8489 -16.5758 -12.5584 27.6852 2.1131 -9.2102
# 5 -6.5396 -11.5642 -9.4521 2.1131 47.4604 -6.4818
# 6 1.7404 16.2236 -1.6558 -9.2102 -6.4818 30.4507
#
#
#
# Elastic Compliance Matrix: (Units=1/GPa)
#
#
# Indices 1 2 3 4 5 6 
#
# 1 0.016336 -0.003845 -0.000864 0.003853 0.001314 0.002513
# 2 -0.003845 0.011627 -0.002224 0.002836 0.001049 -0.005015
# 3 -0.000864 -0.002224 0.008133 0.002892 0.001214 0.002810
# 4 0.003853 0.002836 0.002892 0.044441 0.001483 0.012183
# 5 0.001314 0.001049 0.001214 0.001483 0.022315 0.004631
# 6 0.002513 -0.005015 0.002810 0.012183 0.004631 0.040192
#
#
# Mechanical properties :
#
#
# Convention : Reuss Voigt Hill
#
# Bulk Modulus (GPa) = 44.98666 56.31416 50.65041
# Shear Modulus (GPa) = 30.42835 37.17729 33.80282
#
# Velocity S-wave (km/s) = 3.67070 4.05741 3.86889
# Velocity P-wave (km/s) = 6.15517 6.84739 6.51048
#
# Compressibility (1/GPa) = 0.02222881
#
# Stress axis : x y z
#
# Youngs Moduli (GPa) = 61.21318 86.00778 122.95721
#
# Poissons Ratio (x) = 0.33073 0.10624
# Poissons Ratio (y) = 0.23539 0.27348
# Poissons Ratio (z) = 0.05289 0.19130
#
# Static dielectric constant tensor:
#      x y z
#    x 1.893910 -0.020910 -0.035050 
#    y -0.020910 1.914610 0.000790 
#    z -0.035050 0.000790 1.853980 
# 
# From -- ./inp_files/53547.got.cif
#   From: 2010.05.17/outbox.cif.g08.bks.cpg/sg2_27_cif.got.tgz:53547.got - 2010.06.03 11:33:40.
