data_PCOD9010833
_publ_section_title
;
Structure prediction by ZEFSAII (Michael W. Deem and Ramdas Pophale) SiO2 
 PCOD9010833
Probable space group: P -1
;
_chemical_formula_sum "Si O2"
_cell_formula_units_Z 16
_cell_length_a 11.925963
_cell_length_b 11.139718
_cell_length_c 9.062892
_cell_angle_alpha 99.017227
_cell_angle_beta 134.240953
_cell_angle_gamma 58.218910
_cell_volume 687.955598
_symmetry_space_group_name_H-M "P -1"
_symmetry_group_IT_number 2
_symmetry_cell_setting 'triclinic'
loop_
_space_group_symop_operation_xyz
x,y,z
-x,-y,-z
loop_
_atom_site_type_symbol
_atom_site_label
_atom_site_fract_x
_atom_site_fract_y
_atom_site_fract_z
Si Si1 0.077047 0.118212 0.270660
Si Si2 0.275482 0.250322 0.425952
Si Si3 0.873946 0.174227 0.371043
Si Si4 0.344348 0.312209 0.171670
Si Si5 0.120398 0.474751 0.749860
Si Si6 0.689810 0.383448 0.814121
Si Si7 0.255755 0.792502 0.447785
Si Si8 0.481578 0.335717 0.857390
O O1 0.265892 0.108559 0.400101
O O2 0.006555 0.188451 0.383912
O O3 0.112366 0.957839 0.278950
O O4 0.896615 0.233369 0.024602
O O5 0.312795 0.273315 0.296871
O O6 0.410996 0.254876 0.673172
O O7 0.053580 0.388061 0.287139
O O8 0.825075 0.249927 0.500372
O O9 0.680712 0.228148 0.111901
O O10 0.000000 0.000000 0.500000
O O11 0.296565 0.478685 0.159729
O O12 0.572068 0.203828 0.326399
O O13 0.214061 0.330152 0.917207
O O14 0.312771 0.445310 0.841648
O O15 0.000000 0.500000 0.500000
O O16 0.654876 0.333272 0.618331
O O17 0.534680 0.413311 0.799818
#
# Coordination Sequence:
#
# PCOD9010833 Si02
#       8
#     2   2   2   2   2   2   2   2
#     4  10  23  42  66  92 130 171 208 268 322 380
#     4  11  23  42  63  95 133 166 211 262 327 382
#     4   9  20  41  66  89 125 170 216 263 311 379
#     4  12  23  41  66  96 130 165 215 269 312 384
#     4  10  22  40  65  91 129 168 207 261 322 378
#     4  11  23  41  65  95 126 169 215 265 318 376
#     4  11  22  41  66  94 126 166 222 261 319 380
#     4  10  21  40  64  93 130 166 212 268 321 379
#
# _framework density 23.257313
#
# number of rings (size 3 to 8) (size 9 to 14) (size 15 to 20)
#    0.000    1.500    3.750    1.125    0.000    2.000 
#    4.500    2.500    0.000    0.000    0.000    0.000 
#    0.000    0.000    0.000    0.000    0.000    0.000 
#
# Total GULP energy -89235.032617 kJ/mol
# GULP energy per Si atom -5577.189539 kJ/mol
# Density = 2.320438 g / cm^3
# Si number density = 23.257313 Si / 1000 Ang^3
#
#
#
# Elastic Constant Matrix: (Units=GPa)
#
#
# Indices 1 2 3 4 5 6 
#
# 1 150.3636 20.0564 21.3816 12.6467 -29.2366 -0.2633
# 2 20.0564 37.0873 10.3735 -12.0114 -5.9580 1.3246
# 3 21.3816 10.3735 105.6086 -10.0213 -8.3374 4.0088
# 4 12.6467 -12.0114 -10.0213 31.7778 -6.9196 0.8363
# 5 -29.2366 -5.9580 -8.3374 -6.9196 42.1705 2.7154
# 6 -0.2633 1.3246 4.0088 0.8363 2.7154 28.0377
#
#
#
# Elastic Compliance Matrix: (Units=1/GPa)
#
#
# Indices 1 2 3 4 5 6 
#
# 1 0.008812 -0.005338 -0.001417 -0.005058 0.004227 0.000279
# 2 -0.005338 0.036130 -0.000460 0.016620 0.004207 -0.002594
# 3 -0.001417 -0.000460 0.010400 0.004107 0.001797 -0.001775
# 4 -0.005058 0.016620 0.004107 0.042643 0.006867 -0.003357
# 5 0.004227 0.004207 0.001797 0.006867 0.028941 -0.003424
# 6 0.000279 -0.002594 -0.001775 -0.003357 -0.003424 0.036477
#
#
# Mechanical properties :
#
#
# Convention : Reuss Voigt Hill
#
# Bulk Modulus (GPa) = 24.44296 44.07584 34.25940
# Shear Modulus (GPa) = 26.11374 36.48039 31.29707
#
# Velocity S-wave (km/s) = 3.35448 3.96480 3.67234
# Velocity P-wave (km/s) = 5.05332 6.32076 5.72224
#
# Compressibility (1/GPa) = 0.04091157
#
# Stress axis : x y z
#
# Youngs Moduli (GPa) = 113.48348 27.67757 96.15397
#
# Poissons Ratio (x) = 0.14775 0.13621
# Poissons Ratio (y) = 0.60581 0.04428
# Poissons Ratio (z) = 0.16076 0.01274
#
# Static dielectric constant tensor:
#      x y z
#    x 1.919650 -0.009470 -0.010920 
#    y -0.009470 1.956540 0.049390 
#    z -0.010920 0.049390 1.959540 
# 
# From -- ./inp_files/262608.got.cif
#   From: 2010.05.17/outbox.cif.g08.bks.cpg/sg2_132_cif.got.tgz:262608.got - 2010.06.03 11:33:40.
