data_PCOD9010154
_publ_section_title
;
Structure prediction by ZEFSAII (Michael W. Deem and Ramdas Pophale) SiO2 
 PCOD9010154
Probable space group: P -1
;
_chemical_formula_sum "Si O2"
_cell_formula_units_Z 14
_cell_length_a 14.196340
_cell_length_b 9.365150
_cell_length_c 8.213506
_cell_angle_alpha 34.640445
_cell_angle_beta 59.654847
_cell_angle_gamma 70.688572
_cell_volume 527.582788
_symmetry_space_group_name_H-M "P -1"
_symmetry_group_IT_number 2
_symmetry_cell_setting 'triclinic'
loop_
_space_group_symop_operation_xyz
x,y,z
-x,-y,-z
loop_
_atom_site_type_symbol
_atom_site_label
_atom_site_fract_x
_atom_site_fract_y
_atom_site_fract_z
Si Si1 0.798373 0.894972 0.920886
Si Si2 0.326050 0.096349 0.286407
Si Si3 0.963545 0.985166 0.234415
Si Si4 0.778817 0.412151 0.583809
Si Si5 0.028484 0.505437 0.166235
Si Si6 0.455742 0.641799 0.557236
Si Si7 0.613366 0.669924 0.673752
O O1 0.776508 0.945248 0.707315
O O2 0.927159 0.948661 0.807826
O O3 0.749764 0.113715 0.855306
O O4 0.755696 0.602029 0.279850
O O5 0.334027 0.097910 0.473590
O O6 0.397001 0.886588 0.356447
O O7 0.375619 0.398190 0.933795
O O8 0.911698 0.711332 0.605499
O O9 0.903866 0.223266 0.095450
O O10 0.000000 0.000000 0.000000
O O11 0.913389 0.466813 0.409559
O O12 0.709716 0.508113 0.698988
O O13 0.000000 0.500000 0.000000
O O14 0.500000 0.500000 0.500000
O O15 0.560994 0.746913 0.479629
O O16 0.500000 0.500000 0.000000
#
# Coordination Sequence:
#
# PCOD9010154 Si02
#       7
#     2   2   2   2   2   2   2
#     4  10  21  40  62  89 123 164 210 262 318 388
#     4  11  22  37  58  87 121 162 209 258 311 372
#     4  10  21  40  67  99 131 169 212 268 335 399
#     4  10  22  41  62  89 126 165 211 262 320 387
#     4  10  21  41  68  96 129 170 215 269 331 398
#     4  11  22  37  60  85 118 166 211 255 311 370
#     4  10  23  40  61  91 126 166 213 266 318 380
#
# _framework density 26.536123
#
# number of rings (size 3 to 8) (size 9 to 14) (size 15 to 20)
#    0.000    1.714    0.000    4.286    0.000    5.714 
#    0.000   17.143    0.000    0.000    0.000    0.000 
#    0.000    0.000    0.000    0.000    0.000    0.000 
#
# Total GULP energy -78155.696185 kJ/mol
# GULP energy per Si atom -5582.549727 kJ/mol
# Density = 2.647573 g / cm^3
# Si number density = 26.536123 Si / 1000 Ang^3
#
#
#
# Elastic Constant Matrix: (Units=GPa)
#
#
# Indices 1 2 3 4 5 6 
#
# 1 124.6171 47.1713 11.6793 3.6758 8.4930 20.6082
# 2 47.1713 165.6712 27.9941 -7.9644 7.6817 -7.3189
# 3 11.6793 27.9941 114.8260 -26.2327 6.6411 -11.7929
# 4 3.6758 -7.9644 -26.2327 49.9534 -13.2949 4.3711
# 5 8.4930 7.6817 6.6411 -13.2949 32.6622 1.0245
# 6 20.6082 -7.3189 -11.7929 4.3711 1.0245 58.1223
#
#
#
# Elastic Compliance Matrix: (Units=1/GPa)
#
#
# Indices 1 2 3 4 5 6 
#
# 1 0.010086 -0.002852 -0.001066 -0.002063 -0.002451 -0.003953
# 2 -0.002852 0.007164 -0.001150 0.000449 -0.000579 0.001656
# 3 -0.001066 -0.001150 0.010496 0.005381 0.000543 0.001948
# 4 -0.002063 0.000449 0.005381 0.025697 0.009803 -0.000226
# 5 -0.002451 -0.000579 0.000543 0.009803 0.035284 -0.000453
# 6 -0.003953 0.001656 0.001948 -0.000226 -0.000453 0.019236
#
#
# Mechanical properties :
#
#
# Convention : Reuss Voigt Hill
#
# Bulk Modulus (GPa) = 56.78960 64.31155 60.55057
# Shear Modulus (GPa) = 40.33318 49.36555 44.84937
#
# Velocity S-wave (km/s) = 3.90286 4.31782 4.11557
# Velocity P-wave (km/s) = 6.46197 7.01043 6.74178
#
# Compressibility (1/GPa) = 0.01760886
#
# Stress axis : x y z
#
# Youngs Moduli (GPa) = 99.15170 139.58750 95.27707
#
# Poissons Ratio (x) = 0.39806 0.10158
# Poissons Ratio (y) = 0.28275 0.10960
# Poissons Ratio (z) = 0.10571 0.16057
#
# Static dielectric constant tensor:
#      x y z
#    x 2.119710 0.038960 0.049460 
#    y 0.038960 2.337750 -0.010990 
#    z 0.049460 -0.010990 2.342420 
# 
# From -- ./inp_files/142760.got.cif
#   From: 2010.05.17/outbox.cif.g08.bks.cpg/sg2_72_cif.got.tgz:142760.got - 2010.06.03 11:33:40.
