data_PCOD9010907
_publ_section_title
;
Structure prediction by ZEFSAII (Michael W. Deem and Ramdas Pophale) SiO2 
 PCOD9010907
Probable space group: P -1
;
_chemical_formula_sum "Si O2"
_cell_formula_units_Z 14
_cell_length_a 11.594653
_cell_length_b 8.499873
_cell_length_c 12.869188
_cell_angle_alpha 37.741786
_cell_angle_beta 46.483674
_cell_angle_gamma 62.570029
_cell_volume 552.845820
_symmetry_space_group_name_H-M "P -1"
_symmetry_group_IT_number 2
_symmetry_cell_setting 'triclinic'
loop_
_space_group_symop_operation_xyz
x,y,z
-x,-y,-z
loop_
_atom_site_type_symbol
_atom_site_label
_atom_site_fract_x
_atom_site_fract_y
_atom_site_fract_z
Si Si1 0.396575 0.171400 0.278496
Si Si2 0.760419 0.415446 0.919491
Si Si3 0.171771 0.686434 0.286481
Si Si4 0.993485 0.687602 0.004164
Si Si5 0.354042 0.922715 0.213543
Si Si6 0.321468 0.393243 0.623021
Si Si7 0.261530 0.161513 0.568979
O O1 0.239976 0.300128 0.278557
O O2 0.346105 0.025090 0.495197
O O3 0.419636 0.061671 0.207079
O O4 0.572650 0.341316 0.108251
O O5 0.793333 0.241982 0.891891
O O6 0.890095 0.407212 0.931286
O O7 0.207519 0.924658 0.221508
O O8 0.284770 0.466312 0.358681
O O9 0.000000 0.500000 0.500000
O O10 0.815512 0.669447 0.172197
O O11 0.000000 0.500000 0.000000
O O12 0.081931 0.988286 0.773736
O O13 0.282934 0.641520 0.455443
O O14 0.500000 0.000000 0.000000
O O15 0.500000 0.500000 0.500000
O O16 0.319403 0.178902 0.644304
#
# Coordination Sequence:
#
# PCOD9010907 Si02
#       7
#     2   2   2   2   2   2   2
#     4  10  22  41  68 102 129 177 226 283 337 396
#     4  10  22  40  66  95 138 171 225 280 341 397
#     4  10  21  40  64  95 130 175 219 282 336 394
#     4  12  27  46  68 102 138 182 226 281 342 406
#     4  11  22  40  65 100 129 167 230 276 331 398
#     4  11  27  45  66  99 137 180 228 272 339 413
#     4  10  24  43  67  94 138 176 224 277 339 400
#
# _framework density 25.323516000000001
#
# number of rings (size 3 to 8) (size 9 to 14) (size 15 to 20)
#    0.000    1.429    1.429    3.000    6.000    2.857 
#    0.000    3.571    0.000    0.000    0.000    0.000 
#    0.000    0.000    0.000    0.000    0.000    0.000 
#
# Total GULP energy -77943.116383 kJ/mol
# GULP energy per Si atom -5567.365456 kJ/mol
# Density = 2.526588 g / cm^3
# Si number density = 25.323516 Si / 1000 Ang^3
#
#
#
# Elastic Constant Matrix: (Units=GPa)
#
#
# Indices 1 2 3 4 5 6 
#
# 1 143.6580 48.1937 43.7768 25.1095 -16.1937 46.5024
# 2 48.1937 109.9959 58.8140 30.4034 1.3617 39.5725
# 3 43.7768 58.8140 155.2911 39.3343 -13.6532 22.9418
# 4 25.1095 30.4034 39.3343 50.9038 0.5138 12.6256
# 5 -16.1937 1.3617 -13.6532 0.5138 50.5303 -2.6183
# 6 46.5024 39.5725 22.9418 12.6256 -2.6183 59.2161
#
#
#
# Elastic Compliance Matrix: (Units=1/GPa)
#
#
# Indices 1 2 3 4 5 6 
#
# 1 0.010403 -0.001295 -0.000661 -0.002281 0.002880 -0.006434
# 2 -0.001295 0.015189 -0.003539 -0.003937 -0.002104 -0.007016
# 3 -0.000661 -0.003539 0.009372 -0.004931 0.002488 0.000414
# 4 -0.002281 -0.003937 -0.004931 0.026826 -0.002203 0.000515
# 5 0.002880 -0.002104 0.002488 -0.002203 0.021444 -0.000402
# 6 -0.006434 -0.007016 0.000414 0.000515 -0.000402 0.026341
#
#
# Mechanical properties :
#
#
# Convention : Reuss Voigt Hill
#
# Bulk Modulus (GPa) = 41.70907 78.94600 60.32753
# Shear Modulus (GPa) = 38.89359 49.34074 44.11717
#
# Velocity S-wave (km/s) = 3.92327 4.41888 4.17843
# Velocity P-wave (km/s) = 6.08514 7.56822 6.86684
#
# Compressibility (1/GPa) = 0.02397560
#
# Stress axis : x y z
#
# Youngs Moduli (GPa) = 96.12753 65.83561 106.69559
#
# Poissons Ratio (x) = 0.08527 0.07049
# Poissons Ratio (y) = 0.12450 0.37757
# Poissons Ratio (z) = 0.06350 0.23298
#
# Static dielectric constant tensor:
#      x y z
#    x 2.137310 -0.016050 0.086930 
#    y -0.016050 2.318180 -0.051960 
#    z 0.086930 -0.051960 2.002230 
# 
# From -- ./inp_files/183030.got.cif
#   From: 2010.05.17/outbox.cif.g08.bks.cpg/sg2_92_cif.got.tgz:183030.got - 2010.06.03 11:33:40.
