data_PCOD9010729
_publ_section_title
;
Structure prediction by ZEFSAII (Michael W. Deem and Ramdas Pophale) SiO2 
 PCOD9010729
Probable space group: P -1
;
_chemical_formula_sum "Si O2"
_cell_formula_units_Z 15
_cell_length_a 11.514256
_cell_length_b 13.239804
_cell_length_c 13.529094
_cell_angle_alpha 51.403297
_cell_angle_beta 51.282365
_cell_angle_gamma 93.506338
_cell_volume 845.692761
_symmetry_space_group_name_H-M "P -1"
_symmetry_group_IT_number 2
_symmetry_cell_setting 'triclinic'
loop_
_space_group_symop_operation_xyz
x,y,z
-x,-y,-z
loop_
_atom_site_type_symbol
_atom_site_label
_atom_site_fract_x
_atom_site_fract_y
_atom_site_fract_z
Si Si1 0.175833 0.585373 0.568929
Si Si2 0.953342 0.848851 0.836680
Si Si3 0.667972 0.889504 0.048985
Si Si4 0.000000 0.000000 0.500000
Si Si5 0.612476 0.956789 0.404928
Si Si6 0.183984 0.530393 0.829968
Si Si7 0.755614 0.160650 0.994443
Si Si8 0.294292 0.958094 0.278280
O O1 0.414915 0.697903 0.330705
O O2 0.161554 0.534316 0.722024
O O3 0.971217 0.389451 0.740430
O O4 0.178787 0.743201 0.467731
O O5 0.198489 0.989100 0.664508
O O6 0.961504 0.914706 0.683779
O O7 0.809518 0.851992 0.979581
O O8 0.850756 0.640018 0.018513
O O9 0.667639 0.967833 0.898453
O O10 0.770286 0.048692 0.980820
O O11 0.146671 0.965187 0.411208
O O12 0.500000 0.000000 0.500000
O O13 0.421817 0.735354 0.610847
O O14 0.716982 0.083109 0.172771
O O15 0.000000 0.500000 0.000000
O O16 0.532564 0.091503 0.122048
#
# Coordination Sequence:
#
# PCOD9010729 Si02
#       8
#     2   2   2   1   2   2   2   2
#     4  11  21  39  63  91 121 163 206 254 302 359
#     4  11  24  41  63  92 122 165 198 251 312 364
#     4  10  24  40  58  91 131 166 201 245 313 365
#     4  10  22  44  64  84 130 158 192 256 308 368
#     4  12  22  39  63  92 120 155 207 254 305 361
#     4  12  22  39  63  92 120 155 207 254 305 361
#     4  11  21  39  63  91 121 163 206 254 302 359
#     4  10  21  40  64  90 123 164 204 252 307 362
#
# _framework density 17.736940000000001
#
# number of rings (size 3 to 8) (size 9 to 14) (size 15 to 20)
#    0.000    1.067    5.333    3.200    0.000    4.267 
#    0.000    5.333    0.000    0.000    0.000    0.000 
#    0.000    0.000    0.000    0.000    0.000    0.000 
#
# Total GULP energy -83537.581792 kJ/mol
# GULP energy per Si atom -5569.172119 kJ/mol
# Density = 1.769657 g / cm^3
# Si number density = 17.736940 Si / 1000 Ang^3
#
#
#
# Elastic Constant Matrix: (Units=GPa)
#
#
# Indices 1 2 3 4 5 6 
#
# 1 93.9719 65.1497 56.5570 -6.8966 2.1097 -30.6794
# 2 65.1497 140.9879 85.5939 2.0004 -20.7093 -19.9663
# 3 56.5570 85.5939 118.8180 -6.8009 -16.2913 -5.2895
# 4 -6.8966 2.0004 -6.8009 53.7429 10.6568 -10.7393
# 5 2.1097 -20.7093 -16.2913 10.6568 25.7416 10.8798
# 6 -30.6794 -19.9663 -5.2895 -10.7393 10.8798 30.7014
#
#
#
# Elastic Compliance Matrix: (Units=1/GPa)
#
#
# Indices 1 2 3 4 5 6 
#
# 1 0.594085 -0.129095 -0.243950 0.403227 -0.859951 0.913469
# 2 -0.129095 0.042373 0.043354 -0.088838 0.190232 -0.192465
# 3 -0.243950 0.043354 0.115910 -0.164957 0.357063 -0.379847
# 4 0.403227 -0.088838 -0.164957 0.298527 -0.600444 0.633951
# 5 -0.859951 0.190232 0.357063 -0.600444 1.306258 -1.347043
# 6 0.913469 -0.192465 -0.379847 0.633951 -1.347043 1.453891
#
#
# Mechanical properties :
#
#
# Convention : Reuss Voigt Hill
#
# Bulk Modulus (GPa) = 10.75412 85.37546 48.06479
# Shear Modulus (GPa) = 1.11076 31.80231 16.45654
#
# Velocity S-wave (km/s) = 0.79221 4.23898 3.04930
# Velocity P-wave (km/s) = 2.62927 8.49690 6.28929
#
# Compressibility (1/GPa) = 0.09298761
#
# Stress axis : x y z
#
# Youngs Moduli (GPa) = 1.68326 23.59992 8.62736
#
# Poissons Ratio (x) = 3.04663 2.10464
# Poissons Ratio (y) = 0.21730 -0.37403
# Poissons Ratio (z) = 0.41063 -1.02315
#
# Static dielectric constant tensor:
#      x y z
#    x 1.583310 0.004850 -0.005060 
#    y 0.004850 1.597160 -0.001850 
#    z -0.005060 -0.001850 1.596290 
# 
# From -- ./inp_files/427752.got.cif
#   From: 2010.05.17/outbox.cif.g08.bks.cpg/sg2_214_cif.got.tgz:427752.got - 2010.06.03 11:33:40.
