data_PCOD9010694
_publ_section_title
;
Structure prediction by ZEFSAII (Michael W. Deem and Ramdas Pophale) SiO2 
 PCOD9010694
Probable space group: P -1
;
_chemical_formula_sum "Si O2"
_cell_formula_units_Z 16
_cell_length_a 9.257182
_cell_length_b 14.595442
_cell_length_c 15.382581
_cell_angle_alpha 139.528216
_cell_angle_beta 101.570230
_cell_angle_gamma 110.223198
_cell_volume 821.130137
_symmetry_space_group_name_H-M "P -1"
_symmetry_group_IT_number 2
_symmetry_cell_setting 'triclinic'
loop_
_space_group_symop_operation_xyz
x,y,z
-x,-y,-z
loop_
_atom_site_type_symbol
_atom_site_label
_atom_site_fract_x
_atom_site_fract_y
_atom_site_fract_z
Si Si1 0.486729 0.255429 0.149735
Si Si2 0.395004 0.871540 0.068269
Si Si3 0.728308 0.777031 0.324623
Si Si4 0.095676 0.354632 0.184376
Si Si5 0.772948 0.393198 0.446689
Si Si6 0.068893 0.040555 0.857480
Si Si7 0.604428 0.667105 0.423358
Si Si8 0.447652 0.280252 0.920042
O O1 0.586510 0.326697 0.309909
O O2 0.550557 0.457451 0.263939
O O3 0.605712 0.214234 0.085012
O O4 0.208950 0.033913 0.930566
O O5 0.457210 0.796867 0.090398
O O6 0.607388 0.145381 0.289285
O O7 0.131269 0.735486 0.947747
O O8 0.686391 0.783405 0.423867
O O9 0.609696 0.770254 0.225375
O O10 0.637937 0.548325 0.142706
O O11 0.000000 0.000000 0.500000
O O12 0.123131 0.422034 0.336027
O O13 0.367368 0.577986 0.347777
O O14 0.058548 0.167522 0.011476
O O15 0.000000 0.500000 0.500000
O O16 0.228005 0.158992 0.871560
O O17 0.804748 0.825503 0.635169
#
# Coordination Sequence:
#
# PCOD9010694 Si02
#       8
#     2   2   2   2   2   2   2   2
#     4  10  23  40  65  93 122 162 218 262 304 375
#     4  11  23  43  64  91 130 166 204 267 317 366
#     4  11  20  37  69  99 123 157 213 260 306 372
#     4  11  24  42  61  91 132 169 208 257 322 377
#     4  12  26  40  66  93 125 168 221 257 312 376
#     4  10  21  40  64  88 132 160 205 261 314 362
#     4  11  22  42  65  98 126 167 207 261 320 372
#     4  10  22  39  67  98 120 161 210 260 310 374
#
# _framework density 19.485340999999998
#
# number of rings (size 3 to 8) (size 9 to 14) (size 15 to 20)
#    0.000    1.250    6.250    1.125    3.500    3.000 
#    0.000    4.375    0.000    2.250    0.000    0.000 
#    0.000    0.000    0.000    0.000    0.000    0.000 
#
# Total GULP energy -89068.639783 kJ/mol
# GULP energy per Si atom -5566.789986 kJ/mol
# Density = 1.944099 g / cm^3
# Si number density = 19.485341 Si / 1000 Ang^3
#
#
#
# Elastic Constant Matrix: (Units=GPa)
#
#
# Indices 1 2 3 4 5 6 
#
# 1 103.5278 23.1182 24.3384 4.3710 21.1452 10.6538
# 2 23.1182 80.4034 27.6349 -4.1301 14.1340 -7.9759
# 3 24.3384 27.6349 101.3368 -10.9946 26.0376 6.5561
# 4 4.3710 -4.1301 -10.9946 35.4528 6.5533 6.5984
# 5 21.1452 14.1340 26.0376 6.5533 37.4299 -6.2697
# 6 10.6538 -7.9759 6.5561 6.5984 -6.2697 31.2215
#
#
#
# Elastic Compliance Matrix: (Units=1/GPa)
#
#
# Indices 1 2 3 4 5 6 
#
# 1 0.012419 -0.002987 0.000225 0.000783 -0.007300 -0.006679
# 2 -0.002987 0.015201 -0.003607 0.000114 -0.000641 0.005507
# 3 0.000225 -0.003607 0.015395 0.008172 -0.012317 -0.008431
# 4 0.000783 0.000114 0.008172 0.035643 -0.014487 -0.012396
# 5 -0.007300 -0.000641 -0.012317 -0.014487 0.045038 0.017020
# 6 -0.006679 0.005507 -0.008431 -0.012396 0.017020 0.043523
#
#
# Mechanical properties :
#
#
# Convention : Reuss Voigt Hill
#
# Bulk Modulus (GPa) = 33.03058 48.38343 40.70700
# Shear Modulus (GPa) = 26.30903 34.83260 30.57082
#
# Velocity S-wave (km/s) = 3.67849 4.23263 3.96525
# Velocity P-wave (km/s) = 5.91861 6.98365 6.47308
#
# Compressibility (1/GPa) = 0.03027498
#
# Stress axis : x y z
#
# Youngs Moduli (GPa) = 80.52355 65.78626 64.95746
#
# Poissons Ratio (x) = 0.19651 -0.01459
# Poissons Ratio (y) = 0.24053 0.23432
# Poissons Ratio (z) = -0.01809 0.23731
#
# Static dielectric constant tensor:
#      x y z
#    x 1.667580 -0.156540 0.230340 
#    y -0.156540 0.473030 1.427690 
#    z 0.230340 1.427690 0.116260 
# 
# From -- ./inp_files/504467.got.cif
#   From: 2010.05.17/outbox.cif.g08.bks.cpg/sg2_253_cif.got.tgz:504467.got - 2010.06.03 11:33:40.
