data_PCOD9010122
_publ_section_title
;
Structure prediction by ZEFSAII (Michael W. Deem and Ramdas Pophale) SiO2 
 PCOD9010122
Probable space group: P -1
;
_chemical_formula_sum "Si O2"
_cell_formula_units_Z 14
_cell_length_a 9.654576
_cell_length_b 15.075813
_cell_length_c 9.572136
_cell_angle_alpha 102.455367
_cell_angle_beta 51.160871
_cell_angle_gamma 136.047237
_cell_volume 677.774817
_symmetry_space_group_name_H-M "P -1"
_symmetry_group_IT_number 2
_symmetry_cell_setting 'triclinic'
loop_
_space_group_symop_operation_xyz
x,y,z
-x,-y,-z
loop_
_atom_site_type_symbol
_atom_site_label
_atom_site_fract_x
_atom_site_fract_y
_atom_site_fract_z
Si Si1 0.440251 0.076391 0.002068
Si Si2 0.798066 0.869052 0.385686
Si Si3 0.412094 0.411752 0.662945
Si Si4 0.601999 0.283110 0.174958
Si Si5 0.840914 0.544945 0.975644
Si Si6 0.735043 0.452184 0.701279
Si Si7 0.333164 0.125561 0.814408
O O1 0.637855 0.224153 0.009216
O O2 0.455723 0.097495 0.831724
O O3 0.129104 0.990775 0.204193
O O4 0.500000 0.000000 0.000000
O O5 0.695882 0.727759 0.364972
O O6 0.675062 0.842801 0.604968
O O7 0.651925 0.875819 0.363491
O O8 0.500000 0.500000 0.500000
O O9 0.665366 0.494070 0.636073
O O10 0.191511 0.375787 0.889717
O O11 0.856523 0.376304 0.154250
O O12 0.618869 0.388436 0.131162
O O13 0.787529 0.523665 0.837837
O O14 0.484729 0.279780 0.813307
O O15 0.000000 0.500000 0.500000
O O16 0.000000 0.000000 0.000000
#
# Coordination Sequence:
#
# PCOD9010122 Si02
#       7
#     2   2   2   2   2   2   2
#     4  11  22  39  63  88 117 159 210 255 301 362
#     4  10  21  40  62  87 120 164 202 245 309 370
#     4  11  22  38  62  95 123 156 206 257 302 364
#     4  11  22  38  61  89 123 162 203 252 308 362
#     4  11  22  38  60  90 128 160 203 252 308 364
#     4  11  23  39  64  91 126 164 203 251 314 370
#     4   9  20  39  60  83 118 161 199 241 305 365
#
# _framework density 20.655829000000001
#
# number of rings (size 3 to 8) (size 9 to 14) (size 15 to 20)
#    0.000    1.429    2.857    3.429    2.000    1.143 
#    0.000    0.714    0.000    0.000    0.000    0.000 
#    0.000    0.000    0.000    0.000    0.000    0.000 
#
# Total GULP energy -78099.098655 kJ/mol
# GULP energy per Si atom -5578.507047 kJ/mol
# Density = 2.060882 g / cm^3
# Si number density = 20.655829 Si / 1000 Ang^3
#
#
#
# Elastic Constant Matrix: (Units=GPa)
#
#
# Indices 1 2 3 4 5 6 
#
# 1 136.9971 22.4344 36.3127 8.2868 39.4150 6.3638
# 2 22.4344 50.0600 7.9815 6.7724 16.0245 12.6853
# 3 36.3127 7.9815 81.5276 8.1615 18.2846 8.8510
# 4 8.2868 6.7724 8.1615 32.1144 3.2553 0.1258
# 5 39.4150 16.0245 18.2846 3.2553 34.0850 1.9506
# 6 6.3638 12.6853 8.8510 0.1258 1.9506 31.7378
#
#
#
# Elastic Compliance Matrix: (Units=1/GPa)
#
#
# Indices 1 2 3 4 5 6 
#
# 1 0.011427 -0.000776 -0.002261 -0.001042 -0.011500 -0.000640
# 2 -0.000776 0.027102 0.001964 -0.004773 -0.011842 -0.010478
# 3 -0.002261 0.001964 0.015168 -0.003070 -0.005913 -0.004186
# 4 -0.001042 -0.004773 -0.003070 0.033002 0.001787 0.002732
# 5 -0.011500 -0.011842 -0.005913 0.001787 0.050888 0.005553
# 6 -0.000640 -0.010478 -0.004186 0.002732 0.005553 0.036639
#
#
# Mechanical properties :
#
#
# Convention : Reuss Voigt Hill
#
# Bulk Modulus (GPa) = 19.39825 44.67133 32.03479
# Shear Modulus (GPa) = 25.83202 33.04452 29.43827
#
# Velocity S-wave (km/s) = 3.54021 4.00405 3.77925
# Velocity P-wave (km/s) = 5.11100 6.56125 5.88100
#
# Compressibility (1/GPa) = 0.05155105
#
# Stress axis : x y z
#
# Youngs Moduli (GPa) = 87.51003 36.89730 65.92643
#
# Poissons Ratio (x) = 0.02864 0.14904
# Poissons Ratio (y) = 0.06793 -0.12945
# Poissons Ratio (z) = 0.19784 -0.07245
#
# Static dielectric constant tensor:
#      x y z
#    x 1.785590 0.010050 0.000150 
#    y 0.010050 1.723070 -0.029910 
#    z 0.000150 -0.029910 1.762660 
# 
# From -- ./inp_files/159951.got.cif
#   From: 2010.05.17/outbox.cif.g08.bks.cpg/sg2_80_cif.got.tgz:159951.got - 2010.06.03 11:33:40.
