data_PCOD9010062
_publ_section_title
;
Structure prediction by ZEFSAII (Michael W. Deem and Ramdas Pophale) SiO2 
 PCOD9010062
Probable space group: P -1
;
_chemical_formula_sum "Si O2"
_cell_formula_units_Z 14
_cell_length_a 12.283581
_cell_length_b 5.156040
_cell_length_c 13.836141
_cell_angle_alpha 119.446680
_cell_angle_beta 132.610197
_cell_angle_gamma 73.418524
_cell_volume 560.082553
_symmetry_space_group_name_H-M "P -1"
_symmetry_group_IT_number 2
_symmetry_cell_setting 'triclinic'
loop_
_space_group_symop_operation_xyz
x,y,z
-x,-y,-z
loop_
_atom_site_type_symbol
_atom_site_label
_atom_site_fract_x
_atom_site_fract_y
_atom_site_fract_z
Si Si1 0.107311 0.181505 0.917541
Si Si2 0.817598 0.343189 0.233970
Si Si3 0.173328 0.861648 0.144534
Si Si4 0.456166 0.149612 0.288031
Si Si5 0.271285 0.007487 0.691765
Si Si6 0.912564 0.327583 0.639639
Si Si7 0.354980 0.734768 0.408800
O O1 0.990973 0.060857 0.908354
O O2 0.018967 0.233009 0.772814
O O3 0.218895 0.936999 0.910228
O O4 0.163816 0.511424 0.045823
O O5 0.734938 0.643833 0.223776
O O6 0.988226 0.447757 0.327561
O O7 0.786979 0.211293 0.297491
O O8 0.259757 0.895598 0.304164
O O9 0.286063 0.024992 0.167086
O O10 0.447814 0.500148 0.365798
O O11 0.544290 0.059891 0.421395
O O12 0.563299 0.067108 0.252050
O O13 0.160011 0.934002 0.520741
O O14 0.769998 0.439890 0.629719
#
# Coordination Sequence:
#
# PCOD9010062 Si02
#       7
#     2   2   2   2   2   2   2
#     4  10  23  39  65  97 126 168 217 258 325 372
#     4  12  23  43  62  98 129 173 208 268 307 388
#     4  10  21  41  65  94 125 167 207 275 312 383
#     4  10  21  40  61  95 127 167 209 267 316 387
#     4  11  26  38  68  95 132 167 216 254 327 370
#     4  10  21  40  65  98 127 165 210 273 315 378
#     4   9  20  38  65  97 121 163 213 265 330 369
#
# _framework density 24.996314000000002
#
# number of rings (size 3 to 8) (size 9 to 14) (size 15 to 20)
#    0.000    1.714    1.429    2.143    4.000    1.143 
#    5.143    5.714    0.000    0.000    0.000    0.000 
#    0.000    0.000    0.000    0.000    0.000    0.000 
#
# Total GULP energy -78276.618209 kJ/mol
# GULP energy per Si atom -5591.187015 kJ/mol
# Density = 2.493942 g / cm^3
# Si number density = 24.996314 Si / 1000 Ang^3
#
#
#
# Elastic Constant Matrix: (Units=GPa)
#
#
# Indices 1 2 3 4 5 6 
#
# 1 190.3745 71.4114 55.0417 19.5974 -4.7509 3.3104
# 2 71.4114 97.4960 20.8949 17.9435 -13.5348 9.7571
# 3 55.0417 20.8949 53.8627 -9.9594 -1.4977 10.7949
# 4 19.5974 17.9435 -9.9594 40.0036 -2.6334 -8.5182
# 5 -4.7509 -13.5348 -1.4977 -2.6334 36.3751 5.4941
# 6 3.3104 9.7571 10.7949 -8.5182 5.4941 40.9763
#
#
#
# Elastic Compliance Matrix: (Units=1/GPa)
#
#
# Indices 1 2 3 4 5 6 
#
# 1 0.010558 -0.005040 -0.010265 -0.005104 -0.001622 0.002208
# 2 -0.005040 0.016661 -0.001209 -0.006045 0.005852 -0.005283
# 3 -0.010265 -0.001209 0.032938 0.012774 0.001257 -0.005073
# 4 -0.005104 -0.006045 0.012774 0.034569 -0.000759 0.005775
# 5 -0.001622 0.005852 0.001257 -0.000759 0.030332 -0.005818
# 6 0.002208 -0.005283 -0.005073 0.005775 -0.005818 0.028801
#
#
# Mechanical properties :
#
#
# Convention : Reuss Voigt Hill
#
# Bulk Modulus (GPa) = 36.86168 70.71434 53.78801
# Shear Modulus (GPa) = 25.51923 36.43001 30.97462
#
# Velocity S-wave (km/s) = 3.19865 3.82175 3.52400
# Velocity P-wave (km/s) = 5.33110 6.91561 6.17440
#
# Compressibility (1/GPa) = 0.02712844
#
# Stress axis : x y z
#
# Youngs Moduli (GPa) = 94.71794 60.02001 30.36001
#
# Poissons Ratio (x) = 0.30250 0.31164
# Poissons Ratio (y) = 0.47737 0.03672
# Poissons Ratio (z) = 0.97227 0.07259
#
# Static dielectric constant tensor:
#      x y z
#    x 2.000130 0.021610 0.019400 
#    y 0.021610 2.014840 -0.040010 
#    z 0.019400 -0.040010 2.025790 
# 
# From -- ./inp_files/67210.got.cif
#   From: 2010.05.17/outbox.cif.g08.bks.cpg/sg2_34_cif.got.tgz:67210.got - 2010.06.03 11:33:40.
