data_PCOD9010763
_publ_section_title
;
Structure prediction by ZEFSAII (Michael W. Deem and Ramdas Pophale) SiO2 
 PCOD9010763
Probable space group: P -1
;
_chemical_formula_sum "Si O2"
_cell_formula_units_Z 16
_cell_length_a 9.544644
_cell_length_b 16.323855
_cell_length_c 8.760838
_cell_angle_alpha 32.014613
_cell_angle_beta 103.657921
_cell_angle_gamma 116.464741
_cell_volume 618.229050
_symmetry_space_group_name_H-M "P -1"
_symmetry_group_IT_number 2
_symmetry_cell_setting 'triclinic'
loop_
_space_group_symop_operation_xyz
x,y,z
-x,-y,-z
loop_
_atom_site_type_symbol
_atom_site_label
_atom_site_fract_x
_atom_site_fract_y
_atom_site_fract_z
Si Si1 0.341647 0.022661 0.634354
Si Si2 0.114506 0.005409 0.795791
Si Si3 0.958336 0.314698 0.354556
Si Si4 0.865354 0.332690 0.645538
Si Si5 0.227579 0.063907 0.085093
Si Si6 0.450588 0.756479 0.956765
Si Si7 0.429330 0.684567 0.566646
Si Si8 0.306520 0.443495 0.208060
O O1 0.441335 0.148117 0.315329
O O2 0.474012 0.116742 0.659530
O O3 0.347775 0.848323 0.846803
O O4 0.213278 0.104655 0.512509
O O5 0.163269 0.850630 0.999708
O O6 0.187313 0.047387 0.920375
O O7 0.919872 0.920239 0.894601
O O8 0.117882 0.289028 0.402803
O O9 0.938112 0.332116 0.499260
O O10 0.803675 0.130357 0.561115
O O11 0.000000 0.500000 0.000000
O O12 0.697804 0.336026 0.564059
O O13 0.000000 0.500000 0.500000
O O14 0.407684 0.211307 0.936095
O O15 0.331873 0.559795 0.181180
O O16 0.558031 0.618784 0.659212
O O17 0.329890 0.561001 0.879065
#
# Coordination Sequence:
#
# PCOD9010763 Si02
#       8
#     2   2   2   2   2   2   2   2
#     4  10  21  40  64  91 123 165 214 264 322 376
#     4  10  23  42  63  85 133 174 205 252 325 395
#     4  11  22  41  68  90 126 171 210 258 324 378
#     4  11  25  39  60  93 128 165 214 255 312 387
#     4  10  23  42  63  94 125 170 216 260 316 387
#     4  10  23  37  65  98 125 154 224 277 303 367
#     4  10  21  42  63  91 128 167 210 258 325 385
#     4  10  22  40  66  95 125 165 209 273 320 367
#
# _framework density 25.880374
#
# number of rings (size 3 to 8) (size 9 to 14) (size 15 to 20)
#    0.000    1.750    1.250    2.250    7.000    2.500 
#    0.000    0.625    0.000    0.000    0.000    0.000 
#    0.000    0.000    0.000    0.000    0.000    0.000 
#
# Total GULP energy -89424.204951 kJ/mol
# GULP energy per Si atom -5589.012809 kJ/mol
# Density = 2.582147 g / cm^3
# Si number density = 25.880374 Si / 1000 Ang^3
#
#
#
# Elastic Constant Matrix: (Units=GPa)
#
#
# Indices 1 2 3 4 5 6 
#
# 1 140.0367 22.5407 -26.5525 20.1514 -27.1206 -38.5806
# 2 22.5407 88.2505 -5.9449 -3.5825 -4.9098 1.4194
# 3 -26.5525 -5.9449 41.2408 6.9564 -0.4242 4.9463
# 4 20.1514 -3.5825 6.9564 29.2591 2.1200 -13.7951
# 5 -27.1206 -4.9098 -0.4242 2.1200 35.0153 6.3077
# 6 -38.5806 1.4194 4.9463 -13.7951 6.3077 56.4465
#
#
#
# Elastic Compliance Matrix: (Units=1/GPa)
#
#
# Indices 1 2 3 4 5 6 
#
# 1 0.014832 -0.003019 0.010512 -0.011382 0.010928 0.005289
# 2 -0.003019 0.012184 -0.000518 0.003014 -0.000544 -0.001527
# 3 0.010512 -0.000518 0.033926 -0.016482 0.009636 -0.000880
# 4 -0.011382 0.003014 -0.016482 0.050758 -0.013007 0.007448
# 5 0.010928 -0.000544 0.009636 -0.013007 0.037992 -0.000786
# 6 0.005289 -0.001527 -0.000880 0.007448 -0.000786 0.023355
#
#
# Mechanical properties :
#
#
# Convention : Reuss Voigt Hill
#
# Bulk Modulus (GPa) = 13.35294 27.73496 20.54395
# Shear Modulus (GPa) = 27.16487 42.77650 34.97068
#
# Velocity S-wave (km/s) = 3.24332 4.06994 3.67991
# Velocity P-wave (km/s) = 4.38134 5.72938 5.10009
#
# Compressibility (1/GPa) = 0.07488986
#
# Stress axis : x y z
#
# Youngs Moduli (GPa) = 67.42406 82.07285 29.47612
#
# Poissons Ratio (x) = 0.24780 -0.30984
# Poissons Ratio (y) = 0.20357 0.01528
# Poissons Ratio (z) = -0.70874 0.04254
#
# Static dielectric constant tensor:
#      x y z
#    x 1.011920 0.289260 0.543570 
#    y 0.289260 2.013240 -0.271400 
#    z 0.543570 -0.271400 2.057570 
# 
# From -- ./inp_files/205320.got.cif
#   From: 2010.05.17/outbox.cif.g08.bks.cpg/sg2_103_cif.got.tgz:205320.got - 2010.06.03 11:33:40.
