data_PCOD9010963
_publ_section_title
;
Structure prediction by ZEFSAII (Michael W. Deem and Ramdas Pophale) SiO2 
 PCOD9010963
Probable space group: P -1
;
_chemical_formula_sum "Si O2"
_cell_formula_units_Z 14
_cell_length_a 8.338768
_cell_length_b 7.840995
_cell_length_c 17.226224
_cell_angle_alpha 123.952429
_cell_angle_beta 102.946136
_cell_angle_gamma 117.026506
_cell_volume 634.836573
_symmetry_space_group_name_H-M "P -1"
_symmetry_group_IT_number 2
_symmetry_cell_setting 'triclinic'
loop_
_space_group_symop_operation_xyz
x,y,z
-x,-y,-z
loop_
_atom_site_type_symbol
_atom_site_label
_atom_site_fract_x
_atom_site_fract_y
_atom_site_fract_z
Si Si1 0.057658 0.080492 0.428389
Si Si2 0.923397 0.624008 0.756260
Si Si3 0.992288 0.902001 0.208138
Si Si4 0.374084 0.019658 0.191134
Si Si5 0.580233 0.657416 0.351344
Si Si6 0.116288 0.575055 0.615223
Si Si7 0.257335 0.712587 0.940694
O O1 0.085621 0.105272 0.345970
O O2 0.777490 0.819415 0.346752
O O3 0.266734 0.132343 0.502442
O O4 0.119450 0.332837 0.551632
O O5 0.648807 0.402089 0.691946
O O6 0.973895 0.535758 0.661910
O O7 0.061591 0.638835 0.844874
O O8 0.025094 0.942228 0.821856
O O9 0.774698 0.562631 0.123626
O O10 0.183195 0.899883 0.204894
O O11 0.458428 0.323853 0.254188
O O12 0.610372 0.113761 0.268659
O O13 0.261127 0.807588 0.051660
O O14 0.000000 0.500000 0.500000
O O15 0.500000 0.000000 0.000000
#
# Coordination Sequence:
#
# PCOD9010963 Si02
#       7
#     2   2   2   2   2   2   2
#     4  10  21  40  64  97 139 174 213 276 334 392
#     4  11  25  44  66 104 129 178 223 271 329 396
#     4  11  25  43  69  97 129 179 220 271 339 384
#     4  10  23  44  65  95 135 179 217 275 332 387
#     4   9  22  39  66  96 135 174 222 268 335 390
#     4  11  22  39  66  99 138 169 221 276 330 393
#     4  12  25  46  69  94 138 173 225 276 326 392
#
# _framework density 22.052918999999999
#
# number of rings (size 3 to 8) (size 9 to 14) (size 15 to 20)
#    0.000    1.429    2.857    1.286    6.000    6.286 
#    0.000    0.000    0.000    0.000    0.000    0.000 
#    0.000    0.000    0.000    0.000    0.000    0.000 
#
# Total GULP energy -77946.960311 kJ/mol
# GULP energy per Si atom -5567.640022 kJ/mol
# Density = 2.200273 g / cm^3
# Si number density = 22.052919 Si / 1000 Ang^3
#
#
#
# Elastic Constant Matrix: (Units=GPa)
#
#
# Indices 1 2 3 4 5 6 
#
# 1 83.0921 22.0681 47.6726 -14.3469 6.1571 10.2679
# 2 22.0681 69.3804 41.0616 -5.3943 4.1551 -6.2013
# 3 47.6726 41.0616 109.4411 -17.9544 1.5129 4.2557
# 4 -14.3469 -5.3943 -17.9544 41.8937 -3.7467 -4.8661
# 5 6.1571 4.1551 1.5129 -3.7467 34.4032 -3.9047
# 6 10.2679 -6.2013 4.2557 -4.8661 -3.9047 30.2784
#
#
#
# Elastic Compliance Matrix: (Units=1/GPa)
#
#
# Indices 1 2 3 4 5 6 
#
# 1 0.017405 -0.001994 -0.006230 0.002130 -0.002990 -0.005478
# 2 -0.001994 0.019551 -0.006748 -0.000534 -0.001154 0.005394
# 3 -0.006230 -0.006748 0.014955 0.003478 0.001582 -0.000609
# 4 0.002130 -0.000534 0.003478 0.026659 0.002811 0.003326
# 5 -0.002990 -0.001154 0.001582 0.002811 0.030539 0.004945
# 6 -0.005478 0.005394 -0.000609 0.003326 0.004945 0.037247
#
#
# Mechanical properties :
#
#
# Convention : Reuss Voigt Hill
#
# Bulk Modulus (GPa) = 45.52229 53.72424 49.62327
# Shear Modulus (GPa) = 27.22966 31.38914 29.30940
#
# Velocity S-wave (km/s) = 3.51770 3.77683 3.64957
# Velocity P-wave (km/s) = 6.09804 6.59042 6.34901
#
# Compressibility (1/GPa) = 0.02196726
#
# Stress axis : x y z
#
# Youngs Moduli (GPa) = 57.45517 51.14789 66.86640
#
# Poissons Ratio (x) = 0.10200 0.41655
# Poissons Ratio (y) = 0.11458 0.45123
# Poissons Ratio (z) = 0.35792 0.34516
#
# Static dielectric constant tensor:
#      x y z
#    x 2.072920 -0.222680 0.069990 
#    y -0.222680 2.111050 0.027110 
#    z 0.069990 0.027110 1.829190 
# 
# From -- ./inp_files/211787.got.cif
#   From: 2010.05.17/outbox.cif.g08.bks.cpg/sg2_106_cif.got.tgz:211787.got - 2010.06.03 11:33:40.
