data_PCOD9010510
_publ_section_title
;
Structure prediction by ZEFSAII (Michael W. Deem and Ramdas Pophale) SiO2 
 PCOD9010510
Probable space group: P -1
;
_chemical_formula_sum "Si O2"
_cell_formula_units_Z 14
_cell_length_a 25.470274
_cell_length_b 26.164945
_cell_length_c 13.415411
_cell_angle_alpha 19.911841
_cell_angle_beta 159.594996
_cell_angle_gamma 168.843797
_cell_volume 574.082031
_symmetry_space_group_name_H-M "P -1"
_symmetry_group_IT_number 2
_symmetry_cell_setting 'triclinic'
loop_
_space_group_symop_operation_xyz
x,y,z
-x,-y,-z
loop_
_atom_site_type_symbol
_atom_site_label
_atom_site_fract_x
_atom_site_fract_y
_atom_site_fract_z
Si Si1 0.892926 0.729777 0.974832
Si Si2 0.568421 0.028274 0.953235
Si Si3 0.707222 0.897510 0.702358
Si Si4 0.347686 0.308640 0.675120
Si Si5 0.732622 0.718595 0.904394
Si Si6 0.780884 0.276230 0.433863
Si Si7 0.195418 0.502816 0.125540
O O1 0.596068 0.433173 0.948187
O O2 0.834208 0.804913 0.815339
O O3 0.102734 0.988463 0.799002
O O4 0.071663 0.746664 0.309070
O O5 0.446888 0.078209 0.594177
O O6 0.889575 0.280194 0.032876
O O7 0.405634 0.753148 0.119213
O O8 0.500000 0.000000 0.000000
O O9 0.539996 0.614327 0.967688
O O10 0.699489 0.849330 0.659423
O O11 0.023222 0.159083 0.822236
O O12 0.500000 0.500000 0.500000
O O13 0.248309 0.371172 0.444377
O O14 0.758763 0.379188 0.117757
O O15 0.000000 0.500000 0.500000
O O16 0.500000 0.000000 0.500000
#
# Coordination Sequence:
#
# PCOD9010510 Si02
#       7
#     2   2   2   2   2   2   2
#     4  12  24  43  71  96 133 174 232 271 340 405
#     4  12  26  44  69  98 140 188 232 275 338 421
#     4  10  21  40  63  92 134 159 224 266 330 375
#     4  12  27  46  68 100 138 179 225 284 344 410
#     4  10  22  39  64  95 122 173 207 283 319 393
#     4  12  25  45  74 105 137 180 233 291 355 417
#     4  12  27  47  71 101 144 184 229 290 352 407
#
# _framework density 24.386758
#
# number of rings (size 3 to 8) (size 9 to 14) (size 15 to 20)
#    0.000    0.571    0.000    8.571    4.000    0.000 
#    0.000    0.000    0.000    0.000    0.000    0.000 
#    0.000    0.000    0.000    0.000    0.000    0.000 
#
# Total GULP energy -78387.117206 kJ/mol
# GULP energy per Si atom -5599.079800 kJ/mol
# Density = 2.433125 g / cm^3
# Si number density = 24.386758 Si / 1000 Ang^3
#
#
#
# Elastic Constant Matrix: (Units=GPa)
#
#
# Indices 1 2 3 4 5 6 
#
# 1 93.2374 36.3380 -4.3013 5.9060 0.1580 10.7545
# 2 36.3380 142.9770 23.9048 6.4493 -2.4665 15.9414
# 3 -4.3013 23.9048 89.6566 16.1237 19.1177 9.8634
# 4 5.9060 6.4493 16.1237 32.1319 0.0976 6.6864
# 5 0.1580 -2.4665 19.1177 0.0976 41.3732 3.9277
# 6 10.7545 15.9414 9.8634 6.6864 3.9277 39.3111
#
#
#
# Elastic Compliance Matrix: (Units=1/GPa)
#
#
# Indices 1 2 3 4 5 6 
#
# 1 0.012503 -0.003243 0.002373 -0.002380 -0.001124 -0.002184
# 2 -0.003243 0.008524 -0.002739 0.000712 0.001994 -0.002203
# 3 0.002373 -0.002739 0.014890 -0.007049 -0.006905 -0.001385
# 4 -0.002380 0.000712 -0.007049 0.035843 0.003635 -0.004329
# 5 -0.001124 0.001994 -0.006905 0.003635 0.027680 -0.002152
# 6 -0.002184 -0.002203 -0.001385 -0.004329 -0.002152 0.028228
#
#
# Mechanical properties :
#
#
# Convention : Reuss Voigt Hill
#
# Bulk Modulus (GPa) = 34.84537 48.63932 41.74235
# Shear Modulus (GPa) = 34.61327 40.55854 37.58591
#
# Velocity S-wave (km/s) = 3.77151 4.08258 3.93013
# Velocity P-wave (km/s) = 5.76935 6.49704 6.14398
#
# Compressibility (1/GPa) = 0.02869821
#
# Stress axis : x y z
#
# Youngs Moduli (GPa) = 79.97965 117.31346 67.15825
#
# Poissons Ratio (x) = 0.38044 -0.15933
# Poissons Ratio (y) = 0.25937 0.18396
# Poissons Ratio (z) = -0.18975 0.32135
#
# Static dielectric constant tensor:
#      x y z
#    x 1.993050 -0.008300 0.009150 
#    y -0.008300 1.936460 -0.010570 
#    z 0.009150 -0.010570 1.960170 
# 
# From -- ./inp_files/544578.got.cif
#   From: 2010.05.17/outbox.cif.g08.bks.cpg/sg2_273_cif.got.tgz:544578.got - 2010.06.03 11:33:40.
