data_PCOD9010152
_publ_section_title
;
Structure prediction by ZEFSAII (Michael W. Deem and Ramdas Pophale) SiO2 
 PCOD9010152
Probable space group: P -1
;
_chemical_formula_sum "Si O2"
_cell_formula_units_Z 16
_cell_length_a 16.828392
_cell_length_b 6.005212
_cell_length_c 8.330464
_cell_angle_alpha 84.540503
_cell_angle_beta 117.960198
_cell_angle_gamma 123.955287
_cell_volume 600.606038
_symmetry_space_group_name_H-M "P -1"
_symmetry_group_IT_number 2
_symmetry_cell_setting 'triclinic'
loop_
_space_group_symop_operation_xyz
x,y,z
-x,-y,-z
loop_
_atom_site_type_symbol
_atom_site_label
_atom_site_fract_x
_atom_site_fract_y
_atom_site_fract_z
Si Si1 0.820615 0.628229 0.349529
Si Si2 0.253108 0.088724 0.915633
Si Si3 0.435177 0.089580 0.245399
Si Si4 0.952816 0.525939 0.282351
Si Si5 0.593324 0.064410 0.209778
Si Si6 0.137014 0.555613 0.282774
Si Si7 0.738389 0.555638 0.806990
Si Si8 0.645028 0.818704 0.521241
O O1 0.771922 0.803724 0.273414
O O2 0.909437 0.703613 0.288688
O O3 0.714711 0.309880 0.249660
O O4 0.871049 0.634221 0.566626
O O5 0.155301 0.768852 0.852560
O O6 0.243929 0.248547 0.043660
O O7 0.372244 0.147404 0.047791
O O8 0.356913 0.758410 0.214259
O O9 0.555211 0.174108 0.310029
O O10 0.431034 0.221791 0.396551
O O11 0.000000 0.500000 0.500000
O O12 0.042680 0.601101 0.226330
O O13 0.589827 0.812779 0.301961
O O14 0.500000 0.000000 0.000000
O O15 0.155399 0.433522 0.150354
O O16 0.251010 0.858792 0.388433
O O17 0.695992 0.652192 0.616133
#
# Coordination Sequence:
#
# PCOD9010152 Si02
#       8
#     2   2   2   2   2   2   2   2
#     4  10  23  41  60  89 125 160 203 249 299 362
#     4  11  22  39  63  88 124 162 198 252 303 355
#     4  10  22  41  60  86 125 162 200 248 300 356
#     4  10  22  40  61  89 125 160 199 248 304 362
#     4  11  21  37  63  91 121 158 202 250 296 353
#     4   9  21  39  62  89 119 157 201 251 304 362
#     4  10  21  40  62  89 122 158 204 250 300 357
#     4   9  21  40  61  86 122 160 196 248 304 358
#
# _framework density 26.639756999999999
#
# number of rings (size 3 to 8) (size 9 to 14) (size 15 to 20)
#    0.000    2.000    0.000    2.625    0.000    8.500 
#    0.000   16.250    0.000    0.000    0.000    0.000 
#    0.000    0.000    0.000    0.000    0.000    0.000 
#
# Total GULP energy -89602.928440 kJ/mol
# GULP energy per Si atom -5600.183027 kJ/mol
# Density = 2.657912 g / cm^3
# Si number density = 26.639757 Si / 1000 Ang^3
#
#
#
# Elastic Constant Matrix: (Units=GPa)
#
#
# Indices 1 2 3 4 5 6 
#
# 1 200.6258 13.2935 13.0352 0.4074 2.8289 -7.3808
# 2 13.2935 62.7754 29.8968 -5.5639 -1.1444 -13.7374
# 3 13.0352 29.8968 85.9541 -23.4208 18.6250 -11.4004
# 4 0.4074 -5.5639 -23.4208 60.7612 -16.8671 10.1105
# 5 2.8289 -1.1444 18.6250 -16.8671 40.4818 -6.2439
# 6 -7.3808 -13.7374 -11.4004 10.1105 -6.2439 27.7009
#
#
#
# Elastic Compliance Matrix: (Units=1/GPa)
#
#
# Indices 1 2 3 4 5 6 
#
# 1 0.005101 -0.000681 -0.000503 -0.000507 -0.000208 0.000952
# 2 -0.000681 0.021673 -0.007637 -0.001020 0.005130 0.008952
# 3 -0.000503 -0.007637 0.016834 0.004045 -0.006221 0.000128
# 4 -0.000507 -0.001020 0.004045 0.020402 0.005860 -0.005102
# 5 -0.000208 0.005130 -0.006221 0.005860 0.030899 0.004754
# 6 0.000952 0.008952 0.000128 -0.005102 0.004754 0.043780
#
#
# Mechanical properties :
#
#
# Convention : Reuss Voigt Hill
#
# Bulk Modulus (GPa) = 38.51306 51.31179 44.91243
# Shear Modulus (GPa) = 30.30516 45.33077 37.81796
#
# Velocity S-wave (km/s) = 3.37648 4.12955 3.77185
# Velocity P-wave (km/s) = 5.44878 6.48388 5.98873
#
# Compressibility (1/GPa) = 0.02596522
#
# Stress axis : x y z
#
# Youngs Moduli (GPa) = 196.03108 46.13936 59.40376
#
# Poissons Ratio (x) = 0.03141 0.02991
# Poissons Ratio (y) = 0.13345 0.45369
# Poissons Ratio (z) = 0.09870 0.35239
#
# Static dielectric constant tensor:
#      x y z
#    x 2.077910 0.000560 -0.047580 
#    y 0.000560 2.033760 -0.037090 
#    z -0.047580 -0.037090 2.160930 
# 
# From -- ./inp_files/323585.got.cif
#   From: 2010.05.17/outbox.cif.g08.bks.cpg/sg2_162_cif.got.tgz:323585.got - 2010.06.03 11:33:40.
