data_PCOD9010732
_publ_section_title
;
Structure prediction by ZEFSAII (Michael W. Deem and Ramdas Pophale) SiO2 
 PCOD9010732
Probable space group: P -1
;
_chemical_formula_sum "Si O2"
_cell_formula_units_Z 12
_cell_length_a 13.367177
_cell_length_b 18.158230
_cell_length_c 15.312658
_cell_angle_alpha 23.043915
_cell_angle_beta 24.839028
_cell_angle_gamma 21.767609
_cell_volume 502.426504
_symmetry_space_group_name_H-M "P -1"
_symmetry_group_IT_number 2
_symmetry_cell_setting 'triclinic'
loop_
_space_group_symop_operation_xyz
x,y,z
-x,-y,-z
loop_
_atom_site_type_symbol
_atom_site_label
_atom_site_fract_x
_atom_site_fract_y
_atom_site_fract_z
Si Si1 0.069988 0.012505 0.032120
Si Si2 0.443353 0.245246 0.284968
Si Si3 0.543153 0.143115 0.737526
Si Si4 0.453058 0.460073 0.865417
Si Si5 0.188537 0.355693 0.620250
Si Si6 0.925864 0.314469 0.239709
O O1 0.227890 0.136975 0.784416
O O2 0.755778 0.176043 0.147877
O O3 0.293471 0.748240 0.168617
O O4 0.000000 0.000000 0.000000
O O5 0.139225 0.427702 0.371131
O O6 0.500000 0.000000 0.500000
O O7 0.402421 0.347863 0.108591
O O8 0.270392 0.301006 0.718125
O O9 0.676522 0.284998 0.509237
O O10 0.785683 0.939153 0.705299
O O11 0.500000 0.000000 0.000000
O O12 0.590815 0.589424 0.649377
O O13 0.180047 0.624223 0.843433
O O14 0.000000 0.500000 0.000000
#
# Coordination Sequence:
#
# PCOD9010732 Si02
#       6
#     2   2   2   2   2   2
#     4  10  22  40  60  88 120 160 205 249 299 359
#     4  11  22  40  59  88 123 158 205 251 297 364
#     4  10  22  40  62  94 126 157 206 255 308 374
#     4  10  22  41  61  87 122 162 202 251 302 368
#     4  11  22  41  64  85 124 165 200 252 309 356
#     4  10  21  40  64  90 124 162 203 253 310 368
#
# _framework density 23.884091000000002
#
# number of rings (size 3 to 8) (size 9 to 14) (size 15 to 20)
#    0.000    1.667    1.667    2.500    0.000    3.333 
#    9.000    0.000    0.000    0.000    0.000    0.000 
#    0.000    0.000    0.000    0.000    0.000    0.000 
#
# Total GULP energy -67003.693379 kJ/mol
# GULP energy per Si atom -5583.641115 kJ/mol
# Density = 2.382973 g / cm^3
# Si number density = 23.884091 Si / 1000 Ang^3
#
#
#
# Elastic Constant Matrix: (Units=GPa)
#
#
# Indices 1 2 3 4 5 6 
#
# 1 64.1772 23.3150 64.6356 0.6011 -13.8861 -9.0248
# 2 23.3150 100.5940 9.5162 -3.1320 -18.7668 -17.7336
# 3 64.6356 9.5162 192.7471 -30.2955 -23.6467 -0.0781
# 4 0.6011 -3.1320 -30.2955 36.0304 3.8091 0.6881
# 5 -13.8861 -18.7668 -23.6467 3.8091 58.0287 -9.3019
# 6 -9.0248 -17.7336 -0.0781 0.6881 -9.3019 29.0829
#
#
#
# Elastic Compliance Matrix: (Units=1/GPa)
#
#
# Indices 1 2 3 4 5 6 
#
# 1 0.030508 -0.004284 -0.011323 -0.010909 0.003323 0.008146
# 2 -0.004284 0.013278 0.001731 0.001972 0.005189 0.008384
# 3 -0.011323 0.001731 0.010464 0.009059 0.001155 -0.002275
# 4 -0.010909 0.001972 0.009059 0.035915 -0.001181 -0.003386
# 5 0.003323 0.005189 0.001155 -0.001181 0.022063 0.011283
# 6 0.008146 0.008384 -0.002275 -0.003386 0.011283 0.045707
#
#
# Mechanical properties :
#
#
# Convention : Reuss Voigt Hill
#
# Bulk Modulus (GPa) = 37.73676 61.38354 49.56015
# Shear Modulus (GPa) = 25.70437 41.96517 33.83477
#
# Velocity S-wave (km/s) = 3.28413 4.19625 3.76789
# Velocity P-wave (km/s) = 5.49681 7.01672 6.30275
#
# Compressibility (1/GPa) = 0.02649936
#
# Stress axis : x y z
#
# Youngs Moduli (GPa) = 32.77796 75.31500 95.56214
#
# Poissons Ratio (x) = 0.32262 1.08203
# Poissons Ratio (y) = 0.14041 -0.16541
# Poissons Ratio (z) = 0.37114 -0.13036
#
# Static dielectric constant tensor:
#      x y z
#    x 1.877550 0.047090 0.017900 
#    y 0.047090 1.950250 0.084350 
#    z 0.017900 0.084350 2.006530 
# 
# From -- ./inp_files/89587.got.cif
#   From: 2010.05.17/outbox.cif.g08.bks.cpg/sg2_45_cif.got.tgz:89587.got - 2010.06.03 11:33:40.
