data_PCOD9010742
_publ_section_title
;
Structure prediction by ZEFSAII (Michael W. Deem and Ramdas Pophale) SiO2 
 PCOD9010742
Probable space group: P -1
;
_chemical_formula_sum "Si O2"
_cell_formula_units_Z 14
_cell_length_a 24.444064
_cell_length_b 8.471077
_cell_length_c 9.350208
_cell_angle_alpha 46.044610
_cell_angle_beta 150.914609
_cell_angle_gamma 133.146670
_cell_volume 660.797328
_symmetry_space_group_name_H-M "P -1"
_symmetry_group_IT_number 2
_symmetry_cell_setting 'triclinic'
loop_
_space_group_symop_operation_xyz
x,y,z
-x,-y,-z
loop_
_atom_site_type_symbol
_atom_site_label
_atom_site_fract_x
_atom_site_fract_y
_atom_site_fract_z
Si Si1 0.562889 0.727522 0.424584
Si Si2 0.510988 0.827536 0.925936
Si Si3 0.782829 0.587086 0.931083
Si Si4 0.008795 0.859987 0.396366
Si Si5 0.070009 0.708152 0.939682
Si Si6 0.700591 0.325729 0.636630
Si Si7 0.737617 0.082772 0.145024
O O1 0.500000 0.500000 0.500000
O O2 0.697936 0.727398 0.718361
O O3 0.537069 0.944186 0.307650
O O4 0.514241 0.725501 0.153975
O O5 0.421153 0.675710 0.709896
O O6 0.639993 0.907162 0.111469
O O7 0.749912 0.533757 0.723876
O O8 0.915390 0.701846 0.183433
O O9 0.753940 0.334467 0.090259
O O10 0.031638 0.721477 0.677235
O O11 0.133593 0.954384 0.551539
O O12 0.953659 0.065105 0.189709
O O13 0.203263 0.694038 0.247019
O O14 0.000000 0.500000 0.000000
O O15 0.692248 0.117187 0.859155
#
# Coordination Sequence:
#
# PCOD9010742 Si02
#       7
#     2   2   2   2   2   2   2
#     4  11  23  40  60  90 122 162 210 255 306 364
#     4  11  22  41  64  89 124 164 209 252 312 364
#     4  10  21  40  64  90 126 163 202 253 315 360
#     4  10  21  42  64  89 128 162 199 262 309 356
#     4  10  22  40  63  93 121 164 210 248 309 368
#     4   9  21  39  63  91 126 159 203 258 304 369
#     4   9  20  38  66  90 123 165 206 252 308 365
#
# _framework density 21.186525
#
# number of rings (size 3 to 8) (size 9 to 14) (size 15 to 20)
#    0.857    1.143    1.429    1.714    0.000    2.857 
#    2.571    1.429    0.000    0.000    0.000    0.000 
#    0.000    0.000    0.000    0.000    0.000    0.000 
#
# Total GULP energy -78176.809255 kJ/mol
# GULP energy per Si atom -5584.057804 kJ/mol
# Density = 2.113830 g / cm^3
# Si number density = 21.186525 Si / 1000 Ang^3
#
#
#
# Elastic Constant Matrix: (Units=GPa)
#
#
# Indices 1 2 3 4 5 6 
#
# 1 103.1692 54.0543 53.8326 9.2574 21.1278 19.5314
# 2 54.0543 80.6932 65.9246 18.6036 -5.0878 15.1966
# 3 53.8326 65.9246 106.9435 27.4613 22.2147 8.8474
# 4 9.2574 18.6036 27.4613 42.5571 -3.1125 -3.3430
# 5 21.1278 -5.0878 22.2147 -3.1125 36.2464 -1.9958
# 6 19.5314 15.1966 8.8474 -3.3430 -1.9958 28.8229
#
#
#
# Elastic Compliance Matrix: (Units=1/GPa)
#
#
# Indices 1 2 3 4 5 6 
#
# 1 0.022567 -0.018951 0.005901 -0.002598 -0.020139 -0.008808
# 2 -0.018951 0.053246 -0.032194 0.004264 0.038497 -0.002189
# 3 0.005901 -0.032194 0.036249 -0.013041 -0.031396 -0.001838
# 4 -0.002598 0.004264 -0.013041 0.032231 0.013324 0.008176
# 5 -0.020139 0.038497 -0.031396 0.013324 0.065618 0.009076
# 6 -0.008808 -0.002189 -0.001838 0.008176 0.009076 0.043959
#
#
# Mechanical properties :
#
#
# Convention : Reuss Voigt Hill
#
# Bulk Modulus (GPa) = 46.35097 70.93655 58.64376
# Shear Modulus (GPa) = 14.22282 29.32491 21.77387
#
# Velocity S-wave (km/s) = 2.59378 3.72443 3.20929
# Velocity P-wave (km/s) = 5.55836 7.21455 6.43992
#
# Compressibility (1/GPa) = 0.02157452
#
# Stress axis : x y z
#
# Youngs Moduli (GPa) = 44.31157 18.78089 27.58722
#
# Poissons Ratio (x) = 0.35591 -0.16280
# Poissons Ratio (y) = 0.83974 0.88815
# Poissons Ratio (z) = -0.26150 0.60464
#
# Static dielectric constant tensor:
#      x y z
#    x 1.759080 -0.031610 0.009230 
#    y -0.031610 1.757720 -0.024790 
#    z 0.009230 -0.024790 1.770250 
# 
# From -- ./inp_files/351641.got.cif
#   From: 2010.05.17/outbox.cif.g08.bks.cpg/sg2_176_cif.got.tgz:351641.got - 2010.06.03 11:33:40.
