data_PCOD9010642
_publ_section_title
;
Structure prediction by ZEFSAII (Michael W. Deem and Ramdas Pophale) SiO2 
 PCOD9010642
Probable space group: P -1
;
_chemical_formula_sum "Si O2"
_cell_formula_units_Z 16
_cell_length_a 5.279131
_cell_length_b 16.389662
_cell_length_c 16.874948
_cell_angle_alpha 33.118195
_cell_angle_beta 52.016029
_cell_angle_gamma 55.420267
_cell_volume 624.145960
_symmetry_space_group_name_H-M "P -1"
_symmetry_group_IT_number 2
_symmetry_cell_setting 'triclinic'
loop_
_space_group_symop_operation_xyz
x,y,z
-x,-y,-z
loop_
_atom_site_type_symbol
_atom_site_label
_atom_site_fract_x
_atom_site_fract_y
_atom_site_fract_z
Si Si1 0.485372 0.136778 0.580558
Si Si2 0.182039 0.592738 0.720274
Si Si3 0.474041 0.325000 0.156453
Si Si4 0.179516 0.974698 0.632431
Si Si5 0.576731 0.683484 0.007093
Si Si6 0.866604 0.617715 0.234491
Si Si7 0.237378 0.200219 0.752365
Si Si8 0.474037 0.887957 0.002714
O O1 0.572274 0.291075 0.398485
O O2 0.248516 0.051741 0.640974
O O3 0.330481 0.190126 0.651306
O O4 0.838599 0.041615 0.605767
O O5 0.178156 0.451551 0.894773
O O6 0.257139 0.517134 0.681238
O O7 0.825774 0.682795 0.720750
O O8 0.777975 0.206829 0.218290
O O9 0.500000 0.500000 0.000000
O O10 0.390383 0.281983 0.118367
O O11 0.500000 0.000000 0.500000
O O12 0.533587 0.833409 0.945471
O O13 0.244821 0.610542 0.149509
O O14 0.774482 0.645065 0.321756
O O15 0.731319 0.776529 0.090919
O O16 0.877277 0.152820 0.870727
O O17 0.473788 0.065733 0.858802
#
# Coordination Sequence:
#
# PCOD9010642 Si02
#       8
#     2   2   2   2   2   2   2   2
#     4  12  29  48  78 105 151 198 242 294 375 443
#     4  11  25  44  68 102 146 193 242 302 363 441
#     4  12  25  43  76 107 140 192 244 304 367 432
#     4  12  29  52  75 110 151 191 244 303 367 441
#     4  10  22  39  65 100 140 178 244 298 361 425
#     4  10  21  40  64 101 134 180 237 305 348 426
#     4  10  22  40  69  99 138 191 236 299 363 437
#     4   9  20  40  64  98 140 178 239 304 363 421
#
# _framework density 25.635027999999998
#
# number of rings (size 3 to 8) (size 9 to 14) (size 15 to 20)
#    0.000    1.250    2.500    1.875    7.000    1.500 
#    0.000    5.625    0.000    0.000    0.000    0.000 
#    0.000    0.000    0.000    0.000    0.000    0.000 
#
# Total GULP energy -89571.804148 kJ/mol
# GULP energy per Si atom -5598.237759 kJ/mol
# Density = 2.557668 g / cm^3
# Si number density = 25.635028 Si / 1000 Ang^3
#
#
#
# Elastic Constant Matrix: (Units=GPa)
#
#
# Indices 1 2 3 4 5 6 
#
# 1 70.4546 34.0971 -3.2046 -11.9815 11.4155 -9.3241
# 2 34.0971 125.7324 27.9642 1.3120 17.4539 5.7049
# 3 -3.2046 27.9642 73.4379 -13.2955 -5.6667 -2.1418
# 4 -11.9815 1.3120 -13.2955 43.8914 8.6885 0.0381
# 5 11.4155 17.4539 -5.6667 8.6885 23.2951 1.6095
# 6 -9.3241 5.7049 -2.1418 0.0381 1.6095 47.9720
#
#
#
# Elastic Compliance Matrix: (Units=1/GPa)
#
#
# Indices 1 2 3 4 5 6 
#
# 1 0.020672 -0.005674 0.004141 0.008743 -0.008489 0.005155
# 2 -0.005674 0.011795 -0.005736 -0.002371 -0.006392 -0.002545
# 3 0.004141 -0.005736 0.017408 0.005738 0.004216 0.002118
# 4 0.008743 -0.002371 0.005738 0.029404 -0.012260 0.002626
# 5 -0.008489 -0.006392 0.004216 -0.012260 0.057657 -0.002626
# 6 0.005155 -0.002545 0.002118 0.002626 -0.002626 0.022331
#
#
# Mechanical properties :
#
#
# Convention : Reuss Voigt Hill
#
# Bulk Modulus (GPa) = 28.29837 43.03756 35.66796
# Shear Modulus (GPa) = 26.94192 37.08290 32.01241
#
# Velocity S-wave (km/s) = 3.24540 3.80751 3.53764
# Velocity P-wave (km/s) = 5.01063 6.01286 5.53448
#
# Compressibility (1/GPa) = 0.03533773
#
# Stress axis : x y z
#
# Youngs Moduli (GPa) = 48.37391 84.77887 57.44536
#
# Poissons Ratio (x) = 0.48101 -0.23787
# Poissons Ratio (y) = 0.27446 0.32950
# Poissons Ratio (z) = -0.20030 0.48628
#
# Static dielectric constant tensor:
#      x y z
#    x 2.062510 0.025990 -0.002630 
#    y 0.025990 2.077640 0.011760 
#    z -0.002630 0.011760 2.015850 
# 
# From -- ./inp_files/98625.got.cif
#   From: 2010.05.17/outbox.cif.g08.bks.cpg/sg2_50_cif.got.tgz:98625.got - 2010.06.03 11:33:40.
