data_PCOD9010234
_publ_section_title
;
Structure prediction by ZEFSAII (Michael W. Deem and Ramdas Pophale) SiO2 
 PCOD9010234
Probable space group: P -1
;
_chemical_formula_sum "Si O2"
_cell_formula_units_Z 16
_cell_length_a 7.609179
_cell_length_b 11.324164
_cell_length_c 15.019500
_cell_angle_alpha 132.384789
_cell_angle_beta 118.065595
_cell_angle_gamma 96.431772
_cell_volume 634.845962
_symmetry_space_group_name_H-M "P -1"
_symmetry_group_IT_number 2
_symmetry_cell_setting 'triclinic'
loop_
_space_group_symop_operation_xyz
x,y,z
-x,-y,-z
loop_
_atom_site_type_symbol
_atom_site_label
_atom_site_fract_x
_atom_site_fract_y
_atom_site_fract_z
Si Si1 0.449701 0.126625 0.295025
Si Si2 0.220692 0.303768 0.570443
Si Si3 0.587295 0.195177 0.560887
Si Si4 0.165477 0.398860 0.403776
Si Si5 0.899730 0.928768 0.066578
Si Si6 0.389885 0.795413 0.813310
Si Si7 0.751647 0.835851 0.191076
Si Si8 0.192311 0.456852 0.829913
O O1 0.495239 0.097215 0.390262
O O2 0.578050 0.375251 0.456678
O O3 0.607473 0.146323 0.258420
O O4 0.140667 0.943458 0.104344
O O5 0.438524 0.277265 0.599450
O O6 0.209233 0.378886 0.508012
O O7 0.257044 0.429398 0.731232
O O8 0.937972 0.066437 0.396265
O O9 0.903990 0.381673 0.728984
O O10 0.500000 0.000000 0.500000
O O11 0.045749 0.177372 0.218394
O O12 0.915298 0.387266 0.327598
O O13 0.843146 0.873285 0.129091
O O14 0.622313 0.787332 0.877632
O O15 0.500000 0.000000 0.000000
O O16 0.803564 0.697652 0.184580
O O17 0.436455 0.695191 0.041495
#
# Coordination Sequence:
#
# PCOD9010234 Si02
#       8
#     2   2   2   2   2   2   2   2
#     4  12  22  40  68  94 131 176 218 281 341 400
#     4  11  23  47  70 100 143 177 227 293 338 404
#     4  12  25  44  71 104 133 177 240 280 338 420
#     4  10  22  40  63  94 129 171 221 271 337 408
#     4  10  21  40  62  92 135 166 214 281 332 399
#     4  10  23  40  59  96 130 173 221 266 336 409
#     4  10  22  43  67  99 139 175 233 281 336 417
#     4  11  24  43  72  99 134 191 225 280 355 392
#
# _framework density 25.202964999999999
#
# number of rings (size 3 to 8) (size 9 to 14) (size 15 to 20)
#    0.000    1.250    3.750    2.250    3.500    0.000 
#    0.000    3.750    0.000    0.000    0.000    0.000 
#    0.000    0.000    0.000    0.000    0.000    0.000 
#
# Total GULP energy -89540.350920 kJ/mol
# GULP energy per Si atom -5596.271932 kJ/mol
# Density = 2.514560 g / cm^3
# Si number density = 25.202965 Si / 1000 Ang^3
#
#
#
# Elastic Constant Matrix: (Units=GPa)
#
#
# Indices 1 2 3 4 5 6 
#
# 1 99.3255 17.9479 44.1006 -14.1754 41.5617 3.2365
# 2 17.9479 142.3667 17.3774 -14.7945 9.3660 8.4542
# 3 44.1006 17.3774 164.0431 2.0564 41.8897 0.4648
# 4 -14.1754 -14.7945 2.0564 31.5484 2.6328 7.8534
# 5 41.5617 9.3660 41.8897 2.6328 62.2263 -2.7767
# 6 3.2365 8.4542 0.4648 7.8534 -2.7767 26.2863
#
#
#
# Elastic Compliance Matrix: (Units=1/GPa)
#
#
# Indices 1 2 3 4 5 6 
#
# 1 0.017166 0.000266 -0.001970 0.010482 -0.010910 -0.006449
# 2 0.000266 0.007930 -0.000616 0.005043 -0.001359 -0.004222
# 3 -0.001970 -0.000616 0.007642 -0.001455 -0.003659 0.000354
# 4 0.010482 0.005043 -0.001455 0.043880 -0.009395 -0.016989
# 5 -0.010910 -0.001359 -0.003659 -0.009395 0.026756 0.007478
# 6 -0.006449 -0.004222 0.000354 -0.016989 0.007478 0.046054
#
#
# Mechanical properties :
#
#
# Convention : Reuss Voigt Hill
#
# Bulk Modulus (GPa) = 35.58858 62.73190 49.16024
# Shear Modulus (GPa) = 30.59334 45.76616 38.17975
#
# Velocity S-wave (km/s) = 3.48786 4.26597 3.89638
# Velocity P-wave (km/s) = 5.51105 7.01494 6.30797
#
# Compressibility (1/GPa) = 0.02809890
#
# Stress axis : x y z
#
# Youngs Moduli (GPa) = 58.25485 126.10495 130.84918
#
# Poissons Ratio (x) = -0.03359 0.25779
# Poissons Ratio (y) = -0.01552 0.08060
# Poissons Ratio (z) = 0.11477 0.07768
#
# Static dielectric constant tensor:
#      x y z
#    x 2.060290 -0.079680 0.010010 
#    y -0.079680 1.988400 0.018440 
#    z 0.010010 0.018440 1.977320 
# 
# From -- ./inp_files/500739.got.cif
#   From: 2010.05.17/outbox.cif.g08.bks.cpg/sg2_251_cif.got.tgz:500739.got - 2010.06.03 11:33:40.
