data_PCOD9010415
_publ_section_title
;
Structure prediction by ZEFSAII (Michael W. Deem and Ramdas Pophale) SiO2 
 PCOD9010415
Probable space group: P -1
;
_chemical_formula_sum "Si O2"
_cell_formula_units_Z 10
_cell_length_a 13.304763
_cell_length_b 5.464971
_cell_length_c 14.879664
_cell_angle_alpha 57.233360
_cell_angle_beta 150.174810
_cell_angle_gamma 127.132291
_cell_volume 428.570153
_symmetry_space_group_name_H-M "P -1"
_symmetry_group_IT_number 2
_symmetry_cell_setting 'triclinic'
loop_
_space_group_symop_operation_xyz
x,y,z
-x,-y,-z
loop_
_atom_site_type_symbol
_atom_site_label
_atom_site_fract_x
_atom_site_fract_y
_atom_site_fract_z
Si Si1 0.833916 0.973647 0.797207
Si Si2 0.808426 0.916259 0.088749
Si Si3 0.333263 0.702397 0.975481
Si Si4 0.018020 0.084631 0.393592
Si Si5 0.597955 0.472045 0.484735
O O1 0.614024 0.706347 0.698694
O O2 0.748396 0.260585 0.658920
O O3 0.973010 0.941561 0.825064
O O4 0.000000 0.000000 0.000000
O O5 0.648497 0.626782 0.969694
O O6 0.701713 0.179104 0.976353
O O7 0.880725 0.844266 0.259846
O O8 0.104670 0.664603 0.759731
O O9 0.500000 0.000000 0.000000
O O10 0.256039 0.227315 0.512611
O O11 0.000000 0.000000 0.500000
O O12 0.500000 0.500000 0.500000
#
# Coordination Sequence:
#
# PCOD9010415 Si02
#       5
#     2   2   2   2   2
#     4  11  24  43  71 102 136 188 235 296 358 421
#     4  10  21  43  63  96 139 172 235 295 338 426
#     4  10  21  40  63  89 135 176 221 284 348 408
#     4  10  23  41  66  97 137 183 230 285 358 419
#     4  11  22  47  69  99 143 181 238 299 344 428
#
# _framework density 23.333400999999999
#
# number of rings (size 3 to 8) (size 9 to 14) (size 15 to 20)
#    1.200    0.400    4.000    0.600    0.000    3.200 
#    3.600    0.000    0.000    0.000    0.000    0.000 
#    0.000    0.000    0.000    0.000    0.000    0.000 
#
# Total GULP energy -55690.453986 kJ/mol
# GULP energy per Si atom -5569.045399 kJ/mol
# Density = 2.328029 g / cm^3
# Si number density = 23.333401 Si / 1000 Ang^3
#
#
#
# Elastic Constant Matrix: (Units=GPa)
#
#
# Indices 1 2 3 4 5 6 
#
# 1 179.2776 57.2288 45.0817 11.4962 1.7993 4.3001
# 2 57.2288 107.1396 36.4622 27.1008 2.6213 -7.7528
# 3 45.0817 36.4622 113.1242 16.2641 6.4780 2.9686
# 4 11.4962 27.1008 16.2641 31.1736 3.6719 7.2916
# 5 1.7993 2.6213 6.4780 3.6719 36.3999 13.6266
# 6 4.3001 -7.7528 2.9686 7.2916 13.6266 46.5039
#
#
#
# Elastic Compliance Matrix: (Units=1/GPa)
#
#
# Indices 1 2 3 4 5 6 
#
# 1 0.007188 -0.003834 -0.001911 0.001994 0.000695 -0.001698
# 2 -0.003834 0.015501 -0.001772 -0.012232 -0.001391 0.005377
# 3 -0.001911 -0.001772 0.010710 -0.003204 -0.001402 0.000111
# 4 0.001994 -0.012232 -0.003204 0.045790 0.000199 -0.009257
# 5 0.000695 -0.001391 -0.001402 0.000199 0.031289 -0.009406
# 6 -0.001698 0.005377 0.000111 -0.009257 -0.009406 0.026758
#
#
# Mechanical properties :
#
#
# Convention : Reuss Voigt Hill
#
# Bulk Modulus (GPa) = 54.44253 75.23188 64.83721
# Shear Modulus (GPa) = 31.56730 40.20004 35.88367
#
# Velocity S-wave (km/s) = 3.68214 4.15523 3.92582
# Velocity P-wave (km/s) = 6.43900 7.43864 6.95680
#
# Compressibility (1/GPa) = 0.01836799
#
# Stress axis : x y z
#
# Youngs Moduli (GPa) = 139.11932 64.51018 93.36725
#
# Poissons Ratio (x) = 0.24730 0.17842
# Poissons Ratio (y) = 0.53332 0.16540
# Poissons Ratio (z) = 0.26584 0.11428
#
# Static dielectric constant tensor:
#      x y z
#    x 1.952730 -0.042540 -0.030670 
#    y -0.042540 2.133950 0.083650 
#    z -0.030670 0.083650 1.903050 
# 
# From -- ./inp_files/49535.got.cif
#   From: 2010.05.17/outbox.cif.g08.bks.cpg/sg2_25_cif.got.tgz:49535.got - 2010.06.03 11:33:40.
