data_PCOD9010063
_publ_section_title
;
Structure prediction by ZEFSAII (Michael W. Deem and Ramdas Pophale) SiO2 
 PCOD9010063
Probable space group: P -1
;
_chemical_formula_sum "Si O2"
_cell_formula_units_Z 16
_cell_length_a 15.210217
_cell_length_b 8.083262
_cell_length_c 11.963230
_cell_angle_alpha 67.720273
_cell_angle_beta 136.488982
_cell_angle_gamma 80.200754
_cell_volume 670.369006
_symmetry_space_group_name_H-M "P -1"
_symmetry_group_IT_number 2
_symmetry_cell_setting 'triclinic'
loop_
_space_group_symop_operation_xyz
x,y,z
-x,-y,-z
loop_
_atom_site_type_symbol
_atom_site_label
_atom_site_fract_x
_atom_site_fract_y
_atom_site_fract_z
Si Si1 0.960589 0.827486 0.999262
Si Si2 0.034295 0.457569 0.748161
Si Si3 0.511829 0.293466 0.708344
Si Si4 0.439114 0.786702 0.482753
Si Si5 0.665148 0.721816 0.262964
Si Si6 0.164072 0.555581 0.041182
Si Si7 0.824731 0.111433 0.174765
Si Si8 0.799028 0.407759 0.265707
O O1 0.105045 0.608066 0.101629
O O2 0.954362 0.752570 0.137889
O O3 0.000000 0.000000 0.000000
O O4 0.763117 0.975224 0.728724
O O5 0.181860 0.417593 0.821662
O O6 0.851249 0.645262 0.462628
O O7 0.042653 0.558609 0.846395
O O8 0.461442 0.552160 0.585637
O O9 0.552524 0.190933 0.648199
O O10 0.364379 0.326991 0.628434
O O11 0.681856 0.117829 0.991217
O O12 0.624686 0.692374 0.720043
O O13 0.684912 0.544582 0.236016
O O14 0.500000 0.000000 0.000000
O O15 0.135548 0.785727 0.913153
O O16 0.744231 0.312226 0.149463
O O17 0.003538 0.844988 0.449760
#
# Coordination Sequence:
#
# PCOD9010063 Si02
#       8
#     2   2   2   2   2   2   2   2
#     4  12  24  39  72 101 127 178 223 271 342 404
#     4  11  25  45  64  91 135 175 218 278 336 399
#     4  10  21  40  61  95 131 163 212 278 325 394
#     4  10  22  40  65  99 132 168 219 274 331 393
#     4  12  26  40  64  95 134 173 225 273 333 403
#     4  10  23  45  65  98 136 169 221 278 334 403
#     4   9  20  42  70  91 133 168 220 277 332 395
#     4  10  23  42  65  95 124 180 221 271 336 394
#
# _framework density 23.867449000000001
#
# number of rings (size 3 to 8) (size 9 to 14) (size 15 to 20)
#    0.000    1.500    0.000    5.250    7.000    1.000 
#    6.750    0.000    0.000    0.000    0.000    0.000 
#    0.000    0.000    0.000    0.000    0.000    0.000 
#
# Total GULP energy -89456.695338 kJ/mol
# GULP energy per Si atom -5591.043459 kJ/mol
# Density = 2.381313 g / cm^3
# Si number density = 23.867449 Si / 1000 Ang^3
#
#
#
# Elastic Constant Matrix: (Units=GPa)
#
#
# Indices 1 2 3 4 5 6 
#
# 1 95.3317 9.3294 5.8016 -6.3033 -11.0857 1.1524
# 2 9.3294 68.4222 34.2870 4.6841 5.0550 -5.9255
# 3 5.8016 34.2870 80.0628 6.5836 -8.4751 -12.0633
# 4 -6.3033 4.6841 6.5836 30.8922 -4.1630 -1.9050
# 5 -11.0857 5.0550 -8.4751 -4.1630 32.7019 -1.1184
# 6 1.1524 -5.9255 -12.0633 -1.9050 -1.1184 30.7270
#
#
#
# Elastic Compliance Matrix: (Units=1/GPa)
#
#
# Indices 1 2 3 4 5 6 
#
# 1 0.011467 -0.002344 0.000353 0.003236 0.004740 -0.000370
# 2 -0.002344 0.020047 -0.008889 -0.002497 -0.006513 0.000072
# 3 0.000353 -0.008889 0.017839 -0.001219 0.006147 0.005425
# 4 0.003236 -0.002497 -0.001219 0.034502 0.005602 0.001261
# 5 0.004740 -0.006513 0.006147 0.005602 0.035589 0.002622
# 6 -0.000370 0.000072 0.005425 0.001261 0.002622 0.034876
#
#
# Mechanical properties :
#
#
# Convention : Reuss Voigt Hill
#
# Bulk Modulus (GPa) = 36.23952 38.07253 37.15602
# Shear Modulus (GPa) = 26.98635 31.82412 29.40524
#
# Velocity S-wave (km/s) = 3.36620 3.65549 3.51383
# Velocity P-wave (km/s) = 5.50682 5.81405 5.66252
#
# Compressibility (1/GPa) = 0.02759418
#
# Stress axis : x y z
#
# Youngs Moduli (GPa) = 87.20438 49.88208 56.05550
#
# Poissons Ratio (x) = 0.11693 -0.01978
# Poissons Ratio (y) = 0.20443 0.49825
# Poissons Ratio (z) = -0.03077 0.44338
#
# Static dielectric constant tensor:
#      x y z
#    x 1.929580 0.042950 0.014060 
#    y 0.042950 1.911930 -0.023280 
#    z 0.014060 -0.023280 1.964460 
# 
# From -- ./inp_files/447213.got.cif
#   From: 2010.05.17/outbox.cif.g08.bks.cpg/sg2_224_cif.got.tgz:447213.got - 2010.06.03 11:33:40.
