data_PCOD9010391
_publ_section_title
;
Structure prediction by ZEFSAII (Michael W. Deem and Ramdas Pophale) SiO2 
 PCOD9010391
Probable space group: P -1
;
_chemical_formula_sum "Si O2"
_cell_formula_units_Z 10
_cell_length_a 14.780176
_cell_length_b 8.712612
_cell_length_c 8.920571
_cell_angle_alpha 63.907618
_cell_angle_beta 28.871845
_cell_angle_gamma 83.782535
_cell_volume 383.411347
_symmetry_space_group_name_H-M "P -1"
_symmetry_group_IT_number 2
_symmetry_cell_setting 'triclinic'
loop_
_space_group_symop_operation_xyz
x,y,z
-x,-y,-z
loop_
_atom_site_type_symbol
_atom_site_label
_atom_site_fract_x
_atom_site_fract_y
_atom_site_fract_z
Si Si1 0.024166 0.694830 0.961582
Si Si2 0.771228 0.759015 0.506755
Si Si3 0.523241 0.929882 0.688816
Si Si4 0.948240 0.160255 0.456581
Si Si5 0.232670 0.522877 0.104728
O O1 0.088894 0.854261 0.660185
O O2 0.232280 0.821764 0.734360
O O3 0.000000 0.500000 0.000000
O O4 0.778282 0.621238 0.423586
O O5 0.569061 0.786667 0.783494
O O6 0.776049 0.647863 0.697177
O O7 0.000000 0.000000 0.000000
O O8 0.291625 0.900398 0.092433
O O9 0.456463 0.787621 0.692306
O O10 0.174978 0.409019 0.076101
O O11 0.000000 0.000000 0.500000
O O12 0.000000 0.500000 0.500000
#
# Coordination Sequence:
#
# PCOD9010391 Si02
#       5
#     2   2   2   2   2
#     4  11  23  41  63  93 123 155 204 262 303 351
#     4  10  21  40  63  89 122 164 204 243 297 371
#     4  10  22  40  65  86 119 172 208 232 302 388
#     4  11  23  41  63  93 123 155 204 262 303 351
#     4  10  21  40  63  89 122 164 204 243 297 371
#
# _framework density 26.08165
#
# number of rings (size 3 to 8) (size 9 to 14) (size 15 to 20)
#    0.000    1.600    0.000    6.000    0.000    1.600 
#    0.000   38.000    0.000    0.000    0.000    0.000 
#    0.000    0.000    0.000    0.000    0.000    0.000 
#
# Total GULP energy -55788.238480 kJ/mol
# GULP energy per Si atom -5578.823848 kJ/mol
# Density = 2.602229 g / cm^3
# Si number density = 26.081650 Si / 1000 Ang^3
#
#
#
# Elastic Constant Matrix: (Units=GPa)
#
#
# Indices 1 2 3 4 5 6 
#
# 1 133.3172 53.6366 22.2146 6.3398 -13.5310 3.9999
# 2 53.6366 167.2640 41.3070 -8.8887 -27.9588 -9.9329
# 3 22.2146 41.3070 69.0277 -23.2163 -3.5171 -13.8718
# 4 6.3398 -8.8887 -23.2163 53.6298 2.9146 -23.2232
# 5 -13.5310 -27.9588 -3.5171 2.9146 34.5470 4.6563
# 6 3.9999 -9.9329 -13.8718 -23.2232 4.6563 70.7380
#
#
#
# Elastic Compliance Matrix: (Units=1/GPa)
#
#
# Indices 1 2 3 4 5 6 
#
# 1 0.009605 -0.002137 -0.003977 -0.004803 0.002486 -0.003363
# 2 -0.002137 0.008694 -0.004437 -0.000588 0.005810 -0.000104
# 3 -0.003977 -0.004437 0.025277 0.015250 -0.005197 0.009907
# 4 -0.004803 -0.000588 0.015250 0.032108 -0.005411 0.014077
# 5 0.002486 0.005810 -0.005197 -0.005411 0.035147 -0.004434
# 6 -0.003363 -0.000104 0.009907 0.014077 -0.004434 0.021168
#
#
# Mechanical properties :
#
#
# Convention : Reuss Voigt Hill
#
# Bulk Modulus (GPa) = 44.49729 67.10280 55.80005
# Shear Modulus (GPa) = 31.13475 48.61300 39.87387
#
# Velocity S-wave (km/s) = 3.45880 4.32195 3.91424
# Velocity P-wave (km/s) = 5.74882 7.11965 6.47064
#
# Compressibility (1/GPa) = 0.02247328
#
# Stress axis : x y z
#
# Youngs Moduli (GPa) = 104.11147 115.02761 39.56162
#
# Poissons Ratio (x) = 0.24587 0.15732
# Poissons Ratio (y) = 0.22253 0.17554
# Poissons Ratio (z) = 0.41401 0.51039
#
# Static dielectric constant tensor:
#      x y z
#    x 2.148230 -0.064620 -0.039470 
#    y -0.064620 2.194640 -0.198700 
#    z -0.039470 -0.198700 2.153570 
# 
# From -- ./inp_files/144254.got.cif
#   From: 2010.05.17/outbox.cif.g08.bks.cpg/sg2_73_cif.got.tgz:144254.got - 2010.06.03 11:33:40.
