data_PCOD9010693
_publ_section_title
;
Structure prediction by ZEFSAII (Michael W. Deem and Ramdas Pophale) SiO2 
 PCOD9010693
Probable space group: P -1
;
_chemical_formula_sum "Si O2"
_cell_formula_units_Z 16
_cell_length_a 29.898624
_cell_length_b 5.208575
_cell_length_c 8.965791
_cell_angle_alpha 121.525275
_cell_angle_beta 142.871307
_cell_angle_gamma 59.064745
_cell_volume 705.459037
_symmetry_space_group_name_H-M "P -1"
_symmetry_group_IT_number 2
_symmetry_cell_setting 'triclinic'
loop_
_space_group_symop_operation_xyz
x,y,z
-x,-y,-z
loop_
_atom_site_type_symbol
_atom_site_label
_atom_site_fract_x
_atom_site_fract_y
_atom_site_fract_z
Si Si1 0.842453 0.264018 0.457627
Si Si2 0.984571 0.803446 0.653444
Si Si3 0.456919 0.844176 0.963990
Si Si4 0.318281 0.761809 0.124122
Si Si5 0.068012 0.234721 0.157759
Si Si6 0.242611 0.777055 0.511317
Si Si7 0.374129 0.069006 0.097177
Si Si8 0.707913 0.952201 0.546883
O O1 0.760579 0.263027 0.172416
O O2 0.860249 0.601764 0.614962
O O3 0.834316 0.161748 0.578337
O O4 0.909583 0.049758 0.479157
O O5 0.958038 0.757981 0.737117
O O6 0.000000 0.500000 0.500000
O O7 0.056300 0.962298 0.929361
O O8 0.441887 0.985193 0.133498
O O9 0.373756 0.893209 0.687343
O O10 0.500000 0.500000 0.000000
O O11 0.500000 0.000000 0.000000
O O12 0.374332 0.887073 0.196826
O O13 0.357185 0.430060 0.185497
O O14 0.294171 0.980007 0.264357
O O15 0.000000 0.500000 0.000000
O O16 0.300722 0.977330 0.793574
O O17 0.238685 0.869414 0.355362
O O18 0.276053 0.418613 0.529178
#
# Coordination Sequence:
#
# PCOD9010693 Si02
#       8
#     2   2   2   2   2   2   2   2
#     4  10  22  39  63  88 120 170 213 255 328 407
#     4  10  22  43  65  90 129 168 212 272 327 382
#     4  11  21  38  65  92 123 175 223 250 308 400
#     4  11  23  41  63  94 131 164 210 275 332 377
#     4   9  21  42  62  87 125 168 207 261 332 378
#     4  10  21  40  64  89 125 168 215 260 323 384
#     4  10  21  40  64  88 130 173 201 265 329 368
#     4  11  23  42  62  97 130 163 211 280 319 371
#
# _framework density 22.680264999999999
#
# number of rings (size 3 to 8) (size 9 to 14) (size 15 to 20)
#    0.000    1.750    0.000    6.000    5.250    2.000 
#    9.000    3.750    0.000    0.000    0.000    0.000 
#    0.000    0.000    0.000    0.000    0.000    0.000 
#
# Total GULP energy -89221.998542 kJ/mol
# GULP energy per Si atom -5576.374909 kJ/mol
# Density = 2.262864 g / cm^3
# Si number density = 22.680265 Si / 1000 Ang^3
#
#
#
# Elastic Constant Matrix: (Units=GPa)
#
#
# Indices 1 2 3 4 5 6 
#
# 1 139.1314 48.1256 34.6477 15.0626 9.1431 9.0874
# 2 48.1256 137.1627 28.4946 25.1600 5.0056 -8.7808
# 3 34.6477 28.4946 55.5112 18.5132 -7.6060 -12.6770
# 4 15.0626 25.1600 18.5132 29.1169 -8.9119 -3.6527
# 5 9.1431 5.0056 -7.6060 -8.9119 26.8405 0.7790
# 6 9.0874 -8.7808 -12.6770 -3.6527 0.7790 49.2314
#
#
#
# Elastic Compliance Matrix: (Units=1/GPa)
#
#
# Indices 1 2 3 4 5 6 
#
# 1 0.010291 -0.002028 -0.006497 -0.001585 -0.005379 -0.003967
# 2 -0.002028 0.009976 -0.001580 -0.007699 -0.004210 0.001242
# 3 -0.006497 -0.001580 0.029126 -0.010711 0.006987 0.007512
# 4 -0.001585 -0.007699 -0.010711 0.053752 0.016791 -0.000116
# 5 -0.005379 -0.004210 0.006987 0.016791 0.047356 0.002538
# 6 -0.003967 0.001242 0.007512 -0.000116 0.002538 0.023151
#
#
# Mechanical properties :
#
#
# Convention : Reuss Voigt Hill
#
# Bulk Modulus (GPa) = 34.26746 61.59345 47.93046
# Shear Modulus (GPa) = 24.55930 35.74028 30.14979
#
# Velocity S-wave (km/s) = 3.29424 3.97398 3.64997
# Velocity P-wave (km/s) = 5.44160 6.94787 6.24035
#
# Compressibility (1/GPa) = 0.02918220
#
# Stress axis : x y z
#
# Youngs Moduli (GPa) = 97.17322 100.24187 34.33409
#
# Poissons Ratio (x) = 0.20330 0.22305
# Poissons Ratio (y) = 0.19707 0.05426
# Poissons Ratio (z) = 0.63129 0.15843
#
# Static dielectric constant tensor:
#      x y z
#    x 1.956830 0.041000 -0.005450 
#    y 0.041000 1.979070 -0.070780 
#    z -0.005450 -0.070780 1.927990 
# 
# From -- ./inp_files/358293.got.cif
#   From: 2010.05.17/outbox.cif.g08.bks.cpg/sg2_180_cif.got.tgz:358293.got - 2010.06.03 11:33:40.
