data_PCOD9010456
_publ_section_title
;
Structure prediction by ZEFSAII (Michael W. Deem and Ramdas Pophale) SiO2 
 PCOD9010456
Probable space group: P -1
;
_chemical_formula_sum "Si O2"
_cell_formula_units_Z 16
_cell_length_a 8.065832
_cell_length_b 16.902025
_cell_length_c 13.862564
_cell_angle_alpha 154.674106
_cell_angle_beta 95.992013
_cell_angle_gamma 91.414191
_cell_volume 771.891041
_symmetry_space_group_name_H-M "P -1"
_symmetry_group_IT_number 2
_symmetry_cell_setting 'triclinic'
loop_
_space_group_symop_operation_xyz
x,y,z
-x,-y,-z
loop_
_atom_site_type_symbol
_atom_site_label
_atom_site_fract_x
_atom_site_fract_y
_atom_site_fract_z
Si Si1 0.782478 0.937195 0.187694
Si Si2 0.346033 0.720014 0.118590
Si Si3 0.999711 0.708703 0.765478
Si Si4 0.414809 0.377425 0.622135
Si Si5 0.990845 0.755573 0.604164
Si Si6 0.388683 0.396269 0.290308
Si Si7 0.014756 0.663891 0.918746
Si Si8 0.565026 0.132775 0.509192
O O1 0.729059 0.072604 0.410704
O O2 0.607922 0.808562 0.981320
O O3 0.913444 0.072812 0.270496
O O4 0.873829 0.779089 0.060252
O O5 0.379868 0.724762 0.239703
O O6 0.439560 0.932862 0.319864
O O7 0.412653 0.559488 0.890015
O O8 0.146510 0.681723 0.033486
O O9 0.040834 0.816861 0.785773
O O10 0.805024 0.671531 0.752531
O O11 0.000000 0.500000 0.500000
O O12 0.106752 0.757415 0.925461
O O13 0.218349 0.298868 0.481506
O O14 0.549974 0.453272 0.627182
O O15 0.473612 0.224984 0.522960
O O16 0.045127 0.563516 0.363390
O O17 0.500000 0.500000 0.500000
#
# Coordination Sequence:
#
# PCOD9010456 Si02
#       8
#     2   2   2   2   2   2   2   2
#     4  11  24  39  63  96 128 161 212 263 312 370
#     4  10  22  45  64  92 124 170 211 266 320 368
#     4   9  19  35  62  86 120 167 202 247 307 367
#     4  11  22  42  67  93 131 167 210 257 314 380
#     4  10  21  40  63  91 127 168 210 251 311 381
#     4  11  22  41  63  93 130 169 206 256 311 375
#     4   9  21  39  63  85 126 166 205 255 313 368
#     4  11  24  39  67  94 125 163 218 266 316 370
#
# _framework density 20.728314999999998
#
# number of rings (size 3 to 8) (size 9 to 14) (size 15 to 20)
#    0.000    1.750    2.500    1.125    5.250    2.500 
#    2.250    3.125    0.000    0.000    0.000    0.000 
#    0.000    0.000    0.000    0.000    0.000    0.000 
#
# Total GULP energy -89139.780309 kJ/mol
# GULP energy per Si atom -5571.236269 kJ/mol
# Density = 2.068114 g / cm^3
# Si number density = 20.728315 Si / 1000 Ang^3
#
#
#
# Elastic Constant Matrix: (Units=GPa)
#
#
# Indices 1 2 3 4 5 6 
#
# 1 47.6793 13.9270 9.3789 8.5534 -13.2228 -4.0348
# 2 13.9270 84.4665 18.7688 8.0162 -5.9134 0.0201
# 3 9.3789 18.7688 55.2481 8.6168 -10.6927 -4.9132
# 4 8.5534 8.0162 8.6168 34.5674 -1.0324 -2.6953
# 5 -13.2228 -5.9134 -10.6927 -1.0324 33.9083 8.0590
# 6 -4.0348 0.0201 -4.9132 -2.6953 8.0590 29.0220
#
#
#
# Elastic Compliance Matrix: (Units=1/GPa)
#
#
# Indices 1 2 3 4 5 6 
#
# 1 0.025396 -0.002910 -0.000763 -0.005118 0.008890 0.000460
# 2 -0.002910 0.013338 -0.003872 -0.001500 0.000227 -0.001272
# 3 -0.000763 -0.003872 0.021322 -0.003940 0.005230 0.001688
# 4 -0.005118 -0.001500 -0.003940 0.031621 -0.003113 0.002424
# 5 0.008890 0.000227 0.005230 -0.003113 0.036527 -0.008311
# 6 0.000460 -0.001272 0.001688 0.002424 -0.008311 0.037340
#
#
# Mechanical properties :
#
#
# Convention : Reuss Voigt Hill
#
# Bulk Modulus (GPa) = 22.23932 30.17148 26.20540
# Shear Modulus (GPa) = 25.55930 29.18749 27.37340
#
# Velocity S-wave (km/s) = 3.51531 3.75653 3.63792
# Velocity P-wave (km/s) = 5.21812 5.77950 5.50597
#
# Compressibility (1/GPa) = 0.04496539
#
# Stress axis : x y z
#
# Youngs Moduli (GPa) = 39.37629 74.97499 46.89984
#
# Poissons Ratio (x) = 0.21816 0.03579
# Poissons Ratio (y) = 0.11458 0.18161
# Poissons Ratio (z) = 0.03005 0.29033
#
# Static dielectric constant tensor:
#      x y z
#    x 1.782430 -0.022910 0.021940 
#    y -0.022910 1.780170 -0.066890 
#    z 0.021940 -0.066890 1.667660 
# 
# From -- ./inp_files/400111.got.cif
#   From: 2010.05.17/outbox.cif.g08.bks.cpg/sg2_201_cif.got.tgz:400111.got - 2010.06.03 11:33:40.
