data_PCOD9010506
_publ_section_title
;
Structure prediction by ZEFSAII (Michael W. Deem and Ramdas Pophale) SiO2 
 PCOD9010506
Probable space group: P -1
;
_chemical_formula_sum "Si O2"
_cell_formula_units_Z 16
_cell_length_a 13.935228
_cell_length_b 16.770992
_cell_length_c 16.670098
_cell_angle_alpha 154.852244
_cell_angle_beta 25.748397
_cell_angle_gamma 148.242070
_cell_volume 706.220392
_symmetry_space_group_name_H-M "P -1"
_symmetry_group_IT_number 2
_symmetry_cell_setting 'triclinic'
loop_
_space_group_symop_operation_xyz
x,y,z
-x,-y,-z
loop_
_atom_site_type_symbol
_atom_site_label
_atom_site_fract_x
_atom_site_fract_y
_atom_site_fract_z
Si Si1 0.879902 0.543499 0.520836
Si Si2 0.216659 0.322216 0.458127
Si Si3 0.655104 0.201617 0.053016
Si Si4 0.108000 0.635253 0.113773
Si Si5 0.374064 0.395485 0.797745
Si Si6 0.277012 0.363060 0.016966
Si Si7 0.048979 0.980491 0.850831
Si Si8 0.967996 0.104244 0.853007
O O1 0.820955 0.560005 0.485800
O O2 0.642524 0.440037 0.643480
O O3 0.931672 0.585374 0.730628
O O4 0.987102 0.757011 0.668425
O O5 0.479754 0.342528 0.300654
O O6 0.071239 0.343836 0.665450
O O7 0.119316 0.105815 0.305750
O O8 0.781828 0.183768 0.857217
O O9 0.821507 0.235428 0.034911
O O10 0.500000 0.000000 0.000000
O O11 0.301650 0.542194 0.923852
O O12 0.000000 0.500000 0.000000
O O13 0.227853 0.182169 0.700493
O O14 0.260821 0.428612 0.997541
O O15 0.500000 0.500000 0.000000
O O16 0.284495 0.137110 0.810210
O O17 0.934355 0.080735 0.953647
O O18 0.000000 0.000000 0.000000
#
# Coordination Sequence:
#
# PCOD9010506 Si02
#       8
#     2   2   2   2   2   2   2   2
#     4  11  23  45  73  99 136 179 222 271 343 402
#     4  10  22  42  66  95 131 184 220 268 338 398
#     4  10  21  40  63  92 132 171 223 272 320 391
#     4  12  23  40  63  95 134 174 222 270 325 398
#     4  11  22  43  64  98 132 172 223 279 329 397
#     4  11  25  46  72 100 136 171 224 286 336 400
#     4  10  23  44  69 102 134 174 227 275 337 401
#     4   9  21  42  63  97 135 172 227 281 327 398
#
# _framework density 22.655818
#
# number of rings (size 3 to 8) (size 9 to 14) (size 15 to 20)
#    0.000    1.500    3.750    0.750    0.000    5.000 
#    6.750    1.250    0.000    0.000    0.000    0.000 
#    0.000    0.000    0.000    0.000    0.000    0.000 
#
# Total GULP energy -89091.606892 kJ/mol
# GULP energy per Si atom -5568.225431 kJ/mol
# Density = 2.260425 g / cm^3
# Si number density = 22.655818 Si / 1000 Ang^3
#
#
#
# Elastic Constant Matrix: (Units=GPa)
#
#
# Indices 1 2 3 4 5 6 
#
# 1 115.8716 40.0408 38.7594 -3.8190 25.3938 -16.4689
# 2 40.0408 125.6900 27.7182 -19.1910 0.5251 2.2632
# 3 38.7594 27.7182 95.9691 -23.8657 3.3210 1.4294
# 4 -3.8190 -19.1910 -23.8657 29.7864 -0.7869 3.3043
# 5 25.3938 0.5251 3.3210 -0.7869 34.4131 -10.1763
# 6 -16.4689 2.2632 1.4294 3.3043 -10.1763 50.7182
#
#
#
# Elastic Compliance Matrix: (Units=1/GPa)
#
#
# Indices 1 2 3 4 5 6 
#
# 1 0.014348 -0.004258 -0.005856 -0.006235 -0.009033 0.003608
# 2 -0.004258 0.010268 0.000332 0.006599 0.002584 -0.001762
# 3 -0.005856 0.000332 0.015744 0.012439 0.002279 -0.002713
# 4 -0.006235 0.006599 0.012439 0.047644 0.002851 -0.005202
# 5 -0.009033 0.002584 0.002279 0.002851 0.036734 0.004072
# 6 0.003608 -0.001762 -0.002713 -0.005202 0.004072 0.022199
#
#
# Mechanical properties :
#
#
# Convention : Reuss Voigt Hill
#
# Bulk Modulus (GPa) = 48.08957 61.17418 54.63187
# Shear Modulus (GPa) = 28.82939 38.38437 33.60688
#
# Velocity S-wave (km/s) = 3.57107 4.12058 3.85563
# Velocity P-wave (km/s) = 6.18673 7.04975 6.63230
#
# Compressibility (1/GPa) = 0.02079453
#
# Stress axis : x y z
#
# Youngs Moduli (GPa) = 69.69761 97.38997 63.51523
#
# Poissons Ratio (x) = 0.41473 0.37198
# Poissons Ratio (y) = 0.29681 -0.02110
# Poissons Ratio (z) = 0.40818 -0.03236
#
# Static dielectric constant tensor:
#      x y z
#    x 2.134430 0.189810 -0.028680 
#    y 0.189810 2.158480 -0.028450 
#    z -0.028680 -0.028450 1.863230 
# 
# From -- ./inp_files/110786.got.cif
#   From: 2010.05.17/outbox.cif.g08.bks.cpg/sg2_56_cif.got.tgz:110786.got - 2010.06.03 11:33:40.
