data_PCOD9010562
_publ_section_title
;
Structure prediction by ZEFSAII (Michael W. Deem and Ramdas Pophale) SiO2 
 PCOD9010562
Probable space group: P -1
;
_chemical_formula_sum "Si O2"
_cell_formula_units_Z 14
_cell_length_a 8.855417
_cell_length_b 11.272934
_cell_length_c 7.678692
_cell_angle_alpha 78.066933
_cell_angle_beta 50.497457
_cell_angle_gamma 89.609859
_cell_volume 570.724077
_symmetry_space_group_name_H-M "P -1"
_symmetry_group_IT_number 2
_symmetry_cell_setting 'triclinic'
loop_
_space_group_symop_operation_xyz
x,y,z
-x,-y,-z
loop_
_atom_site_type_symbol
_atom_site_label
_atom_site_fract_x
_atom_site_fract_y
_atom_site_fract_z
Si Si1 0.716358 0.224901 0.416189
Si Si2 0.571588 0.002175 0.143632
Si Si3 0.715241 0.672238 0.853627
Si Si4 0.907478 0.707112 0.324859
Si Si5 0.122319 0.143466 0.027243
Si Si6 0.054955 0.545976 0.641338
Si Si7 0.635715 0.275307 0.090331
O O1 0.550507 0.116120 0.636312
O O2 0.654011 0.301338 0.274253
O O3 0.899738 0.158274 0.238770
O O4 0.801589 0.326500 0.466497
O O5 0.536778 0.131632 0.204096
O O6 0.802884 0.986430 0.985907
O O7 0.500000 0.000000 0.000000
O O8 0.824314 0.716652 0.576518
O O9 0.745236 0.775523 0.947892
O O10 0.840245 0.569335 0.862013
O O11 0.489474 0.647159 0.962207
O O12 0.851819 0.569494 0.325562
O O13 0.841177 0.799283 0.207610
O O14 0.145758 0.723402 0.145233
O O15 0.000000 0.500000 0.500000
#
# Coordination Sequence:
#
# PCOD9010562 Si02
#       7
#     2   2   2   2   2   2   2
#     4  10  24  43  65  93 132 166 215 262 318 381
#     4  12  25  40  65  95 130 166 216 265 316 379
#     4  10  21  40  63  95 128 169 211 261 317 377
#     4  10  23  43  66  92 132 164 215 265 318 380
#     4  10  23  41  65  95 125 174 213 257 325 378
#     4   9  21  42  68  93 128 170 207 265 320 377
#     4  11  24  41  65  96 128 170 213 262 318 379
#
# _framework density 24.530241
#
# number of rings (size 3 to 8) (size 9 to 14) (size 15 to 20)
#    0.000    1.714    1.429    1.286    6.000    9.714 
#    0.000   10.714    0.000    0.000    0.000    1.000 
#    0.000    0.000    0.000    0.000    0.000    0.000 
#
# Total GULP energy -78250.520544 kJ/mol
# GULP energy per Si atom -5589.322896 kJ/mol
# Density = 2.447441 g / cm^3
# Si number density = 24.530241 Si / 1000 Ang^3
#
#
#
# Elastic Constant Matrix: (Units=GPa)
#
#
# Indices 1 2 3 4 5 6 
#
# 1 80.0995 10.6461 22.4898 7.4777 16.4789 0.6086
# 2 10.6461 90.6774 -3.8721 -1.1401 4.5657 9.3778
# 3 22.4898 -3.8721 67.4287 -7.4329 9.8396 12.3704
# 4 7.4777 -1.1401 -7.4329 25.3483 4.3111 -2.7887
# 5 16.4789 4.5657 9.8396 4.3111 39.5230 2.2067
# 6 0.6086 9.3778 12.3704 -2.7887 2.2067 45.5382
#
#
#
# Elastic Compliance Matrix: (Units=1/GPa)
#
#
# Indices 1 2 3 4 5 6 
#
# 1 0.015752 -0.002105 -0.005632 -0.005462 -0.004418 0.001632
# 2 -0.002105 0.011739 0.002237 0.001672 -0.001059 -0.002843
# 3 -0.005632 0.002237 0.019016 0.007332 -0.003168 -0.004948
# 4 -0.005462 0.001672 0.007332 0.044141 -0.004593 0.000663
# 5 -0.004418 -0.001059 -0.003168 -0.004593 0.028585 -0.000529
# 6 0.001632 -0.002843 -0.004948 0.000663 -0.000529 0.023934
#
#
# Mechanical properties :
#
#
# Convention : Reuss Voigt Hill
#
# Bulk Modulus (GPa) = 28.16348 32.97036 30.56692
# Shear Modulus (GPa) = 30.12021 36.01135 33.06578
#
# Velocity S-wave (km/s) = 3.50791 3.83566 3.67544
# Velocity P-wave (km/s) = 5.28331 5.75206 5.52266
#
# Compressibility (1/GPa) = 0.03550698
#
# Stress axis : x y z
#
# Youngs Moduli (GPa) = 63.48484 85.18512 52.58845
#
# Poissons Ratio (x) = 0.17931 0.29615
# Poissons Ratio (y) = 0.13363 -0.11762
# Poissons Ratio (z) = 0.35752 -0.19053
#
# Static dielectric constant tensor:
#      x y z
#    x 1.986980 -0.032820 -0.013800 
#    y -0.032820 1.990740 -0.037910 
#    z -0.013800 -0.037910 1.959890 
# 
# From -- ./inp_files/177268.got.cif
#   From: 2010.05.17/outbox.cif.g08.bks.cpg/sg2_89_cif.got.tgz:177268.got - 2010.06.03 11:33:40.
