data_PCOD9010788
_publ_section_title
;
Structure prediction by ZEFSAII (Michael W. Deem and Ramdas Pophale) SiO2 
 PCOD9010788
Probable space group: P -1
;
_chemical_formula_sum "Si O2"
_cell_formula_units_Z 12
_cell_length_a 10.178731
_cell_length_b 11.422022
_cell_length_c 6.777390
_cell_angle_alpha 63.521702
_cell_angle_beta 43.003605
_cell_angle_gamma 62.055728
_cell_volume 467.746622
_symmetry_space_group_name_H-M "P -1"
_symmetry_group_IT_number 2
_symmetry_cell_setting 'triclinic'
loop_
_space_group_symop_operation_xyz
x,y,z
-x,-y,-z
loop_
_atom_site_type_symbol
_atom_site_label
_atom_site_fract_x
_atom_site_fract_y
_atom_site_fract_z
Si Si1 0.023138 0.815580 0.557623
Si Si2 0.666653 0.944619 0.563010
Si Si3 0.238957 0.017656 0.994553
Si Si4 0.642159 0.475458 0.175716
Si Si5 0.055725 0.508621 0.663594
Si Si6 0.445627 0.325344 0.248260
O O1 0.834552 0.889543 0.577114
O O2 0.072354 0.659007 0.577914
O O3 0.938567 0.859111 0.834821
O O4 0.195768 0.887938 0.251340
O O5 0.759186 0.999235 0.229945
O O6 0.590886 0.816796 0.660669
O O7 0.458013 0.039054 0.790728
O O8 0.500000 0.500000 0.500000
O O9 0.631350 0.341919 0.163130
O O10 0.862288 0.478382 0.999594
O O11 0.567774 0.591276 0.004570
O O12 0.000000 0.500000 0.500000
O O13 0.260939 0.400339 0.530760
#
# Coordination Sequence:
#
# PCOD9010788 Si02
#       6
#     2   2   2   2   2   2
#     4  11  22  44  64  88 129 156 212 252 306 363
#     4  11  22  43  66  87 128 159 211 252 305 362
#     4  10  26  40  64  94 116 172 208 252 297 363
#     4  10  22  39  58  94 123 159 204 240 312 369
#     4  10  21  40  64  92 125 161 194 257 315 361
#     4  10  23  39  64  92 126 161 194 258 316 358
#
# _framework density 25.654914000000002
#
# number of rings (size 3 to 8) (size 9 to 14) (size 15 to 20)
#    0.000    1.667    3.333    1.000    9.333    0.667 
#    0.000    0.000    0.000    0.000    0.000    0.000 
#    0.000    0.000    0.000    0.000    0.000    0.000 
#
# Total GULP energy -67206.666674 kJ/mol
# GULP energy per Si atom -5600.555556 kJ/mol
# Density = 2.559652 g / cm^3
# Si number density = 25.654914 Si / 1000 Ang^3
#
#
#
# Elastic Constant Matrix: (Units=GPa)
#
#
# Indices 1 2 3 4 5 6 
#
# 1 76.2850 -2.0398 22.0689 -5.9556 -6.5343 1.9483
# 2 -2.0398 97.5910 29.6329 1.1531 1.3850 21.9859
# 3 22.0689 29.6329 191.1262 20.7028 -1.4599 1.7218
# 4 -5.9556 1.1531 20.7028 29.0047 1.6278 -7.2845
# 5 -6.5343 1.3850 -1.4599 1.6278 42.4763 0.0627
# 6 1.9483 21.9859 1.7218 -7.2845 0.0627 31.0994
#
#
#
# Elastic Compliance Matrix: (Units=1/GPa)
#
#
# Indices 1 2 3 4 5 6 
#
# 1 0.014298 0.001016 -0.002252 0.004271 0.001926 -0.000493
# 2 0.001016 0.012996 -0.001908 -0.001305 -0.000269 -0.009450
# 3 -0.002252 -0.001908 0.006321 -0.004907 0.000121 -0.000010
# 4 0.004271 -0.001305 -0.004907 0.041653 -0.001081 0.010685
# 5 0.001926 -0.000269 0.000121 -0.001081 0.023894 -0.000238
# 6 -0.000493 -0.009450 -0.000010 0.010685 -0.000238 0.041371
#
#
# Mechanical properties :
#
#
# Convention : Reuss Voigt Hill
#
# Bulk Modulus (GPa) = 36.59419 51.59182 44.09301
# Shear Modulus (GPa) = 32.06601 41.53878 36.80240
#
# Velocity S-wave (km/s) = 3.53922 4.02821 3.79161
# Velocity P-wave (km/s) = 5.56745 6.46443 6.03263
#
# Compressibility (1/GPa) = 0.02732674
#
# Stress axis : x y z
#
# Youngs Moduli (GPa) = 69.93783 76.94879 158.21442
#
# Poissons Ratio (x) = -0.07817 0.35630
# Poissons Ratio (y) = -0.07105 0.30184
# Poissons Ratio (z) = 0.15750 0.14680
#
# Static dielectric constant tensor:
#      x y z
#    x 2.045000 0.007130 0.012720 
#    y 0.007130 2.028400 0.021880 
#    z 0.012720 0.021880 2.102870 
# 
# From -- ./inp_files/246159.got.cif
#   From: 2010.05.17/outbox.cif.g08.bks.cpg/sg2_124_cif.got.tgz:246159.got - 2010.06.03 11:33:40.
