data_PCOD9010994
_publ_section_title
;
Structure prediction by ZEFSAII (Michael W. Deem and Ramdas Pophale) SiO2 
 PCOD9010994
Probable space group: P -1
;
_chemical_formula_sum "Si O2"
_cell_formula_units_Z 14
_cell_length_a 20.493966
_cell_length_b 8.898324
_cell_length_c 5.543897
_cell_angle_alpha 113.520362
_cell_angle_beta 108.782913
_cell_angle_gamma 41.543784
_cell_volume 614.328259
_symmetry_space_group_name_H-M "P -1"
_symmetry_group_IT_number 2
_symmetry_cell_setting 'triclinic'
loop_
_space_group_symop_operation_xyz
x,y,z
-x,-y,-z
loop_
_atom_site_type_symbol
_atom_site_label
_atom_site_fract_x
_atom_site_fract_y
_atom_site_fract_z
Si Si1 0.182593 0.973600 0.718261
Si Si2 0.674454 0.849791 0.488840
Si Si3 0.781085 0.728418 0.027316
Si Si4 0.439713 0.612030 0.250455
Si Si5 0.134835 0.855186 0.207692
Si Si6 0.688699 0.481757 0.101087
Si Si7 0.983167 0.227017 0.863638
O O1 0.184765 0.934809 0.414202
O O2 0.245419 0.720620 0.746985
O O3 0.065244 0.164017 0.749955
O O4 0.228718 0.062412 0.909787
O O5 0.731758 0.728391 0.733649
O O6 0.633341 0.736896 0.298687
O O7 0.608984 0.123444 0.626288
O O8 0.737759 0.782916 0.279786
O O9 0.897572 0.493794 0.013024
O O10 0.500000 0.500000 0.500000
O O11 0.500000 0.500000 0.000000
O O12 0.374960 0.554464 0.117176
O O13 0.080766 0.826535 0.313646
O O14 0.224280 0.607087 0.033188
O O15 0.051927 0.053385 0.053368
#
# Coordination Sequence:
#
# PCOD9010994 Si02
#       7
#     2   2   2   2   2   2   2
#     4  11  23  39  68  99 153 200 245 297 349 406
#     4  12  27  49  77 109 143 189 241 295 364 439
#     4  12  25  43  70 107 151 193 250 294 344 422
#     4  12  29  52  81 111 143 175 235 306 372 450
#     4  10  21  40  64  99 146 196 250 290 345 416
#     4  11  25  46  76 106 145 196 233 295 369 426
#     4  10  22  37  60 106 142 202 250 292 337 408
#
# _framework density 22.789118999999999
#
# number of rings (size 3 to 8) (size 9 to 14) (size 15 to 20)
#    0.000    0.857    2.857    3.429    6.000    1.714 
#    0.000    0.000    0.000    0.000    0.000    0.000 
#    0.000    0.000    0.000    0.000    0.000    0.000 
#
# Total GULP energy -77997.354918 kJ/mol
# GULP energy per Si atom -5571.239637 kJ/mol
# Density = 2.273725 g / cm^3
# Si number density = 22.789119 Si / 1000 Ang^3
#
#
#
# Elastic Constant Matrix: (Units=GPa)
#
#
# Indices 1 2 3 4 5 6 
#
# 1 58.4731 47.2250 45.0787 -2.3942 17.8177 18.2478
# 2 47.2250 98.0008 77.4868 36.6019 -0.1571 -23.0554
# 3 45.0787 77.4868 142.0821 5.1664 13.2052 -1.4163
# 4 -2.3942 36.6019 5.1664 39.9686 5.1894 23.1352
# 5 17.8177 -0.1571 13.2052 5.1894 51.0378 -2.3301
# 6 18.2478 -23.0554 -1.4163 23.1352 -2.3301 5.0675
#
#
#
# Elastic Compliance Matrix: (Units=1/GPa)
#
#
# Indices 1 2 3 4 5 6 
#
# 1 0.014433 0.004904 -0.006609 -0.009836 -0.001739 0.012594
# 2 0.004904 0.005977 -0.005014 0.005221 -0.001679 -0.016472
# 3 -0.006609 -0.005014 0.011979 -0.000217 -0.000554 0.005072
# 4 -0.009836 0.005221 -0.000217 0.009642 0.003283 0.016601
# 5 -0.001739 -0.001679 -0.000554 0.003283 0.019663 -0.007483
# 6 0.012594 -0.016472 0.005072 0.016601 -0.007483 -0.000770
#
#
# Mechanical properties :
#
#
# Convention : Reuss Voigt Hill
#
# Bulk Modulus (GPa) = 52.76388 70.90412 61.83400
# Shear Modulus (GPa) = 61.97365 27.79913 44.88639
#
# Velocity S-wave (km/s) = 5.22048 3.49641 4.44288
# Velocity P-wave (km/s) = 7.71630 6.89061 7.31512
#
# Compressibility (1/GPa) = 0.01895236
#
# Stress axis : x y z
#
# Youngs Moduli (GPa) = 69.28372 167.30189 83.47847
#
# Poissons Ratio (x) = -0.82039 0.55170
# Poissons Ratio (y) = -0.33974 0.41852
# Poissons Ratio (z) = 0.45788 0.83877
#
# Static dielectric constant tensor:
#      x y z
#    x 1.945670 0.021840 -0.006860 
#    y 0.021840 1.827060 0.050950 
#    z -0.006860 0.050950 1.879770 
# 
# From -- ./inp_files/76830.got.cif
#   From: 2010.05.17/outbox.cif.g08.bks.cpg/sg2_39_cif.got.tgz:76830.got - 2010.06.03 11:33:40.
