data_PCOD9010946
_publ_section_title
;
Structure prediction by ZEFSAII (Michael W. Deem and Ramdas Pophale) SiO2 
 PCOD9010946
Probable space group: P -1
;
_chemical_formula_sum "Si O2"
_cell_formula_units_Z 16
_cell_length_a 8.449917
_cell_length_b 17.694513
_cell_length_c 8.388105
_cell_angle_alpha 47.031810
_cell_angle_beta 130.450137
_cell_angle_gamma 135.639073
_cell_volume 608.842789
_symmetry_space_group_name_H-M "P -1"
_symmetry_group_IT_number 2
_symmetry_cell_setting 'triclinic'
loop_
_space_group_symop_operation_xyz
x,y,z
-x,-y,-z
loop_
_atom_site_type_symbol
_atom_site_label
_atom_site_fract_x
_atom_site_fract_y
_atom_site_fract_z
Si Si1 0.375204 0.716942 0.675242
Si Si2 0.100543 0.454732 0.995398
Si Si3 0.334432 0.982330 0.764207
Si Si4 0.100603 0.633674 0.310909
Si Si5 0.776527 0.097854 0.662822
Si Si6 0.832477 0.759598 0.066357
Si Si7 0.892344 0.865391 0.465256
Si Si8 0.655448 0.635096 0.472150
O O1 0.285018 0.578895 0.853900
O O2 0.307866 0.714667 0.450010
O O3 0.236685 0.781843 0.566828
O O4 0.642858 0.781346 0.818371
O O5 0.877884 0.377008 0.846326
O O6 0.217019 0.390351 0.257300
O O7 0.000000 0.500000 0.000000
O O8 0.510737 0.012882 0.680239
O O9 0.225416 0.067002 0.619126
O O10 0.086310 0.864521 0.720849
O O11 0.500000 0.000000 0.000000
O O12 0.000000 0.500000 0.500000
O O13 0.900712 0.672961 0.140804
O O14 0.932822 0.125068 0.887425
O O15 0.925693 0.076822 0.652121
O O16 0.737435 0.694292 0.266795
O O17 0.670589 0.749695 0.407707
O O18 0.500000 0.500000 0.500000
#
# Coordination Sequence:
#
# PCOD9010946 Si02
#       8
#     2   2   2   2   2   2   2   2
#     4  10  21  40  64  96 142 191 241 294 364 448
#     4  11  21  38  59  91 139 190 244 297 350 432
#     4  11  26  49  78 111 142 189 258 318 381 441
#     4   9  20  36  53  82 125 183 245 291 343 422
#     4  10  23  45  73 107 148 187 245 312 379 452
#     4  10  21  41  62  98 141 195 245 290 368 447
#     4  10  25  48  75 109 149 193 245 311 380 450
#     4  11  22  43  68 105 149 192 243 296 369 444
#
# _framework density 26.279363
#
# number of rings (size 3 to 8) (size 9 to 14) (size 15 to 20)
#    0.000    1.750    1.250    3.375    0.000    9.500 
#   15.750    0.000    0.000    0.000    0.000    0.000 
#    0.000    0.000    0.000    0.000    0.000    0.000 
#
# Total GULP energy -89071.261060 kJ/mol
# GULP energy per Si atom -5566.953816 kJ/mol
# Density = 2.621955 g / cm^3
# Si number density = 26.279363 Si / 1000 Ang^3
#
#
#
# Elastic Constant Matrix: (Units=GPa)
#
#
# Indices 1 2 3 4 5 6 
#
# 1 110.7458 22.9070 37.0378 -10.7811 -2.9843 -10.3496
# 2 22.9070 108.6253 31.7738 24.1332 6.7926 3.2761
# 3 37.0378 31.7738 157.4235 28.3789 8.4415 9.9157
# 4 -10.7811 24.1332 28.3789 50.6122 5.6257 6.5477
# 5 -2.9843 6.7926 8.4415 5.6257 39.0343 10.8860
# 6 -10.3496 3.2761 9.9157 6.5477 10.8860 27.7953
#
#
#
# Elastic Compliance Matrix: (Units=1/GPa)
#
#
# Indices 1 2 3 4 5 6 
#
# 1 0.011669 -0.002740 -0.003407 0.005093 0.000074 0.004655
# 2 -0.002740 0.011241 -0.000554 -0.005452 -0.001144 -0.000415
# 3 -0.003407 -0.000554 0.008320 -0.004701 -0.000484 -0.002875
# 4 0.005093 -0.005452 -0.004701 0.026398 -0.001001 -0.001611
# 5 0.000074 -0.001144 -0.000484 -0.001001 0.029090 -0.010822
# 6 0.004655 -0.000415 -0.002875 -0.001611 -0.010822 0.043403
#
#
# Mechanical properties :
#
#
# Convention : Reuss Voigt Hill
#
# Bulk Modulus (GPa) = 56.09394 62.24797 59.17096
# Shear Modulus (GPa) = 33.45197 42.49342 37.97270
#
# Velocity S-wave (km/s) = 3.57169 4.02554 3.80539
# Velocity P-wave (km/s) = 6.19685 6.73388 6.47094
#
# Compressibility (1/GPa) = 0.01782724
#
# Stress axis : x y z
#
# Youngs Moduli (GPa) = 85.69782 88.95786 120.18796
#
# Poissons Ratio (x) = 0.24378 0.40954
# Poissons Ratio (y) = 0.23485 0.06655
# Poissons Ratio (z) = 0.29201 0.04926
#
# Static dielectric constant tensor:
#      x y z
#    x 2.127530 0.036310 0.001540 
#    y 0.036310 2.026310 0.038220 
#    z 0.001540 0.038220 2.011010 
# 
# From -- ./inp_files/214839.got.cif
#   From: 2010.05.17/outbox.cif.g08.bks.cpg/sg2_108_cif.got.tgz:214839.got - 2010.06.03 11:33:40.
