data_PCOD9010662
_publ_section_title
;
Structure prediction by ZEFSAII (Michael W. Deem and Ramdas Pophale) SiO2 
 PCOD9010662
Probable space group: P -1
;
_chemical_formula_sum "Si O2"
_cell_formula_units_Z 12
_cell_length_a 8.603021
_cell_length_b 12.432321
_cell_length_c 15.124527
_cell_angle_alpha 49.782908
_cell_angle_beta 144.866451
_cell_angle_gamma 145.648002
_cell_volume 523.132137
_symmetry_space_group_name_H-M "P -1"
_symmetry_group_IT_number 2
_symmetry_cell_setting 'triclinic'
loop_
_space_group_symop_operation_xyz
x,y,z
-x,-y,-z
loop_
_atom_site_type_symbol
_atom_site_label
_atom_site_fract_x
_atom_site_fract_y
_atom_site_fract_z
Si Si1 0.905236 0.819896 0.189478
Si Si2 0.651600 0.545061 0.767793
Si Si3 0.215749 0.636811 0.845296
Si Si4 0.875739 0.123242 0.053650
Si Si5 0.751978 0.707458 0.553325
Si Si6 0.258921 0.763681 0.247651
O O1 0.700178 0.665950 0.254697
O O2 0.196939 0.822188 0.278715
O O3 0.017084 0.013779 0.170229
O O4 0.606768 0.743507 0.012218
O O5 0.615347 0.655660 0.619156
O O6 0.933957 0.542325 0.848252
O O7 0.831462 0.675811 0.868182
O O8 0.148484 0.771398 0.704688
O O9 0.064384 0.467399 0.796977
O O10 0.780726 0.147995 0.900260
O O11 0.500000 0.000000 0.000000
O O12 0.500000 0.500000 0.500000
O O13 0.640405 0.812260 0.400022
#
# Coordination Sequence:
#
# PCOD9010662 Si02
#       6
#     2   2   2   2   2   2
#     4  12  22  37  64  93 120 154 199 253 295 344
#     4  10  21  40  64  86 119 155 208 235 295 356
#     4   9  18  37  60  87 113 158 198 235 289 355
#     4  12  23  38  63  89 120 160 205 241 289 360
#     4   8  19  37  63  85 119 158 198 238 296 364
#     4  11  22  38  61  92 123 153 198 251 301 344
#
# _framework density 22.938755
#
# number of rings (size 3 to 8) (size 9 to 14) (size 15 to 20)
#    1.000    0.667    3.333    2.500    0.000    0.667 
#    0.000    4.167    0.000    0.000    0.000    0.000 
#    0.000    0.000    0.000    0.000    0.000    0.000 
#
# Total GULP energy -67021.939380 kJ/mol
# GULP energy per Si atom -5585.161615 kJ/mol
# Density = 2.288655 g / cm^3
# Si number density = 22.938755 Si / 1000 Ang^3
#
#
#
# Elastic Constant Matrix: (Units=GPa)
#
#
# Indices 1 2 3 4 5 6 
#
# 1 87.4259 26.1729 -2.5336 -19.1218 7.4342 -20.1725
# 2 26.1729 69.3201 4.3347 -13.9196 -3.1456 -19.5641
# 3 -2.5336 4.3347 25.4477 -6.9360 -12.0430 2.4636
# 4 -19.1218 -13.9196 -6.9360 34.1990 -2.8736 0.7863
# 5 7.4342 -3.1456 -12.0430 -2.8736 22.2399 -2.5546
# 6 -20.1725 -19.5641 2.4636 0.7863 -2.5546 31.2655
#
#
#
# Elastic Compliance Matrix: (Units=1/GPa)
#
#
# Indices 1 2 3 4 5 6 
#
# 1 0.016118 -0.002359 0.002215 0.008098 -0.002518 0.008340
# 2 -0.002359 0.020253 -0.000082 0.007136 0.005847 0.011456
# 3 0.002215 -0.000082 0.060014 0.016234 0.033729 -0.001004
# 4 0.008098 0.007136 0.016234 0.040892 0.013350 0.008473
# 5 -0.002518 0.005847 0.033729 0.013350 0.067142 0.004526
# 6 0.008340 0.011456 -0.001004 0.008473 0.004526 0.044769
#
#
# Mechanical properties :
#
#
# Convention : Reuss Voigt Hill
#
# Bulk Modulus (GPa) = 10.42386 26.46019 18.44203
# Shear Modulus (GPa) = 17.75452 27.82219 22.78835
#
# Velocity S-wave (km/s) = 2.78510 3.48644 3.15531
# Velocity P-wave (km/s) = 3.85959 5.26946 4.61864
#
# Compressibility (1/GPa) = 0.09593373
#
# Stress axis : x y z
#
# Youngs Moduli (GPa) = 62.04203 49.37563 16.66267
#
# Poissons Ratio (x) = 0.11646 -0.03690
# Poissons Ratio (y) = 0.14633 0.00136
# Poissons Ratio (z) = -0.13740 0.00404
#
# Static dielectric constant tensor:
#      x y z
#    x 1.838680 0.009030 0.010010 
#    y 0.009030 1.892400 -0.005670 
#    z 0.010010 -0.005670 1.952060 
# 
# From -- ./inp_files/260992.got.cif
#   From: 2010.05.17/outbox.cif.g08.bks.cpg/sg2_131_cif.got.tgz:260992.got - 2010.06.03 11:33:40.
