data_PCOD9010087
_publ_section_title
;
Structure prediction by ZEFSAII (Michael W. Deem and Ramdas Pophale) SiO2 
 PCOD9010087
Probable space group: P -1
;
_chemical_formula_sum "Si O2"
_cell_formula_units_Z 15
_cell_length_a 14.478575
_cell_length_b 12.593566
_cell_length_c 8.287042
_cell_angle_alpha 81.456476
_cell_angle_beta 60.546069
_cell_angle_gamma 130.208944
_cell_volume 716.823035
_symmetry_space_group_name_H-M "P -1"
_symmetry_group_IT_number 2
_symmetry_cell_setting 'triclinic'
loop_
_space_group_symop_operation_xyz
x,y,z
-x,-y,-z
loop_
_atom_site_type_symbol
_atom_site_label
_atom_site_fract_x
_atom_site_fract_y
_atom_site_fract_z
Si Si1 0.926343 0.041365 0.457257
Si Si2 0.338252 0.056424 0.815660
Si Si3 0.712867 0.602597 0.124960
Si Si4 0.420278 0.545022 0.361149
Si Si5 0.957681 0.711046 0.417707
Si Si6 0.417535 0.898591 0.918710
Si Si7 0.444592 0.203245 0.329056
Si Si8 0.000000 0.500000 0.500000
O O1 0.952055 0.164008 0.526178
O O2 0.071573 0.183537 0.152222
O O3 0.000000 0.000000 0.500000
O O4 0.708324 0.855801 0.625907
O O5 0.459713 0.243294 0.776449
O O6 0.359304 0.111675 0.601551
O O7 0.427012 0.012930 0.774383
O O8 0.118246 0.868907 0.107112
O O9 0.570586 0.577093 0.195724
O O10 0.674747 0.554929 0.358177
O O11 0.641913 0.435139 0.133424
O O12 0.244997 0.404688 0.420402
O O13 0.925702 0.558200 0.499191
O O14 0.524225 0.885447 0.759529
O O15 0.195232 0.683706 0.183777
O O16 0.500000 0.000000 0.000000
#
# Coordination Sequence:
#
# PCOD9010087 Si02
#       8
#     2   2   2   2   2   2   2   1
#     4  12  25  38  58  89 120 155 198 244 293 346
#     4  10  22  39  62  89 117 155 198 241 291 350
#     4  10  23  40  60  87 118 154 198 243 291 350
#     4  10  21  40  62  84 116 158 197 240 294 347
#     4  11  22  38  60  86 119 154 194 243 293 346
#     4  11  22  39  62  89 120 153 193 241 294 350
#     4  11  23  41  62  86 120 157 196 242 292 349
#     4  10  22  36  56  86 114 146 188 232 286 342
#
# _framework density 20.925664999999999
#
# number of rings (size 3 to 8) (size 9 to 14) (size 15 to 20)
#    0.000    1.333    0.000    6.000    0.000    4.267 
#    0.000    5.333    0.000   11.200    0.000    0.000 
#    0.000    0.000    0.000    0.000    0.000    0.000 
#
# Total GULP energy -83638.452018 kJ/mol
# GULP energy per Si atom -5575.896801 kJ/mol
# Density = 2.087804 g / cm^3
# Si number density = 20.925665 Si / 1000 Ang^3
#
#
#
# Elastic Constant Matrix: (Units=GPa)
#
#
# Indices 1 2 3 4 5 6 
#
# 1 63.3531 -7.6533 -3.7486 -5.7505 0.4626 -4.1667
# 2 -7.6533 45.7408 -3.3529 3.9761 -0.5137 -4.0695
# 3 -3.7486 -3.3529 36.7871 -7.9421 10.9436 -9.5082
# 4 -5.7505 3.9761 -7.9421 23.8429 -7.5954 1.8756
# 5 0.4626 -0.5137 10.9436 -7.5954 28.4234 -3.6277
# 6 -4.1667 -4.0695 -9.5082 1.8756 -3.6277 31.0373
#
#
#
# Elastic Compliance Matrix: (Units=1/GPa)
#
#
# Indices 1 2 3 4 5 6 
#
# 1 0.017047 0.003063 0.003965 0.004620 -0.000052 0.003619
# 2 0.003063 0.023245 0.003327 -0.002723 -0.001062 0.004519
# 3 0.003965 0.003327 0.035267 0.008130 -0.010121 0.010098
# 4 0.004620 -0.002723 0.008130 0.049346 0.010053 0.000947
# 5 -0.000052 -0.001062 -0.010121 0.010053 0.041880 0.001041
# 6 0.003619 0.004519 0.010098 0.000947 0.001041 0.036456
#
#
# Mechanical properties :
#
#
# Convention : Reuss Voigt Hill
#
# Bulk Modulus (GPa) = 10.38780 12.93015 11.65897
# Shear Modulus (GPa) = 23.29680 27.36978 25.33329
#
# Velocity S-wave (km/s) = 3.34025 3.62049 3.48319
# Velocity P-wave (km/s) = 4.45548 4.86515 4.66482
#
# Compressibility (1/GPa) = 0.09626681
#
# Stress axis : x y z
#
# Youngs Moduli (GPa) = 58.66175 43.01918 28.35527
#
# Poissons Ratio (x) = -0.13176 -0.11242
# Poissons Ratio (y) = -0.17966 -0.09432
# Poissons Ratio (z) = -0.23257 -0.14310
#
# Static dielectric constant tensor:
#      x y z
#    x 1.689710 0.037650 -0.002460 
#    y 0.037650 1.700520 0.017510 
#    z -0.002460 0.017510 1.729990 
# 
# From -- ./inp_files/269784.got.cif
#   From: 2010.05.17/outbox.cif.g08.bks.cpg/sg2_135_cif.got.tgz:269784.got - 2010.06.03 11:33:40.
