data_PCOD9010701
_publ_section_title
;
Structure prediction by ZEFSAII (Michael W. Deem and Ramdas Pophale) SiO2 
 PCOD9010701
Probable space group: P -1
;
_chemical_formula_sum "Si O2"
_cell_formula_units_Z 16
_cell_length_a 10.995859
_cell_length_b 6.387012
_cell_length_c 14.400234
_cell_angle_alpha 129.005745
_cell_angle_beta 67.393849
_cell_angle_gamma 98.733281
_cell_volume 719.767315
_symmetry_space_group_name_H-M "P -1"
_symmetry_group_IT_number 2
_symmetry_cell_setting 'triclinic'
loop_
_space_group_symop_operation_xyz
x,y,z
-x,-y,-z
loop_
_atom_site_type_symbol
_atom_site_label
_atom_site_fract_x
_atom_site_fract_y
_atom_site_fract_z
Si Si1 0.630135 0.613438 0.534129
Si Si2 0.202771 0.563524 0.393596
Si Si3 0.875367 0.310033 0.272602
Si Si4 0.146723 0.528343 0.198599
Si Si5 0.267783 0.993826 0.922332
Si Si6 0.986823 0.899525 0.647738
Si Si7 0.408219 0.766307 0.988043
Si Si8 0.531471 0.155728 0.802042
O O1 0.500000 0.500000 0.500000
O O2 0.674716 0.475356 0.582376
O O3 0.753905 0.521743 0.404627
O O4 0.606076 0.937497 0.648984
O O5 0.233947 0.530699 0.267184
O O6 0.097266 0.831417 0.516003
O O7 0.112798 0.328575 0.383133
O O8 0.923953 0.117461 0.290827
O O9 0.005132 0.442974 0.246440
O O10 0.827563 0.147538 0.155272
O O11 0.213933 0.303613 0.047067
O O12 0.105980 0.823546 0.254721
O O13 0.406482 0.006346 0.831980
O O14 0.288429 0.837512 0.971108
O O15 0.388403 0.800486 0.114134
O O16 0.474877 0.456372 0.867496
O O17 0.500000 0.000000 0.000000
#
# Coordination Sequence:
#
# PCOD9010701 Si02
#       8
#     2   2   2   2   2   2   2   2
#     4  11  21  41  67  87 127 166 200 255 310 365
#     4   9  20  38  62  88 121 155 204 259 303 357
#     4  10  23  41  59  91 127 161 199 253 310 364
#     4  11  22  38  65  90 118 163 207 253 307 362
#     4  11  22  38  59  89 128 157 202 255 306 368
#     4   9  20  39  62  88 119 158 203 254 308 361
#     4   9  21  40  63  91 124 162 210 259 296 363
#     4  10  21  40  64  89 120 168 210 246 311 361
#
# _framework density 22.229403999999999
#
# number of rings (size 3 to 8) (size 9 to 14) (size 15 to 20)
#    0.000    2.000    1.250    2.250    0.000    6.500 
#    0.000    5.625    0.000    0.000    0.000    0.000 
#    0.000    0.000    0.000    0.000    0.000    0.000 
#
# Total GULP energy -89476.864941 kJ/mol
# GULP energy per Si atom -5592.304059 kJ/mol
# Density = 2.217881 g / cm^3
# Si number density = 22.229404 Si / 1000 Ang^3
#
#
#
# Elastic Constant Matrix: (Units=GPa)
#
#
# Indices 1 2 3 4 5 6 
#
# 1 118.3964 15.0320 38.8309 -6.2889 20.9536 -22.2041
# 2 15.0320 40.4680 32.6076 20.5061 8.7169 -9.4067
# 3 38.8309 32.6076 138.0396 18.1487 9.6376 -22.6252
# 4 -6.2889 20.5061 18.1487 26.2613 -2.0515 0.2474
# 5 20.9536 8.7169 9.6376 -2.0515 33.9921 -11.2774
# 6 -22.2041 -9.4067 -22.6252 0.2474 -11.2774 18.3634
#
#
#
# Elastic Compliance Matrix: (Units=1/GPa)
#
#
# Indices 1 2 3 4 5 6 
#
# 1 0.011958 -0.003971 -0.001741 0.006884 -0.002592 0.008595
# 2 -0.003971 0.056260 -0.003391 -0.043353 -0.008613 0.015134
# 3 -0.001741 -0.003391 0.010863 -0.005209 0.002182 0.010951
# 4 0.006884 -0.043353 -0.005209 0.077923 0.007498 -0.016747
# 5 -0.002592 -0.008613 0.002182 0.007498 0.039452 0.019269
# 6 0.008595 0.015134 0.010951 -0.016747 0.019269 0.098153
#
#
# Mechanical properties :
#
#
# Convention : Reuss Voigt Hill
#
# Bulk Modulus (GPa) = 16.42731 52.20500 34.31615
# Shear Modulus (GPa) = 15.01027 29.75226 22.38127
#
# Velocity S-wave (km/s) = 2.60136 3.66241 3.17650
# Velocity P-wave (km/s) = 4.05324 6.43584 5.37814
#
# Compressibility (1/GPa) = 0.06087423
#
# Stress axis : x y z
#
# Youngs Moduli (GPa) = 83.62845 17.77472 92.05967
#
# Poissons Ratio (x) = 0.07058 0.16029
# Poissons Ratio (y) = 0.33208 0.31215
# Poissons Ratio (z) = 0.14561 0.06027
#
# Static dielectric constant tensor:
#      x y z
#    x 1.813260 0.009420 -0.018580 
#    y 0.009420 1.836950 -0.029450 
#    z -0.018580 -0.029450 1.821820 
# 
# From -- ./inp_files/511310.got.cif
#   From: 2010.05.17/outbox.cif.g08.bks.cpg/sg2_256_cif.got.tgz:511310.got - 2010.06.03 11:33:40.
