data_PCOD9010386
_publ_section_title
;
Structure prediction by ZEFSAII (Michael W. Deem and Ramdas Pophale) SiO2 
 PCOD9010386
Probable space group: P -1
;
_chemical_formula_sum "Si O2"
_cell_formula_units_Z 16
_cell_length_a 8.507874
_cell_length_b 12.987792
_cell_length_c 7.543473
_cell_angle_alpha 86.102310
_cell_angle_beta 127.012043
_cell_angle_gamma 89.568193
_cell_volume 662.822146
_symmetry_space_group_name_H-M "P -1"
_symmetry_group_IT_number 2
_symmetry_cell_setting 'triclinic'
loop_
_space_group_symop_operation_xyz
x,y,z
-x,-y,-z
loop_
_atom_site_type_symbol
_atom_site_label
_atom_site_fract_x
_atom_site_fract_y
_atom_site_fract_z
Si Si1 0.727673 0.963015 0.944373
Si Si2 0.649798 0.566435 0.486241
Si Si3 0.801734 0.699854 0.886222
Si Si4 0.596830 0.386778 0.014262
Si Si5 0.580913 0.179972 0.259203
Si Si6 0.956900 0.510215 0.181281
Si Si7 0.015848 0.117955 0.560306
Si Si8 0.997786 0.864469 0.843903
O O1 0.833522 0.887217 0.174484
O O2 0.799066 0.077047 0.025601
O O3 0.500979 0.935080 0.814268
O O4 0.833203 0.940118 0.826204
O O5 0.500000 0.500000 0.500000
O O6 0.747535 0.640130 0.680709
O O7 0.523867 0.624905 0.245941
O O8 0.841801 0.493394 0.569603
O O9 0.606739 0.775125 0.763015
O O10 0.992982 0.762584 0.971390
O O11 0.837841 0.622281 0.084906
O O12 0.500000 0.500000 0.000000
O O13 0.593440 0.277216 0.122471
O O14 0.820320 0.418385 0.143477
O O15 0.802780 0.161285 0.478710
O O16 0.000000 0.500000 0.000000
O O17 0.059726 0.165574 0.392039
O O18 0.000000 0.000000 0.500000
#
# Coordination Sequence:
#
# PCOD9010386 Si02
#       8
#     2   2   2   2   2   2   2   2
#     4   9  21  45  64  93 130 170 217 278 334 389
#     4  11  22  40  67  91 129 177 221 262 332 391
#     4  10  21  43  62  95 132 171 219 273 324 395
#     4  12  24  43  61 100 135 172 219 271 325 396
#     4  11  24  42  65  95 134 168 222 276 328 397
#     4  10  21  40  63  88 134 168 212 274 311 387
#     4  10  23  43  67  95 130 170 222 280 332 393
#     4   9  20  40  68  91 127 166 221 269 328 395
#
# _framework density 24.139206999999999
#
# number of rings (size 3 to 8) (size 9 to 14) (size 15 to 20)
#    0.000    1.750    3.750    0.000    5.250    2.500 
#   11.250   15.625    0.000    0.000    0.000    0.000 
#    0.000    0.000    0.000    0.000    0.000    0.000 
#
# Total GULP energy -89123.667766 kJ/mol
# GULP energy per Si atom -5570.229235 kJ/mol
# Density = 2.408426 g / cm^3
# Si number density = 24.139207 Si / 1000 Ang^3
#
#
#
# Elastic Constant Matrix: (Units=GPa)
#
#
# Indices 1 2 3 4 5 6 
#
# 1 77.6621 22.8998 20.0462 6.9223 7.7440 22.3846
# 2 22.8998 95.0748 4.4436 -5.7101 -0.9081 41.7822
# 3 20.0462 4.4436 76.2039 5.0554 14.0160 9.4027
# 4 6.9223 -5.7101 5.0554 24.7127 -2.1030 2.9364
# 5 7.7440 -0.9081 14.0160 -2.1030 30.6102 -3.3915
# 6 22.3846 41.7822 9.4027 2.9364 -3.3915 56.1848
#
#
#
# Elastic Compliance Matrix: (Units=1/GPa)
#
#
# Indices 1 2 3 4 5 6 
#
# 1 0.016216 -0.002123 -0.002619 -0.004288 -0.003754 -0.004446
# 2 -0.002123 0.016566 0.000729 0.005668 -0.000235 -0.011906
# 3 -0.002619 0.000729 0.015491 -0.002568 -0.006848 -0.002370
# 4 -0.004288 0.005668 -0.002568 0.044416 0.005027 -0.004095
# 5 -0.003754 -0.000235 -0.006848 0.005027 0.037627 0.004825
# 6 -0.004446 -0.011906 -0.002370 -0.004095 0.004825 0.029326
#
#
# Mechanical properties :
#
#
# Convention : Reuss Voigt Hill
#
# Bulk Modulus (GPa) = 24.84604 38.19111 31.51857
# Shear Modulus (GPa) = 27.61163 35.73829 31.67496
#
# Velocity S-wave (km/s) = 3.38575 3.85191 3.62633
# Velocity P-wave (km/s) = 5.05960 5.96980 5.53345
#
# Compressibility (1/GPa) = 0.04024787
#
# Stress axis : x y z
#
# Youngs Moduli (GPa) = 61.66666 60.36591 64.55160
#
# Poissons Ratio (x) = 0.12815 0.16903
# Poissons Ratio (y) = 0.13091 -0.04704
# Poissons Ratio (z) = 0.16148 -0.04399
#
# Static dielectric constant tensor:
#      x y z
#    x 2.093440 -0.140870 -0.013010 
#    y -0.140870 2.178900 -0.041190 
#    z -0.013010 -0.041190 1.970050 
# 
# From -- ./inp_files/206575.got.cif
#   From: 2010.05.17/outbox.cif.g08.bks.cpg/sg2_104_cif.got.tgz:206575.got - 2010.06.03 11:33:40.
