data_PCOD9010898
_publ_section_title
;
Structure prediction by ZEFSAII (Michael W. Deem and Ramdas Pophale) SiO2 
 PCOD9010898
Probable space group: P -1
;
_chemical_formula_sum "Si O2"
_cell_formula_units_Z 16
_cell_length_a 5.034857
_cell_length_b 23.422698
_cell_length_c 5.062068
_cell_angle_alpha 77.172165
_cell_angle_beta 87.383436
_cell_angle_gamma 77.671493
_cell_volume 568.646145
_symmetry_space_group_name_H-M "P -1"
_symmetry_group_IT_number 2
_symmetry_cell_setting 'triclinic'
loop_
_space_group_symop_operation_xyz
x,y,z
-x,-y,-z
loop_
_atom_site_type_symbol
_atom_site_label
_atom_site_fract_x
_atom_site_fract_y
_atom_site_fract_z
Si Si1 0.972965 0.933638 0.987972
Si Si2 0.660564 0.934139 0.498856
Si Si3 0.694878 0.494677 0.246285
Si Si4 0.579594 0.285351 0.352617
Si Si5 0.687273 0.624623 0.129456
Si Si6 0.872981 0.364060 0.519738
Si Si7 0.102719 0.805917 0.238452
Si Si8 0.290542 0.190998 0.240118
O O1 0.713388 0.928754 0.190194
O O2 0.168526 0.871757 0.134669
O O3 0.923621 0.930573 0.681451
O O4 0.000000 0.000000 0.000000
O O5 0.551238 0.877944 0.670789
O O6 0.500000 0.000000 0.500000
O O7 0.500000 0.500000 0.500000
O O8 0.820598 0.553676 0.179610
O O9 0.875442 0.428787 0.331516
O O10 0.500000 0.500000 0.000000
O O11 0.837662 0.317260 0.342408
O O12 0.634386 0.245787 0.659900
O O13 0.497240 0.234772 0.222622
O O14 0.373475 0.343776 0.182926
O O15 0.400630 0.629869 0.292954
O O16 0.877655 0.654613 0.275836
O O17 0.917218 0.804811 0.507582
O O18 0.908692 0.797289 0.013660
#
# Coordination Sequence:
#
# PCOD9010898 Si02
#       8
#     2   2   2   2   2   2   2   2
#     4  10  21  40  64  95 128 171 224 290 354 426
#     4  10  21  40  64  95 128 171 224 290 354 426
#     4  10  21  48  72 109 147 191 240 304 364 427
#     4  12  26  41  72  96 144 184 244 292 360 434
#     4  11  26  46  73 108 146 193 244 301 363 432
#     4  11  26  46  73 108 146 193 244 301 363 432
#     4  10  25  45  65  96 139 181 233 293 361 427
#     4  10  25  45  65  96 139 181 233 293 361 427
#
# _framework density 28.137008999999999
#
# number of rings (size 3 to 8) (size 9 to 14) (size 15 to 20)
#    0.000    1.500    1.250    1.875    8.750    0.000 
#    0.000    2.500    0.000    0.000    0.000    0.000 
#    0.000    0.000    0.000    0.000    0.000    0.000 
#
# Total GULP energy -89508.460140 kJ/mol
# GULP energy per Si atom -5594.278759 kJ/mol
# Density = 2.807297 g / cm^3
# Si number density = 28.137009 Si / 1000 Ang^3
#
#
#
# Elastic Constant Matrix: (Units=GPa)
#
#
# Indices 1 2 3 4 5 6 
#
# 1 120.2969 35.9073 65.1082 0.4122 7.1823 8.8133
# 2 35.9073 233.0916 67.5291 -53.7404 25.1121 22.8344
# 3 65.1082 67.5291 229.7961 2.1807 25.1141 8.9665
# 4 0.4122 -53.7404 2.1807 68.3307 -9.8278 20.5339
# 5 7.1823 25.1121 25.1141 -9.8278 61.0369 10.6494
# 6 8.8133 22.8344 8.9665 20.5339 10.6494 39.4220
#
#
#
# Elastic Compliance Matrix: (Units=1/GPa)
#
#
# Indices 1 2 3 4 5 6 
#
# 1 0.010016 -0.000729 -0.002617 -0.000109 0.000403 -0.001274
# 2 -0.000729 0.007792 -0.001895 0.008903 0.000615 -0.008723
# 3 -0.002617 -0.001895 0.005819 -0.002668 -0.002142 0.002327
# 4 -0.000109 0.008903 -0.002668 0.028911 0.005793 -0.021150
# 5 0.000403 0.000615 -0.002142 0.005793 0.019328 -0.008197
# 6 -0.001274 -0.008723 0.002327 -0.021150 -0.008197 0.043406
#
#
# Mechanical properties :
#
#
# Convention : Reuss Voigt Hill
#
# Bulk Modulus (GPa) = 76.06635 102.25265 89.15950
# Shear Modulus (GPa) = 38.42172 61.40058 49.91115
#
# Velocity S-wave (km/s) = 3.69931 4.67647 4.21629
# Velocity P-wave (km/s) = 6.73346 8.09809 7.44710
#
# Compressibility (1/GPa) = 0.01314642
#
# Stress axis : x y z
#
# Youngs Moduli (GPa) = 99.83682 128.33196 171.86206
#
# Poissons Ratio (x) = 0.09349 0.44978
# Poissons Ratio (y) = 0.07273 0.32564
# Poissons Ratio (z) = 0.26128 0.24316
#
# Static dielectric constant tensor:
#      x y z
#    x 2.241310 -0.113280 -0.058450 
#    y -0.113280 2.267660 0.074630 
#    z -0.058450 0.074630 2.072150 
# 
# From -- ./inp_files/13009.got.cif
#   From: 2010.05.17/outbox.cif.g08.bks.cpg/sg2_7_cif.got.tgz:13009.got - 2010.06.03 11:33:40.
