data_PCOD9010778
_publ_section_title
;
Structure prediction by ZEFSAII (Michael W. Deem and Ramdas Pophale) SiO2 
 PCOD9010778
Probable space group: P -1
;
_chemical_formula_sum "Si O2"
_cell_formula_units_Z 15
_cell_length_a 8.821848
_cell_length_b 11.498489
_cell_length_c 8.024715
_cell_angle_alpha 100.103078
_cell_angle_beta 130.351601
_cell_angle_gamma 79.414413
_cell_volume 608.052892
_symmetry_space_group_name_H-M "P -1"
_symmetry_group_IT_number 2
_symmetry_cell_setting 'triclinic'
loop_
_space_group_symop_operation_xyz
x,y,z
-x,-y,-z
loop_
_atom_site_type_symbol
_atom_site_label
_atom_site_fract_x
_atom_site_fract_y
_atom_site_fract_z
Si Si1 0.531817 0.361946 0.779430
Si Si2 0.766892 0.533475 0.156459
Si Si3 0.500000 0.500000 0.500000
Si Si4 0.249631 0.100047 0.056993
Si Si5 0.168019 0.634317 0.519695
Si Si6 0.086448 0.127549 0.591866
Si Si7 0.146142 0.856797 0.077280
Si Si8 0.646487 0.026964 0.463932
O O1 0.386047 0.370006 0.835431
O O2 0.416201 0.394644 0.535738
O O3 0.693897 0.251998 0.869927
O O4 0.662825 0.477911 0.911077
O O5 0.794282 0.431470 0.292516
O O6 0.976000 0.581453 0.286277
O O7 0.348688 0.602778 0.515249
O O8 0.194498 0.145774 0.846911
O O9 0.087273 0.165949 0.086458
O O10 0.487818 0.097497 0.246999
O O11 0.191700 0.964189 0.013969
O O12 0.087505 0.769487 0.535917
O O13 0.256795 0.098037 0.567951
O O14 0.000000 0.000000 0.500000
O O15 0.194993 0.899328 0.311340
O O16 0.500000 0.000000 0.500000
#
# Coordination Sequence:
#
# PCOD9010778 Si02
#       8
#     2   2   1   2   2   2   2   2
#     4  10  21  41  65  91 124 168 215 275 329 379
#     4   9  22  43  64  92 120 173 224 259 326 392
#     4  10  22  42  62  96 128 158 222 270 330 366
#     4  10  22  40  59  97 127 174 216 257 330 390
#     4  10  23  43  66  94 129 168 218 273 319 397
#     4  12  24  41  65  97 136 171 216 276 332 387
#     4  10  21  40  64  91 134 170 214 269 320 399
#     4  10  23  41  61  94 131 172 220 257 326 401
#
# _framework density 24.668907000000001
#
# number of rings (size 3 to 8) (size 9 to 14) (size 15 to 20)
#    0.000    1.867    1.333    1.200    5.600    0.533 
#    7.200    0.000    0.000    0.000    0.000    0.000 
#    0.000    0.000    0.000    0.000    0.000    0.000 
#
# Total GULP energy -83566.379232 kJ/mol
# GULP energy per Si atom -5571.091949 kJ/mol
# Density = 2.461276 g / cm^3
# Si number density = 24.668907 Si / 1000 Ang^3
#
#
#
# Elastic Constant Matrix: (Units=GPa)
#
#
# Indices 1 2 3 4 5 6 
#
# 1 77.6800 48.9266 6.6197 -3.2921 1.5326 -32.6248
# 2 48.9266 152.6707 20.9039 -37.7833 2.9149 -53.9765
# 3 6.6197 20.9039 53.0726 -14.6951 22.1718 -7.4960
# 4 -3.2921 -37.7833 -14.6951 29.5992 0.5118 11.8800
# 5 1.5326 2.9149 22.1718 0.5118 29.5438 -2.7715
# 6 -32.6248 -53.9765 -7.4960 11.8800 -2.7715 45.1558
#
#
#
# Elastic Compliance Matrix: (Units=1/GPa)
#
#
# Indices 1 2 3 4 5 6 
#
# 1 0.020327 -0.004436 -0.003025 -0.009604 0.002907 0.011587
# 2 -0.004436 0.015865 0.000623 0.015364 -0.000966 0.011762
# 3 -0.003025 0.000623 0.035248 0.019361 -0.026911 -0.002335
# 4 -0.009604 0.015364 0.019361 0.063478 -0.016938 -0.003100
# 5 0.002907 -0.000966 -0.026911 -0.016938 0.054685 0.004291
# 6 0.011587 0.011762 -0.002335 -0.003100 0.004291 0.045267
#
#
# Mechanical properties :
#
#
# Convention : Reuss Voigt Hill
#
# Bulk Modulus (GPa) = 17.31202 48.48040 32.89621
# Shear Modulus (GPa) = 18.67060 34.65798 26.66429
#
# Velocity S-wave (km/s) = 2.75407 3.75230 3.29125
# Velocity P-wave (km/s) = 4.14080 6.20227 5.27325
#
# Compressibility (1/GPa) = 0.05776332
#
# Stress axis : x y z
#
# Youngs Moduli (GPa) = 49.19564 63.03005 28.37080
#
# Poissons Ratio (x) = 0.27960 0.08583
# Poissons Ratio (y) = 0.21823 -0.01768
# Poissons Ratio (z) = 0.14884 -0.03927
#
# Static dielectric constant tensor:
#      x y z
#    x 2.234110 -0.044580 0.079600 
#    y -0.044580 2.032130 -0.043780 
#    z 0.079600 -0.043780 2.311710 
# 
# From -- ./inp_files/188774.got.cif
#   From: 2010.05.17/outbox.cif.g08.bks.cpg/sg2_95_cif.got.tgz:188774.got - 2010.06.03 11:33:40.
