data_PCOD9010148
_publ_section_title
;
Structure prediction by ZEFSAII (Michael W. Deem and Ramdas Pophale) SiO2 
 PCOD9010148
Probable space group: P -1
;
_chemical_formula_sum "Si O2"
_cell_formula_units_Z 14
_cell_length_a 10.414638
_cell_length_b 9.725493
_cell_length_c 19.857397
_cell_angle_alpha 133.437065
_cell_angle_beta 146.495813
_cell_angle_gamma 70.645759
_cell_volume 642.795789
_symmetry_space_group_name_H-M "P -1"
_symmetry_group_IT_number 2
_symmetry_cell_setting 'triclinic'
loop_
_space_group_symop_operation_xyz
x,y,z
-x,-y,-z
loop_
_atom_site_type_symbol
_atom_site_label
_atom_site_fract_x
_atom_site_fract_y
_atom_site_fract_z
Si Si1 0.350021 0.631164 0.281880
Si Si2 0.927255 0.164738 0.849021
Si Si3 0.537066 0.796283 0.958545
Si Si4 0.791978 0.479147 0.149745
Si Si5 0.644756 0.822542 0.237162
Si Si6 0.417138 0.652099 0.478746
Si Si7 0.807256 0.725676 0.414948
O O1 0.225130 0.773244 0.251618
O O2 0.376536 0.617205 0.368351
O O3 0.669655 0.747233 0.428691
O O4 0.128728 0.380366 0.061761
O O5 0.669523 0.928617 0.694197
O O6 0.144584 0.123101 0.894439
O O7 0.452104 0.711444 0.969385
O O8 0.312583 0.546621 0.736573
O O9 0.500000 0.000000 0.000000
O O10 0.780153 0.699436 0.220346
O O11 0.104998 0.567347 0.339521
O O12 0.688285 0.341799 0.987385
O O13 0.669032 0.785944 0.314022
O O14 0.850382 0.089541 0.389775
O O15 0.500000 0.500000 0.500000
#
# Coordination Sequence:
#
# PCOD9010148 Si02
#       7
#     2   2   2   2   2   2   2
#     4  10  23  40  70 100 126 169 227 273 326 387
#     4  10  23  42  71  95 129 168 224 281 321 389
#     4  10  21  40  62  88 127 170 212 259 326 394
#     4  10  22  36  62  93 127 167 212 266 322 390
#     4   9  19  36  66  96 126 157 214 275 331 372
#     4  12  26  42  63  95 139 181 213 262 337 397
#     4   9  19  38  64  96 128 161 208 273 331 382
#
# _framework density 21.779855000000001
#
# number of rings (size 3 to 8) (size 9 to 14) (size 15 to 20)
#    0.000    2.000    0.000    2.143   12.000    0.571 
#    0.000    0.714    3.143    0.000    0.000    0.000 
#    0.000    0.000    0.000    0.000    0.000    0.000 
#
# Total GULP energy -78229.348356 kJ/mol
# GULP energy per Si atom -5587.810597 kJ/mol
# Density = 2.173028 g / cm^3
# Si number density = 21.779855 Si / 1000 Ang^3
#
#
#
# Elastic Constant Matrix: (Units=GPa)
#
#
# Indices 1 2 3 4 5 6 
#
# 1 -12.7910 -13.6034 -29.0642 -28.7409 -20.4022 -31.8072
# 2 -13.6034 114.4536 18.5724 3.4173 -2.3442 -29.7245
# 3 -29.0642 18.5724 65.7585 2.6307 4.9631 -16.6244
# 4 -28.7409 3.4173 2.6307 9.4055 -6.7228 -9.0972
# 5 -20.4022 -2.3442 4.9631 -6.7228 21.8023 -14.5375
# 6 -31.8072 -29.7245 -16.6244 -9.0972 -14.5375 17.7700
#
#
#
# Elastic Compliance Matrix: (Units=1/GPa)
#
#
# Indices 1 2 3 4 5 6 
#
# 1 0.003015 -0.003247 -0.000163 -0.011018 -0.010504 -0.014421
# 2 -0.003247 0.010489 -0.002684 -0.007290 0.000252 0.005698
# 3 -0.000163 -0.002684 0.016776 -0.009914 -0.007534 -0.000325
# 4 -0.011018 -0.007290 -0.009914 0.049795 -0.008693 -0.022811
# 5 -0.010504 0.000252 -0.007534 -0.008693 0.033390 -0.002562
# 6 -0.014421 0.005698 -0.000325 -0.022811 -0.002562 0.025915
#
#
# Mechanical properties :
#
#
# Convention : Reuss Voigt Hill
#
# Bulk Modulus (GPa) = 55.26951 13.24785 34.25868
# Shear Modulus (GPa) = 31.72586 22.56332 27.14459
#
# Velocity S-wave (km/s) = 3.82076 3.22214 3.53415
# Velocity P-wave (km/s) = 6.70044 4.46528 5.69362
#
# Compressibility (1/GPa) = 0.01809316
#
# Stress axis : x y z
#
# Youngs Moduli (GPa) = 331.69960 95.33359 59.60753
#
# Poissons Ratio (x) = 0.30951 0.00970
# Poissons Ratio (y) = 1.07690 0.16001
# Poissons Ratio (z) = 0.05396 0.25592
#
# Static dielectric constant tensor:
#      x y z
#    x 1.750820 -0.056250 -0.000120 
#    y -0.056250 1.705650 0.044600 
#    z -0.000120 0.044600 1.864940 
# 
# From -- ./inp_files/593782.got.cif
#   From: 2010.05.17/outbox.cif.g08.bks.cpg/sg2_297_cif.got.tgz:593782.got - 2010.06.03 11:33:40.
