data_PCOD9010767
_publ_section_title
;
Structure prediction by ZEFSAII (Michael W. Deem and Ramdas Pophale) SiO2 
 PCOD9010767
Probable space group: P -1
;
_chemical_formula_sum "Si O2"
_cell_formula_units_Z 14
_cell_length_a 7.457188
_cell_length_b 21.116859
_cell_length_c 4.944179
_cell_angle_alpha 60.742846
_cell_angle_beta 117.086792
_cell_angle_gamma 112.665058
_cell_volume 591.318061
_symmetry_space_group_name_H-M "P -1"
_symmetry_group_IT_number 2
_symmetry_cell_setting 'triclinic'
loop_
_space_group_symop_operation_xyz
x,y,z
-x,-y,-z
loop_
_atom_site_type_symbol
_atom_site_label
_atom_site_fract_x
_atom_site_fract_y
_atom_site_fract_z
Si Si1 0.921918 0.838925 0.489394
Si Si2 0.140849 0.569375 0.103928
Si Si3 0.202929 0.732499 0.706236
Si Si4 0.491129 0.733853 0.398932
Si Si5 0.266634 0.939082 0.814840
Si Si6 0.597367 0.428742 0.212698
Si Si7 0.702014 0.958977 0.875630
O O1 0.701830 0.787946 0.514340
O O2 0.056661 0.790196 0.523652
O O3 0.067882 0.876415 0.753473
O O4 0.861830 0.908274 0.150170
O O5 0.204753 0.557283 0.479496
O O6 0.077285 0.648716 0.863239
O O7 0.346242 0.582077 0.035850
O O8 0.000000 0.500000 0.000000
O O9 0.305507 0.735813 0.476031
O O10 0.395918 0.747475 0.015524
O O11 0.529869 0.650045 0.609021
O O12 0.473349 0.915201 0.898471
O O13 0.270628 0.010368 0.472591
O O14 0.276897 0.969997 0.058962
O O15 0.500000 0.500000 0.000000
#
# Coordination Sequence:
#
# PCOD9010767 Si02
#       7
#     2   2   2   2   2   2   2
#     4  12  24  42  72  94 130 176 218 258 330 390
#     4  10  21  40  64  91 126 167 216 272 325 383
#     4  10  25  44  61  96 135 168 215 272 325 381
#     4  10  25  44  61  96 135 168 215 272 325 381
#     4  10  23  42  65  95 128 165 213 266 318 380
#     4  10  21  40  64  91 126 167 216 272 325 383
#     4  10  23  42  65  95 128 165 213 266 318 380
#
# _framework density 23.675920000000001
#
# number of rings (size 3 to 8) (size 9 to 14) (size 15 to 20)
#    0.000    1.714    0.000    2.571    2.000    9.143 
#    0.000    0.000    0.000    0.000    0.000    0.000 
#    0.000    0.000    0.000    0.000    0.000    0.000 
#
# Total GULP energy -78305.295035 kJ/mol
# GULP energy per Si atom -5593.235360 kJ/mol
# Density = 2.362203 g / cm^3
# Si number density = 23.675920 Si / 1000 Ang^3
#
#
#
# Elastic Constant Matrix: (Units=GPa)
#
#
# Indices 1 2 3 4 5 6 
#
# 1 58.8443 19.5535 26.0720 -8.0211 10.5643 -4.1519
# 2 19.5535 128.1170 24.9584 7.7746 22.4299 11.6911
# 3 26.0720 24.9584 74.0425 -0.8699 1.9569 -9.0185
# 4 -8.0211 7.7746 -0.8699 32.5632 -12.5069 19.4371
# 5 10.5643 22.4299 1.9569 -12.5069 38.4382 3.2473
# 6 -4.1519 11.6911 -9.0185 19.4371 3.2473 48.5566
#
#
#
# Elastic Compliance Matrix: (Units=1/GPa)
#
#
# Indices 1 2 3 4 5 6 
#
# 1 0.021839 -0.001647 -0.007097 0.004917 -0.003011 -0.000821
# 2 -0.001647 0.010205 -0.002800 -0.005312 -0.007044 -0.000521
# 3 -0.007097 -0.002800 0.017393 -0.002552 0.001512 0.004218
# 4 0.004917 -0.005312 -0.002552 0.054525 0.021481 -0.022038
# 5 -0.003011 -0.007044 0.001512 0.021481 0.038666 -0.009465
# 6 -0.000821 -0.000521 0.004218 -0.022038 -0.009465 0.030888
#
#
# Mechanical properties :
#
#
# Convention : Reuss Voigt Hill
#
# Bulk Modulus (GPa) = 37.95300 44.68574 41.31937
# Shear Modulus (GPa) = 24.34440 36.60626 30.47533
#
# Velocity S-wave (km/s) = 3.21009 3.93636 3.59163
# Velocity P-wave (km/s) = 5.45936 6.29085 5.88980
#
# Compressibility (1/GPa) = 0.02634838
#
# Stress axis : x y z
#
# Youngs Moduli (GPa) = 45.79048 97.98899 57.49603
#
# Poissons Ratio (x) = 0.16136 0.40808
# Poissons Ratio (y) = 0.07540 0.16098
# Poissons Ratio (z) = 0.32500 0.27435
#
# Static dielectric constant tensor:
#      x y z
#    x 1.874160 0.050110 0.031280 
#    y 0.050110 1.956930 -0.031410 
#    z 0.031280 -0.031410 1.862340 
# 
# From -- ./inp_files/52627.got.cif
#   From: 2010.05.17/outbox.cif.g08.bks.cpg/sg2_27_cif.got.tgz:52627.got - 2010.06.03 11:33:40.
