data_PCOD9010891
_publ_section_title
;
Structure prediction by ZEFSAII (Michael W. Deem and Ramdas Pophale) SiO2 
 PCOD9010891
Probable space group: P -1
;
_chemical_formula_sum "Si O2"
_cell_formula_units_Z 14
_cell_length_a 9.471677
_cell_length_b 12.550346
_cell_length_c 9.639523
_cell_angle_alpha 52.609523
_cell_angle_beta 137.077251
_cell_angle_gamma 113.249665
_cell_volume 617.359434
_symmetry_space_group_name_H-M "P -1"
_symmetry_group_IT_number 2
_symmetry_cell_setting 'triclinic'
loop_
_space_group_symop_operation_xyz
x,y,z
-x,-y,-z
loop_
_atom_site_type_symbol
_atom_site_label
_atom_site_fract_x
_atom_site_fract_y
_atom_site_fract_z
Si Si1 0.112212 0.120099 0.261668
Si Si2 0.540108 0.938740 0.228189
Si Si3 0.683621 0.285465 0.849172
Si Si4 0.248643 0.349320 0.983680
Si Si5 0.208825 0.645889 0.419282
Si Si6 0.546492 0.414500 0.937257
Si Si7 0.304448 0.949327 0.313158
O O1 0.245873 0.056858 0.536761
O O2 0.115904 0.019436 0.212397
O O3 0.222516 0.245902 0.173283
O O4 0.881049 0.174528 0.095622
O O5 0.509843 0.782679 0.301232
O O6 0.360238 0.993699 0.163097
O O7 0.500000 0.000000 0.000000
O O8 0.756087 0.375356 0.704728
O O9 0.622156 0.348419 0.901307
O O10 0.451641 0.316440 0.058264
O O11 0.038056 0.349120 0.743804
O O12 0.276850 0.497300 0.946824
O O13 0.352387 0.526069 0.684588
O O14 0.278327 0.790835 0.402393
O O15 0.500000 0.000000 0.500000
#
# Coordination Sequence:
#
# PCOD9010891 Si02
#       7
#     2   2   2   2   2   2   2
#     4  10  22  43  64  93 128 167 213 254 327 386
#     4  10  22  39  63  94 127 163 211 265 318 375
#     4  10  23  38  62  93 128 171 206 263 322 376
#     4  10  23  38  64  92 130 172 212 265 318 379
#     4  10  21  40  64  95 124 171 220 257 317 380
#     4  11  22  40  61  95 131 168 215 267 312 379
#     4   9  19  39  68  93 126 168 207 265 316 382
#
# _framework density 22.677229000000001
#
# number of rings (size 3 to 8) (size 9 to 14) (size 15 to 20)
#    0.000    2.000    0.000    3.429    2.000    9.143 
#    2.571    0.000    3.143    0.000    0.000    0.000 
#    0.000    0.000    0.000    0.000    0.000    0.000 
#
# Total GULP energy -78123.871269 kJ/mol
# GULP energy per Si atom -5580.276519 kJ/mol
# Density = 2.262561 g / cm^3
# Si number density = 22.677229 Si / 1000 Ang^3
#
#
#
# Elastic Constant Matrix: (Units=GPa)
#
#
# Indices 1 2 3 4 5 6 
#
# 1 114.9230 67.7653 37.4474 13.2408 -21.2254 -24.9259
# 2 67.7653 103.3389 17.1975 25.1893 -4.6500 -19.0200
# 3 37.4474 17.1975 113.9622 14.4085 -9.6213 -5.0851
# 4 13.2408 25.1893 14.4085 31.3268 0.1123 -3.6191
# 5 -21.2254 -4.6500 -9.6213 0.1123 37.2834 10.6550
# 6 -24.9259 -19.0200 -5.0851 -3.6191 10.6550 46.9595
#
#
#
# Elastic Compliance Matrix: (Units=1/GPa)
#
#
# Indices 1 2 3 4 5 6 
#
# 1 0.018234 -0.011209 -0.004005 0.003515 0.006969 0.003395
# 2 -0.011209 0.019826 0.001948 -0.011820 -0.004026 0.002294
# 3 -0.004005 0.001948 0.010441 -0.004769 0.000894 -0.000776
# 4 0.003515 -0.011820 -0.004769 0.042136 -0.000830 -0.000002
# 5 0.006969 -0.004026 0.000894 -0.000830 0.031994 -0.005158
# 6 0.003395 0.002294 -0.000776 -0.000002 -0.005158 0.025112
#
#
# Mechanical properties :
#
#
# Convention : Reuss Voigt Hill
#
# Bulk Modulus (GPa) = 45.51872 64.11604 54.81738
# Shear Modulus (GPa) = 27.53345 37.10152 32.31749
#
# Velocity S-wave (km/s) = 3.48824 4.04922 3.77915
# Velocity P-wave (km/s) = 6.02825 7.08494 6.57784
#
# Compressibility (1/GPa) = 0.02196898
#
# Stress axis : x y z
#
# Youngs Moduli (GPa) = 54.84114 50.44007 95.78063
#
# Poissons Ratio (x) = 0.56540 0.38359
# Poissons Ratio (y) = 0.61474 -0.18663
# Poissons Ratio (z) = 0.21963 -0.09828
#
# Static dielectric constant tensor:
#      x y z
#    x 1.891130 0.033880 0.002270 
#    y 0.033880 1.866840 -0.033840 
#    z 0.002270 -0.033840 1.924940 
# 
# From -- ./inp_files/185499.got.cif
#   From: 2010.05.17/outbox.cif.g08.bks.cpg/sg2_93_cif.got.tgz:185499.got - 2010.06.03 11:33:40.
