data_PCOD9010918
_publ_section_title
;
Structure prediction by ZEFSAII (Michael W. Deem and Ramdas Pophale) SiO2 
 PCOD9010918
Probable space group: P -1
;
_chemical_formula_sum "Si O2"
_cell_formula_units_Z 16
_cell_length_a 17.820023
_cell_length_b 8.534387
_cell_length_c 5.785137
_cell_angle_alpha 50.646342
_cell_angle_beta 85.648924
_cell_angle_gamma 89.144489
_cell_volume 677.729494
_symmetry_space_group_name_H-M "P -1"
_symmetry_group_IT_number 2
_symmetry_cell_setting 'triclinic'
loop_
_space_group_symop_operation_xyz
x,y,z
-x,-y,-z
loop_
_atom_site_type_symbol
_atom_site_label
_atom_site_fract_x
_atom_site_fract_y
_atom_site_fract_z
Si Si1 0.917458 0.090397 0.923959
Si Si2 0.723195 0.442210 0.970935
Si Si3 0.171964 0.208553 0.511025
Si Si4 0.809273 0.152635 0.512965
Si Si5 0.326078 0.866277 0.102196
Si Si6 0.957881 0.480888 0.782307
Si Si7 0.452545 0.178419 0.734286
Si Si8 0.419958 0.567703 0.676596
O O1 0.855472 0.908856 0.144577
O O2 0.886019 0.188968 0.607198
O O3 0.918104 0.258388 0.967220
O O4 0.000000 0.000000 0.000000
O O5 0.781919 0.366714 0.218793
O O6 0.717233 0.254927 0.973958
O O7 0.640750 0.462326 0.079706
O O8 0.755075 0.642299 0.649415
O O9 0.102633 0.349095 0.349013
O O10 0.179373 0.032252 0.488809
O O11 0.735453 0.080005 0.746368
O O12 0.374450 0.057431 0.811390
O O13 0.379175 0.703926 0.364911
O O14 0.000000 0.500000 0.500000
O O15 0.000000 0.500000 0.000000
O O16 0.438702 0.353926 0.760227
O O17 0.503354 0.296728 0.417349
O O18 0.500000 0.000000 0.000000
#
# Coordination Sequence:
#
# PCOD9010918 Si02
#       8
#     2   2   2   2   2   2   2   2
#     4  12  27  48  71 102 135 181 236 297 368 443
#     4  11  25  43  66 101 137 184 236 293 358 431
#     4  12  26  42  70  96 136 181 233 293 365 434
#     4  11  25  44  70  97 138 180 236 296 357 438
#     4  10  21  40  64  95 137 177 234 287 352 424
#     4  12  28  48  75 106 144 185 238 305 377 449
#     4   9  18  38  66  96 134 183 224 286 348 417
#     4   9  20  39  64  95 136 178 232 285 351 421
#
# _framework density 23.608239999999999
#
# number of rings (size 3 to 8) (size 9 to 14) (size 15 to 20)
#    0.000    1.250    1.250    3.750    3.500    5.500 
#    0.000    5.625    0.000    0.000    0.000    0.000 
#    0.000    0.000    0.000    0.000    0.000    0.000 
#
# Total GULP energy -89411.653420 kJ/mol
# GULP energy per Si atom -5588.228339 kJ/mol
# Density = 2.355451 g / cm^3
# Si number density = 23.608240 Si / 1000 Ang^3
#
#
#
# Elastic Constant Matrix: (Units=GPa)
#
#
# Indices 1 2 3 4 5 6 
#
# 1 99.3399 44.0952 64.2305 -10.3637 -19.1254 -13.9861
# 2 44.0952 99.8483 30.2048 -22.2630 -11.2933 -9.8525
# 3 64.2305 30.2048 89.8885 -17.7729 -28.0062 7.8592
# 4 -10.3637 -22.2630 -17.7729 35.0591 2.1069 -2.2244
# 5 -19.1254 -11.2933 -28.0062 2.1069 58.3307 -8.9394
# 6 -13.9861 -9.8525 7.8592 -2.2244 -8.9394 57.0081
#
#
#
# Elastic Compliance Matrix: (Units=1/GPa)
#
#
# Indices 1 2 3 4 5 6 
#
# 1 0.023954 -0.005892 -0.016690 -0.004676 -0.000063 0.006967
# 2 -0.005892 0.014301 0.001297 0.008001 0.001381 0.001376
# 3 -0.016690 0.001297 0.026887 0.008739 0.006418 -0.006230
# 4 -0.004676 0.008001 0.008739 0.036529 0.003035 0.000932
# 5 -0.000063 0.001381 0.006418 0.003035 0.020778 0.002715
# 6 0.006967 0.001376 -0.006230 0.000932 0.002715 0.020809
#
#
# Mechanical properties :
#
#
# Convention : Reuss Voigt Hill
#
# Bulk Modulus (GPa) = 44.30303 62.90418 53.60360
# Shear Modulus (GPa) = 25.85941 40.11601 32.98771
#
# Velocity S-wave (km/s) = 3.31321 4.12665 3.74210
# Velocity P-wave (km/s) = 5.78300 7.02912 6.43629
#
# Compressibility (1/GPa) = 0.02257182
#
# Stress axis : x y z
#
# Youngs Moduli (GPa) = 41.74665 69.92516 37.19227
#
# Poissons Ratio (x) = 0.41200 0.62074
# Poissons Ratio (y) = 0.24597 -0.04823
# Poissons Ratio (z) = 0.69675 -0.09068
#
# Static dielectric constant tensor:
#      x y z
#    x 1.955020 0.014600 -0.041490 
#    y 0.014600 1.820780 0.014880 
#    z -0.041490 0.014880 2.054400 
# 
# From -- ./inp_files/106099.got.cif
#   From: 2010.05.17/outbox.cif.g08.bks.cpg/sg2_54_cif.got.tgz:106099.got - 2010.06.03 11:33:40.
