data_PCOD9010220
_publ_section_title
;
Structure prediction by ZEFSAII (Michael W. Deem and Ramdas Pophale) SiO2 
 PCOD9010220
Probable space group: P -1
;
_chemical_formula_sum "Si O2"
_cell_formula_units_Z 16
_cell_length_a 8.455713
_cell_length_b 18.798167
_cell_length_c 5.456189
_cell_angle_alpha 78.873928
_cell_angle_beta 59.077192
_cell_angle_gamma 111.538645
_cell_volume 607.766783
_symmetry_space_group_name_H-M "P -1"
_symmetry_group_IT_number 2
_symmetry_cell_setting 'triclinic'
loop_
_space_group_symop_operation_xyz
x,y,z
-x,-y,-z
loop_
_atom_site_type_symbol
_atom_site_label
_atom_site_fract_x
_atom_site_fract_y
_atom_site_fract_z
Si Si1 0.532803 0.943089 0.699662
Si Si2 0.870060 0.114345 0.589070
Si Si3 0.830490 0.899464 0.273938
Si Si4 0.761132 0.352783 0.260679
Si Si5 0.020611 0.713381 0.556534
Si Si6 0.146791 0.491663 0.577726
Si Si7 0.600107 0.578086 0.175318
Si Si8 0.732199 0.731041 0.340805
O O1 0.601147 0.887061 0.535342
O O2 0.500000 0.000000 0.500000
O O3 0.739755 0.018952 0.637072
O O4 0.314924 0.893302 0.068381
O O5 0.074632 0.121094 0.552660
O O6 0.935729 0.205685 0.360866
O O7 0.820937 0.831156 0.137377
O O8 0.000000 0.000000 0.000000
O O9 0.791745 0.438604 0.300734
O O10 0.522527 0.303377 0.346099
O O11 0.777601 0.295677 0.504519
O O12 0.980172 0.393370 0.882877
O O13 0.903069 0.728269 0.397973
O O14 0.821708 0.613457 0.829733
O O15 0.381610 0.537071 0.218759
O O16 0.000000 0.500000 0.500000
O O17 0.500000 0.500000 0.500000
O O18 0.671893 0.664504 0.212919
#
# Coordination Sequence:
#
# PCOD9010220 Si02
#       8
#     2   2   2   2   2   2   2   2
#     4  11  23  43  71  98 135 180 235 278 347 427
#     4  10  25  44  65 106 134 181 236 280 348 422
#     4  11  23  45  72  98 141 186 217 296 353 404
#     4  10  22  41  62  89 132 171 214 284 331 402
#     4  11  24  42  66  95 135 176 225 284 341 410
#     4  10  21  40  62  92 123 169 229 270 340 403
#     4  11  23  42  67  95 132 182 227 281 349 408
#     4  10  26  44  61 103 136 170 238 278 347 422
#
# _framework density 26.325886000000001
#
# number of rings (size 3 to 8) (size 9 to 14) (size 15 to 20)
#    0.000    1.500    2.500    1.125    5.250    0.500 
#   11.250    0.000    0.000    0.000    0.000    0.000 
#    0.000    0.000    0.000    0.000    0.000    0.000 
#
# Total GULP energy -89093.295388 kJ/mol
# GULP energy per Si atom -5568.330962 kJ/mol
# Density = 2.626597 g / cm^3
# Si number density = 26.325886 Si / 1000 Ang^3
#
#
#
# Elastic Constant Matrix: (Units=GPa)
#
#
# Indices 1 2 3 4 5 6 
#
# 1 113.4375 18.3140 -5.6207 -3.0442 6.0136 -5.0369
# 2 18.3140 140.4222 12.0138 -13.2306 1.7345 -20.2691
# 3 -5.6207 12.0138 55.5283 -24.1386 -5.1534 -6.6520
# 4 -3.0442 -13.2306 -24.1386 40.2609 -3.6135 -1.2338
# 5 6.0136 1.7345 -5.1534 -3.6135 32.8410 -6.5687
# 6 -5.0369 -20.2691 -6.6520 -1.2338 -6.5687 44.6416
#
#
#
# Elastic Compliance Matrix: (Units=1/GPa)
#
#
# Indices 1 2 3 4 5 6 
#
# 1 0.009201 -0.001117 0.001705 0.001274 -0.001086 0.000660
# 2 -0.001117 0.008054 -0.000201 0.002624 0.000774 0.003687
# 3 0.001705 -0.000201 0.026927 0.016999 0.006914 0.005601
# 4 0.001274 0.002624 0.016999 0.036850 0.007550 0.005998
# 5 -0.001086 0.000774 0.006914 0.007550 0.033812 0.006443
# 6 0.000660 0.003687 0.005601 0.005998 0.006443 0.026098
#
#
# Mechanical properties :
#
#
# Convention : Reuss Voigt Hill
#
# Bulk Modulus (GPa) = 22.24405 39.86693 31.05549
# Shear Modulus (GPa) = 32.22575 42.52741 37.37658
#
# Velocity S-wave (km/s) = 3.50252 4.02359 3.77207
# Velocity P-wave (km/s) = 4.98244 6.06319 5.54919
#
# Compressibility (1/GPa) = 0.04495583
#
# Stress axis : x y z
#
# Youngs Moduli (GPa) = 108.67968 124.15838 37.13686
#
# Poissons Ratio (x) = 0.13871 -0.06332
# Poissons Ratio (y) = 0.12142 0.00748
# Poissons Ratio (z) = -0.18531 0.02501
#
# Static dielectric constant tensor:
#      x y z
#    x 1.835120 -0.151270 0.132460 
#    y -0.151270 1.819630 0.205200 
#    z 0.132460 0.205200 1.962650 
# 
# From -- ./inp_files/47024.got.cif
#   From: 2010.05.17/outbox.cif.g08.bks.cpg/sg2_24_cif.got.tgz:47024.got - 2010.06.03 11:33:40.
