data_PCOD9010678
_publ_section_title
;
Structure prediction by ZEFSAII (Michael W. Deem and Ramdas Pophale) SiO2 
 PCOD9010678
Probable space group: P -1
;
_chemical_formula_sum "Si O2"
_cell_formula_units_Z 12
_cell_length_a 5.533753
_cell_length_b 7.216404
_cell_length_c 17.464203
_cell_angle_alpha 58.787339
_cell_angle_beta 56.797762
_cell_angle_gamma 63.122834
_cell_volume 485.085464
_symmetry_space_group_name_H-M "P -1"
_symmetry_group_IT_number 2
_symmetry_cell_setting 'triclinic'
loop_
_space_group_symop_operation_xyz
x,y,z
-x,-y,-z
loop_
_atom_site_type_symbol
_atom_site_label
_atom_site_fract_x
_atom_site_fract_y
_atom_site_fract_z
Si Si1 0.175418 0.983319 0.584116
Si Si2 0.726403 0.272174 0.523372
Si Si3 0.921545 0.875535 0.929523
Si Si4 0.218288 0.065106 0.718770
Si Si5 0.007394 0.485067 0.882627
Si Si6 0.307608 0.639996 0.180435
O O1 0.140289 0.926447 0.689846
O O2 0.985583 0.233240 0.548139
O O3 0.500000 0.000000 0.500000
O O4 0.116783 0.814435 0.566021
O O5 0.500000 0.500000 0.500000
O O6 0.521652 0.120862 0.629617
O O7 0.861080 0.687047 0.921683
O O8 0.692135 0.115311 0.908519
O O9 0.995784 0.748304 0.023265
O O10 0.211461 0.941856 0.826525
O O11 0.950648 0.285614 0.727298
O O12 0.365213 0.466681 0.821720
O O13 0.827250 0.488903 0.834610
#
# Coordination Sequence:
#
# PCOD9010678 Si02
#       6
#     2   2   2   2   2   2
#     4   9  20  41  59  86 124 158 208 264 331 373
#     4  10  21  40  64  88 120 169 209 264 329 398
#     4   9  23  40  64  94 132 167 224 266 318 386
#     4   9  22  39  57  96 122 164 207 277 307 385
#     4  11  22  44  64  95 129 187 207 267 330 377
#     4  10  24  40  65  95 134 168 225 262 322 385
#
# _framework density 24.737908000000001
#
# number of rings (size 3 to 8) (size 9 to 14) (size 15 to 20)
#    1.000    1.333    0.000    1.000    2.333    8.000 
#   15.000    0.000    0.000    0.000    0.000    0.000 
#    0.000    0.000    0.000    0.000    0.000    0.000 
#
# Total GULP energy -66881.862813 kJ/mol
# GULP energy per Si atom -5573.488568 kJ/mol
# Density = 2.468160 g / cm^3
# Si number density = 24.737908 Si / 1000 Ang^3
#
#
#
# Elastic Constant Matrix: (Units=GPa)
#
#
# Indices 1 2 3 4 5 6 
#
# 1 103.9231 41.1020 27.3668 8.4532 4.1997 -19.0195
# 2 41.1020 106.8575 -5.5327 0.2631 4.3046 -19.3227
# 3 27.3668 -5.5327 66.7346 17.4398 7.4160 -10.1519
# 4 8.4532 0.2631 17.4398 35.4448 3.7011 2.4142
# 5 4.1997 4.3046 7.4160 3.7011 23.1980 2.7172
# 6 -19.0195 -19.3227 -10.1519 2.4142 2.7172 34.9313
#
#
#
# Elastic Compliance Matrix: (Units=1/GPa)
#
#
# Indices 1 2 3 4 5 6 
#
# 1 0.013620 -0.004922 -0.005275 -0.000824 -0.000112 0.003226
# 2 -0.004922 0.012745 0.004732 -0.001300 -0.003494 0.006107
# 3 -0.005275 0.004732 0.021766 -0.009326 -0.006237 0.007201
# 4 -0.000824 -0.001300 -0.009326 0.033555 -0.001267 -0.006099
# 5 -0.000112 -0.003494 -0.006237 -0.001267 0.046834 -0.007362
# 6 0.003226 0.006107 0.007201 -0.006099 -0.007362 0.036849
#
#
# Mechanical properties :
#
#
# Convention : Reuss Voigt Hill
#
# Bulk Modulus (GPa) = 26.88077 44.82084 35.85080
# Shear Modulus (GPa) = 26.49711 33.02010 29.75861
#
# Velocity S-wave (km/s) = 3.27634 3.65745 3.47213
# Velocity P-wave (km/s) = 5.02019 5.99946 5.53154
#
# Compressibility (1/GPa) = 0.03720131
#
# Stress axis : x y z
#
# Youngs Moduli (GPa) = 73.41974 78.46334 45.94360
#
# Poissons Ratio (x) = 0.38621 0.24235
# Poissons Ratio (y) = 0.36138 -0.21742
# Poissons Ratio (z) = 0.38728 -0.37131
#
# Static dielectric constant tensor:
#      x y z
#    x 2.140290 0.030760 -0.014710 
#    y 0.030760 2.040400 -0.029760 
#    z -0.014710 -0.029760 1.995740 
# 
# From -- ./inp_files/123039.got.cif
#   From: 2010.05.17/outbox.cif.g08.bks.cpg/sg2_62_cif.got.tgz:123039.got - 2010.06.03 11:33:40.
