data_PCOD9010442
_publ_section_title
;
Structure prediction by ZEFSAII (Michael W. Deem and Ramdas Pophale) SiO2 
 PCOD9010442
Probable space group: P -1
;
_chemical_formula_sum "Si O2"
_cell_formula_units_Z 16
_cell_length_a 14.756034
_cell_length_b 8.396729
_cell_length_c 13.260985
_cell_angle_alpha 70.921947
_cell_angle_beta 48.270067
_cell_angle_gamma 40.547558
_cell_volume 740.937385
_symmetry_space_group_name_H-M "P -1"
_symmetry_group_IT_number 2
_symmetry_cell_setting 'triclinic'
loop_
_space_group_symop_operation_xyz
x,y,z
-x,-y,-z
loop_
_atom_site_type_symbol
_atom_site_label
_atom_site_fract_x
_atom_site_fract_y
_atom_site_fract_z
Si Si1 0.268155 0.380834 0.618207
Si Si2 0.222670 0.219407 0.877057
Si Si3 0.054897 0.127111 0.535134
Si Si4 0.827992 0.066612 0.147001
Si Si5 0.451329 0.522248 0.415214
Si Si6 0.899984 0.942530 0.714662
Si Si7 0.678200 0.884708 0.948723
Si Si8 0.942465 0.685363 0.308214
O O1 0.307851 0.253206 0.722422
O O2 0.412127 0.363078 0.471026
O O3 0.071173 0.696718 0.710008
O O4 0.220216 0.278542 0.600391
O O5 0.217295 0.035504 0.876144
O O6 0.326394 0.128407 0.925168
O O7 0.000000 0.500000 0.000000
O O8 0.262954 0.821965 0.460783
O O9 0.903978 0.139101 0.666991
O O10 0.044258 0.178384 0.414490
O O11 0.031520 0.297720 0.598291
O O12 0.634240 0.374381 0.245460
O O13 0.884266 0.914384 0.241777
O O14 0.000000 0.000000 0.000000
O O15 0.500000 0.500000 0.500000
O O16 0.713172 0.044305 0.864582
O O17 0.867071 0.589999 0.827424
O O18 0.500000 0.000000 0.000000
#
# Coordination Sequence:
#
# PCOD9010442 Si02
#       8
#     2   2   2   2   2   2   2   2
#     4   9  21  39  64  89 122 160 220 263 314 380
#     4  11  21  42  67  89 125 175 211 262 328 376
#     4  10  21  40  64  90 121 166 214 269 319 374
#     4  11  25  39  64  97 129 168 216 259 326 386
#     4  11  23  39  62  96 128 164 212 267 310 377
#     4   9  20  40  63  82 126 169 209 259 328 370
#     4  11  24  42  60  95 131 171 214 262 321 392
#     4  10  21  40  63  91 122 167 218 262 322 379
#
# _framework density 21.594266000000001
#
# number of rings (size 3 to 8) (size 9 to 14) (size 15 to 20)
#    0.000    1.750    5.000    0.000    3.500    6.000 
#    9.000    0.625    0.000    0.000    0.000    0.000 
#    0.000    0.000    0.000    0.000    0.000    0.000 
#
# Total GULP energy -89442.361827 kJ/mol
# GULP energy per Si atom -5590.147614 kJ/mol
# Density = 2.154512 g / cm^3
# Si number density = 21.594266 Si / 1000 Ang^3
#
#
#
# Elastic Constant Matrix: (Units=GPa)
#
#
# Indices 1 2 3 4 5 6 
#
# 1 111.8726 11.8392 51.9492 -13.7110 15.1887 -13.6406
# 2 11.8392 44.2638 21.1411 -6.9517 3.2532 -8.5240
# 3 51.9492 21.1411 83.8230 -8.3425 -5.9983 -1.6676
# 4 -13.7110 -6.9517 -8.3425 39.0607 -0.9820 3.1088
# 5 15.1887 3.2532 -5.9983 -0.9820 47.0915 2.7614
# 6 -13.6406 -8.5240 -1.6676 3.1088 2.7614 27.8970
#
#
#
# Elastic Compliance Matrix: (Units=1/GPa)
#
#
# Indices 1 2 3 4 5 6 
#
# 1 0.016026 0.003591 -0.010879 0.003070 -0.007247 0.008658
# 2 0.003591 0.028942 -0.009325 0.003491 -0.004867 0.010135
# 3 -0.010879 -0.009325 0.021384 -0.000122 0.007320 -0.007601
# 4 0.003070 0.003491 -0.000122 0.027291 -0.000653 -0.000416
# 5 -0.007247 -0.004867 0.007320 -0.000653 0.025239 -0.007018
# 6 0.008658 0.010135 -0.007601 -0.000416 -0.007018 0.043463
#
#
# Mechanical properties :
#
#
# Convention : Reuss Voigt Hill
#
# Bulk Modulus (GPa) = 30.18504 45.53539 37.86021
# Shear Modulus (GPa) = 24.19984 33.14515 28.67249
#
# Velocity S-wave (km/s) = 3.35126 3.92204 3.64783
# Velocity P-wave (km/s) = 5.38360 6.45309 5.94246
#
# Compressibility (1/GPa) = 0.03312900
#
# Stress axis : x y z
#
# Youngs Moduli (GPa) = 62.39799 34.55129 46.76336
#
# Poissons Ratio (x) = -0.12409 0.50873
# Poissons Ratio (y) = -0.22410 0.43605
# Poissons Ratio (z) = 0.67881 0.32218
#
# Static dielectric constant tensor:
#      x y z
#    x 1.789650 0.014440 -0.012060 
#    y 0.014440 1.818660 -0.001280 
#    z -0.012060 -0.001280 1.784880 
# 
# From -- ./inp_files/406753.got.cif
#   From: 2010.05.17/outbox.cif.g08.bks.cpg/sg2_204_cif.got.tgz:406753.got - 2010.06.03 11:33:40.
