data_PCOD9010020
_publ_section_title
;
Structure prediction by ZEFSAII (Michael W. Deem and Ramdas Pophale) SiO2 
 PCOD9010020
Probable space group: P -1
;
_chemical_formula_sum "Si O2"
_cell_formula_units_Z 16
_cell_length_a 8.551508
_cell_length_b 12.227542
_cell_length_c 15.636839
_cell_angle_alpha 140.725464
_cell_angle_beta 130.027073
_cell_angle_gamma 72.579161
_cell_volume 723.086261
_symmetry_space_group_name_H-M "P -1"
_symmetry_group_IT_number 2
_symmetry_cell_setting 'triclinic'
loop_
_space_group_symop_operation_xyz
x,y,z
-x,-y,-z
loop_
_atom_site_type_symbol
_atom_site_label
_atom_site_fract_x
_atom_site_fract_y
_atom_site_fract_z
Si Si1 0.046137 0.965891 0.810641
Si Si2 0.971370 0.807829 0.422737
Si Si3 0.355314 0.386173 0.496635
Si Si4 0.353691 0.013978 0.799254
Si Si5 0.207399 0.625263 0.268617
Si Si6 0.352374 0.206242 0.204217
Si Si7 0.844370 0.231938 0.842027
Si Si8 0.532831 0.711088 0.154661
O O1 0.889550 0.742783 0.629131
O O2 0.275452 0.032030 0.877485
O O3 0.890295 0.048138 0.757120
O O4 0.128538 0.088155 0.000700
O O5 0.714401 0.748884 0.317411
O O6 0.044272 0.677816 0.306479
O O7 0.000000 0.000000 0.500000
O O8 0.133523 0.847073 0.582285
O O9 0.560975 0.347083 0.587529
O O10 0.320062 0.307312 0.339284
O O11 0.456417 0.615278 0.670409
O O12 0.397875 0.181359 0.847464
O O13 0.551891 0.946884 0.829421
O O14 0.235179 0.751669 0.271137
O O15 0.074036 0.412694 0.056660
O O16 0.664524 0.242108 0.851045
O O17 0.500000 0.500000 0.000000
#
# Coordination Sequence:
#
# PCOD9010020 Si02
#       8
#     2   2   2   2   2   2   2   2
#     4  12  26  45  69 104 138 179 230 283 342 402
#     4  10  21  40  61  90 135 173 220 273 331 404
#     4  11  25  44  74  99 132 185 229 285 342 402
#     4  11  25  45  66  95 138 180 224 283 340 406
#     4  11  22  43  65  99 139 179 225 281 344 404
#     4  11  24  49  70  97 139 176 235 285 335 406
#     4  11  24  39  69 101 138 176 223 284 342 407
#     4  11  23  40  66 100 133 179 221 272 346 405
#
# _framework density 22.127376000000002
#
# number of rings (size 3 to 8) (size 9 to 14) (size 15 to 20)
#    0.000    1.000    3.750    3.000    5.250    1.000 
#    2.250    0.000    0.000    0.000    0.000    0.000 
#    0.000    0.000    0.000    0.000    0.000    0.000 
#
# Total GULP energy -89203.081291 kJ/mol
# GULP energy per Si atom -5575.192581 kJ/mol
# Density = 2.207701 g / cm^3
# Si number density = 22.127376 Si / 1000 Ang^3
#
#
#
# Elastic Constant Matrix: (Units=GPa)
#
#
# Indices 1 2 3 4 5 6 
#
# 1 47.2072 -1.0898 -9.3785 8.0928 2.8011 12.8037
# 2 -1.0898 83.8442 14.2413 6.2267 8.4063 6.9022
# 3 -9.3785 14.2413 58.1558 -7.6403 6.3188 15.6859
# 4 8.0928 6.2267 -7.6403 34.9664 -2.6857 -2.9483
# 5 2.8011 8.4063 6.3188 -2.6857 29.0141 0.2441
# 6 12.8037 6.9022 15.6859 -2.9483 0.2441 26.0550
#
#
#
# Elastic Compliance Matrix: (Units=1/GPa)
#
#
# Indices 1 2 3 4 5 6 
#
# 1 0.031196 0.001713 0.010465 -0.007653 -0.006303 -0.022891
# 2 0.001713 0.013266 -0.002114 -0.003811 -0.003872 -0.003478
# 3 0.010465 -0.002114 0.025527 0.001433 -0.005658 -0.019735
# 4 -0.007653 -0.003811 0.001433 0.032339 0.004461 0.007525
# 5 -0.006303 -0.003872 -0.005658 0.004461 0.037777 0.007680
# 6 -0.022891 -0.003478 -0.019735 0.007525 0.007680 0.063211
#
#
# Mechanical properties :
#
#
# Convention : Reuss Voigt Hill
#
# Bulk Modulus (GPa) = 11.09683 21.86147 16.47915
# Shear Modulus (GPa) = 23.44911 30.36939 26.90925
#
# Velocity S-wave (km/s) = 3.25889 3.70872 3.49106
# Velocity P-wave (km/s) = 4.38022 5.31420 4.86965
#
# Compressibility (1/GPa) = 0.09011579
#
# Stress axis : x y z
#
# Youngs Moduli (GPa) = 32.05508 75.38159 39.17470
#
# Poissons Ratio (x) = -0.12910 -0.40997
# Poissons Ratio (y) = -0.05490 0.08283
# Poissons Ratio (z) = -0.33546 0.15938
#
# Static dielectric constant tensor:
#      x y z
#    x 1.842330 0.066820 0.026010 
#    y 0.066820 1.776920 0.038920 
#    z 0.026010 0.038920 1.846650 
# 
# From -- ./inp_files/176045.got.cif
#   From: 2010.05.17/outbox.cif.g08.bks.cpg/sg2_89_cif.got.tgz:176045.got - 2010.06.03 11:33:40.
