data_PCOD9010882
_publ_section_title
;
Structure prediction by ZEFSAII (Michael W. Deem and Ramdas Pophale) SiO2 
 PCOD9010882
Probable space group: P -1
;
_chemical_formula_sum "Si O2"
_cell_formula_units_Z 16
_cell_length_a 24.578151
_cell_length_b 12.054089
_cell_length_c 9.291023
_cell_angle_alpha 123.279240
_cell_angle_beta 40.067003
_cell_angle_gamma 153.413504
_cell_volume 699.560760
_symmetry_space_group_name_H-M "P -1"
_symmetry_group_IT_number 2
_symmetry_cell_setting 'triclinic'
loop_
_space_group_symop_operation_xyz
x,y,z
-x,-y,-z
loop_
_atom_site_type_symbol
_atom_site_label
_atom_site_fract_x
_atom_site_fract_y
_atom_site_fract_z
Si Si1 0.214369 0.085207 0.766919
Si Si2 0.147618 0.331303 0.683217
Si Si3 0.658099 0.218311 0.616984
Si Si4 0.519549 0.346689 0.216217
Si Si5 0.477845 0.122865 0.586585
Si Si6 0.915576 0.045930 0.371668
Si Si7 0.704712 0.329567 0.917076
Si Si8 0.393040 0.220798 0.065035
O O1 0.331139 0.119622 0.512107
O O2 0.341450 0.346694 0.799486
O O3 0.180858 0.109362 0.697137
O O4 0.017950 0.805554 0.033900
O O5 0.237569 0.520553 0.493471
O O6 0.074900 0.079385 0.649268
O O7 0.313049 0.550146 0.616935
O O8 0.392269 0.666510 0.921583
O O9 0.648115 0.072946 0.435032
O O10 0.735732 0.306821 0.682057
O O11 0.445144 0.952893 0.888041
O O12 0.484650 0.301911 0.085455
O O13 0.500000 0.000000 0.500000
O O14 0.401271 0.120875 0.854427
O O15 0.802765 0.996811 0.654389
O O16 0.107388 0.374881 0.185073
O O17 0.500000 0.500000 0.000000
#
# Coordination Sequence:
#
# PCOD9010882 Si02
#       8
#     2   2   2   2   2   2   2   2
#     4  10  22  38  62 105 135 174 220 290 346 403
#     4  11  20  39  68 100 130 176 235 283 339 405
#     4  10  25  41  65  94 134 188 224 274 345 423
#     4  10  22  38  64  94 144 176 216 286 356 392
#     4  10  21  40  64  94 140 180 222 272 349 410
#     4  11  23  39  71 103 135 176 232 295 340 394
#     4  11  23  45  66  97 137 183 232 279 345 422
#     4  11  23  41  66 108 137 174 232 296 338 405
#
# _framework density 22.871494999999999
#
# number of rings (size 3 to 8) (size 9 to 14) (size 15 to 20)
#    0.000    1.500    2.500    2.625    1.750    2.500 
#    0.000    6.250    0.000   15.750    0.000    0.000 
#    0.000    0.000    0.000    0.000    0.000    0.000 
#
# Total GULP energy -89338.401075 kJ/mol
# GULP energy per Si atom -5583.650067 kJ/mol
# Density = 2.281944 g / cm^3
# Si number density = 22.871495 Si / 1000 Ang^3
#
#
#
# Elastic Constant Matrix: (Units=GPa)
#
#
# Indices 1 2 3 4 5 6 
#
# 1 71.6902 20.7903 44.1948 3.9245 7.6405 -7.5110
# 2 20.7903 87.9856 52.2158 12.4818 8.4315 -1.4849
# 3 44.1948 52.2158 168.1102 3.2833 3.2540 -1.8352
# 4 3.9245 12.4818 3.2833 57.2732 7.1439 4.9809
# 5 7.6405 8.4315 3.2540 7.1439 30.6723 -6.1973
# 6 -7.5110 -1.4849 -1.8352 4.9809 -6.1973 29.3022
#
#
#
# Elastic Compliance Matrix: (Units=1/GPa)
#
#
# Indices 1 2 3 4 5 6 
#
# 1 0.017572 -0.001297 -0.004111 -0.000677 -0.002673 0.003731
# 2 -0.001297 0.014748 -0.004138 -0.002554 -0.002693 0.000020
# 3 -0.004111 -0.004138 0.008275 0.000639 0.001005 -0.000641
# 4 -0.000677 -0.002554 0.000639 0.018976 -0.004515 -0.004443
# 5 -0.002673 -0.002693 0.001005 -0.004515 0.036516 0.007732
# 6 0.003731 0.000020 -0.000641 -0.004443 0.007732 0.037435
#
#
# Mechanical properties :
#
#
# Convention : Reuss Voigt Hill
#
# Bulk Modulus (GPa) = 46.50276 62.46531 54.48404
# Shear Modulus (GPa) = 31.29252 37.48854 34.39053
#
# Velocity S-wave (km/s) = 3.70292 4.05297 3.88189
# Velocity P-wave (km/s) = 6.21759 7.01946 6.63066
#
# Compressibility (1/GPa) = 0.02150410
#
# Stress axis : x y z
#
# Youngs Moduli (GPa) = 56.90793 67.80463 120.83983
#
# Poissons Ratio (x) = 0.08797 0.49676
# Poissons Ratio (y) = 0.07383 0.49998
# Poissons Ratio (z) = 0.23394 0.28055
#
# Static dielectric constant tensor:
#      x y z
#    x 1.886740 0.012470 0.045930 
#    y 0.012470 1.895820 0.038090 
#    z 0.045930 0.038090 1.900780 
# 
# From -- ./inp_files/358860.got.cif
#   From: 2010.05.17/outbox.cif.g08.bks.cpg/sg2_180_cif.got.tgz:358860.got - 2010.06.03 11:33:40.
