data_PCOD9010326
_publ_section_title
;
Structure prediction by ZEFSAII (Michael W. Deem and Ramdas Pophale) SiO2 
 PCOD9010326
Probable space group: P -1
;
_chemical_formula_sum "Si O2"
_cell_formula_units_Z 16
_cell_length_a 14.886614
_cell_length_b 15.060714
_cell_length_c 7.739451
_cell_angle_alpha 45.611410
_cell_angle_beta 57.596905
_cell_angle_gamma 38.039615
_cell_volume 763.649127
_symmetry_space_group_name_H-M "P -1"
_symmetry_group_IT_number 2
_symmetry_cell_setting 'triclinic'
loop_
_space_group_symop_operation_xyz
x,y,z
-x,-y,-z
loop_
_atom_site_type_symbol
_atom_site_label
_atom_site_fract_x
_atom_site_fract_y
_atom_site_fract_z
Si Si1 0.622335 0.008535 0.387099
Si Si2 0.460685 0.652333 0.951747
Si Si3 0.749583 0.999757 0.921022
Si Si4 0.955072 0.682560 0.582779
Si Si5 0.220224 0.628621 0.872110
Si Si6 0.967603 0.648921 0.023984
Si Si7 0.341589 0.682529 0.388216
Si Si8 0.028148 0.860351 0.040806
O O1 0.500000 0.000000 0.500000
O O2 0.779672 0.832513 0.530868
O O3 0.585414 0.170468 0.301391
O O4 0.650995 0.026905 0.136473
O O5 0.618293 0.549395 0.018226
O O6 0.343513 0.705058 0.149245
O O7 0.500000 0.500000 0.000000
O O8 0.815390 0.836923 0.965925
O O9 0.665850 0.182728 0.679883
O O10 0.889996 0.952911 0.929865
O O11 0.985499 0.651896 0.796991
O O12 0.027151 0.738943 0.328826
O O13 0.021290 0.497399 0.711855
O O14 0.224873 0.690124 0.595643
O O15 0.101625 0.615958 0.013038
O O16 0.166563 0.759382 0.907326
O O17 0.500000 0.500000 0.500000
O O18 0.000000 0.000000 0.000000
#
# Coordination Sequence:
#
# PCOD9010326 Si02
#       8
#     2   2   2   2   2   2   2   2
#     4  10  21  40  63  84 117 163 203 248 298 368
#     4  10  22  37  59  90 122 159 206 256 302 351
#     4   9  21  37  59  84 121 154 198 250 302 353
#     4  10  23  39  60  87 125 150 204 257 293 365
#     4  10  22  36  61  86 118 162 197 243 314 360
#     4  10  22  40  59  88 118 163 195 250 312 355
#     4   9  20  37  54  85 122 159 197 246 296 362
#     4  10  23  35  59  92 116 152 201 252 301 359
#
# _framework density 20.952031999999999
#
# number of rings (size 3 to 8) (size 9 to 14) (size 15 to 20)
#    0.000    2.250    0.000    0.750    8.750    7.500 
#    0.000    1.875    0.000    0.000    0.000    0.000 
#    0.000    0.000    0.000    0.000    0.000    0.000 
#
# Total GULP energy -89090.623316 kJ/mol
# GULP energy per Si atom -5568.163957 kJ/mol
# Density = 2.090434 g / cm^3
# Si number density = 20.952032 Si / 1000 Ang^3
#
#
#
# Elastic Constant Matrix: (Units=GPa)
#
#
# Indices 1 2 3 4 5 6 
#
# 1 29.7805 9.6532 19.6458 -4.3144 -9.9806 10.0598
# 2 9.6532 134.0426 58.8111 -14.4261 -19.3592 14.8948
# 3 19.6458 58.8111 97.5088 -18.9848 -16.2311 8.7341
# 4 -4.3144 -14.4261 -18.9848 42.4206 2.7858 -4.0569
# 5 -9.9806 -19.3592 -16.2311 2.7858 21.9165 -2.9436
# 6 10.0598 14.8948 8.7341 -4.0569 -2.9436 31.6869
#
#
#
# Elastic Compliance Matrix: (Units=1/GPa)
#
#
# Indices 1 2 3 4 5 6 
#
# 1 0.047967 0.004099 -0.007934 0.000285 0.017769 -0.013281
# 2 0.004099 0.011329 -0.006011 0.000729 0.006759 -0.004249
# 3 -0.007934 -0.006011 0.016748 0.004593 0.003112 0.001605
# 4 0.000285 0.000729 0.004593 0.025999 0.001103 0.001732
# 5 0.017769 0.006759 0.003112 0.001103 0.061339 -0.003837
# 6 -0.013281 -0.004249 0.001605 0.001732 -0.003837 0.037195
#
#
# Mechanical properties :
#
#
# Convention : Reuss Voigt Hill
#
# Bulk Modulus (GPa) = 17.74545 48.61692 33.18118
# Shear Modulus (GPa) = 20.91577 30.75291 25.83434
#
# Velocity S-wave (km/s) = 3.16297 3.83531 3.51525
# Velocity P-wave (km/s) = 4.67195 6.54730 5.68745
#
# Compressibility (1/GPa) = 0.05635248
#
# Stress axis : x y z
#
# Youngs Moduli (GPa) = 20.84781 88.26606 59.70750
#
# Poissons Ratio (x) = -0.36183 0.47371
# Poissons Ratio (y) = -0.08546 0.35893
# Poissons Ratio (z) = 0.16540 0.53061
#
# Static dielectric constant tensor:
#      x y z
#    x 1.818780 0.031990 0.006520 
#    y 0.031990 1.845970 -0.056000 
#    z 0.006520 -0.056000 1.798610 
# 
# From -- ./inp_files/312313.got.cif
#   From: 2010.05.17/outbox.cif.g08.bks.cpg/sg2_157_cif.got.tgz:312313.got - 2010.06.03 11:33:40.
