data_PCOD9010251
_publ_section_title
;
Structure prediction by ZEFSAII (Michael W. Deem and Ramdas Pophale) SiO2 
 PCOD9010251
Probable space group: P -1
;
_chemical_formula_sum "Si O2"
_cell_formula_units_Z 12
_cell_length_a 9.232150
_cell_length_b 8.629731
_cell_length_c 13.036187
_cell_angle_alpha 143.710222
_cell_angle_beta 127.963833
_cell_angle_gamma 60.658825
_cell_volume 484.606028
_symmetry_space_group_name_H-M "P -1"
_symmetry_group_IT_number 2
_symmetry_cell_setting 'triclinic'
loop_
_space_group_symop_operation_xyz
x,y,z
-x,-y,-z
loop_
_atom_site_type_symbol
_atom_site_label
_atom_site_fract_x
_atom_site_fract_y
_atom_site_fract_z
Si Si1 0.438121 0.710103 0.343854
Si Si2 0.615379 0.658270 0.048886
Si Si3 0.119730 0.939570 0.674065
Si Si4 0.160404 0.422623 0.604957
Si Si5 0.290550 0.506918 0.375871
Si Si6 0.737309 0.053805 0.022900
O O1 0.338191 0.567252 0.131011
O O2 0.640308 0.573754 0.360048
O O3 0.316851 0.658102 0.361440
O O4 0.500000 0.000000 0.500000
O O5 0.476164 0.876139 0.056341
O O6 0.500000 0.500000 0.000000
O O7 0.802467 0.821733 0.233281
O O8 0.186139 0.680255 0.504845
O O9 0.201756 0.980322 0.848407
O O10 0.903021 0.869793 0.548771
O O11 0.170001 0.666050 0.817995
O O12 0.000000 0.500000 0.500000
O O13 0.500000 0.500000 0.500000
O O14 0.222983 0.210634 0.162947
#
# Coordination Sequence:
#
# PCOD9010251 Si02
#       6
#     2   2   2   2   2   2
#     4  11  24  42  63  96 130 167 217 262 313 386
#     4  11  21  38  61  90 129 170 210 262 316 376
#     4  11  21  40  66  93 124 165 213 267 320 369
#     4   9  21  40  67  91 134 167 202 272 325 366
#     4  12  21  35  69  96 121 169 224 258 305 388
#     4  10  21  40  62  93 129 166 216 261 310 383
#
# _framework density 24.762384000000001
#
# number of rings (size 3 to 8) (size 9 to 14) (size 15 to 20)
#    0.000    1.333    3.333    4.500    0.000    0.667 
#    0.000    8.333    0.000    0.000    0.000    0.000 
#    0.000    0.000    0.000    0.000    0.000    0.000 
#
# Total GULP energy -66909.143569 kJ/mol
# GULP energy per Si atom -5575.761964 kJ/mol
# Density = 2.470602 g / cm^3
# Si number density = 24.762384 Si / 1000 Ang^3
#
#
#
# Elastic Constant Matrix: (Units=GPa)
#
#
# Indices 1 2 3 4 5 6 
#
# 1 67.9003 3.2776 24.9996 4.3764 7.9849 26.9251
# 2 3.2776 71.5881 33.0336 15.2892 -4.9923 20.5119
# 3 24.9996 33.0336 168.9316 29.0314 0.8298 14.5740
# 4 4.3764 15.2892 29.0314 42.2711 14.3136 1.7082
# 5 7.9849 -4.9923 0.8298 14.3136 56.1464 9.1835
# 6 26.9251 20.5119 14.5740 1.7082 9.1835 41.3749
#
#
#
# Elastic Compliance Matrix: (Units=1/GPa)
#
#
# Indices 1 2 3 4 5 6 
#
# 1 0.021766 0.005155 -0.002538 -0.001896 0.000477 -0.015854
# 2 0.005155 0.020750 -0.002345 -0.007684 0.005344 -0.013684
# 3 -0.002538 -0.002345 0.007502 -0.004437 0.001157 0.000098
# 4 -0.001896 -0.007684 -0.004437 0.032735 -0.009913 0.007455
# 5 0.000477 0.005344 0.001157 -0.009913 0.022011 -0.007843
# 6 -0.015854 -0.013684 0.000098 0.007455 -0.007843 0.042669
#
#
# Mechanical properties :
#
#
# Convention : Reuss Voigt Hill
#
# Bulk Modulus (GPa) = 19.77804 47.89351 33.83577
# Shear Modulus (GPa) = 30.53582 44.43242 37.48412
#
# Velocity S-wave (km/s) = 3.51544 4.24057 3.89492
# Velocity P-wave (km/s) = 4.94795 6.58482 5.82418
#
# Compressibility (1/GPa) = 0.05056112
#
# Stress axis : x y z
#
# Youngs Moduli (GPa) = 45.94379 48.19324 133.29589
#
# Poissons Ratio (x) = -0.24844 0.33829
# Poissons Ratio (y) = -0.23685 0.31265
# Poissons Ratio (z) = 0.11660 0.11304
#
# Static dielectric constant tensor:
#      x y z
#    x 1.923060 -0.086910 0.058590 
#    y -0.086910 1.965900 0.036710 
#    z 0.058590 0.036710 1.982230 
# 
# From -- ./inp_files/225657.got.cif
#   From: 2010.05.17/outbox.cif.g08.bks.cpg/sg2_113_cif.got.tgz:225657.got - 2010.06.03 11:33:40.
