data_PCOD9010811
_publ_section_title
;
Structure prediction by ZEFSAII (Michael W. Deem and Ramdas Pophale) SiO2 
 PCOD9010811
Probable space group: P -1
;
_chemical_formula_sum "Si O2"
_cell_formula_units_Z 16
_cell_length_a 5.074141
_cell_length_b 18.996177
_cell_length_c 16.732575
_cell_angle_alpha 24.216690
_cell_angle_beta 98.008882
_cell_angle_gamma 98.820718
_cell_volume 653.744196
_symmetry_space_group_name_H-M "P -1"
_symmetry_group_IT_number 2
_symmetry_cell_setting 'triclinic'
loop_
_space_group_symop_operation_xyz
x,y,z
-x,-y,-z
loop_
_atom_site_type_symbol
_atom_site_label
_atom_site_fract_x
_atom_site_fract_y
_atom_site_fract_z
Si Si1 0.907409 0.626622 0.579385
Si Si2 0.570833 0.665005 0.779882
Si Si3 0.073508 0.772398 0.581091
Si Si4 0.636261 0.440384 0.449055
Si Si5 0.164104 0.100897 0.333901
Si Si6 0.738589 0.082441 0.872556
Si Si7 0.147589 0.740330 0.979549
Si Si8 0.692313 0.823618 0.998717
O O1 0.934805 0.783651 0.478311
O O2 0.188947 0.596363 0.583349
O O3 0.672949 0.623125 0.509000
O O4 0.833924 0.463326 0.801056
O O5 0.332367 0.664066 0.707078
O O6 0.589286 0.807359 0.704516
O O7 0.852424 0.696960 0.713079
O O8 0.500000 0.500000 0.000000
O O9 0.208004 0.955946 0.421375
O O10 0.656341 0.650190 0.235111
O O11 0.747417 0.291382 0.664694
O O12 0.000000 0.000000 0.500000
O O13 0.976555 0.222196 0.150495
O O14 0.703338 0.998772 0.869084
O O15 0.500000 0.000000 0.000000
O O16 0.000000 0.000000 0.000000
O O17 0.440311 0.818879 0.933108
O O18 0.951739 0.796115 0.984576
#
# Coordination Sequence:
#
# PCOD9010811 Si02
#       8
#     2   2   2   2   2   2   2   2
#     4  10  21  40  64  93 122 170 222 265 328 375
#     4  11  23  40  57  81 122 166 214 269 331 399
#     4  11  23  37  60  88 118 162 214 275 328 383
#     4  10  23  42  66  97 137 167 216 267 310 397
#     4  10  24  40  60  93 129 169 222 278 345 387
#     4  12  26  43  70 103 137 172 210 258 325 397
#     4  10  22  41  65  90 127 172 218 276 318 393
#     4  10  24  43  67  99 130 173 223 263 325 380
#
# _framework density 24.474405999999998
#
# number of rings (size 3 to 8) (size 9 to 14) (size 15 to 20)
#    0.000    1.500    0.000    3.750    3.500    8.000 
#    0.000    0.000    0.000    0.000    0.000    0.000 
#    0.000    0.000    0.000    0.000    0.000    0.000 
#
# Total GULP energy -89330.383444 kJ/mol
# GULP energy per Si atom -5583.148965 kJ/mol
# Density = 2.441870 g / cm^3
# Si number density = 24.474406 Si / 1000 Ang^3
#
#
#
# Elastic Constant Matrix: (Units=GPa)
#
#
# Indices 1 2 3 4 5 6 
#
# 1 115.1743 10.7234 12.6764 -1.8572 0.3249 10.2037
# 2 10.7234 41.3691 -16.1571 -10.9279 -8.3318 -1.6161
# 3 12.6764 -16.1571 95.9498 13.4978 -3.2248 2.5171
# 4 -1.8572 -10.9279 13.4978 31.0583 9.2748 4.4585
# 5 0.3249 -8.3318 -3.2248 9.2748 32.7216 7.0241
# 6 10.2037 -1.6161 2.5171 4.4585 7.0241 28.4672
#
#
#
# Elastic Compliance Matrix: (Units=1/GPa)
#
#
# Indices 1 2 3 4 5 6 
#
# 1 0.009504 -0.003203 -0.001856 0.000924 -0.000622 -0.003416
# 2 -0.003203 0.029811 0.004764 0.006359 0.006319 -0.000136
# 3 -0.001856 0.004764 0.012299 -0.004896 0.003906 -0.000349
# 4 0.000924 0.006359 -0.004896 0.039937 -0.009449 -0.003460
# 5 -0.000622 0.006319 0.003906 -0.009449 0.036821 -0.007369
# 6 -0.003416 -0.000136 -0.000349 -0.003460 -0.007369 0.038736
#
#
# Mechanical properties :
#
#
# Convention : Reuss Voigt Hill
#
# Bulk Modulus (GPa) = 19.59870 29.66430 24.63150
# Shear Modulus (GPa) = 27.07001 34.79944 30.93473
#
# Velocity S-wave (km/s) = 3.32935 3.77486 3.55908
# Velocity P-wave (km/s) = 4.77542 5.58089 5.19379
#
# Compressibility (1/GPa) = 0.05102378
#
# Stress axis : x y z
#
# Youngs Moduli (GPa) = 105.21543 33.54476 81.30845
#
# Poissons Ratio (x) = 0.10745 0.15093
# Poissons Ratio (y) = 0.33703 -0.38738
# Poissons Ratio (z) = 0.19531 -0.15982
#
# Static dielectric constant tensor:
#      x y z
#    x 1.901130 0.001000 0.048530 
#    y 0.001000 2.033220 -0.043990 
#    z 0.048530 -0.043990 2.110730 
# 
# From -- ./inp_files/550981.got.cif
#   From: 2010.05.17/outbox.cif.g08.bks.cpg/sg2_276_cif.got.tgz:550981.got - 2010.06.03 11:33:40.
