data_PCOD9010847
_publ_section_title
;
Structure prediction by ZEFSAII (Michael W. Deem and Ramdas Pophale) SiO2 
 PCOD9010847
Probable space group: P -1
;
_chemical_formula_sum "Si O2"
_cell_formula_units_Z 15
_cell_length_a 24.697120
_cell_length_b 5.084967
_cell_length_c 5.016641
_cell_angle_alpha 113.441335
_cell_angle_beta 86.877825
_cell_angle_gamma 71.665350
_cell_volume 536.877020
_symmetry_space_group_name_H-M "P -1"
_symmetry_group_IT_number 2
_symmetry_cell_setting 'triclinic'
loop_
_space_group_symop_operation_xyz
x,y,z
-x,-y,-z
loop_
_atom_site_type_symbol
_atom_site_label
_atom_site_fract_x
_atom_site_fract_y
_atom_site_fract_z
Si Si1 0.548969 0.454917 0.235959
Si Si2 0.894088 0.596076 0.154829
Si Si3 0.210925 0.247304 0.374782
Si Si4 0.064275 0.841606 0.538076
Si Si5 0.349681 0.382675 0.804499
Si Si6 0.326627 0.861157 0.415080
Si Si7 0.767735 0.225864 0.226607
Si Si8 0.500000 0.000000 0.000000
O O1 0.500000 0.500000 0.500000
O O2 0.608268 0.489734 0.327086
O O3 0.556330 0.107062 0.023836
O O4 0.473582 0.270719 0.869805
O O5 0.828164 0.729533 0.343226
O O6 0.915596 0.881746 0.260317
O O7 0.930641 0.369041 0.288993
O O8 0.901177 0.389810 0.804370
O O9 0.281323 0.070311 0.286025
O O10 0.204146 0.603278 0.507433
O O11 0.192715 0.042232 0.083375
O O12 0.000000 0.000000 0.500000
O O13 0.367451 0.033054 0.572533
O O14 0.278948 0.506104 0.835106
O O15 0.354590 0.530289 0.143695
O O16 0.279392 0.866892 0.644549
#
# Coordination Sequence:
#
# PCOD9010847 Si02
#       8
#     2   2   2   2   2   2   2   1
#     4  11  25  46  73 101 141 182 239 298 364 432
#     4  12  26  44  75 105 144 199 244 313 373 436
#     4  10  23  38  62  99 132 179 233 289 356 431
#     4  12  26  47  71 106 147 195 253 307 372 440
#     4  10  24  40  67  99 129 184 227 281 361 427
#     4  10  22  41  64  97 135 176 226 291 346 435
#     4  10  21  40  64  93 137 175 225 292 352 434
#     4  10  26  46  68 104 134 180 230 302 354 420
#
# _framework density 27.939360000000001
#
# number of rings (size 3 to 8) (size 9 to 14) (size 15 to 20)
#    0.000    1.333    0.000    4.000    7.467    2.133 
#    0.000    0.000    0.000    0.000    0.000    0.000 
#    0.000    0.000    0.000    0.000    0.000    0.000 
#
# Total GULP energy -83553.784885 kJ/mol
# GULP energy per Si atom -5570.252326 kJ/mol
# Density = 2.787577 g / cm^3
# Si number density = 27.939360 Si / 1000 Ang^3
#
#
#
# Elastic Constant Matrix: (Units=GPa)
#
#
# Indices 1 2 3 4 5 6 
#
# 1 117.1766 20.2345 30.1264 31.4746 13.7202 2.6566
# 2 20.2345 155.1171 52.8788 27.8349 13.7417 14.3415
# 3 30.1264 52.8788 195.1416 19.3555 13.8799 7.8603
# 4 31.4746 27.8349 19.3555 41.0254 7.3384 11.6955
# 5 13.7202 13.7417 13.8799 7.3384 53.2097 12.3969
# 6 2.6566 14.3415 7.8603 11.6955 12.3969 60.3374
#
#
#
# Elastic Compliance Matrix: (Units=1/GPa)
#
#
# Indices 1 2 3 4 5 6 
#
# 1 0.011181 0.000410 -0.000917 -0.008527 -0.001942 0.001582
# 2 0.000410 0.007919 -0.001665 -0.004560 -0.000947 -0.000605
# 3 -0.000917 -0.001665 0.005849 -0.000787 -0.000746 -0.000020
# 4 -0.008527 -0.004560 -0.000787 0.035938 -0.000121 -0.005379
# 5 -0.001942 -0.000947 -0.000746 -0.000121 0.020638 -0.003809
# 6 0.001582 -0.000605 -0.000020 -0.005379 -0.003809 0.018475
#
#
# Mechanical properties :
#
#
# Convention : Reuss Voigt Hill
#
# Bulk Modulus (GPa) = 48.53189 74.87940 61.70564
# Shear Modulus (GPa) = 44.95887 55.19420 50.07654
#
# Velocity S-wave (km/s) = 4.01578 4.44948 4.23818
# Velocity P-wave (km/s) = 6.23780 7.29767 6.78845
#
# Compressibility (1/GPa) = 0.02060501
#
# Stress axis : x y z
#
# Youngs Moduli (GPa) = 89.43646 126.27908 170.96275
#
# Poissons Ratio (x) = -0.05178 0.15678
# Poissons Ratio (y) = -0.03668 0.28468
# Poissons Ratio (z) = 0.08202 0.21028
#
# Static dielectric constant tensor:
#      x y z
#    x 2.323380 -0.247690 0.098210 
#    y -0.247690 2.499090 -0.051830 
#    z 0.098210 -0.051830 2.267820 
# 
# From -- ./inp_files/128023.got.cif
#   From: 2010.05.17/outbox.cif.g08.bks.cpg/sg2_65_cif.got.tgz:128023.got - 2010.06.03 11:33:40.
