data_PCOD9010793
_publ_section_title
;
Structure prediction by ZEFSAII (Michael W. Deem and Ramdas Pophale) SiO2 
 PCOD9010793
Probable space group: P -1
;
_chemical_formula_sum "Si O2"
_cell_formula_units_Z 14
_cell_length_a 14.154079
_cell_length_b 14.419733
_cell_length_c 11.948970
_cell_angle_alpha 31.546247
_cell_angle_beta 56.169706
_cell_angle_gamma 33.841442
_cell_volume 607.536961
_symmetry_space_group_name_H-M "P -1"
_symmetry_group_IT_number 2
_symmetry_cell_setting 'triclinic'
loop_
_space_group_symop_operation_xyz
x,y,z
-x,-y,-z
loop_
_atom_site_type_symbol
_atom_site_label
_atom_site_fract_x
_atom_site_fract_y
_atom_site_fract_z
Si Si1 0.005375 0.324184 0.440367
Si Si2 0.613907 0.263919 0.766958
Si Si3 0.169023 0.786486 0.007592
Si Si4 0.521822 0.291734 0.434337
Si Si5 0.436805 0.052628 0.858150
Si Si6 0.974458 0.744386 0.744687
Si Si7 0.945387 0.345162 0.973250
O O1 0.799689 0.615966 0.340945
O O2 0.935429 0.334973 0.354932
O O3 0.116179 0.369941 0.296626
O O4 0.140102 0.014377 0.735136
O O5 0.500000 0.500000 0.500000
O O6 0.624798 0.402334 0.707788
O O7 0.819702 0.943056 0.907834
O O8 0.517225 0.208239 0.933963
O O9 0.128892 0.691008 0.036231
O O10 0.396142 0.462322 0.229056
O O11 0.000000 0.000000 0.000000
O O12 0.534509 0.076049 0.693440
O O13 0.742297 0.083658 0.525474
O O14 0.500000 0.000000 0.000000
O O15 0.065468 0.706455 0.837637
O O16 0.000000 0.500000 0.000000
#
# Coordination Sequence:
#
# PCOD9010793 Si02
#       7
#     2   2   2   2   2   2   2
#     4  10  23  41  62  90 128 168 205 250 318 370
#     4  11  19  33  60  95 123 153 205 261 309 355
#     4  12  24  39  63  96 129 163 207 258 307 376
#     4  12  23  40  62  93 127 160 210 257 306 371
#     4  11  20  34  63  93 121 159 207 263 307 353
#     4  10  22  44  66  89 126 168 205 260 312 368
#     4  10  21  40  64  92 128 161 203 263 313 361
#
# _framework density 23.043866000000001
#
# number of rings (size 3 to 8) (size 9 to 14) (size 15 to 20)
#    0.000    1.143    5.714    1.714    0.000    2.857 
#    0.000    5.714    0.000    0.000    0.000    0.000 
#    0.000    0.000    0.000    0.000    0.000    0.000 
#
# Total GULP energy -78152.958591 kJ/mol
# GULP energy per Si atom -5582.354185 kJ/mol
# Density = 2.299142 g / cm^3
# Si number density = 23.043866 Si / 1000 Ang^3
#
#
#
# Elastic Constant Matrix: (Units=GPa)
#
#
# Indices 1 2 3 4 5 6 
#
# 1 99.6233 11.1610 61.3167 2.4528 12.6648 18.5479
# 2 11.1610 58.1254 19.9037 3.0234 5.2336 3.7883
# 3 61.3167 19.9037 167.0040 1.0334 3.8653 -2.5777
# 4 2.4528 3.0234 1.0334 19.0808 -1.0862 4.8921
# 5 12.6648 5.2336 3.8653 -1.0862 37.5404 -0.4078
# 6 18.5479 3.7883 -2.5777 4.8921 -0.4078 29.3917
#
#
#
# Elastic Compliance Matrix: (Units=1/GPa)
#
#
# Indices 1 2 3 4 5 6 
#
# 1 0.016501 0.000071 -0.006127 0.000773 -0.005045 -0.011158
# 2 0.000071 0.018431 -0.002186 -0.002374 -0.002461 -0.002251
# 3 -0.006127 -0.002186 0.008543 -0.000525 0.001531 0.005006
# 4 0.000773 -0.002374 -0.000525 0.055215 0.001620 -0.009396
# 5 -0.005045 -0.002461 0.001531 0.001620 0.028613 0.003762
# 6 -0.011158 -0.002251 0.005006 -0.009396 0.003762 0.043410
#
#
# Mechanical properties :
#
#
# Convention : Reuss Voigt Hill
#
# Bulk Modulus (GPa) = 37.04965 56.61283 46.83124
# Shear Modulus (GPa) = 25.48509 32.69400 29.08955
#
# Velocity S-wave (km/s) = 3.32917 3.77075 3.55682
# Velocity P-wave (km/s) = 5.55793 6.60142 6.10203
#
# Compressibility (1/GPa) = 0.02699081
#
# Stress axis : x y z
#
# Youngs Moduli (GPa) = 60.60370 54.25688 117.05446
#
# Poissons Ratio (x) = -0.00385 0.71720
# Poissons Ratio (y) = -0.00430 0.25585
# Poissons Ratio (z) = 0.37132 0.11859
#
# Static dielectric constant tensor:
#      x y z
#    x 1.927540 -0.018140 -0.049000 
#    y -0.018140 1.928430 -0.027600 
#    z -0.049000 -0.027600 1.820090 
# 
# From -- ./inp_files/455375.got.cif
#   From: 2010.05.17/outbox.cif.g08.bks.cpg/sg2_228_cif.got.tgz:455375.got - 2010.06.03 11:33:40.
