data_PCOD9010830
_publ_section_title
;
Structure prediction by ZEFSAII (Michael W. Deem and Ramdas Pophale) SiO2 
 PCOD9010830
Probable space group: P -1
;
_chemical_formula_sum "Si O2"
_cell_formula_units_Z 14
_cell_length_a 7.041792
_cell_length_b 13.113985
_cell_length_c 10.391434
_cell_angle_alpha 120.953717
_cell_angle_beta 45.320664
_cell_angle_gamma 117.010668
_cell_volume 578.384294
_symmetry_space_group_name_H-M "P -1"
_symmetry_group_IT_number 2
_symmetry_cell_setting 'triclinic'
loop_
_space_group_symop_operation_xyz
x,y,z
-x,-y,-z
loop_
_atom_site_type_symbol
_atom_site_label
_atom_site_fract_x
_atom_site_fract_y
_atom_site_fract_z
Si Si1 0.279067 0.684830 0.888571
Si Si2 0.188427 0.386567 0.456765
Si Si3 0.731629 0.717613 0.151535
Si Si4 0.216821 0.812293 0.445221
Si Si5 0.038413 0.989582 0.180236
Si Si6 0.007368 0.366692 0.244397
Si Si7 0.441006 0.914780 0.135772
O O1 0.493439 0.594111 0.711153
O O2 0.217999 0.715442 0.787448
O O3 0.414927 0.794736 0.981233
O O4 0.966692 0.653452 0.065998
O O5 0.076683 0.501623 0.638195
O O6 0.061462 0.269822 0.521048
O O7 0.057711 0.348862 0.356010
O O8 0.429721 0.727594 0.341197
O O9 0.871869 0.856786 0.168464
O O10 0.724675 0.653117 0.973972
O O11 0.351805 0.879249 0.298372
O O12 0.150519 0.910562 0.641703
O O13 0.233785 0.990677 0.214110
O O14 0.252293 0.021402 0.984379
#
# Coordination Sequence:
#
# PCOD9010830 Si02
#       7
#     2   2   2   2   2   2   2
#     4   9  19  42  63  90 129 166 212 256 315 380
#     4  11  21  41  69  95 125 170 215 262 322 372
#     4   9  22  39  59  93 129 161 214 261 308 378
#     4  12  23  38  64 101 125 166 218 263 314 381
#     4  10  21  41  62  91 131 174 205 258 321 377
#     4   9  22  42  68  90 128 171 214 260 317 384
#     4  10  21  40  64  93 129 171 208 260 320 376
#
# _framework density 24.205359999999999
#
# number of rings (size 3 to 8) (size 9 to 14) (size 15 to 20)
#    0.857    1.143    1.429    2.143    0.000    1.143 
#    7.714    0.714    0.000    0.000    0.000    0.000 
#    0.000    0.000    0.000    0.000    0.000    0.000 
#
# Total GULP energy -78021.252149 kJ/mol
# GULP energy per Si atom -5572.946582 kJ/mol
# Density = 2.415027 g / cm^3
# Si number density = 24.205360 Si / 1000 Ang^3
#
#
#
# Elastic Constant Matrix: (Units=GPa)
#
#
# Indices 1 2 3 4 5 6 
#
# 1 61.4780 13.6250 30.9692 2.7192 -16.1310 6.2150
# 2 13.6250 18.2802 34.7529 3.2282 -4.6980 0.2157
# 3 30.9692 34.7529 142.0535 30.1457 -41.8577 -0.6744
# 4 2.7192 3.2282 30.1457 34.2750 -7.3430 -2.3901
# 5 -16.1310 -4.6980 -41.8577 -7.3430 44.2924 10.0315
# 6 6.2150 0.2157 -0.6744 -2.3901 10.0315 20.8958
#
#
#
# Elastic Compliance Matrix: (Units=1/GPa)
#
#
# Indices 1 2 3 4 5 6 
#
# 1 0.023908 -0.022644 0.004602 -0.001879 0.013369 -0.013362
# 2 -0.022644 0.147377 -0.047487 0.023002 -0.039390 0.025222
# 3 0.004602 -0.047487 0.027920 -0.016374 0.023258 -0.013016
# 4 -0.001879 0.023002 -0.016374 0.040235 -0.009025 0.008728
# 5 0.013369 -0.039390 0.023258 -0.009025 0.050067 -0.027887
# 6 -0.013362 0.025222 -0.013016 0.008728 -0.027887 0.065536
#
#
# Mechanical properties :
#
#
# Convention : Reuss Voigt Hill
#
# Bulk Modulus (GPa) = 14.67396 42.27845 28.47621
# Shear Modulus (GPa) = 9.82674 29.39027 19.60850
#
# Velocity S-wave (km/s) = 2.01706 3.48832 2.84929
# Velocity P-wave (km/s) = 3.39119 5.80767 4.75548
#
# Compressibility (1/GPa) = 0.06814791
#
# Stress axis : x y z
#
# Youngs Moduli (GPa) = 41.82744 6.78533 35.81672
#
# Poissons Ratio (x) = 0.15364 -0.16484
# Poissons Ratio (y) = 0.94712 1.70083
# Poissons Ratio (z) = -0.19250 0.32222
#
# Static dielectric constant tensor:
#      x y z
#    x 2.002400 -0.031060 -0.041410 
#    y -0.031060 1.936100 -0.023410 
#    z -0.041410 -0.023410 1.923620 
# 
# From -- ./inp_files/399525.got.cif
#   From: 2010.05.17/outbox.cif.g08.bks.cpg/sg2_200_cif.got.tgz:399525.got - 2010.06.03 11:33:40.
