data_PCOD9010639
_publ_section_title
;
Structure prediction by ZEFSAII (Michael W. Deem and Ramdas Pophale) SiO2 
 PCOD9010639
Probable space group: P -1
;
_chemical_formula_sum "Si O2"
_cell_formula_units_Z 12
_cell_length_a 15.322352
_cell_length_b 12.849560
_cell_length_c 5.900133
_cell_angle_alpha 108.493207
_cell_angle_beta 83.280526
_cell_angle_gamma 37.840187
_cell_volume 523.919583
_symmetry_space_group_name_H-M "P -1"
_symmetry_group_IT_number 2
_symmetry_cell_setting 'triclinic'
loop_
_space_group_symop_operation_xyz
x,y,z
-x,-y,-z
loop_
_atom_site_type_symbol
_atom_site_label
_atom_site_fract_x
_atom_site_fract_y
_atom_site_fract_z
Si Si1 0.362284 0.747907 0.263135
Si Si2 0.443061 0.341060 0.509838
Si Si3 0.826461 0.455798 0.583312
Si Si4 0.820296 0.219021 0.352000
Si Si5 0.767148 0.935978 0.800725
Si Si6 0.501843 0.056478 0.786381
O O1 0.491116 0.701504 0.293551
O O2 0.221639 0.845524 0.545136
O O3 0.261191 0.914345 0.202652
O O4 0.500000 0.500000 0.000000
O O5 0.280811 0.437536 0.552551
O O6 0.359435 0.546725 0.575484
O O7 0.626842 0.096524 0.163582
O O8 0.850876 0.299924 0.535542
O O9 0.686849 0.666938 0.941832
O O10 0.017530 0.307720 0.391667
O O11 0.000000 0.000000 0.000000
O O12 0.684416 0.931314 0.665250
O O13 0.500000 0.000000 0.500000
O O14 0.500000 0.000000 0.000000
#
# Coordination Sequence:
#
# PCOD9010639 Si02
#       6
#     2   2   2   2   2   2
#     4  12  22  37  68  96 143 194 235 281 351 431
#     4   9  22  41  59  93 145 184 228 286 342 415
#     4   9  23  45  68 103 138 183 238 295 356 441
#     4  10  21  40  64 100 144 190 230 279 353 430
#     4  11  24  45  68 104 133 183 242 295 364 431
#     4  11  27  52  79 104 141 184 244 316 382 432
#
# _framework density 22.904277
#
# number of rings (size 3 to 8) (size 9 to 14) (size 15 to 20)
#    1.000    0.667    1.667    1.500    7.000    2.000 
#   12.000    0.000    0.000    0.000    0.000    0.000 
#    0.000    0.000    0.000    0.000    0.000    0.000 
#
# Total GULP energy -66871.694462 kJ/mol
# GULP energy per Si atom -5572.641205 kJ/mol
# Density = 2.285215 g / cm^3
# Si number density = 22.904277 Si / 1000 Ang^3
#
#
#
# Elastic Constant Matrix: (Units=GPa)
#
#
# Indices 1 2 3 4 5 6 
#
# 1 112.6669 52.9926 72.0654 16.2222 -2.7042 -27.6745
# 2 52.9926 61.1491 45.4318 4.0793 -4.2360 -19.9211
# 3 72.0654 45.4318 137.3557 26.2859 5.1768 -23.2670
# 4 16.2222 4.0793 26.2859 32.7438 -4.8210 -16.0214
# 5 -2.7042 -4.2360 5.1768 -4.8210 51.4770 2.5628
# 6 -27.6745 -19.9211 -23.2670 -16.0214 2.5628 45.5418
#
#
#
# Elastic Compliance Matrix: (Units=1/GPa)
#
#
# Indices 1 2 3 4 5 6 
#
# 1 0.018341 -0.010993 -0.005079 -0.002153 0.000220 0.002971
# 2 -0.010993 0.032194 -0.005626 0.010330 0.003208 0.007981
# 3 -0.005079 -0.005626 0.013292 -0.008672 -0.002796 -0.001651
# 4 -0.002153 0.010330 -0.008672 0.045052 0.005114 0.014341
# 5 0.000220 0.003208 -0.002796 0.005114 0.020424 0.000758
# 6 0.002971 0.007981 -0.001651 0.014341 0.000758 0.031414
#
#
# Mechanical properties :
#
#
# Convention : Reuss Voigt Hill
#
# Bulk Modulus (GPa) = 48.95300 72.46126 60.70713
# Shear Modulus (GPa) = 23.70530 35.33130 29.51830
#
# Velocity S-wave (km/s) = 3.22059 3.93181 3.59384
# Velocity P-wave (km/s) = 5.93707 7.23308 6.61688
#
# Compressibility (1/GPa) = 0.02042776
#
# Stress axis : x y z
#
# Youngs Moduli (GPa) = 54.52407 31.06176 75.23487
#
# Poissons Ratio (x) = 0.34148 0.38214
# Poissons Ratio (y) = 0.59941 0.42330
# Poissons Ratio (z) = 0.27695 0.17477
#
# Static dielectric constant tensor:
#      x y z
#    x 2.215630 0.081810 -0.196030 
#    y 0.081810 1.936640 -0.071400 
#    z -0.196030 -0.071400 2.012860 
# 
# From -- ./inp_files/110110.got.cif
#   From: 2010.05.17/outbox.cif.g08.bks.cpg/sg2_56_cif.got.tgz:110110.got - 2010.06.03 11:33:40.
