data_PCOD9010209
_publ_section_title
;
Structure prediction by ZEFSAII (Michael W. Deem and Ramdas Pophale) SiO2 
 PCOD9010209
Probable space group: P -1
;
_chemical_formula_sum "Si O2"
_cell_formula_units_Z 12
_cell_length_a 11.514423
_cell_length_b 8.278104
_cell_length_c 5.731768
_cell_angle_alpha 67.042480
_cell_angle_beta 65.666883
_cell_angle_gamma 77.630470
_cell_volume 457.442677
_symmetry_space_group_name_H-M "P -1"
_symmetry_group_IT_number 2
_symmetry_cell_setting 'triclinic'
loop_
_space_group_symop_operation_xyz
x,y,z
-x,-y,-z
loop_
_atom_site_type_symbol
_atom_site_label
_atom_site_fract_x
_atom_site_fract_y
_atom_site_fract_z
Si Si1 0.022637 0.206500 0.130477
Si Si2 0.166517 0.497972 0.672201
Si Si3 0.340426 0.731269 0.164437
Si Si4 0.637023 0.944384 0.324255
Si Si5 0.800796 0.999870 0.533225
Si Si6 0.593138 0.622746 0.210187
O O1 0.943463 0.350555 0.275160
O O2 0.128076 0.099203 0.257107
O O3 0.913235 0.075761 0.242155
O O4 0.092175 0.320418 0.818563
O O5 0.255253 0.564144 0.353477
O O6 0.265662 0.474919 0.825438
O O7 0.492048 0.677646 0.058891
O O8 0.297147 0.846539 0.366393
O O9 0.309594 0.873246 0.910712
O O10 0.720564 0.876806 0.510885
O O11 0.618938 0.802993 0.220169
O O12 0.500000 0.000000 0.500000
O O13 0.500000 0.500000 0.500000
#
# Coordination Sequence:
#
# PCOD9010209 Si02
#       6
#     2   2   2   2   2   2
#     4   9  19  39  65  90 125 174 206 256 311 378
#     4   9  19  38  62  86 123 171 206 245 320 370
#     4  10  21  40  63  92 129 163 205 268 317 367
#     4  12  24  38  66  99 123 165 218 258 315 384
#     4  10  21  40  65  95 124 164 219 255 311 378
#     4  10  21  40  62  91 131 164 200 265 325 366
#
# _framework density 26.232794999999999
#
# number of rings (size 3 to 8) (size 9 to 14) (size 15 to 20)
#    0.000    2.000    1.667    1.500    2.333    0.000 
#    0.000   28.333    0.000    0.000    0.000    0.000 
#    0.000    0.000    0.000    0.000    0.000    0.000 
#
# Total GULP energy -67034.302647 kJ/mol
# GULP energy per Si atom -5586.191887 kJ/mol
# Density = 2.617309 g / cm^3
# Si number density = 26.232795 Si / 1000 Ang^3
#
#
#
# Elastic Constant Matrix: (Units=GPa)
#
#
# Indices 1 2 3 4 5 6 
#
# 1 140.3839 36.3484 33.2022 -9.1864 -12.2463 -13.7716
# 2 36.3484 83.5126 26.4138 -14.4648 -6.4206 -15.9889
# 3 33.2022 26.4138 91.3343 -26.4198 -32.8029 15.4723
# 4 -9.1864 -14.4648 -26.4198 42.7549 2.5106 -10.8927
# 5 -12.2463 -6.4206 -32.8029 2.5106 46.7874 -12.0773
# 6 -13.7716 -15.9889 15.4723 -10.8927 -12.0773 40.6083
#
#
#
# Elastic Compliance Matrix: (Units=1/GPa)
#
#
# Indices 1 2 3 4 5 6 
#
# 1 0.008779 -0.002148 -0.002721 0.000325 0.000995 0.003551
# 2 -0.002148 0.016790 -0.003666 0.005183 0.001226 0.009034
# 3 -0.002721 -0.003666 0.020503 0.009069 0.011561 -0.004307
# 4 0.000325 0.005183 0.009069 0.032865 0.007939 0.009873
# 5 0.000995 0.001226 0.011561 0.007939 0.031526 0.007921
# 6 0.003551 0.009034 -0.004307 0.009873 0.007921 0.036032
#
#
# Mechanical properties :
#
#
# Convention : Reuss Voigt Hill
#
# Bulk Modulus (GPa) = 34.47800 56.35107 45.41454
# Shear Modulus (GPa) = 28.86295 40.64789 34.75542
#
# Velocity S-wave (km/s) = 3.32062 3.94065 3.64384
# Velocity P-wave (km/s) = 5.27955 6.49867 5.92057
#
# Compressibility (1/GPa) = 0.02900400
#
# Stress axis : x y z
#
# Youngs Moduli (GPa) = 113.90342 59.55863 48.77349
#
# Poissons Ratio (x) = 0.12793 0.13269
# Poissons Ratio (y) = 0.24467 0.17879
# Poissons Ratio (z) = 0.30988 0.21832
#
# Static dielectric constant tensor:
#      x y z
#    x 1.993650 -0.032350 -0.017300 
#    y -0.032350 2.040320 -0.037520 
#    z -0.017300 -0.037520 2.081870 
# 
# From -- ./inp_files/25542.got.cif
#   From: 2010.05.17/outbox.cif.g08.bks.cpg/sg2_13_cif.got.tgz:25542.got - 2010.06.03 11:33:40.
