data_PCOD9010591
_publ_section_title
;
Structure prediction by ZEFSAII (Michael W. Deem and Ramdas Pophale) SiO2 
 PCOD9010591
Probable space group: P -1
;
_chemical_formula_sum "Si O2"
_cell_formula_units_Z 16
_cell_length_a 14.290983
_cell_length_b 16.195918
_cell_length_c 7.431499
_cell_angle_alpha 46.890828
_cell_angle_beta 116.221033
_cell_angle_gamma 140.955581
_cell_volume 776.087310
_symmetry_space_group_name_H-M "P -1"
_symmetry_group_IT_number 2
_symmetry_cell_setting 'triclinic'
loop_
_space_group_symop_operation_xyz
x,y,z
-x,-y,-z
loop_
_atom_site_type_symbol
_atom_site_label
_atom_site_fract_x
_atom_site_fract_y
_atom_site_fract_z
Si Si1 0.949275 0.017159 0.115530
Si Si2 0.548919 0.419274 0.495326
Si Si3 0.652808 0.916871 0.958566
Si Si4 0.934272 0.697072 0.989267
Si Si5 0.268871 0.337968 0.388701
Si Si6 0.263683 0.860311 0.982065
Si Si7 0.264027 0.618530 0.503916
Si Si8 0.525514 0.917228 0.510020
O O1 0.863868 0.858195 0.403318
O O2 0.823027 0.008433 0.968057
O O3 0.000000 0.000000 0.000000
O O4 0.066566 0.185131 0.076646
O O5 0.418699 0.399395 0.334368
O O6 0.667402 0.578399 0.484872
O O7 0.639562 0.408434 0.457779
O O8 0.453917 0.260899 0.779227
O O9 0.606422 0.894866 0.746638
O O10 0.656182 0.024996 0.940678
O O11 0.886692 0.556661 0.286903
O O12 0.103030 0.798808 0.913238
O O13 0.808638 0.619102 0.844778
O O14 0.242086 0.708898 0.219500
O O15 0.370938 0.970653 0.739763
O O16 0.366616 0.746063 0.561959
O O17 0.500000 0.000000 0.500000
#
# Coordination Sequence:
#
# PCOD9010591 Si02
#       8
#     2   2   2   2   2   2   2   2
#     4  10  22  39  63  88 130 170 207 269 325 387
#     4  10  21  40  66  94 134 166 210 287 313 376
#     4  10  21  40  63  96 129 168 215 263 326 379
#     4  11  25  41  65  95 131 174 216 267 328 395
#     4  10  22  41  63  94 128 168 222 262 331 381
#     4  11  24  44  63  95 139 168 213 275 321 385
#     4  12  23  42  66  94 133 172 218 267 327 377
#     4  12  23  39  70  95 124 175 221 259 319 394
#
# _framework density 20.616237000000002
#
# number of rings (size 3 to 8) (size 9 to 14) (size 15 to 20)
#    0.000    1.250    2.500    3.375    1.750    1.500 
#    0.000    1.250    0.000    0.000    0.000    0.000 
#    0.000    0.000    0.000    0.000    0.000    0.000 
#
# Total GULP energy -89315.544239 kJ/mol
# GULP energy per Si atom -5582.221515 kJ/mol
# Density = 2.056931 g / cm^3
# Si number density = 20.616237 Si / 1000 Ang^3
#
#
#
# Elastic Constant Matrix: (Units=GPa)
#
#
# Indices 1 2 3 4 5 6 
#
# 1 87.6647 17.9947 0.5061 6.4431 -13.9162 -9.6171
# 2 17.9947 79.1804 16.4594 -11.3397 -10.3949 -6.6897
# 3 0.5061 16.4594 45.1740 0.9441 -1.3153 11.1889
# 4 6.4431 -11.3397 0.9441 30.6412 1.8903 4.4560
# 5 -13.9162 -10.3949 -1.3153 1.8903 33.3127 5.2680
# 6 -9.6171 -6.6897 11.1889 4.4560 5.2680 29.4123
#
#
#
# Elastic Compliance Matrix: (Units=1/GPa)
#
#
# Indices 1 2 3 4 5 6 
#
# 1 0.013438 -0.002897 0.000251 -0.004696 0.004423 0.003559
# 2 -0.002897 0.016288 -0.006946 0.006107 0.002618 0.004006
# 3 0.000251 -0.006946 0.027690 -0.001803 0.001021 -0.011941
# 4 -0.004696 0.006107 -0.001803 0.036722 -0.001458 -0.004763
# 5 0.004423 0.002618 0.001021 -0.001458 0.033458 -0.004118
# 6 0.003559 0.004006 -0.011941 -0.004763 -0.004118 0.042076
#
#
# Mechanical properties :
#
#
# Convention : Reuss Voigt Hill
#
# Bulk Modulus (GPa) = 26.15672 31.32662 28.74167
# Shear Modulus (GPa) = 24.80161 30.47718 27.63939
#
# Velocity S-wave (km/s) = 3.47221 3.84905 3.66548
# Velocity P-wave (km/s) = 5.36563 5.91453 5.64675
#
# Compressibility (1/GPa) = 0.03823109
#
# Stress axis : x y z
#
# Youngs Moduli (GPa) = 74.41545 61.39337 36.11463
#
# Poissons Ratio (x) = 0.17787 -0.00905
# Poissons Ratio (y) = 0.21560 0.25085
# Poissons Ratio (z) = -0.01864 0.42643
#
# Static dielectric constant tensor:
#      x y z
#    x 1.787000 -0.001660 0.058640 
#    y -0.001660 1.772350 0.015090 
#    z 0.058640 0.015090 1.779830 
# 
# From -- ./inp_files/97599.got.cif
#   From: 2010.05.17/outbox.cif.g08.bks.cpg/sg2_49_cif.got.tgz:97599.got - 2010.06.03 11:33:40.
