data_PCOD9010653
_publ_section_title
;
Structure prediction by ZEFSAII (Michael W. Deem and Ramdas Pophale) SiO2 
 PCOD9010653
Probable space group: P -1
;
_chemical_formula_sum "Si O2"
_cell_formula_units_Z 12
_cell_length_a 8.942231
_cell_length_b 12.019234
_cell_length_c 5.039558
_cell_angle_alpha 81.498845
_cell_angle_beta 67.418289
_cell_angle_gamma 82.658637
_cell_volume 493.126329
_symmetry_space_group_name_H-M "P -1"
_symmetry_group_IT_number 2
_symmetry_cell_setting 'triclinic'
loop_
_space_group_symop_operation_xyz
x,y,z
-x,-y,-z
loop_
_atom_site_type_symbol
_atom_site_label
_atom_site_fract_x
_atom_site_fract_y
_atom_site_fract_z
Si Si1 0.035629 0.231046 0.950923
Si Si2 0.709431 0.332060 0.393858
Si Si3 0.841896 0.894038 0.560206
Si Si4 0.313018 0.881248 0.197552
Si Si5 0.887530 0.534867 0.314016
Si Si6 0.500744 0.835281 0.577834
O O1 0.039821 0.135206 0.758453
O O2 0.139912 0.330868 0.734463
O O3 0.106952 0.180934 0.193606
O O4 0.858504 0.289088 0.117010
O O5 0.731351 0.245024 0.656495
O O6 0.735639 0.458177 0.421025
O O7 0.545450 0.294429 0.382449
O O8 0.670008 0.858596 0.577645
O O9 0.812411 0.022367 0.633099
O O10 0.470037 0.886448 0.287022
O O11 0.364797 0.889436 0.856409
O O12 0.000000 0.500000 0.500000
O O13 0.000000 0.500000 0.000000
#
# Coordination Sequence:
#
# PCOD9010653 Si02
#       6
#     2   2   2   2   2   2
#     4  11  24  38  61  92 122 153 198 251 306 340
#     4   9  24  39  66  87 116 158 212 237 290 355
#     4  12  23  40  60  91 127 156 191 250 308 347
#     4  10  22  38  66  84 121 160 207 233 292 364
#     4  10  21  40  64  84 118 160 200 238 293 365
#     4  10  22  40  62  87 118 165 205 231 291 367
#
# _framework density 24.334533
#
# number of rings (size 3 to 8) (size 9 to 14) (size 15 to 20)
#    1.000    0.667    0.000    5.000    7.000    1.333 
#    0.000    1.667    0.000    0.000    0.000    0.000 
#    0.000    0.000    0.000    0.000    0.000    0.000 
#
# Total GULP energy -67065.203501 kJ/mol
# GULP energy per Si atom -5588.766958 kJ/mol
# Density = 2.427915 g / cm^3
# Si number density = 24.334533 Si / 1000 Ang^3
#
#
#
# Elastic Constant Matrix: (Units=GPa)
#
#
# Indices 1 2 3 4 5 6 
#
# 1 75.6356 23.6402 14.6867 0.6107 21.0720 27.2255
# 2 23.6402 97.4326 1.9981 -5.0998 10.4140 25.9034
# 3 14.6867 1.9981 75.4298 10.0758 35.0803 -6.2567
# 4 0.6107 -5.0998 10.0758 36.9563 -0.6239 -4.3333
# 5 21.0720 10.4140 35.0803 -0.6239 43.4701 5.9984
# 6 27.2255 25.9034 -6.2567 -4.3333 5.9984 40.9498
#
#
#
# Elastic Compliance Matrix: (Units=1/GPa)
#
#
# Indices 1 2 3 4 5 6 
#
# 1 0.020055 -0.000981 -0.001668 -0.001550 -0.006482 -0.012182
# 2 -0.000981 0.012573 -0.000210 0.000961 -0.001383 -0.007028
# 3 -0.001668 -0.000210 0.024168 -0.006082 -0.019723 0.007180
# 4 -0.001550 0.000961 -0.006082 0.029176 0.005605 0.001760
# 5 -0.006482 -0.001383 -0.019723 0.005605 0.042962 -0.003529
# 6 -0.012182 -0.007028 0.007180 0.001760 -0.003529 0.038766
#
#
# Mechanical properties :
#
#
# Convention : Reuss Voigt Hill
#
# Bulk Modulus (GPa) = 19.57798 36.57200 28.07499
# Shear Modulus (GPa) = 26.25443 38.15343 32.20393
#
# Velocity S-wave (km/s) = 3.28822 3.96393 3.64178
# Velocity P-wave (km/s) = 4.74124 6.00098 5.40792
#
# Compressibility (1/GPa) = 0.05107779
#
# Stress axis : x y z
#
# Youngs Moduli (GPa) = 49.86181 79.53804 41.37675
#
# Poissons Ratio (x) = 0.07806 0.06901
# Poissons Ratio (y) = 0.04893 0.00869
# Poissons Ratio (z) = 0.08316 0.01671
#
# Static dielectric constant tensor:
#      x y z
#    x 2.006740 0.072670 -0.052460 
#    y 0.072670 1.974140 -0.020230 
#    z -0.052460 -0.020230 1.887390 
# 
# From -- ./inp_files/27532.got.cif
#   From: 2010.05.17/outbox.cif.g08.bks.cpg/sg2_14_cif.got.tgz:27532.got - 2010.06.03 11:33:40.
