data_PCOD9010522
_publ_section_title
;
Structure prediction by ZEFSAII (Michael W. Deem and Ramdas Pophale) SiO2 
 PCOD9010522
Probable space group: P -1
;
_chemical_formula_sum "Si O2"
_cell_formula_units_Z 16
_cell_length_a 13.554481
_cell_length_b 11.636547
_cell_length_c 14.768797
_cell_angle_alpha 28.051529
_cell_angle_beta 139.510023
_cell_angle_gamma 133.775393
_cell_volume 709.667205
_symmetry_space_group_name_H-M "P -1"
_symmetry_group_IT_number 2
_symmetry_cell_setting 'triclinic'
loop_
_space_group_symop_operation_xyz
x,y,z
-x,-y,-z
loop_
_atom_site_type_symbol
_atom_site_label
_atom_site_fract_x
_atom_site_fract_y
_atom_site_fract_z
Si Si1 0.525664 0.628002 0.026932
Si Si2 0.272466 0.874278 0.153225
Si Si3 0.750318 0.931554 0.630587
Si Si4 0.877785 0.403090 0.053366
Si Si5 0.599941 0.234252 0.873320
Si Si6 0.177783 0.691602 0.733019
Si Si7 0.551228 0.330018 0.430903
Si Si8 0.062407 0.144616 0.029130
O O1 0.570094 0.443935 0.265279
O O2 0.500000 0.500000 0.000000
O O3 0.356057 0.709779 0.874776
O O4 0.652666 0.852442 0.965327
O O5 0.366021 0.771853 0.205412
O O6 0.303890 0.733115 0.366197
O O7 0.092766 0.848228 0.024692
O O8 0.570369 0.904369 0.504044
O O9 0.809698 0.989420 0.732483
O O10 0.831748 0.110771 0.489574
O O11 0.799016 0.653017 0.850547
O O12 0.919482 0.283280 0.260815
O O13 0.760318 0.224468 0.042356
O O14 0.000000 0.500000 0.000000
O O15 0.525655 0.473039 0.694413
O O16 0.500000 0.000000 0.000000
O O17 0.130443 0.415024 0.860888
O O18 0.000000 0.000000 0.000000
#
# Coordination Sequence:
#
# PCOD9010522 Si02
#       8
#     2   2   2   2   2   2   2   2
#     4  12  24  42  69  96 127 173 222 268 320 390
#     4  12  25  41  67 102 133 169 218 273 331 381
#     4  10  22  41  69  87 129 174 213 259 323 389
#     4  10  21  40  63  93 128 169 214 257 316 393
#     4  11  20  40  65  95 137 166 205 274 333 379
#     4  11  21  44  65  90 128 174 217 258 321 391
#     4  11  23  43  68  99 131 173 221 265 326 398
#     4  11  25  44  64  94 136 168 216 280 325 375
#
# _framework density 22.545780000000001
#
# number of rings (size 3 to 8) (size 9 to 14) (size 15 to 20)
#    0.000    1.000    6.250    2.625    0.000    3.500 
#    2.250    0.000    0.000    0.000    0.000    0.000 
#    0.000    0.000    0.000    0.000    0.000    0.000 
#
# Total GULP energy -89379.534696 kJ/mol
# GULP energy per Si atom -5586.220918 kJ/mol
# Density = 2.249446 g / cm^3
# Si number density = 22.545780 Si / 1000 Ang^3
#
#
#
# Elastic Constant Matrix: (Units=GPa)
#
#
# Indices 1 2 3 4 5 6 
#
# 1 71.0103 12.6682 15.7832 -3.7074 -19.1252 -13.9365
# 2 12.6682 122.1244 29.5248 -0.3074 -15.9177 3.5210
# 3 15.7832 29.5248 88.6279 2.1683 -37.7008 -11.8902
# 4 -3.7074 -0.3074 2.1683 29.8288 3.9589 -12.1517
# 5 -19.1252 -15.9177 -37.7008 3.9589 40.3091 9.7677
# 6 -13.9365 3.5210 -11.8902 -12.1517 9.7677 45.2584
#
#
#
# Elastic Compliance Matrix: (Units=1/GPa)
#
#
# Indices 1 2 3 4 5 6 
#
# 1 0.017112 -0.001220 0.000920 0.003130 0.006994 0.004937
# 2 -0.001220 0.009169 -0.002574 -0.000981 0.001290 -0.002307
# 3 0.000920 -0.002574 0.019901 -0.003411 0.018156 0.000878
# 4 0.003130 -0.000981 -0.003411 0.040705 -0.009258 0.013071
# 5 0.006994 0.001290 0.018156 -0.009258 0.047984 -0.006019
# 6 0.004937 -0.002307 0.000878 0.013071 -0.006019 0.028834
#
#
# Mechanical properties :
#
#
# Convention : Reuss Voigt Hill
#
# Bulk Modulus (GPa) = 24.73226 44.19056 34.46141
# Shear Modulus (GPa) = 27.33241 37.99835 32.66538
#
# Velocity S-wave (km/s) = 3.48560 4.10980 3.81050
# Velocity P-wave (km/s) = 5.21467 6.49334 5.88882
#
# Compressibility (1/GPa) = 0.04043302
#
# Stress axis : x y z
#
# Youngs Moduli (GPa) = 58.43974 109.05765 50.24824
#
# Poissons Ratio (x) = 0.13309 -0.04623
# Poissons Ratio (y) = 0.07132 0.12935
# Poissons Ratio (z) = -0.05376 0.28074
#
# Static dielectric constant tensor:
#      x y z
#    x 1.957360 -0.049250 0.042270 
#    y -0.049250 1.833820 0.010580 
#    z 0.042270 0.010580 1.832160 
# 
# From -- ./inp_files/447561.got.cif
#   From: 2010.05.17/outbox.cif.g08.bks.cpg/sg2_224_cif.got.tgz:447561.got - 2010.06.03 11:33:40.
