data_PCOD9010607
_publ_section_title
;
Structure prediction by ZEFSAII (Michael W. Deem and Ramdas Pophale) SiO2 
 PCOD9010607
Probable space group: P -1
;
_chemical_formula_sum "Si O2"
_cell_formula_units_Z 14
_cell_length_a 11.382884
_cell_length_b 13.467568
_cell_length_c 8.143972
_cell_angle_alpha 72.473360
_cell_angle_beta 56.103419
_cell_angle_gamma 118.529113
_cell_volume 571.780851
_symmetry_space_group_name_H-M "P -1"
_symmetry_group_IT_number 2
_symmetry_cell_setting 'triclinic'
loop_
_space_group_symop_operation_xyz
x,y,z
-x,-y,-z
loop_
_atom_site_type_symbol
_atom_site_label
_atom_site_fract_x
_atom_site_fract_y
_atom_site_fract_z
Si Si1 0.742194 0.688276 0.313190
Si Si2 0.822912 0.428766 0.819953
Si Si3 0.851916 0.228338 0.037996
Si Si4 0.522883 0.839177 0.048623
Si Si5 0.356708 0.897862 0.383571
Si Si6 0.372061 0.480450 0.960025
Si Si7 0.134699 0.132747 0.171306
O O1 0.500000 0.500000 0.500000
O O2 0.602115 0.660694 0.584347
O O3 0.923262 0.866743 0.971334
O O4 0.901937 0.684326 0.247298
O O5 0.570687 0.268561 0.993249
O O6 0.000000 0.500000 0.500000
O O7 0.850381 0.352351 0.964654
O O8 0.811844 0.536929 0.845788
O O9 0.801641 0.177356 0.294193
O O10 0.632386 0.063273 0.167430
O O11 0.334967 0.779335 0.353546
O O12 0.662305 0.833366 0.036491
O O13 0.667551 0.024650 0.769317
O O14 0.500000 0.500000 0.000000
O O15 0.227815 0.299138 0.081271
O O16 0.000000 0.000000 0.500000
#
# Coordination Sequence:
#
# PCOD9010607 Si02
#       7
#     2   2   2   2   2   2   2
#     4  10  24  42  67  99 139 180 226 283 343 410
#     4  11  24  40  68  96 127 180 228 275 336 403
#     4  10  21  42  67  98 133 174 229 278 340 405
#     4  10  21  40  63  97 129 173 219 275 335 404
#     4   9  21  40  69  96 137 169 224 285 339 399
#     4  11  23  45  68  96 139 178 228 284 340 413
#     4  11  24  42  68  97 139 178 226 274 349 405
#
# _framework density 24.484905000000001
#
# number of rings (size 3 to 8) (size 9 to 14) (size 15 to 20)
#    0.000    1.714    1.429    1.714    4.000    6.857 
#    0.000    5.000    0.000    0.000    0.000    0.000 
#    0.000    0.000    0.000    0.000    0.000    0.000 
#
# Total GULP energy -78065.942759 kJ/mol
# GULP energy per Si atom -5576.138768 kJ/mol
# Density = 2.442918 g / cm^3
# Si number density = 24.484905 Si / 1000 Ang^3
#
#
#
# Elastic Constant Matrix: (Units=GPa)
#
#
# Indices 1 2 3 4 5 6 
#
# 1 122.3364 25.2341 27.9489 17.6891 -5.9389 -25.8898
# 2 25.2341 99.2360 27.3796 19.4123 -1.9105 -24.9533
# 3 27.9489 27.3796 117.5331 25.1484 13.2913 -13.2831
# 4 17.6891 19.4123 25.1484 33.0235 -4.7527 -9.1369
# 5 -5.9389 -1.9105 13.2913 -4.7527 49.1929 12.2462
# 6 -25.8898 -24.9533 -13.2831 -9.1369 12.2462 39.8055
#
#
#
# Elastic Compliance Matrix: (Units=1/GPa)
#
#
# Indices 1 2 3 4 5 6 
#
# 1 0.010029 -0.000355 -0.001069 -0.002896 -0.000117 0.005316
# 2 -0.000355 0.013154 -0.000921 -0.005124 -0.001521 0.007000
# 3 -0.001069 -0.000921 0.011352 -0.007582 -0.004503 0.002161
# 4 -0.002896 -0.005124 -0.007582 0.041462 0.005452 0.000214
# 5 -0.000117 -0.001521 -0.004503 0.005452 0.024168 -0.008716
# 6 0.005316 0.007000 0.002161 0.000214 -0.008716 0.036420
#
#
# Mechanical properties :
#
#
# Convention : Reuss Voigt Hill
#
# Bulk Modulus (GPa) = 33.50218 55.58118 44.54168
# Shear Modulus (GPa) = 33.06361 41.64056 37.35208
#
# Velocity S-wave (km/s) = 3.67872 4.12838 3.91002
# Velocity P-wave (km/s) = 5.63529 6.74346 6.21412
#
# Compressibility (1/GPa) = 0.02984881
#
# Stress axis : x y z
#
# Youngs Moduli (GPa) = 99.70596 76.02031 88.08634
#
# Poissons Ratio (x) = 0.02695 0.09413
# Poissons Ratio (y) = 0.03535 0.08109
# Poissons Ratio (z) = 0.10655 0.06998
#
# Static dielectric constant tensor:
#      x y z
#    x 2.477590 0.197920 0.442580 
#    y 0.197920 2.061360 0.051760 
#    z 0.442580 0.051760 2.484200 
# 
# From -- ./inp_files/272380.got.cif
#   From: 2010.05.17/outbox.cif.g08.bks.cpg/sg2_137_cif.got.tgz:272380.got - 2010.06.03 11:33:40.
