data_PCOD9010270
_publ_section_title
;
Structure prediction by ZEFSAII (Michael W. Deem and Ramdas Pophale) SiO2 
 PCOD9010270
Probable space group: P -1
;
_chemical_formula_sum "Si O2"
_cell_formula_units_Z 16
_cell_length_a 17.673303
_cell_length_b 6.881849
_cell_length_c 10.945758
_cell_angle_alpha 72.261468
_cell_angle_beta 51.367651
_cell_angle_gamma 48.400818
_cell_volume 763.817004
_symmetry_space_group_name_H-M "P -1"
_symmetry_group_IT_number 2
_symmetry_cell_setting 'triclinic'
loop_
_space_group_symop_operation_xyz
x,y,z
-x,-y,-z
loop_
_atom_site_type_symbol
_atom_site_label
_atom_site_fract_x
_atom_site_fract_y
_atom_site_fract_z
Si Si1 0.444356 0.349971 0.586874
Si Si2 0.738397 0.957248 0.972311
Si Si3 0.840663 0.545790 0.737909
Si Si4 0.287172 0.636499 0.243072
Si Si5 0.170887 0.818866 0.759785
Si Si6 0.865707 0.923069 0.492280
Si Si7 0.512054 0.848240 0.694549
Si Si8 0.957686 0.785739 0.959570
O O1 0.500000 0.500000 0.500000
O O2 0.299118 0.554291 0.731485
O O3 0.449550 0.265457 0.458597
O O4 0.516129 0.088805 0.647510
O O5 0.678099 0.204813 0.894717
O O6 0.793662 0.698805 0.884608
O O7 0.631251 0.025512 0.158789
O O8 0.854330 0.908784 0.933999
O O9 0.760690 0.466076 0.784581
O O10 0.831735 0.746755 0.613371
O O11 0.985825 0.283234 0.645119
O O12 0.397483 0.387259 0.257788
O O13 0.176586 0.856794 0.405133
O O14 0.200263 0.926954 0.595794
O O15 0.104383 0.033658 0.892292
O O16 0.077430 0.767921 0.815369
O O17 0.000000 0.500000 0.000000
#
# Coordination Sequence:
#
# PCOD9010270 Si02
#       8
#     2   2   2   2   2   2   2   2
#     4  11  25  43  67  94 131 173 218 274 321 388
#     4  11  24  43  64  98 137 170 219 267 325 391
#     4  10  23  39  63  96 129 173 213 265 326 385
#     4  11  23  41  68  92 131 175 214 273 322 386
#     4  11  23  41  66  95 126 168 219 267 328 385
#     4  10  21  40  62  95 129 162 221 268 322 388
#     4  11  25  44  64  98 130 174 224 264 325 388
#     4  11  24  41  66  96 131 172 213 272 327 385
#
# _framework density 20.947427000000001
#
# number of rings (size 3 to 8) (size 9 to 14) (size 15 to 20)
#    0.000    1.250    1.250    3.750    1.750    8.500 
#    0.000    0.000    0.000    0.000    0.000    0.000 
#    0.000    0.000    0.000    0.000    0.000    0.000 
#
# Total GULP energy -89477.114500 kJ/mol
# GULP energy per Si atom -5592.319656 kJ/mol
# Density = 2.089975 g / cm^3
# Si number density = 20.947427 Si / 1000 Ang^3
#
#
#
# Elastic Constant Matrix: (Units=GPa)
#
#
# Indices 1 2 3 4 5 6 
#
# 1 54.2840 42.1696 -2.0126 3.8228 -5.5811 13.7062
# 2 42.1696 141.1030 21.3693 -4.4638 -8.8941 -2.8060
# 3 -2.0126 21.3693 39.5555 7.8516 -9.8979 4.7462
# 4 3.8228 -4.4638 7.8516 27.8512 -5.9734 9.6458
# 5 -5.5811 -8.8941 -9.8979 -5.9734 27.5316 -2.8305
# 6 13.7062 -2.8060 4.7462 9.6458 -2.8305 32.8090
#
#
#
# Elastic Compliance Matrix: (Units=1/GPa)
#
#
# Indices 1 2 3 4 5 6 
#
# 1 0.032159 -0.011444 0.011423 -0.003384 0.004687 -0.014667
# 2 -0.011444 0.012042 -0.008580 0.003857 -0.000070 0.005912
# 3 0.011423 -0.008580 0.035465 -0.008306 0.009735 -0.007354
# 4 -0.003384 0.003857 -0.008306 0.043912 0.006131 -0.009436
# 5 0.004687 -0.000070 0.009735 0.006131 0.041919 -0.001558
# 6 -0.014667 0.005912 -0.007354 -0.009436 -0.001558 0.040816
#
#
# Mechanical properties :
#
#
# Convention : Reuss Voigt Hill
#
# Bulk Modulus (GPa) = 16.00959 39.77725 27.89342
# Shear Modulus (GPa) = 20.46362 29.19944 24.83153
#
# Velocity S-wave (km/s) = 3.12894 3.73760 3.44673
# Velocity P-wave (km/s) = 4.55115 6.13649 5.40229
#
# Compressibility (1/GPa) = 0.06246257
#
# Stress axis : x y z
#
# Youngs Moduli (GPa) = 31.09588 83.04424 28.19711
#
# Poissons Ratio (x) = 0.95036 -0.32210
# Poissons Ratio (y) = 0.35586 0.24194
# Poissons Ratio (z) = -0.35521 0.71253
#
# Static dielectric constant tensor:
#      x y z
#    x 1.730010 -0.025900 -0.005320 
#    y -0.025900 1.762540 -0.015970 
#    z -0.005320 -0.015970 1.740610 
# 
# From -- ./inp_files/68988.got.cif
#   From: 2010.05.17/outbox.cif.g08.bks.cpg/sg2_35_cif.got.tgz:68988.got - 2010.06.03 11:33:40.
