data_PCOD9010471
_publ_section_title
;
Structure prediction by ZEFSAII (Michael W. Deem and Ramdas Pophale) SiO2 
 PCOD9010471
Probable space group: P -1
;
_chemical_formula_sum "Si O2"
_cell_formula_units_Z 14
_cell_length_a 9.310872
_cell_length_b 9.489411
_cell_length_c 7.788923
_cell_angle_alpha 74.805041
_cell_angle_beta 69.922977
_cell_angle_gamma 102.724601
_cell_volume 586.093821
_symmetry_space_group_name_H-M "P -1"
_symmetry_group_IT_number 2
_symmetry_cell_setting 'triclinic'
loop_
_space_group_symop_operation_xyz
x,y,z
-x,-y,-z
loop_
_atom_site_type_symbol
_atom_site_label
_atom_site_fract_x
_atom_site_fract_y
_atom_site_fract_z
Si Si1 0.411244 0.784821 0.684976
Si Si2 0.110861 0.904016 0.352635
Si Si3 0.320162 0.469879 0.999755
Si Si4 0.751901 0.963124 0.392512
Si Si5 0.629527 0.269340 0.681788
Si Si6 0.266962 0.164880 0.930109
Si Si7 0.129913 0.417284 0.423258
O O1 0.327950 0.638102 0.881220
O O2 0.605756 0.847996 0.605566
O O3 0.392942 0.739463 0.508796
O O4 0.329284 0.915276 0.690964
O O5 0.246134 0.819783 0.298334
O O6 0.943168 0.761174 0.432821
O O7 0.122754 0.952832 0.534617
O O8 0.159379 0.044190 0.152289
O O9 0.279159 0.340945 0.908932
O O10 0.500000 0.500000 0.000000
O O11 0.169735 0.408811 0.210770
O O12 0.785913 0.889621 0.224858
O O13 0.456776 0.181537 0.866572
O O14 0.701664 0.453744 0.628184
O O15 0.000000 0.500000 0.500000
#
# Coordination Sequence:
#
# PCOD9010471 Si02
#       7
#     2   2   2   2   2   2   2
#     4   9  20  38  62  95 128 161 220 271 299 378
#     4  10  21  40  63  91 133 170 210 265 312 391
#     4  12  24  40  64  99 128 166 216 261 321 384
#     4   9  20  38  63  97 127 166 216 264 315 372
#     4   9  19  39  65  96 119 170 223 259 311 376
#     4  11  22  37  66  95 129 167 216 256 332 365
#     4  10  23  42  63  94 128 170 214 257 324 377
#
# _framework density 23.886960999999999
#
# number of rings (size 3 to 8) (size 9 to 14) (size 15 to 20)
#    0.000    2.000    1.429    2.143    4.000    2.857 
#    5.143    2.857    0.000    0.000    0.000    0.000 
#    0.000    0.000    0.000    0.000    0.000    0.000 
#
# Total GULP energy -78220.005723 kJ/mol
# GULP energy per Si atom -5587.143266 kJ/mol
# Density = 2.383259 g / cm^3
# Si number density = 23.886961 Si / 1000 Ang^3
#
#
#
# Elastic Constant Matrix: (Units=GPa)
#
#
# Indices 1 2 3 4 5 6 
#
# 1 62.9502 31.4320 51.0492 -1.5185 -6.0782 10.9941
# 2 31.4320 157.9604 59.9562 7.9016 0.3217 33.1499
# 3 51.0492 59.9562 147.7598 -16.9792 -19.9005 3.7751
# 4 -1.5185 7.9016 -16.9792 56.4993 -1.2771 -8.4611
# 5 -6.0782 0.3217 -19.9005 -1.2771 19.2748 0.3962
# 6 10.9941 33.1499 3.7751 -8.4611 0.3962 16.9600
#
#
#
# Elastic Compliance Matrix: (Units=1/GPa)
#
#
# Indices 1 2 3 4 5 6 
#
# 1 0.028724 0.007221 -0.013789 -0.009645 -0.005232 -0.034354
# 2 0.007221 0.020924 -0.012882 -0.014283 -0.011299 -0.049574
# 3 -0.013789 -0.012882 0.019513 0.013036 0.016139 0.035900
# 4 -0.009645 -0.014283 0.013036 0.030544 0.011730 0.046232
# 5 -0.005232 -0.011299 0.016139 0.011730 0.067322 0.026164
# 6 -0.034354 -0.049574 0.035900 0.046232 0.026164 0.192591
#
#
# Mechanical properties :
#
#
# Convention : Reuss Voigt Hill
#
# Bulk Modulus (GPa) = 33.04478 72.61615 52.83046
# Shear Modulus (GPa) = 12.23671 33.62900 22.93285
#
# Velocity S-wave (km/s) = 2.26581 3.75619 3.10184
# Velocity P-wave (km/s) = 4.55072 7.01982 5.91552
#
# Compressibility (1/GPa) = 0.03026197
#
# Stress axis : x y z
#
# Youngs Moduli (GPa) = 34.81363 47.79095 51.24759
#
# Poissons Ratio (x) = -0.34509 0.70666
# Poissons Ratio (y) = -0.25139 0.66016
# Poissons Ratio (z) = 0.48005 0.61563
#
# Static dielectric constant tensor:
#      x y z
#    x 2.019780 -0.009700 -0.040250 
#    y -0.009700 1.986780 0.000650 
#    z -0.040250 0.000650 1.872770 
# 
# From -- ./inp_files/176234.got.cif
#   From: 2010.05.17/outbox.cif.g08.bks.cpg/sg2_89_cif.got.tgz:176234.got - 2010.06.03 11:33:40.
