data_PCOD9010229
_publ_section_title
;
Structure prediction by ZEFSAII (Michael W. Deem and Ramdas Pophale) SiO2 
 PCOD9010229
Probable space group: P -1
;
_chemical_formula_sum "Si O2"
_cell_formula_units_Z 15
_cell_length_a 6.596288
_cell_length_b 7.910868
_cell_length_c 19.020485
_cell_angle_alpha 49.860920
_cell_angle_beta 125.526444
_cell_angle_gamma 119.646752
_cell_volume 605.919539
_symmetry_space_group_name_H-M "P -1"
_symmetry_group_IT_number 2
_symmetry_cell_setting 'triclinic'
loop_
_space_group_symop_operation_xyz
x,y,z
-x,-y,-z
loop_
_atom_site_type_symbol
_atom_site_label
_atom_site_fract_x
_atom_site_fract_y
_atom_site_fract_z
Si Si1 0.113849 0.647179 0.093372
Si Si2 0.215024 0.430524 0.826605
Si Si3 0.260607 0.956899 0.311616
Si Si4 0.712609 0.726932 0.485737
Si Si5 0.377299 0.216896 0.397561
Si Si6 0.134677 0.495177 0.628634
Si Si7 0.500000 0.000000 0.000000
Si Si8 0.276944 0.285769 0.114509
O O1 0.041663 0.591305 0.174022
O O2 0.183164 0.454025 0.107479
O O3 0.862706 0.699498 0.990284
O O4 0.336252 0.859878 0.068910
O O5 0.194778 0.500061 0.722769
O O6 0.326231 0.201180 0.915102
O O7 0.423583 0.626475 0.852397
O O8 0.548268 0.908550 0.380432
O O9 0.054332 0.743887 0.351776
O O10 0.254579 0.149191 0.316371
O O11 0.202644 0.042854 0.200546
O O12 0.500000 0.500000 0.500000
O O13 0.786255 0.762672 0.572908
O O14 0.969236 0.676282 0.518932
O O15 0.597805 0.437767 0.374369
O O16 0.500000 0.000000 0.500000
#
# Coordination Sequence:
#
# PCOD9010229 Si02
#       8
#     2   2   2   2   2   2   1   2
#     4  10  22  39  65  91 128 177 212 272 330 384
#     4  11  22  39  65  92 130 173 217 268 329 388
#     4  10  21  40  62  92 130 168 214 263 324 384
#     4   9  22  40  63  93 126 164 215 264 317 387
#     4  10  22  41  64  89 127 171 209 271 324 378
#     4  11  23  41  65  94 131 170 218 268 319 389
#     4  10  22  38  60  90 128 160 220 264 320 384
#     4  10  21  41  60  92 132 164 224 270 319 395
#
# _framework density 24.755763000000002
#
# number of rings (size 3 to 8) (size 9 to 14) (size 15 to 20)
#    0.000    1.867    1.333    1.600    1.867    6.933 
#    0.000    5.333    0.000    0.000    0.000    0.000 
#    0.000    0.000    0.000    0.000    0.000    0.000 
#
# Total GULP energy -83565.377149 kJ/mol
# GULP energy per Si atom -5571.025143 kJ/mol
# Density = 2.469942 g / cm^3
# Si number density = 24.755763 Si / 1000 Ang^3
#
#
#
# Elastic Constant Matrix: (Units=GPa)
#
#
# Indices 1 2 3 4 5 6 
#
# 1 73.7133 20.0953 -1.9454 -14.2600 -8.7473 20.0075
# 2 20.0953 50.9338 5.6067 -6.1546 4.1828 16.8696
# 3 -1.9454 5.6067 71.8327 -12.4685 -16.1997 -0.6601
# 4 -14.2600 -6.1546 -12.4685 34.6551 -2.2121 -3.4870
# 5 -8.7473 4.1828 -16.1997 -2.2121 33.8590 -7.6900
# 6 20.0075 16.8696 -0.6601 -3.4870 -7.6900 33.2660
#
#
#
# Elastic Compliance Matrix: (Units=1/GPa)
#
#
# Indices 1 2 3 4 5 6 
#
# 1 0.019211 -0.005444 0.003755 0.008064 0.006513 -0.006368
# 2 -0.005444 0.027392 -0.004902 -0.001118 -0.010204 -0.013190
# 3 0.003755 -0.004902 0.018647 0.008582 0.012030 0.004278
# 4 0.008064 -0.001118 0.008582 0.035816 0.009062 0.001736
# 5 0.006513 -0.010204 0.012030 0.009062 0.041563 0.012054
# 6 -0.006368 -0.013190 0.004278 0.001736 0.012054 0.043633
#
#
# Mechanical properties :
#
#
# Convention : Reuss Voigt Hill
#
# Bulk Modulus (GPa) = 19.20541 27.11036 23.15789
# Shear Modulus (GPa) = 23.06269 31.87091 27.46680
#
# Velocity S-wave (km/s) = 3.05554 3.59195 3.33455
# Velocity P-wave (km/s) = 4.49702 5.30827 4.91940
#
# Compressibility (1/GPa) = 0.05206865
#
# Stress axis : x y z
#
# Youngs Moduli (GPa) = 52.05485 36.50643 53.62671
#
# Poissons Ratio (x) = 0.19874 -0.20137
# Poissons Ratio (y) = 0.28338 0.26288
# Poissons Ratio (z) = -0.19547 0.17895
#
# Static dielectric constant tensor:
#      x y z
#    x 1.949510 -0.031200 0.038960 
#    y -0.031200 1.995890 0.000750 
#    z 0.038960 0.000750 1.970500 
# 
# From -- ./inp_files/143362.got.cif
#   From: 2010.05.17/outbox.cif.g08.bks.cpg/sg2_72_cif.got.tgz:143362.got - 2010.06.03 11:33:40.
