data_PCOD9010526
_publ_section_title
;
Structure prediction by ZEFSAII (Michael W. Deem and Ramdas Pophale) SiO2 
 PCOD9010526
Probable space group: P -1
;
_chemical_formula_sum "Si O2"
_cell_formula_units_Z 14
_cell_length_a 13.739533
_cell_length_b 20.836661
_cell_length_c 6.170508
_cell_angle_alpha 117.934890
_cell_angle_beta 58.058650
_cell_angle_gamma 158.557873
_cell_volume 546.360354
_symmetry_space_group_name_H-M "P -1"
_symmetry_group_IT_number 2
_symmetry_cell_setting 'triclinic'
loop_
_space_group_symop_operation_xyz
x,y,z
-x,-y,-z
loop_
_atom_site_type_symbol
_atom_site_label
_atom_site_fract_x
_atom_site_fract_y
_atom_site_fract_z
Si Si1 0.609755 0.128795 0.428851
Si Si2 0.987516 0.200181 0.491667
Si Si3 0.848040 0.599177 0.063244
Si Si4 0.505068 0.686366 0.269239
Si Si5 0.132493 0.242289 0.920910
Si Si6 0.987929 0.457786 0.701104
Si Si7 0.912036 0.022713 0.516075
O O1 0.866212 0.255441 0.169863
O O2 0.718229 0.252938 0.661172
O O3 0.500000 0.000000 0.500000
O O4 0.343875 0.998464 0.393704
O O5 0.037558 0.223588 0.220825
O O6 0.113404 0.196637 0.431953
O O7 0.080500 0.332435 0.674603
O O8 0.635525 0.413862 0.954236
O O9 0.743272 0.617384 0.129739
O O10 0.265810 0.570108 0.534992
O O11 0.712008 0.873863 0.333748
O O12 0.656138 0.700838 0.194729
O O13 0.865317 0.050560 0.817247
O O14 0.000000 0.500000 0.500000
O O15 0.000000 0.500000 0.000000
O O16 0.000000 0.000000 0.500000
#
# Coordination Sequence:
#
# PCOD9010526 Si02
#       7
#     2   2   2   2   2   2   2
#     4  11  23  42  71  99 133 184 233 289 344 425
#     4  11  22  38  65  92 129 172 224 280 339 411
#     4  10  22  41  60  95 129 169 223 277 342 404
#     4  10  22  42  63  94 129 174 218 282 343 411
#     4  10  21  40  63  93 129 166 225 264 349 398
#     4  11  27  49  71 103 144 186 236 296 362 419
#     4   9  21  40  61  90 128 169 223 271 337 413
#
# _framework density 25.624112
#
# number of rings (size 3 to 8) (size 9 to 14) (size 15 to 20)
#    0.000    1.714    1.429    1.714    2.000    6.286 
#    7.714    0.000    0.000    0.000    0.000    0.000 
#    0.000    0.000    0.000    0.000    0.000    0.000 
#
# Total GULP energy -77970.832666 kJ/mol
# GULP energy per Si atom -5569.345190 kJ/mol
# Density = 2.556579 g / cm^3
# Si number density = 25.624112 Si / 1000 Ang^3
#
#
#
# Elastic Constant Matrix: (Units=GPa)
#
#
# Indices 1 2 3 4 5 6 
#
# 1 88.0194 23.0029 37.9473 5.1186 0.1389 -2.2486
# 2 23.0029 91.1411 78.6865 49.2863 -14.6657 -16.1441
# 3 37.9473 78.6865 220.6069 60.1531 -18.2784 -2.9407
# 4 5.1186 49.2863 60.1531 63.2460 -6.2279 -20.5248
# 5 0.1389 -14.6657 -18.2784 -6.2279 30.9166 -2.7358
# 6 -2.2486 -16.1441 -2.9407 -20.5248 -2.7358 44.5091
#
#
#
# Elastic Compliance Matrix: (Units=1/GPa)
#
#
# Indices 1 2 3 4 5 6 
#
# 1 0.013085 -0.003834 -0.002160 0.004036 -0.002267 0.000849
# 2 -0.003834 0.023766 -0.003593 -0.013339 0.006697 0.002450
# 3 -0.002160 -0.003593 0.007699 -0.005247 0.001514 -0.003230
# 4 0.004036 -0.013339 -0.005247 0.034176 -0.001618 0.010680
# 5 -0.002267 0.006697 0.001514 -0.001618 0.036447 0.003909
# 6 0.000849 0.002450 -0.003230 0.010680 0.003909 0.028350
#
#
# Mechanical properties :
#
#
# Convention : Reuss Voigt Hill
#
# Bulk Modulus (GPa) = 39.40759 75.44898 57.42828
# Shear Modulus (GPa) = 29.21282 45.07638 37.14460
#
# Velocity S-wave (km/s) = 3.38013 4.19876 3.81149
# Velocity P-wave (km/s) = 5.53590 7.28111 6.46764
#
# Compressibility (1/GPa) = 0.02537582
#
# Stress axis : x y z
#
# Youngs Moduli (GPa) = 76.42312 42.07630 129.88353
#
# Poissons Ratio (x) = 0.16134 0.28056
# Poissons Ratio (y) = 0.29303 0.46666
# Poissons Ratio (z) = 0.16508 0.15118
#
# Static dielectric constant tensor:
#      x y z
#    x 2.199010 0.208290 0.098580 
#    y 0.208290 2.155440 0.042580 
#    z 0.098580 0.042580 2.122080 
# 
# From -- ./inp_files/72068.got.cif
#   From: 2010.05.17/outbox.cif.g08.bks.cpg/sg2_37_cif.got.tgz:72068.got - 2010.06.03 11:33:40.
