data_PCOD9010160
_publ_section_title
;
Structure prediction by ZEFSAII (Michael W. Deem and Ramdas Pophale) SiO2 
 PCOD9010160
Probable space group: P -1
;
_chemical_formula_sum "Si O2"
_cell_formula_units_Z 16
_cell_length_a 7.047194
_cell_length_b 22.751026
_cell_length_c 13.979852
_cell_angle_alpha 27.815735
_cell_angle_beta 50.696719
_cell_angle_gamma 36.567938
_cell_volume 598.795512
_symmetry_space_group_name_H-M "P -1"
_symmetry_group_IT_number 2
_symmetry_cell_setting 'triclinic'
loop_
_space_group_symop_operation_xyz
x,y,z
-x,-y,-z
loop_
_atom_site_type_symbol
_atom_site_label
_atom_site_fract_x
_atom_site_fract_y
_atom_site_fract_z
Si Si1 0.884932 0.571388 0.793942
Si Si2 0.347864 0.765243 0.282001
Si Si3 0.709142 0.063624 0.572167
Si Si4 0.211377 0.532685 0.285405
Si Si5 0.410023 0.347062 0.820472
Si Si6 0.749004 0.984615 0.304622
Si Si7 0.690260 0.895278 0.994379
Si Si8 0.894548 0.334414 0.243487
O O1 0.544026 0.733654 0.623854
O O2 0.213215 0.503344 0.731365
O O3 0.894380 0.646676 0.780723
O O4 0.895641 0.417702 0.027908
O O5 0.642128 0.618407 0.469382
O O6 0.348833 0.692877 0.284575
O O7 0.034389 0.870425 0.298240
O O8 0.430888 0.880103 0.060011
O O9 0.537518 0.007995 0.650485
O O10 0.758375 0.988291 0.769596
O O11 0.000000 0.000000 0.500000
O O12 0.524078 0.460793 0.222807
O O13 0.916016 0.588588 0.229061
O O14 0.041982 0.701518 0.159536
O O15 0.600509 0.175437 0.069006
O O16 0.915895 0.864600 0.519122
O O17 0.500000 0.000000 0.000000
#
# Coordination Sequence:
#
# PCOD9010160 Si02
#       8
#     2   2   2   2   2   2   2   2
#     4  10  23  38  64  87 126 165 213 256 309 387
#     4  10  22  41  65  88 134 163 204 260 325 374
#     4  11  23  42  63  90 129 169 210 260 316 378
#     4  10  21  40  62  89 127 165 201 264 318 369
#     4  11  21  36  64  96 120 156 215 259 309 370
#     4  10  21  42  66  88 121 169 206 259 318 375
#     4  11  23  37  64  97 127 165 213 261 319 375
#     4   9  21  44  58  83 128 171 202 251 326 374
#
# _framework density 26.720309
#
# number of rings (size 3 to 8) (size 9 to 14) (size 15 to 20)
#    0.000    1.750    2.500    2.625    3.500    2.000 
#    0.000    1.875    0.000    0.000    0.000    0.000 
#    0.000    0.000    0.000    0.000    0.000    0.000 
#
# Total GULP energy -89507.785341 kJ/mol
# GULP energy per Si atom -5594.236584 kJ/mol
# Density = 2.665949 g / cm^3
# Si number density = 26.720309 Si / 1000 Ang^3
#
#
#
# Elastic Constant Matrix: (Units=GPa)
#
#
# Indices 1 2 3 4 5 6 
#
# 1 56.1576 6.2201 21.4481 0.7678 4.1364 -4.2206
# 2 6.2201 180.0948 70.0699 1.2729 0.8304 -9.7126
# 3 21.4481 70.0699 206.0393 5.0306 14.8506 -3.6308
# 4 0.7678 1.2729 5.0306 48.3858 -9.3750 -3.7826
# 5 4.1364 0.8304 14.8506 -9.3750 32.1169 2.8581
# 6 -4.2206 -9.7126 -3.6308 -3.7826 2.8581 44.1454
#
#
#
# Elastic Compliance Matrix: (Units=1/GPa)
#
#
# Indices 1 2 3 4 5 6 
#
# 1 0.018763 0.000175 -0.001842 -0.000325 -0.001822 0.001771
# 2 0.000175 0.006491 -0.002273 0.000323 0.000845 0.001231
# 3 -0.001842 -0.002273 0.006046 -0.001091 -0.002810 -0.000091
# 4 -0.000325 0.000323 -0.001091 0.022224 0.006900 0.001408
# 5 -0.001822 0.000845 -0.002810 0.006900 0.034830 -0.001883
# 6 0.001771 0.001231 -0.000091 0.001408 -0.001883 0.023328
#
#
# Mechanical properties :
#
#
# Convention : Reuss Voigt Hill
#
# Bulk Modulus (GPa) = 42.69929 70.86308 56.78118
# Shear Modulus (GPa) = 39.25621 47.89988 43.57804
#
# Velocity S-wave (km/s) = 3.83711 4.23855 4.04282
# Velocity P-wave (km/s) = 5.97043 7.10856 6.56421
#
# Compressibility (1/GPa) = 0.02341960
#
# Stress axis : x y z
#
# Youngs Moduli (GPa) = 53.29646 154.05755 165.40628
#
# Poissons Ratio (x) = -0.02695 0.30471
# Poissons Ratio (y) = -0.00932 0.37594
# Poissons Ratio (z) = 0.09818 0.35014
#
# Static dielectric constant tensor:
#      x y z
#    x 2.234860 0.072840 0.012240 
#    y 0.072840 2.125830 0.015330 
#    z 0.012240 0.015330 2.285430 
# 
# From -- ./inp_files/508913.got.cif
#   From: 2010.05.17/outbox.cif.g08.bks.cpg/sg2_255_cif.got.tgz:508913.got - 2010.06.03 11:33:40.
