data_PCOD9010505
_publ_section_title
;
Structure prediction by ZEFSAII (Michael W. Deem and Ramdas Pophale) SiO2 
 PCOD9010505
Probable space group: P -1
;
_chemical_formula_sum "Si O2"
_cell_formula_units_Z 14
_cell_length_a 17.921243
_cell_length_b 7.879814
_cell_length_c 9.161191
_cell_angle_alpha 102.265168
_cell_angle_beta 49.520236
_cell_angle_gamma 61.696823
_cell_volume 545.593480
_symmetry_space_group_name_H-M "P -1"
_symmetry_group_IT_number 2
_symmetry_cell_setting 'triclinic'
loop_
_space_group_symop_operation_xyz
x,y,z
-x,-y,-z
loop_
_atom_site_type_symbol
_atom_site_label
_atom_site_fract_x
_atom_site_fract_y
_atom_site_fract_z
Si Si1 0.065061 0.653972 0.583890
Si Si2 0.772676 0.883751 0.894166
Si Si3 0.290159 0.315505 0.828992
Si Si4 0.144485 0.417980 0.737757
Si Si5 0.243243 0.673533 0.172063
Si Si6 0.308637 0.835390 0.352695
Si Si7 0.533679 0.462970 0.626218
O O1 0.131479 0.370610 0.392327
O O2 0.069177 0.646722 0.749077
O O3 0.196701 0.600021 0.342162
O O4 0.871071 0.923602 0.811019
O O5 0.764278 0.781372 0.033248
O O6 0.580887 0.199594 0.138671
O O7 0.225280 0.406131 0.763995
O O8 0.500000 0.000000 0.500000
O O9 0.193475 0.615891 0.089521
O O10 0.281089 0.080693 0.438359
O O11 0.000000 0.500000 0.000000
O O12 0.197284 0.910051 0.376187
O O13 0.428824 0.454617 0.828331
O O14 0.298984 0.781368 0.525224
O O15 0.500000 0.500000 0.000000
O O16 0.500000 0.500000 0.500000
#
# Coordination Sequence:
#
# PCOD9010505 Si02
#       7
#     2   2   2   2   2   2   2
#     4  10  22  40  64  93 131 174 221 266 331 403
#     4  10  21  40  63  92 131 180 212 261 340 405
#     4  11  22  41  68 102 133 168 229 281 327 395
#     4  12  24  44  71  96 135 181 222 276 344 401
#     4  10  23  41  63  99 130 171 224 277 320 402
#     4  10  22  44  67  97 134 178 223 270 343 407
#     4  11  22  39  66  94 133 175 214 275 340 390
#
# _framework density 25.660131
#
# number of rings (size 3 to 8) (size 9 to 14) (size 15 to 20)
#    0.000    1.429    1.429    5.143    0.000    2.857 
#    2.571    7.857    0.000    0.000    0.000    0.000 
#    0.000    0.000    0.000    0.000    0.000    0.000 
#
# Total GULP energy -77937.907209 kJ/mol
# GULP energy per Si atom -5566.993372 kJ/mol
# Density = 2.560173 g / cm^3
# Si number density = 25.660131 Si / 1000 Ang^3
#
#
#
# Elastic Constant Matrix: (Units=GPa)
#
#
# Indices 1 2 3 4 5 6 
#
# 1 142.2194 43.1853 14.9656 -21.6322 33.4606 -37.6743
# 2 43.1853 50.2005 22.7896 -19.6153 8.4661 -15.1059
# 3 14.9656 22.7896 90.1159 -25.5256 1.4104 -16.1727
# 4 -21.6322 -19.6153 -25.5256 48.8845 3.8707 7.2879
# 5 33.4606 8.4661 1.4104 3.8707 38.2277 -8.3617
# 6 -37.6743 -15.1059 -16.1727 7.2879 -8.3617 62.1094
#
#
#
# Elastic Compliance Matrix: (Units=1/GPa)
#
#
# Indices 1 2 3 4 5 6 
#
# 1 0.013229 -0.007720 0.001838 0.003710 -0.009231 0.004947
# 2 -0.007720 0.031698 -0.004632 0.006788 -0.000572 0.000947
# 3 0.001838 -0.004632 0.014197 0.006033 -0.001099 0.002829
# 4 0.003710 0.006788 0.006033 0.028408 -0.007605 0.001115
# 5 -0.009231 -0.000572 -0.001099 -0.007605 0.035087 -0.000408
# 6 0.004947 0.000947 0.002829 0.001115 -0.000408 0.019883
#
#
# Mechanical properties :
#
#
# Convention : Reuss Voigt Hill
#
# Bulk Modulus (GPa) = 26.24945 49.37965 37.81455
# Shear Modulus (GPa) = 28.37252 43.28399 35.82825
#
# Velocity S-wave (km/s) = 3.32882 4.11155 3.74071
# Velocity P-wave (km/s) = 5.00266 6.46724 5.78152
#
# Compressibility (1/GPa) = 0.03809603
#
# Stress axis : x y z
#
# Youngs Moduli (GPa) = 75.59403 31.54776 70.43812
#
# Poissons Ratio (x) = 0.24354 -0.12950
# Poissons Ratio (y) = 0.58356 0.32630
# Poissons Ratio (z) = -0.13898 0.14614
#
# Static dielectric constant tensor:
#      x y z
#    x 2.157680 -0.079890 -0.064920 
#    y -0.079890 2.279760 0.117590 
#    z -0.064920 0.117590 2.212640 
# 
# From -- ./inp_files/182629.got.cif
#   From: 2010.05.17/outbox.cif.g08.bks.cpg/sg2_92_cif.got.tgz:182629.got - 2010.06.03 11:33:40.
