data_PCOD9010153
_publ_section_title
;
Structure prediction by ZEFSAII (Michael W. Deem and Ramdas Pophale) SiO2 
 PCOD9010153
Probable space group: P -1
;
_chemical_formula_sum "Si O2"
_cell_formula_units_Z 14
_cell_length_a 6.875071
_cell_length_b 8.347313
_cell_length_c 18.467589
_cell_angle_alpha 145.631692
_cell_angle_beta 94.843270
_cell_angle_gamma 90.220256
_cell_volume 591.029871
_symmetry_space_group_name_H-M "P -1"
_symmetry_group_IT_number 2
_symmetry_cell_setting 'triclinic'
loop_
_space_group_symop_operation_xyz
x,y,z
-x,-y,-z
loop_
_atom_site_type_symbol
_atom_site_label
_atom_site_fract_x
_atom_site_fract_y
_atom_site_fract_z
Si Si1 0.568416 0.029784 0.837474
Si Si2 0.655223 0.615073 0.212934
Si Si3 0.727235 0.960096 0.489123
Si Si4 0.021154 0.613671 0.435070
Si Si5 0.888160 0.137592 0.985699
Si Si6 0.710563 0.575254 0.949349
Si Si7 0.760809 0.167472 0.333331
O O1 0.674308 0.309745 0.904048
O O2 0.454496 0.803084 0.694460
O O3 0.737339 0.929567 0.854450
O O4 0.397340 0.160263 0.926062
O O5 0.727672 0.750803 0.341428
O O6 0.748221 0.333862 0.094288
O O7 0.419522 0.544252 0.169313
O O8 0.734658 0.837774 0.234612
O O9 0.838596 0.809310 0.500186
O O10 0.500000 0.000000 0.500000
O O11 0.854784 0.260336 0.582989
O O12 0.917124 0.292296 0.324046
O O13 0.164624 0.675200 0.531699
O O14 0.062157 0.326350 0.018692
O O15 0.000000 0.000000 0.000000
#
# Coordination Sequence:
#
# PCOD9010153 Si02
#       7
#     2   2   2   2   2   2   2
#     4   9  19  37  59  84 116 152 197 247 289 349
#     4   9  21  39  60  85 119 157 197 245 292 352
#     4  10  21  40  62  89 123 156 192 243 303 353
#     4   9  20  38  61  88 119 153 198 247 290 352
#     4  11  23  37  58  90 122 157 196 240 300 361
#     4   9  19  37  58  83 115 153 197 241 291 350
#     4   9  18  39  61  82 117 156 196 248 291 333
#
# _framework density 23.687467999999999
#
# number of rings (size 3 to 8) (size 9 to 14) (size 15 to 20)
#    0.000    2.571    0.000    1.286    0.000    8.000 
#    0.000   13.571    0.000    0.000    0.000    0.000 
#    0.000    0.000    0.000    0.000    0.000    0.000 
#
# Total GULP energy -78127.702233 kJ/mol
# GULP energy per Si atom -5580.550160 kJ/mol
# Density = 2.363355 g / cm^3
# Si number density = 23.687468 Si / 1000 Ang^3
#
#
#
# Elastic Constant Matrix: (Units=GPa)
#
#
# Indices 1 2 3 4 5 6 
#
# 1 117.9038 30.5952 38.2062 -15.0921 34.0923 -21.0308
# 2 30.5952 64.1961 33.9188 -13.4007 24.8689 -16.8317
# 3 38.2062 33.9188 74.6635 -12.9708 40.5841 -15.6543
# 4 -15.0921 -13.4007 -12.9708 23.8680 -8.9377 11.6815
# 5 34.0923 24.8689 40.5841 -8.9377 40.5019 -12.5596
# 6 -21.0308 -16.8317 -15.6543 11.6815 -12.5596 33.8238
#
#
#
# Elastic Compliance Matrix: (Units=1/GPa)
#
#
# Indices 1 2 3 4 5 6 
#
# 1 0.011928 -0.001321 -0.000523 0.002321 -0.007256 0.003021
# 2 -0.001321 0.023311 -0.004987 0.005187 -0.005638 0.004586
# 3 -0.000523 -0.004987 0.031258 0.003569 -0.026895 0.000441
# 4 0.002321 0.005187 0.003569 0.054480 -0.000867 -0.013461
# 5 -0.007256 -0.005638 -0.026895 -0.000867 0.062137 0.003607
# 6 0.003021 0.004586 0.000441 -0.013461 0.003607 0.039918
#
#
# Mechanical properties :
#
#
# Convention : Reuss Voigt Hill
#
# Bulk Modulus (GPa) = 18.92657 51.35598 35.14128
# Shear Modulus (GPa) = 19.66146 29.90827 24.78486
#
# Velocity S-wave (km/s) = 2.88416 3.55719 3.23821
# Velocity P-wave (km/s) = 4.37020 6.21283 5.37112
#
# Compressibility (1/GPa) = 0.05283576
#
# Stress axis : x y z
#
# Youngs Moduli (GPa) = 83.83786 42.89846 31.99179
#
# Poissons Ratio (x) = 0.05666 0.01672
# Poissons Ratio (y) = 0.11074 0.15954
# Poissons Ratio (z) = 0.04381 0.21393
#
# Static dielectric constant tensor:
#      x y z
#    x 1.917190 0.001160 0.019120 
#    y 0.001160 1.969690 -0.039990 
#    z 0.019120 -0.039990 1.961150 
# 
# From -- ./inp_files/51714.got.cif
#   From: 2010.05.17/outbox.cif.g08.bks.cpg/sg2_26_cif.got.tgz:51714.got - 2010.06.03 11:33:40.
