data_PCOD9010374
_publ_section_title
;
Structure prediction by ZEFSAII (Michael W. Deem and Ramdas Pophale) SiO2 
 PCOD9010374
Probable space group: P -1
;
_chemical_formula_sum "Si O2"
_cell_formula_units_Z 12
_cell_length_a 7.059726
_cell_length_b 8.553560
_cell_length_c 10.765100
_cell_angle_alpha 113.827212
_cell_angle_beta 104.165927
_cell_angle_gamma 52.713602
_cell_volume 473.116362
_symmetry_space_group_name_H-M "P -1"
_symmetry_group_IT_number 2
_symmetry_cell_setting 'triclinic'
loop_
_space_group_symop_operation_xyz
x,y,z
-x,-y,-z
loop_
_atom_site_type_symbol
_atom_site_label
_atom_site_fract_x
_atom_site_fract_y
_atom_site_fract_z
Si Si1 0.053833 0.737423 0.616960
Si Si2 0.379520 0.306431 0.424568
Si Si3 0.620480 0.185951 0.924568
Si Si4 0.053833 0.708744 0.883040
Si Si5 0.293019 0.805587 0.328035
Si Si6 0.706981 0.598605 0.828035
O O1 0.816921 0.738130 0.586351
O O2 0.162576 0.668712 0.750000
O O3 0.237967 0.556627 0.497818
O O4 0.960496 0.971658 0.649036
O O5 0.580039 0.202968 0.527489
O O6 0.437007 0.265095 0.274816
O O7 0.419961 0.283007 0.027490
O O8 0.762034 0.294594 0.997818
O O9 0.562993 0.202102 0.774816
O O10 0.816921 0.944949 0.913649
O O11 0.960496 0.567846 0.850964
O O12 0.267901 0.616050 0.250000
#
# Coordination Sequence:
#
# PCOD9010374 Si02
#       6
#     2   2   2   2   2   2
#     4   9  20  39  62  89 123 164 205 250 307 366
#     4  10  21  40  63  88 124 163 204 254 305 365
#     4  10  21  40  63  88 124 163 204 254 305 365
#     4   9  20  39  62  89 123 164 205 250 307 366
#     4  11  22  37  62  92 122 161 205 253 309 364
#     4  11  22  37  62  92 122 161 205 253 309 364
#
# _framework density 25.363738999999999
#
# number of rings (size 3 to 8) (size 9 to 14) (size 15 to 20)
#    0.000    2.000    0.000    3.000    0.000    1.333 
#    0.000    6.667    0.000    4.000    0.000    0.000 
#    0.000    0.000    0.000    0.000    0.000    0.000 
#
# Total GULP energy -67261.878118 kJ/mol
# GULP energy per Si atom -5605.156510 kJ/mol
# Density = 2.530601 g / cm^3
# Si number density = 25.363739 Si / 1000 Ang^3
#
#
#
# Elastic Constant Matrix: (Units=GPa)
#
#
# Indices 1 2 3 4 5 6 
#
# 1 78.8892 33.9665 36.4600 -10.6818 -7.6125 6.1070
# 2 33.9665 81.6997 30.7699 -9.7321 -4.2264 -3.6085
# 3 36.4600 30.7699 148.4509 -25.0513 -14.4999 -4.8621
# 4 -10.6818 -9.7321 -25.0513 41.5747 0.2723 2.1834
# 5 -7.6125 -4.2264 -14.4999 0.2723 41.2980 0.4961
# 6 6.1070 -3.6085 -4.8621 2.1834 0.4961 17.5466
#
#
#
# Elastic Compliance Matrix: (Units=1/GPa)
#
#
# Indices 1 2 3 4 5 6 
#
# 1 0.017834 -0.006413 -0.002861 0.001797 0.001718 -0.008591
# 2 -0.006413 0.015752 -0.001379 0.000948 -0.000120 0.004975
# 3 -0.002861 -0.001379 0.008719 0.004047 0.002336 0.002559
# 4 0.001797 0.000948 0.004047 0.027309 0.001702 -0.002755
# 5 0.001718 -0.000120 0.002336 0.001702 0.025338 -0.000904
# 6 -0.008591 0.004975 0.002559 -0.002755 -0.000904 0.062082
#
#
# Mechanical properties :
#
#
# Convention : Reuss Voigt Hill
#
# Bulk Modulus (GPa) = 47.62102 56.82583 52.22343
# Shear Modulus (GPa) = 26.97754 33.94007 30.45880
#
# Velocity S-wave (km/s) = 3.26487 3.66202 3.46913
# Velocity P-wave (km/s) = 5.74704 6.35087 6.05648
#
# Compressibility (1/GPa) = 0.02099913
#
# Stress axis : x y z
#
# Youngs Moduli (GPa) = 56.07359 63.48409 114.68603
#
# Poissons Ratio (x) = 0.40714 0.32813
# Poissons Ratio (y) = 0.35962 0.15810
# Poissons Ratio (z) = 0.16043 0.08752
#
# Static dielectric constant tensor:
#      x y z
#    x 1.996770 0.014900 -0.004390 
#    y 0.014900 2.013950 -0.007480 
#    z -0.004390 -0.007480 2.043420 
# 
# From -- ./inp_files/155906.got.cif
#   From: 2010.05.17/outbox.cif.g08.bks.cpg/sg2_78_cif.got.tgz:155906.got - 2010.06.03 11:33:40.
