data_PCOD9010705
_publ_section_title
;
Structure prediction by ZEFSAII (Michael W. Deem and Ramdas Pophale) SiO2 
 PCOD9010705
Probable space group: P -1
;
_chemical_formula_sum "Si O2"
_cell_formula_units_Z 10
_cell_length_a 8.860003
_cell_length_b 7.709401
_cell_length_c 6.892489
_cell_angle_alpha 60.756602
_cell_angle_beta 108.458703
_cell_angle_gamma 93.229726
_cell_volume 386.897635
_symmetry_space_group_name_H-M "P -1"
_symmetry_group_IT_number 2
_symmetry_cell_setting 'triclinic'
loop_
_space_group_symop_operation_xyz
x,y,z
-x,-y,-z
loop_
_atom_site_type_symbol
_atom_site_label
_atom_site_fract_x
_atom_site_fract_y
_atom_site_fract_z
Si Si1 0.129606 0.240031 0.203328
Si Si2 0.826762 0.567202 0.297978
Si Si3 0.521778 0.790423 0.233286
Si Si4 0.708411 0.179906 0.544063
Si Si5 0.198371 0.673202 0.097520
O O1 0.158127 0.445825 0.206200
O O2 0.234710 0.033527 0.407104
O O3 0.160906 0.297540 0.960124
O O4 0.941186 0.214965 0.152836
O O5 0.698260 0.689114 0.319940
O O6 0.741573 0.368011 0.326491
O O7 0.000000 0.500000 0.500000
O O8 0.463731 0.805401 0.425946
O O9 0.387383 0.670527 0.141917
O O10 0.500000 0.000000 0.000000
O O11 0.815100 0.212376 0.763008
#
# Coordination Sequence:
#
# PCOD9010705 Si02
#       5
#     2   2   2   2   2
#     4  11  21  42  63  92 122 166 196 256 304 360
#     4  12  22  37  66  93 120 161 209 249 302 365
#     4  10  21  40  64  89 124 164 200 250 306 359
#     4  10  22  40  63  88 124 162 201 249 306 354
#     4   9  22  39  63  88 128 158 206 245 305 365
#
# _framework density 25.846634999999999
#
# number of rings (size 3 to 8) (size 9 to 14) (size 15 to 20)
#    1.200    0.400    4.000    1.200    2.800    0.800 
#    0.000    9.000    0.000    0.000    0.000    0.000 
#    0.000    0.000    0.000    0.000    0.000    0.000 
#
# Total GULP energy -55873.809649 kJ/mol
# GULP energy per Si atom -5587.380965 kJ/mol
# Density = 2.578781 g / cm^3
# Si number density = 25.846635 Si / 1000 Ang^3
#
#
#
# Elastic Constant Matrix: (Units=GPa)
#
#
# Indices 1 2 3 4 5 6 
#
# 1 158.9004 17.2081 41.7059 -7.9736 20.8473 -17.8387
# 2 17.2081 102.2744 3.5244 -13.5318 27.5406 -2.8238
# 3 41.7059 3.5244 60.9467 -18.6981 12.5968 3.5555
# 4 -7.9736 -13.5318 -18.6981 45.0341 -1.1283 9.8520
# 5 20.8473 27.5406 12.5968 -1.1283 47.6438 -4.0816
# 6 -17.8387 -2.8238 3.5555 9.8520 -4.0816 40.1377
#
#
#
# Elastic Compliance Matrix: (Units=1/GPa)
#
#
# Indices 1 2 3 4 5 6 
#
# 1 0.008782 -0.001214 -0.006891 -0.002792 -0.000955 0.005016
# 2 -0.001214 0.012570 0.003415 0.005230 -0.007688 -0.002023
# 3 -0.006891 0.003415 0.026678 0.012680 -0.006479 -0.008957
# 4 -0.002792 0.005230 0.012680 0.030613 -0.005290 -0.010048
# 5 -0.000955 -0.007688 -0.006479 -0.005290 0.027758 0.003730
# 6 0.005016 -0.002023 -0.008957 -0.010048 0.003730 0.030640
#
#
# Mechanical properties :
#
#
# Convention : Reuss Voigt Hill
#
# Bulk Modulus (GPa) = 25.87272 49.66648 37.76960
# Shear Modulus (GPa) = 31.38658 43.87532 37.63095
#
# Velocity S-wave (km/s) = 3.48852 4.12457 3.81981
# Velocity P-wave (km/s) = 5.12427 6.47614 5.83946
#
# Compressibility (1/GPa) = 0.03865075
#
# Stress axis : x y z
#
# Youngs Moduli (GPa) = 113.87325 79.55157 37.48476
#
# Poissons Ratio (x) = 0.09656 0.25831
# Poissons Ratio (y) = 0.13822 -0.12802
# Poissons Ratio (z) = 0.78469 -0.27169
#
# Static dielectric constant tensor:
#      x y z
#    x 2.098850 -0.005760 -0.037980 
#    y -0.005760 2.041660 0.086460 
#    z -0.037980 0.086460 2.103960 
# 
# From -- ./inp_files/144165.got.cif
#   From: 2010.05.17/outbox.cif.g08.bks.cpg/sg2_73_cif.got.tgz:144165.got - 2010.06.03 11:33:40.
