data_PCOD9010211
_publ_section_title
;
Structure prediction by ZEFSAII (Michael W. Deem and Ramdas Pophale) SiO2 
 PCOD9010211
Probable space group: P -1
;
_chemical_formula_sum "Si O2"
_cell_formula_units_Z 15
_cell_length_a 5.097995
_cell_length_b 14.121155
_cell_length_c 14.021090
_cell_angle_alpha 41.122993
_cell_angle_beta 89.152856
_cell_angle_gamma 71.832252
_cell_volume 590.329449
_symmetry_space_group_name_H-M "P -1"
_symmetry_group_IT_number 2
_symmetry_cell_setting 'triclinic'
loop_
_space_group_symop_operation_xyz
x,y,z
-x,-y,-z
loop_
_atom_site_type_symbol
_atom_site_label
_atom_site_fract_x
_atom_site_fract_y
_atom_site_fract_z
Si Si1 0.641642 0.954904 0.726656
Si Si2 0.483122 0.215110 0.966243
Si Si3 0.273856 0.616246 0.490070
Si Si4 0.067035 0.651639 0.864942
Si Si5 0.096465 0.948130 0.180642
Si Si6 0.427865 0.513906 0.149788
Si Si7 0.500000 0.000000 0.000000
Si Si8 0.262529 0.326788 0.429469
O O1 0.564021 0.847460 0.883815
O O2 0.795954 0.829875 0.735152
O O3 0.876888 0.988914 0.762255
O O4 0.380106 0.132154 0.567386
O O5 0.284909 0.186637 0.911010
O O6 0.516435 0.374496 0.858653
O O7 0.793219 0.067482 0.039421
O O8 0.500000 0.500000 0.500000
O O9 0.078620 0.783412 0.310847
O O10 0.473711 0.657119 0.530763
O O11 0.033513 0.587538 0.572195
O O12 0.268579 0.618816 0.796092
O O13 0.262996 0.632807 0.972728
O O14 0.000000 0.500000 0.000000
O O15 0.392193 0.921258 0.147130
O O16 0.242220 0.427077 0.257557
#
# Coordination Sequence:
#
# PCOD9010211 Si02
#       8
#     2   2   2   2   2   2   1   2
#     4  10  21  42  70  92 138 188 229 289 355 433
#     4  11  20  41  64  95 133 181 228 292 349 422
#     4  11  25  45  69  99 144 192 236 294 359 427
#     4  11  23  44  70 102 139 182 240 299 379 416
#     4  10  21  40  62  91 131 182 234 280 355 411
#     4  11  26  41  72 106 137 185 240 309 355 430
#     4  10  24  34  64  98 126 174 238 290 334 424
#     4  11  26  46  72 103 144 189 244 291 365 429
#
# _framework density 25.40954
#
# number of rings (size 3 to 8) (size 9 to 14) (size 15 to 20)
#    0.000    1.333    4.000    0.800    3.733    1.600 
#    0.000    0.667    0.000    0.000    0.000    0.000 
#    0.000    0.000    0.000    0.000    0.000    0.000 
#
# Total GULP energy -83648.466581 kJ/mol
# GULP energy per Si atom -5576.564439 kJ/mol
# Density = 2.535171 g / cm^3
# Si number density = 25.409540 Si / 1000 Ang^3
#
#
#
# Elastic Constant Matrix: (Units=GPa)
#
#
# Indices 1 2 3 4 5 6 
#
# 1 75.4742 11.2716 23.8502 8.6741 -16.7209 -23.3683
# 2 11.2716 131.8177 53.7321 -18.4992 -23.2248 -29.7537
# 3 23.8502 53.7321 91.3509 -20.5779 -20.2087 -12.2181
# 4 8.6741 -18.4992 -20.5779 30.9019 -1.1920 -6.5022
# 5 -16.7209 -23.2248 -20.2087 -1.1920 46.4436 13.3944
# 6 -23.3683 -29.7537 -12.2181 -6.5022 13.3944 48.8476
#
#
#
# Elastic Compliance Matrix: (Units=1/GPa)
#
#
# Indices 1 2 3 4 5 6 
#
# 1 0.018268 0.001983 -0.005775 -0.006227 0.002913 0.006875
# 2 0.001983 0.012254 -0.005046 0.005012 0.002737 0.007067
# 3 -0.005775 -0.005046 0.018697 0.011039 0.004047 -0.000800
# 4 -0.006227 0.005012 0.011039 0.046276 0.003976 0.007905
# 5 0.002913 0.002737 0.004047 0.003976 0.026587 -0.002688
# 6 0.006875 0.007067 -0.000800 0.007905 -0.002688 0.029655
#
#
# Mechanical properties :
#
#
# Convention : Reuss Voigt Hill
#
# Bulk Modulus (GPa) = 31.70124 52.92786 42.31455
# Shear Modulus (GPa) = 27.78891 39.22457 33.50674
#
# Velocity S-wave (km/s) = 3.31061 3.93325 3.63529
# Velocity P-wave (km/s) = 5.20737 6.44224 5.85744
#
# Compressibility (1/GPa) = 0.03154451
#
# Stress axis : x y z
#
# Youngs Moduli (GPa) = 54.74084 81.60394 53.48314
#
# Poissons Ratio (x) = -0.16182 0.30884
# Poissons Ratio (y) = -0.10855 0.26988
# Poissons Ratio (z) = 0.31610 0.41178
#
# Static dielectric constant tensor:
#      x y z
#    x 1.855330 -0.093440 -0.013090 
#    y -0.093440 2.022630 0.005060 
#    z -0.013090 0.005060 2.114970 
# 
# From -- ./inp_files/89057.got.cif
#   From: 2010.05.17/outbox.cif.g08.bks.cpg/sg2_45_cif.got.tgz:89057.got - 2010.06.03 11:33:40.
