data_PCOD9010363
_publ_section_title
;
Structure prediction by ZEFSAII (Michael W. Deem and Ramdas Pophale) SiO2 
 PCOD9010363
Probable space group: P -1
;
_chemical_formula_sum "Si O2"
_cell_formula_units_Z 16
_cell_length_a 15.054494
_cell_length_b 13.501640
_cell_length_c 8.680099
_cell_angle_alpha 94.695568
_cell_angle_beta 80.246422
_cell_angle_gamma 28.135280
_cell_volume 711.228161
_symmetry_space_group_name_H-M "P -1"
_symmetry_group_IT_number 2
_symmetry_cell_setting 'triclinic'
loop_
_space_group_symop_operation_xyz
x,y,z
-x,-y,-z
loop_
_atom_site_type_symbol
_atom_site_label
_atom_site_fract_x
_atom_site_fract_y
_atom_site_fract_z
Si Si1 0.894877 0.972475 0.143064
Si Si2 0.453070 0.194796 0.845716
Si Si3 0.249179 0.468723 0.611286
Si Si4 0.715345 0.781424 0.514772
Si Si5 0.566576 0.325671 0.521873
Si Si6 0.112796 0.395761 0.119030
Si Si7 0.358023 0.597381 0.916235
Si Si8 0.216567 0.062645 0.083623
O O1 0.806265 0.061923 0.354024
O O2 0.769342 0.185829 0.111364
O O3 0.812182 0.958620 0.075701
O O4 0.154108 0.730654 0.034034
O O5 0.323389 0.358380 0.749165
O O6 0.641603 0.929329 0.690162
O O7 0.568703 0.165852 0.904856
O O8 0.295502 0.294936 0.022849
O O9 0.256242 0.365321 0.485422
O O10 0.407956 0.398755 0.513820
O O11 0.999426 0.754700 0.737149
O O12 0.930873 0.597477 0.331371
O O13 0.500000 0.000000 0.500000
O O14 0.500000 0.500000 0.500000
O O15 0.521928 0.379976 0.721378
O O16 0.204982 0.192514 0.084497
O O17 0.000000 0.500000 0.000000
O O18 0.500000 0.500000 0.000000
#
# Coordination Sequence:
#
# PCOD9010363 Si02
#       8
#     2   2   2   2   2   2   2   2
#     4  10  23  41  64  94 125 165 201 256 325 370
#     4  11  23  40  60  90 125 163 215 252 309 363
#     4  10  21  40  63  87 125 162 206 262 304 369
#     4   9  19  36  61  85 119 168 201 254 307 353
#     4  10  22  42  65  93 125 161 205 255 318 376
#     4  11  20  38  59  85 124 162 205 254 301 361
#     4  10  22  43  70  90 123 158 206 264 316 376
#     4  11  23  38  63  91 125 165 206 255 306 374
#
# _framework density 22.496296000000001
#
# number of rings (size 3 to 8) (size 9 to 14) (size 15 to 20)
#    0.000    1.750    5.000    0.375    3.500    2.500 
#    2.250    2.500    0.000    0.000    0.000    0.000 
#    0.000    0.000    0.000    0.000    0.000    0.000 
#
# Total GULP energy -89325.130330 kJ/mol
# GULP energy per Si atom -5582.820646 kJ/mol
# Density = 2.244509 g / cm^3
# Si number density = 22.496296 Si / 1000 Ang^3
#
#
#
# Elastic Constant Matrix: (Units=GPa)
#
#
# Indices 1 2 3 4 5 6 
#
# 1 104.2102 35.4381 77.5233 0.5550 -10.5865 -26.8788
# 2 35.4381 68.6625 40.7344 2.6903 -1.3135 -25.2920
# 3 77.5233 40.7344 158.6501 21.8313 -2.4957 -23.3074
# 4 0.5550 2.6903 21.8313 22.0764 -2.8719 -0.3751
# 5 -10.5865 -1.3135 -2.4957 -2.8719 42.2750 -8.4603
# 6 -26.8788 -25.2920 -23.3074 -0.3751 -8.4603 40.3290
#
#
#
# Elastic Compliance Matrix: (Units=1/GPa)
#
#
# Indices 1 2 3 4 5 6 
#
# 1 0.019907 -0.002045 -0.009270 0.009922 0.006673 0.008120
# 2 -0.002045 0.021372 -0.002990 0.000872 0.002192 0.010780
# 3 -0.009270 -0.002990 0.013147 -0.012779 -0.002736 -0.001148
# 4 0.009922 0.000872 -0.012779 0.058392 0.006041 0.001584
# 5 0.006673 0.002192 -0.002736 0.006041 0.027664 0.010101
# 6 0.008120 0.010780 -0.001148 0.001584 0.010101 0.038439
#
#
# Mechanical properties :
#
#
# Convention : Reuss Voigt Hill
#
# Bulk Modulus (GPa) = 38.73434 70.99051 54.86243
# Shear Modulus (GPa) = 23.13364 32.79121 27.96242
#
# Velocity S-wave (km/s) = 3.21024 3.82203 3.52942
# Velocity P-wave (km/s) = 5.56743 7.14858 6.40697
#
# Compressibility (1/GPa) = 0.02581688
#
# Stress axis : x y z
#
# Youngs Moduli (GPa) = 50.23448 46.79036 76.06178
#
# Poissons Ratio (x) = 0.09569 0.70506
# Poissons Ratio (y) = 0.10273 0.22741
# Poissons Ratio (z) = 0.46565 0.13990
#
# Static dielectric constant tensor:
#      x y z
#    x 1.868880 0.039010 0.019920 
#    y 0.039010 1.882120 0.000190 
#    z 0.019920 0.000190 1.841260 
# 
# From -- ./inp_files/315432.got.cif
#   From: 2010.05.17/outbox.cif.g08.bks.cpg/sg2_158_cif.got.tgz:315432.got - 2010.06.03 11:33:40.
