data_PCOD9010558
_publ_section_title
;
Structure prediction by ZEFSAII (Michael W. Deem and Ramdas Pophale) SiO2 
 PCOD9010558
Probable space group: P -1
;
_chemical_formula_sum "Si O2"
_cell_formula_units_Z 16
_cell_length_a 8.173059
_cell_length_b 11.570459
_cell_length_c 10.672681
_cell_angle_alpha 122.509552
_cell_angle_beta 45.104814
_cell_angle_gamma 119.549112
_cell_volume 591.886005
_symmetry_space_group_name_H-M "P -1"
_symmetry_group_IT_number 2
_symmetry_cell_setting 'triclinic'
loop_
_space_group_symop_operation_xyz
x,y,z
-x,-y,-z
loop_
_atom_site_type_symbol
_atom_site_label
_atom_site_fract_x
_atom_site_fract_y
_atom_site_fract_z
Si Si1 0.112133 0.485220 0.274593
Si Si2 0.434111 0.549778 0.430151
Si Si3 0.180475 0.939784 0.485366
Si Si4 0.517770 0.900524 0.812739
Si Si5 0.001421 0.835876 0.113811
Si Si6 0.600781 0.691564 0.844928
Si Si7 0.865344 0.308645 0.806881
Si Si8 0.515368 0.247912 0.671019
O O1 0.189791 0.347707 0.207931
O O2 0.089980 0.532028 0.170050
O O3 0.317121 0.615696 0.280626
O O4 0.847652 0.488126 0.460616
O O5 0.500000 0.500000 0.500000
O O6 0.538515 0.455601 0.219619
O O7 0.504650 0.708269 0.438826
O O8 0.053480 0.799503 0.397972
O O9 0.349904 0.876803 0.451178
O O10 0.329894 0.031114 0.347134
O O11 0.032536 0.029800 0.703029
O O12 0.627401 0.781520 0.756419
O O13 0.235059 0.855012 0.912572
O O14 0.500000 0.000000 0.000000
O O15 0.749640 0.789653 0.158170
O O16 0.036073 0.720199 0.129482
O O17 0.416221 0.746665 0.064142
#
# Coordination Sequence:
#
# PCOD9010558 Si02
#       8
#     2   2   2   2   2   2   2   2
#     4  10  22  42  69  94 128 172 219 277 334 398
#     4  11  24  44  69 100 129 171 222 276 334 406
#     4  11  23  43  67  96 139 178 223 279 332 396
#     4  11  24  41  67 104 132 176 235 263 338 399
#     4  11  23  41  67  97 139 180 220 281 327 398
#     4  10  21  40  63  94 136 168 218 279 322 403
#     4  10  21  40  65  99 126 177 224 268 339 388
#     4  10  23  42  64  97 133 172 229 268 339 395
#
# _framework density 27.032232
#
# number of rings (size 3 to 8) (size 9 to 14) (size 15 to 20)
#    0.000    1.500    2.500    3.375    3.500    2.500 
#    0.000   20.625    2.750    0.000    0.000    0.000 
#    0.000    0.000    0.000    0.000    0.000    0.000 
#
# Total GULP energy -89342.940038 kJ/mol
# GULP energy per Si atom -5583.933752 kJ/mol
# Density = 2.697071 g / cm^3
# Si number density = 27.032232 Si / 1000 Ang^3
#
#
#
# Elastic Constant Matrix: (Units=GPa)
#
#
# Indices 1 2 3 4 5 6 
#
# 1 112.8285 39.2034 34.7964 13.2190 -35.1195 -14.3831
# 2 39.2034 119.5554 46.2892 -6.3359 -14.1531 -47.8338
# 3 34.7964 46.2892 137.4809 -13.4023 -21.7907 -11.4085
# 4 13.2190 -6.3359 -13.4023 43.9275 6.7160 -6.3790
# 5 -35.1195 -14.1531 -21.7907 6.7160 50.7889 5.1634
# 6 -14.3831 -47.8338 -11.4085 -6.3790 5.1634 70.0873
#
#
#
# Elastic Compliance Matrix: (Units=1/GPa)
#
#
# Indices 1 2 3 4 5 6 
#
# 1 0.014156 -0.003796 -0.001642 -0.006875 0.009062 -0.001247
# 2 -0.003796 0.014421 -0.002980 0.003823 -0.001308 0.009022
# 3 -0.001642 -0.002980 0.009140 0.002478 0.001708 -0.000784
# 4 -0.006875 0.003823 0.002478 0.027851 -0.006779 0.004636
# 5 0.009062 -0.001308 0.001708 -0.006779 0.027361 -0.001388
# 6 -0.001247 0.009022 -0.000784 0.004636 -0.001388 0.020566
#
#
# Mechanical properties :
#
#
# Convention : Reuss Voigt Hill
#
# Bulk Modulus (GPa) = 47.89567 67.82698 57.86133
# Shear Modulus (GPa) = 36.41892 49.59913 43.00902
#
# Velocity S-wave (km/s) = 3.67446 4.28812 3.99310
# Velocity P-wave (km/s) = 5.97985 7.04719 6.53535
#
# Compressibility (1/GPa) = 0.02087871
#
# Stress axis : x y z
#
# Youngs Moduli (GPa) = 70.64324 69.34525 109.40927
#
# Poissons Ratio (x) = 0.26326 0.17964
# Poissons Ratio (y) = 0.26819 0.32609
# Poissons Ratio (z) = 0.11599 0.20668
#
# Static dielectric constant tensor:
#      x y z
#    x 2.225040 0.013240 0.050740 
#    y 0.013240 2.225390 0.015830 
#    z 0.050740 0.015830 2.148840 
# 
# From -- ./inp_files/390909.got.cif
#   From: 2010.05.17/outbox.cif.g08.bks.cpg/sg2_196_cif.got.tgz:390909.got - 2010.06.03 11:33:40.
