data_PCOD9010074
_publ_section_title
;
Structure prediction by ZEFSAII (Michael W. Deem and Ramdas Pophale) SiO2 
 PCOD9010074
Probable space group: P -1
;
_chemical_formula_sum "Si O2"
_cell_formula_units_Z 14
_cell_length_a 10.526725
_cell_length_b 10.836111
_cell_length_c 11.208087
_cell_angle_alpha 65.510593
_cell_angle_beta 56.923680
_cell_angle_gamma 29.485244
_cell_volume 521.583322
_symmetry_space_group_name_H-M "P -1"
_symmetry_group_IT_number 2
_symmetry_cell_setting 'triclinic'
loop_
_space_group_symop_operation_xyz
x,y,z
-x,-y,-z
loop_
_atom_site_type_symbol
_atom_site_label
_atom_site_fract_x
_atom_site_fract_y
_atom_site_fract_z
Si Si1 0.544358 0.537558 0.833295
Si Si2 0.364848 0.900534 0.629887
Si Si3 0.159291 0.160683 0.062863
Si Si4 0.379469 0.289735 0.856358
Si Si5 0.424433 0.195481 0.220212
Si Si6 0.097911 0.811884 0.432465
Si Si7 0.171278 0.484089 0.625770
O O1 0.305378 0.802364 0.772258
O O2 0.701308 0.559342 0.785000
O O3 0.698574 0.334191 0.731929
O O4 0.500000 0.500000 0.000000
O O5 0.383396 0.992850 0.689979
O O6 0.681729 0.672100 0.507917
O O7 0.169961 0.049553 0.555852
O O8 0.254352 0.246230 0.995804
O O9 0.342859 0.967989 0.936440
O O10 0.823092 0.432718 0.109813
O O11 0.288945 0.971871 0.177872
O O12 0.319994 0.323128 0.734010
O O13 0.157502 0.305145 0.286298
O O14 0.226509 0.602453 0.538390
O O15 0.000000 0.000000 0.500000
#
# Coordination Sequence:
#
# PCOD9010074 Si02
#       7
#     2   2   2   2   2   2   2
#     4   9  23  48  69 101 141 186 249 300 365 445
#     4   9  24  43  68 101 134 182 243 296 371 434
#     4  10  21  40  61  98 148 193 238 292 365 447
#     4  10  22  38  62  98 148 193 238 289 365 452
#     4  10  22  43  69 106 140 185 235 305 376 442
#     4  11  26  47  71 103 145 193 253 303 372 449
#     4  11  23  42  69 106 145 185 234 307 374 446
#
# _framework density 26.841346999999999
#
# number of rings (size 3 to 8) (size 9 to 14) (size 15 to 20)
#    0.857    1.143    0.000    3.000    4.000    6.857 
#    2.571    0.000    0.000    0.000    0.000    0.000 
#    0.000    0.000    0.000    0.000    0.000    0.000 
#
# Total GULP energy -78019.542980 kJ/mol
# GULP energy per Si atom -5572.824499 kJ/mol
# Density = 2.678026 g / cm^3
# Si number density = 26.841347 Si / 1000 Ang^3
#
#
#
# Elastic Constant Matrix: (Units=GPa)
#
#
# Indices 1 2 3 4 5 6 
#
# 1 65.7638 47.4119 61.8727 -0.3742 18.1520 5.0517
# 2 47.4119 137.7476 61.0711 -18.6853 7.0589 -15.3538
# 3 61.8727 61.0711 178.6120 -0.5926 26.1209 -1.4597
# 4 -0.3742 -18.6853 -0.5926 46.1979 2.7539 -2.9321
# 5 18.1520 7.0589 26.1209 2.7539 43.2281 -2.9754
# 6 5.0517 -15.3538 -1.4597 -2.9321 -2.9754 40.6898
#
#
#
# Elastic Compliance Matrix: (Units=1/GPa)
#
#
# Indices 1 2 3 4 5 6 
#
# 1 0.030102 -0.008416 -0.006504 -0.003290 -0.007673 -0.007944
# 2 -0.008416 0.012057 -0.001518 0.005022 0.002582 0.006091
# 3 -0.006504 -0.001518 0.008698 -0.000400 -0.002227 0.000355
# 4 -0.003290 0.005022 -0.000400 0.023925 -0.000447 0.003980
# 5 -0.007673 0.002582 -0.002227 -0.000447 0.027571 0.003831
# 6 -0.007944 0.006091 0.000355 0.003980 0.003831 0.028441
#
#
# Mechanical properties :
#
#
# Convention : Reuss Voigt Hill
#
# Bulk Modulus (GPa) = 55.61409 80.31498 67.96453
# Shear Modulus (GPa) = 29.47011 40.14100 34.80556
#
# Velocity S-wave (km/s) = 3.31711 3.87135 3.60490
# Velocity P-wave (km/s) = 5.95277 7.06896 6.53474
#
# Compressibility (1/GPa) = 0.01798105
#
# Stress axis : x y z
#
# Youngs Moduli (GPa) = 33.22075 82.93653 114.96818
#
# Poissons Ratio (x) = 0.69800 0.74770
# Poissons Ratio (y) = 0.27959 0.17457
# Poissons Ratio (z) = 0.21605 0.12593
#
# Static dielectric constant tensor:
#      x y z
#    x 2.163560 -0.014810 -0.021860 
#    y -0.014810 2.196680 0.004400 
#    z -0.021860 0.004400 2.093080 
# 
# From -- ./inp_files/425609.got.cif
#   From: 2010.05.17/outbox.cif.g08.bks.cpg/sg2_213_cif.got.tgz:425609.got - 2010.06.03 11:33:40.
