data_PCOD9010197
_publ_section_title
;
Structure prediction by ZEFSAII (Michael W. Deem and Ramdas Pophale) SiO2 
 PCOD9010197
Probable space group: P -1
;
_chemical_formula_sum "Si O2"
_cell_formula_units_Z 16
_cell_length_a 5.390858
_cell_length_b 8.326209
_cell_length_c 16.308826
_cell_angle_alpha 108.825722
_cell_angle_beta 78.548911
_cell_angle_gamma 81.471485
_cell_volume 661.042691
_symmetry_space_group_name_H-M "P -1"
_symmetry_group_IT_number 2
_symmetry_cell_setting 'triclinic'
loop_
_space_group_symop_operation_xyz
x,y,z
-x,-y,-z
loop_
_atom_site_type_symbol
_atom_site_label
_atom_site_fract_x
_atom_site_fract_y
_atom_site_fract_z
Si Si1 0.134884 0.644657 0.118626
Si Si2 0.493381 0.629505 0.598288
Si Si3 0.785096 0.253207 0.055915
Si Si4 0.587918 0.638694 0.205888
Si Si5 0.255927 0.244570 0.104677
Si Si6 0.296603 0.089015 0.456521
Si Si7 0.149572 0.752446 0.368328
Si Si8 0.951182 0.581963 0.690897
O O1 0.345949 0.708791 0.171425
O O2 0.207224 0.433359 0.091146
O O3 0.834974 0.712789 0.176349
O O4 0.169588 0.689166 0.029411
O O5 0.500000 0.500000 0.500000
O O6 0.530622 0.812336 0.592095
O O7 0.749039 0.573785 0.629425
O O8 0.217298 0.630879 0.657424
O O9 0.681771 0.431432 0.146924
O O10 0.552053 0.159579 0.059937
O O11 0.043831 0.155378 0.066772
O O12 0.453120 0.670239 0.309459
O O13 0.191862 0.287029 0.210155
O O14 0.042066 0.218281 0.534142
O O15 0.500000 0.000000 0.500000
O O16 0.172901 0.952718 0.391050
O O17 0.014993 0.614548 0.307523
#
# Coordination Sequence:
#
# PCOD9010197 Si02
#       8
#     2   2   2   2   2   2   2   2
#     4  10  18  29  49  83 127 163 190 241 309 373
#     4  12  26  43  65  90 123 159 214 264 318 374
#     4  10  17  29  50  81 129 162 192 238 310 371
#     4  10  19  30  51  79 120 161 196 238 308 364
#     4  10  18  30  49  80 119 164 188 238 302 364
#     4  11  27  44  66  86 123 167 215 263 315 370
#     4  11  24  40  64  90 123 168 210 254 319 371
#     4  12  24  40  65  92 125 164 209 254 317 376
#
# _framework density 24.204186
#
# number of rings (size 3 to 8) (size 9 to 14) (size 15 to 20)
#    0.000    1.250    3.750    5.625    7.000    0.000 
#    0.000    0.000    0.000    0.000    0.000    0.000 
#    0.000   34.000    0.000    0.000    0.000    0.000 
#
# Total GULP energy -89233.534750 kJ/mol
# GULP energy per Si atom -5577.095922 kJ/mol
# Density = 2.414910 g / cm^3
# Si number density = 24.204186 Si / 1000 Ang^3
#
#
#
# Elastic Constant Matrix: (Units=GPa)
#
#
# Indices 1 2 3 4 5 6 
#
# 1 242.5709 46.4601 79.7188 -12.0223 -29.7666 22.5256
# 2 46.4601 50.8910 42.4402 -1.6098 -10.8437 24.4352
# 3 79.7188 42.4402 108.7563 -11.7965 -31.2942 -3.1129
# 4 -12.0223 -1.6098 -11.7965 21.8252 2.8959 -5.4387
# 5 -29.7666 -10.8437 -31.2942 2.8959 56.9194 -11.3379
# 6 22.5256 24.4352 -3.1129 -5.4387 -11.3379 38.4179
#
#
#
# Elastic Compliance Matrix: (Units=1/GPa)
#
#
# Indices 1 2 3 4 5 6 
#
# 1 0.005959 0.000796 -0.004954 -0.000428 -0.000343 -0.004564
# 2 0.000796 0.081320 -0.043080 -0.030663 -0.019307 -0.065718
# 3 -0.004954 -0.043080 0.038338 0.022918 0.017441 0.041803
# 4 -0.000428 -0.030663 0.022918 0.062714 0.010005 0.033442
# 5 -0.000343 -0.019307 0.017441 0.010005 0.027455 0.023413
# 6 -0.004564 -0.065718 0.041803 0.033442 0.023413 0.085536
#
#
# Mechanical properties :
#
#
# Convention : Reuss Voigt Hill
#
# Bulk Modulus (GPa) = 32.11160 82.16181 57.13671
# Shear Modulus (GPa) = 12.30991 39.00578 25.65784
#
# Velocity S-wave (km/s) = 2.25763 4.01874 3.25939
# Velocity P-wave (km/s) = 4.48237 7.45337 6.14997
#
# Compressibility (1/GPa) = 0.03114139
#
# Stress axis : x y z
#
# Youngs Moduli (GPa) = 167.82484 12.29717 26.08350
#
# Poissons Ratio (x) = -0.00979 0.12922
# Poissons Ratio (y) = -0.13363 1.12367
# Poissons Ratio (z) = 0.83145 0.52976
#
# Static dielectric constant tensor:
#      x y z
#    x 2.064930 -0.094270 0.053520 
#    y -0.094270 2.047170 -0.058610 
#    z 0.053520 -0.058610 1.942910 
# 
# From -- ./inp_files/548218.got.cif
#   From: 2010.05.17/outbox.cif.g08.bks.cpg/sg2_275_cif.got.tgz:548218.got - 2010.06.03 11:33:40.
