data_PCOD9010519
_publ_section_title
;
Structure prediction by ZEFSAII (Michael W. Deem and Ramdas Pophale) SiO2 
 PCOD9010519
Probable space group: P -1
;
_chemical_formula_sum "Si O2"
_cell_formula_units_Z 15
_cell_length_a 11.282398
_cell_length_b 8.818645
_cell_length_c 8.995575
_cell_angle_alpha 55.286930
_cell_angle_beta 68.203558
_cell_angle_gamma 56.020469
_cell_volume 608.235450
_symmetry_space_group_name_H-M "P -1"
_symmetry_group_IT_number 2
_symmetry_cell_setting 'triclinic'
loop_
_space_group_symop_operation_xyz
x,y,z
-x,-y,-z
loop_
_atom_site_type_symbol
_atom_site_label
_atom_site_fract_x
_atom_site_fract_y
_atom_site_fract_z
Si Si1 0.315615 0.723145 0.526476
Si Si2 0.252234 0.387953 0.350265
Si Si3 0.316540 0.763240 0.148783
Si Si4 0.000000 0.000000 0.500000
Si Si5 0.839695 0.789557 0.958564
Si Si6 0.599205 0.711884 0.371354
Si Si7 0.993747 0.374243 0.309937
Si Si8 0.434366 0.171444 0.116860
O O1 0.332237 0.756165 0.324241
O O2 0.166627 0.899558 0.555732
O O3 0.461920 0.719219 0.520670
O O4 0.338791 0.488235 0.651931
O O5 0.262184 0.602205 0.211078
O O6 0.280224 0.321304 0.545613
O O7 0.107782 0.399828 0.344692
O O8 0.378678 0.224899 0.280351
O O9 0.207090 0.003968 0.040758
O O10 0.469954 0.718220 0.034966
O O11 0.060925 0.773960 0.502473
O O12 0.940301 0.792505 0.770420
O O13 0.708343 0.780411 0.937055
O O14 0.913810 0.586962 0.138428
O O15 0.539702 0.927454 0.195433
#
# Coordination Sequence:
#
# PCOD9010519 Si02
#       8
#     2   2   2   1   2   2   2   2
#     4  10  22  38  64  98 123 171 213 264 311 377
#     4  10  23  42  61  93 134 166 205 261 325 377
#     4  11  21  39  64  92 129 162 210 264 313 374
#     4  12  22  42  66  90 130 162 218 258 318 378
#     4  10  21  40  63  93 126 165 210 263 309 377
#     4  10  21  40  67  94 131 163 213 263 315 373
#     4  10  23  41  65  90 124 168 214 257 315 378
#     4  11  21  37  66  97 123 163 213 264 315 376
#
# _framework density 24.661504999999998
#
# number of rings (size 3 to 8) (size 9 to 14) (size 15 to 20)
#    0.000    1.600    2.667    2.000    1.867    2.667 
#    0.000    8.000    5.867    0.000    0.000    0.000 
#    0.000    0.000    0.000    0.000    0.000    0.000 
#
# Total GULP energy -83691.709742 kJ/mol
# GULP energy per Si atom -5579.447316 kJ/mol
# Density = 2.460537 g / cm^3
# Si number density = 24.661505 Si / 1000 Ang^3
#
#
#
# Elastic Constant Matrix: (Units=GPa)
#
#
# Indices 1 2 3 4 5 6 
#
# 1 105.8733 2.3568 24.0702 -15.9572 11.9038 13.0837
# 2 2.3568 72.2128 5.1772 -18.5169 12.6036 -8.1359
# 3 24.0702 5.1772 52.6791 -11.1616 11.1091 -0.1330
# 4 -15.9572 -18.5169 -11.1616 46.9079 -12.2670 -3.3490
# 5 11.9038 12.6036 11.1091 -12.2670 42.1119 -8.0304
# 6 13.0837 -8.1359 -0.1330 -3.3490 -8.0304 41.9546
#
#
#
# Elastic Compliance Matrix: (Units=1/GPa)
#
#
# Indices 1 2 3 4 5 6 
#
# 1 0.011480 0.000477 -0.004349 0.002182 -0.002324 -0.003772
# 2 0.000477 0.016186 0.000047 0.006081 -0.002654 0.002967
# 3 -0.004349 0.000047 0.022365 0.002981 -0.003629 0.000980
# 4 0.002182 0.006081 0.002981 0.026814 0.005286 0.003660
# 5 -0.002324 -0.002654 -0.003629 0.005286 0.028867 0.006146
# 6 -0.003772 0.002967 0.000980 0.003660 0.006146 0.027059
#
#
# Mechanical properties :
#
#
# Convention : Reuss Voigt Hill
#
# Bulk Modulus (GPa) = 23.59602 32.66372 28.12987
# Shear Modulus (GPa) = 32.35257 39.47228 35.91243
#
# Velocity S-wave (km/s) = 3.62590 4.00504 3.82018
# Velocity P-wave (km/s) = 5.20752 5.88734 5.55783
#
# Compressibility (1/GPa) = 0.04238004
#
# Stress axis : x y z
#
# Youngs Moduli (GPa) = 87.11007 61.78246 44.71252
#
# Poissons Ratio (x) = -0.02949 0.19447
# Poissons Ratio (y) = -0.04157 -0.00209
# Poissons Ratio (z) = 0.37888 -0.00289
#
# Static dielectric constant tensor:
#      x y z
#    x 1.938260 -0.124340 0.251580 
#    y -0.124340 2.011310 0.029770 
#    z 0.251580 0.029770 1.456800 
# 
# From -- ./inp_files/177526.got.cif
#   From: 2010.05.17/outbox.cif.g08.bks.cpg/sg2_89_cif.got.tgz:177526.got - 2010.06.03 11:33:40.
