data_PCOD9010267
_publ_section_title
;
Structure prediction by ZEFSAII (Michael W. Deem and Ramdas Pophale) SiO2 
 PCOD9010267
Probable space group: P -1
;
_chemical_formula_sum "Si O2"
_cell_formula_units_Z 16
_cell_length_a 15.439483
_cell_length_b 6.462499
_cell_length_c 11.153983
_cell_angle_alpha 87.510693
_cell_angle_beta 51.144859
_cell_angle_gamma 63.382057
_cell_volume 728.275678
_symmetry_space_group_name_H-M "P -1"
_symmetry_group_IT_number 2
_symmetry_cell_setting 'triclinic'
loop_
_space_group_symop_operation_xyz
x,y,z
-x,-y,-z
loop_
_atom_site_type_symbol
_atom_site_label
_atom_site_fract_x
_atom_site_fract_y
_atom_site_fract_z
Si Si1 0.213264 0.049715 0.013588
Si Si2 0.518148 0.679257 0.394072
Si Si3 0.589018 0.097090 0.964485
Si Si4 0.296684 0.156108 0.701048
Si Si5 0.953878 0.563243 0.254590
Si Si6 0.856177 0.344163 0.524352
Si Si7 0.092762 0.802180 0.250061
Si Si8 0.590476 0.399987 0.745962
O O1 0.068648 0.292991 0.118789
O O2 0.290368 0.091158 0.051528
O O3 0.195954 0.835163 0.083900
O O4 0.288906 0.010985 0.825499
O O5 0.500000 0.500000 0.500000
O O6 0.652262 0.671771 0.301950
O O7 0.492706 0.627113 0.283867
O O8 0.402694 0.958283 0.521054
O O9 0.636273 0.182605 0.807902
O O10 0.499486 0.340579 0.116059
O O11 0.500000 0.000000 0.000000
O O12 0.156909 0.304865 0.753068
O O13 0.886568 0.532510 0.432499
O O14 0.023918 0.703596 0.228653
O O15 0.847028 0.355606 0.676467
O O16 0.721690 0.383592 0.587243
O O17 0.978323 0.074075 0.388321
#
# Coordination Sequence:
#
# PCOD9010267 Si02
#       8
#     2   2   2   2   2   2   2   2
#     4  11  24  43  63  94 136 171 218 268 328 391
#     4  11  24  44  71  95 132 177 220 275 323 386
#     4  11  25  41  65  97 129 169 212 272 332 390
#     4  11  25  44  65 102 132 173 228 268 322 390
#     4  11  24  39  66  94 131 178 215 267 327 384
#     4  10  21  40  62  94 131 163 223 264 324 389
#     4  10  22  40  63  93 129 173 214 268 321 392
#     4  11  23  41  67  96 128 167 218 271 328 388
#
# _framework density 21.969701000000001
#
# number of rings (size 3 to 8) (size 9 to 14) (size 15 to 20)
#    0.000    1.250    1.250    3.750    1.750    7.500 
#    0.000    0.000    0.000    0.000    0.000    0.000 
#    0.000    0.000    0.000    0.000    0.000    0.000 
#
# Total GULP energy -89549.715148 kJ/mol
# GULP energy per Si atom -5596.857197 kJ/mol
# Density = 2.191970 g / cm^3
# Si number density = 21.969701 Si / 1000 Ang^3
#
#
#
# Elastic Constant Matrix: (Units=GPa)
#
#
# Indices 1 2 3 4 5 6 
#
# 1 165.1106 40.1053 26.8932 -11.9946 3.6399 16.8392
# 2 40.1053 42.4067 18.7579 -17.8152 5.9779 5.5786
# 3 26.8932 18.7579 61.8894 -22.1225 4.8261 14.5899
# 4 -11.9946 -17.8152 -22.1225 34.4005 1.7695 -7.5566
# 5 3.6399 5.9779 4.8261 1.7695 36.3570 -4.6947
# 6 16.8392 5.5786 14.5899 -7.5566 -4.6947 40.7501
#
#
#
# Elastic Compliance Matrix: (Units=1/GPa)
#
#
# Indices 1 2 3 4 5 6 
#
# 1 0.008306 -0.008119 -0.001729 -0.002929 0.000594 -0.002177
# 2 -0.008119 0.040171 -0.002349 0.017030 -0.006161 0.001145
# 3 -0.001729 -0.002349 0.023667 0.012373 -0.003907 -0.005593
# 4 -0.002929 0.017030 0.012373 0.045623 -0.006085 0.002208
# 5 0.000594 -0.006161 -0.003907 -0.006085 0.029829 0.004305
# 6 -0.002177 0.001145 -0.005593 0.002208 0.004305 0.028191
#
#
# Mechanical properties :
#
#
# Convention : Reuss Voigt Hill
#
# Bulk Modulus (GPa) = 20.94214 48.99107 34.96661
# Shear Modulus (GPa) = 23.13777 34.54486 28.84131
#
# Velocity S-wave (km/s) = 3.24877 3.96963 3.62716
# Velocity P-wave (km/s) = 4.86063 6.58471 5.78723
#
# Compressibility (1/GPa) = 0.04775061
#
# Stress axis : x y z
#
# Youngs Moduli (GPa) = 120.39097 24.89366 42.25292
#
# Poissons Ratio (x) = 0.20210 0.07305
# Poissons Ratio (y) = 0.97740 0.09927
# Poissons Ratio (z) = 0.20813 0.05848
#
# Static dielectric constant tensor:
#      x y z
#    x 1.764940 -0.015110 -0.006440 
#    y -0.015110 1.799870 -0.007850 
#    z -0.006440 -0.007850 1.818310 
# 
# From -- ./inp_files/68525.got.cif
#   From: 2010.05.17/outbox.cif.g08.bks.cpg/sg2_35_cif.got.tgz:68525.got - 2010.06.03 11:33:40.
