data_PCOD9010071
_publ_section_title
;
Structure prediction by ZEFSAII (Michael W. Deem and Ramdas Pophale) SiO2 
 PCOD9010071
Probable space group: P -1
;
_chemical_formula_sum "Si O2"
_cell_formula_units_Z 16
_cell_length_a 8.778982
_cell_length_b 11.622069
_cell_length_c 10.432785
_cell_angle_alpha 67.706213
_cell_angle_beta 99.368049
_cell_angle_gamma 66.514492
_cell_volume 839.207916
_symmetry_space_group_name_H-M "P -1"
_symmetry_group_IT_number 2
_symmetry_cell_setting 'triclinic'
loop_
_space_group_symop_operation_xyz
x,y,z
-x,-y,-z
loop_
_atom_site_type_symbol
_atom_site_label
_atom_site_fract_x
_atom_site_fract_y
_atom_site_fract_z
Si Si1 0.340638 0.999410 0.560276
Si Si2 0.252622 0.502212 0.487404
Si Si3 0.161203 0.989138 0.299193
Si Si4 0.844172 0.072968 0.054780
Si Si5 0.096392 0.311145 0.518831
Si Si6 0.599162 0.910843 0.844165
Si Si7 0.296304 0.152051 0.848507
Si Si8 0.354509 0.704540 0.272224
O O1 0.201750 0.158707 0.527116
O O2 0.500000 0.000000 0.500000
O O3 0.226567 0.959672 0.467125
O O4 0.457545 0.899933 0.737312
O O5 0.169693 0.414912 0.444425
O O6 0.284153 0.597340 0.348238
O O7 0.436137 0.386578 0.629256
O O8 0.115917 0.606071 0.534311
O O9 0.260411 0.837955 0.302028
O O10 0.243082 0.084557 0.212351
O O11 0.952245 0.065357 0.201605
O O12 0.766111 0.966448 0.100885
O O13 0.703754 0.224818 0.906826
O O14 0.000000 0.000000 0.000000
O O15 0.154385 0.278778 0.689957
O O16 0.479135 0.069121 0.827103
O O17 0.672774 0.810660 0.020719
#
# Coordination Sequence:
#
# PCOD9010071 Si02
#       8
#     2   2   2   2   2   2   2   2
#     4   9  18  32  53  79 111 133 165 215 273 317
#     4  10  21  33  51  75 104 149 171 214 245 300
#     4  10  18  33  54  81 105 132 165 220 272 312
#     4  10  18  29  50  79 106 130 163 222 268 300
#     4  10  20  34  52  81 106 133 180 213 255 310
#     4   9  17  27  47  78 102 130 154 205 279 300
#     4  10  17  29  50  78 107 124 161 226 269 295
#     4  10  19  34  51  78 108 136 179 207 261 314
#
# _framework density 19.065597
#
# number of rings (size 3 to 8) (size 9 to 14) (size 15 to 20)
#    0.000    2.250    2.500    3.750    1.750    0.000 
#    0.000    5.625    0.000    1.500   13.000    0.000 
#    0.000    0.000    0.000    0.000    0.000    0.000 
#
# Total GULP energy -89125.125635 kJ/mol
# GULP energy per Si atom -5570.320352 kJ/mol
# Density = 1.902220 g / cm^3
# Si number density = 19.065597 Si / 1000 Ang^3
#
#
#
# Elastic Constant Matrix: (Units=GPa)
#
#
# Indices 1 2 3 4 5 6 
#
# 1 69.5640 12.3883 20.1035 -7.7637 9.5405 6.6770
# 2 12.3883 44.9675 40.1023 -2.3605 13.7389 -0.7973
# 3 20.1035 40.1023 120.5726 14.2156 19.5232 15.5011
# 4 -7.7637 -2.3605 14.2156 33.4729 5.7561 5.3069
# 5 9.5405 13.7389 19.5232 5.7561 27.4766 -1.8227
# 6 6.6770 -0.7973 15.5011 5.3069 -1.8227 24.7587
#
#
#
# Elastic Compliance Matrix: (Units=1/GPa)
#
#
# Indices 1 2 3 4 5 6 
#
# 1 0.017101 -0.001333 -0.001494 0.006401 -0.005917 -0.005527
# 2 -0.001333 0.037471 -0.012337 0.008371 -0.010816 0.006700
# 3 -0.001494 -0.012337 0.014921 -0.005663 -0.003283 -0.008364
# 4 0.006401 0.008371 -0.005663 0.037241 -0.010629 -0.006676
# 5 -0.005917 -0.010816 -0.003283 -0.010629 0.049026 0.009190
# 6 -0.005527 0.006700 -0.008364 -0.006676 0.009190 0.049440
#
#
# Mechanical properties :
#
#
# Convention : Reuss Voigt Hill
#
# Bulk Modulus (GPa) = 25.53376 42.25467 33.89422
# Shear Modulus (GPa) = 20.11400 27.97564 24.04482
#
# Velocity S-wave (km/s) = 3.25158 3.83474 3.55514
# Velocity P-wave (km/s) = 5.24583 6.46667 5.88798
#
# Compressibility (1/GPa) = 0.03916384
#
# Stress axis : x y z
#
# Youngs Moduli (GPa) = 58.47703 26.68725 67.02107
#
# Poissons Ratio (x) = 0.03558 0.10012
# Poissons Ratio (y) = 0.07795 0.82687
# Poissons Ratio (z) = 0.08735 0.32925
#
# Static dielectric constant tensor:
#      x y z
#    x 1.755230 -0.007730 0.012320 
#    y -0.007730 1.647970 0.022290 
#    z 0.012320 0.022290 1.739630 
# 
# From -- ./inp_files/389791.got.cif
#   From: 2010.05.17/outbox.cif.g08.bks.cpg/sg2_195_cif.got.tgz:389791.got - 2010.06.03 11:33:40.
