data_PCOD9010314
_publ_section_title
;
Structure prediction by ZEFSAII (Michael W. Deem and Ramdas Pophale) SiO2 
 PCOD9010314
Probable space group: P -1
;
_chemical_formula_sum "Si O2"
_cell_formula_units_Z 16
_cell_length_a 19.472343
_cell_length_b 8.819424
_cell_length_c 25.093258
_cell_angle_alpha 37.848204
_cell_angle_beta 16.106765
_cell_angle_gamma 35.624403
_cell_volume 695.359632
_symmetry_space_group_name_H-M "P -1"
_symmetry_group_IT_number 2
_symmetry_cell_setting 'triclinic'
loop_
_space_group_symop_operation_xyz
x,y,z
-x,-y,-z
loop_
_atom_site_type_symbol
_atom_site_label
_atom_site_fract_x
_atom_site_fract_y
_atom_site_fract_z
Si Si1 0.039199 0.132603 0.606723
Si Si2 0.348244 0.871742 0.256518
Si Si3 0.268576 0.376701 0.713992
Si Si4 0.581666 0.529479 0.777708
Si Si5 0.947295 0.759141 0.195918
Si Si6 0.873540 0.276698 0.439082
Si Si7 0.145433 0.080189 0.105904
Si Si8 0.108123 0.199091 0.985315
O O1 0.260399 0.265027 0.396030
O O2 0.752850 0.322434 0.750525
O O3 0.095993 0.879445 0.596221
O O4 0.026610 0.072350 0.695233
O O5 0.361414 0.632455 0.274799
O O6 0.350714 0.767475 0.344239
O O7 0.597495 0.963830 0.039631
O O8 0.113533 0.119009 0.342203
O O9 0.500000 0.500000 0.500000
O O10 0.292548 0.197346 0.797957
O O11 0.199202 0.252351 0.746904
O O12 0.014948 0.619764 0.848402
O O13 0.267172 0.637770 0.987670
O O14 0.862869 0.568977 0.352363
O O15 0.895963 0.061949 0.163894
O O16 0.212043 0.035009 0.007026
O O17 0.000000 0.500000 0.000000
#
# Coordination Sequence:
#
# PCOD9010314 Si02
#       8
#     2   2   2   2   2   2   2   2
#     4  10  21  40  63 101 139 173 212 259 322 402
#     4  10  21  40  63  99 144 168 211 264 320 400
#     4  11  25  46  69  93 120 170 232 284 331 386
#     4  10  22  38  66 101 135 172 218 258 320 410
#     4  12  23  43  72  95 126 180 219 271 337 396
#     4  10  22  38  66 103 132 177 215 256 326 402
#     4  11  22  42  67  89 134 178 207 276 336 382
#     4  10  27  47  63  94 129 166 225 288 333 379
#
# _framework density 23.009675999999999
#
# number of rings (size 3 to 8) (size 9 to 14) (size 15 to 20)
#    0.000    1.500    2.500    1.125    7.000    2.000 
#    0.000    3.750    0.000    0.000    0.000    0.000 
#    0.000    0.000    0.000    0.000    0.000    0.000 
#
# Total GULP energy -89287.282679 kJ/mol
# GULP energy per Si atom -5580.455167 kJ/mol
# Density = 2.295731 g / cm^3
# Si number density = 23.009676 Si / 1000 Ang^3
#
#
#
# Elastic Constant Matrix: (Units=GPa)
#
#
# Indices 1 2 3 4 5 6 
#
# 1 130.6572 36.4525 49.7272 -27.8320 10.2700 -7.5743
# 2 36.4525 75.0296 28.9787 -28.4127 8.3211 4.8761
# 3 49.7272 28.9787 93.7949 -37.2626 3.2327 -3.9092
# 4 -27.8320 -28.4127 -37.2626 40.2227 -12.0647 -2.7430
# 5 10.2700 8.3211 3.2327 -12.0647 42.8350 -16.9343
# 6 -7.5743 4.8761 -3.9092 -2.7430 -16.9343 21.4176
#
#
#
# Elastic Compliance Matrix: (Units=1/GPa)
#
#
# Indices 1 2 3 4 5 6 
#
# 1 0.010634 -0.003347 -0.003460 0.002441 0.001034 0.005022
# 2 -0.003347 0.019611 -0.000687 0.009523 -0.003016 -0.006939
# 3 -0.003460 -0.000687 0.021291 0.021067 0.010868 0.014110
# 4 0.002441 0.009523 0.021067 0.062682 0.025905 0.031050
# 5 0.001034 -0.003016 0.010868 0.025905 0.047528 0.043933
# 6 0.005022 -0.006939 0.014110 0.031050 0.043933 0.091335
#
#
# Mechanical properties :
#
#
# Convention : Reuss Voigt Hill
#
# Bulk Modulus (GPa) = 27.36059 58.86649 43.11354
# Shear Modulus (GPa) = 17.84118 33.18328 25.51223
#
# Velocity S-wave (km/s) = 2.78758 3.80168 3.33342
# Velocity P-wave (km/s) = 4.71991 6.70144 5.79598
#
# Compressibility (1/GPa) = 0.03654892
#
# Stress axis : x y z
#
# Youngs Moduli (GPa) = 94.03686 50.99185 46.96785
#
# Poissons Ratio (x) = 0.17065 0.16253
# Poissons Ratio (y) = 0.31470 0.03225
# Poissons Ratio (z) = 0.32541 0.03501
#
# Static dielectric constant tensor:
#      x y z
#    x 1.878180 -0.024950 0.019140 
#    y -0.024950 1.913950 0.034160 
#    z 0.019140 0.034160 1.868320 
# 
# From -- ./inp_files/242140.got.cif
#   From: 2010.05.17/outbox.cif.g08.bks.cpg/sg2_122_cif.got.tgz:242140.got - 2010.06.03 11:33:40.
