data_PCOD9010312
_publ_section_title
;
Structure prediction by ZEFSAII (Michael W. Deem and Ramdas Pophale) SiO2 
 PCOD9010312
Probable space group: P -1
;
_chemical_formula_sum "Si O2"
_cell_formula_units_Z 16
_cell_length_a 18.119726
_cell_length_b 24.331246
_cell_length_c 5.035210
_cell_angle_alpha 106.886685
_cell_angle_beta 110.605490
_cell_angle_gamma 18.835740
_cell_volume 664.157350
_symmetry_space_group_name_H-M "P -1"
_symmetry_group_IT_number 2
_symmetry_cell_setting 'triclinic'
loop_
_space_group_symop_operation_xyz
x,y,z
-x,-y,-z
loop_
_atom_site_type_symbol
_atom_site_label
_atom_site_fract_x
_atom_site_fract_y
_atom_site_fract_z
Si Si1 0.260855 0.649774 0.751492
Si Si2 0.556433 0.758081 0.208560
Si Si3 0.469844 0.408715 0.405487
Si Si4 0.160724 0.119567 0.190433
Si Si5 0.161852 0.346909 0.821368
Si Si6 0.790591 0.189469 0.013261
Si Si7 0.731420 0.570208 0.649229
Si Si8 0.387879 0.014542 0.850174
O O1 0.334015 0.562734 0.464476
O O2 0.137309 0.796416 0.770196
O O3 0.095513 0.721626 0.812993
O O4 0.500000 0.500000 0.000000
O O5 0.740390 0.685793 0.355155
O O6 0.567946 0.710150 0.411252
O O7 0.306165 0.959809 0.124102
O O8 0.652166 0.656048 0.939418
O O9 0.583875 0.315012 0.136380
O O10 0.307834 0.469205 0.398574
O O11 0.681645 0.268307 0.691659
O O12 0.294882 0.062877 0.511150
O O13 0.183712 0.140142 0.980410
O O14 0.997737 0.403782 0.661703
O O15 0.395532 0.173737 0.042764
O O16 0.000000 0.500000 0.000000
O O17 0.000000 0.000000 0.000000
O O18 0.500000 0.000000 0.000000
#
# Coordination Sequence:
#
# PCOD9010312 Si02
#       8
#     2   2   2   2   2   2   2   2
#     4  10  26  49  73 102 143 183 230 290 355 421
#     4  10  21  40  63 100 134 180 231 280 335 398
#     4  11  25  44  67 104 136 174 228 281 354 413
#     4  11  24  44  71  97 139 184 231 280 353 404
#     4   9  20  40  61  93 132 178 219 272 332 388
#     4  11  25  48  72 101 132 176 224 289 348 417
#     4  11  22  37  67  97 137 173 230 279 335 410
#     4  11  25  44  66 102 139 181 232 280 339 415
#
# _framework density 24.090674
#
# number of rings (size 3 to 8) (size 9 to 14) (size 15 to 20)
#    0.000    1.500    0.000    4.500    5.250    7.000 
#    4.500    0.000    0.000    0.000    0.000    0.000 
#    0.000    0.000    0.000    0.000    0.000    0.000 
#
# Total GULP energy -89536.655460 kJ/mol
# GULP energy per Si atom -5596.040966 kJ/mol
# Density = 2.403584 g / cm^3
# Si number density = 24.090674 Si / 1000 Ang^3
#
#
#
# Elastic Constant Matrix: (Units=GPa)
#
#
# Indices 1 2 3 4 5 6 
#
# 1 138.1768 29.9777 20.6989 24.0457 8.2747 -3.3320
# 2 29.9777 97.2374 20.0496 20.8071 12.5267 -0.2986
# 3 20.6989 20.0496 89.0521 10.3566 -5.6540 17.5845
# 4 24.0457 20.8071 10.3566 26.3374 0.6409 -0.8672
# 5 8.2747 12.5267 -5.6540 0.6409 40.2528 3.1138
# 6 -3.3320 -0.2986 17.5845 -0.8672 3.1138 28.7493
#
#
#
# Elastic Compliance Matrix: (Units=1/GPa)
#
#
# Indices 1 2 3 4 5 6 
#
# 1 0.009002 -0.000705 -0.001658 -0.006896 -0.001913 0.002049
# 2 -0.000705 0.013480 -0.002469 -0.008869 -0.004393 0.001777
# 3 -0.001658 -0.002469 0.014651 -0.002712 0.003960 -0.009690
# 4 -0.006896 -0.008869 -0.002712 0.052337 0.002805 0.002042
# 5 -0.001913 -0.004393 0.003960 0.002805 0.027547 -0.005588
# 6 0.002049 0.001777 -0.009690 0.002042 -0.005588 0.041633
#
#
# Mechanical properties :
#
#
# Convention : Reuss Voigt Hill
#
# Bulk Modulus (GPa) = 36.40534 51.76873 44.08704
# Shear Modulus (GPa) = 28.17357 35.98390 32.07873
#
# Velocity S-wave (km/s) = 3.42348 3.86902 3.65305
# Velocity P-wave (km/s) = 5.54721 6.44165 6.01109
#
# Compressibility (1/GPa) = 0.02746850
#
# Stress axis : x y z
#
# Youngs Moduli (GPa) = 111.08081 74.18437 68.25538
#
# Poissons Ratio (x) = 0.05232 0.11315
# Poissons Ratio (y) = 0.07834 0.16855
# Poissons Ratio (z) = 0.18415 0.18319
#
# Static dielectric constant tensor:
#      x y z
#    x 1.994680 0.004620 0.028380 
#    y 0.004620 1.944690 -0.011130 
#    z 0.028380 -0.011130 1.882390 
# 
# From -- ./inp_files/112706.got.cif
#   From: 2010.05.17/outbox.cif.g08.bks.cpg/sg2_57_cif.got.tgz:112706.got - 2010.06.03 11:33:40.
