data_PCOD9010479
_publ_section_title
;
Structure prediction by ZEFSAII (Michael W. Deem and Ramdas Pophale) SiO2 
 PCOD9010479
Probable space group: P -1
;
_chemical_formula_sum "Si O2"
_cell_formula_units_Z 16
_cell_length_a 5.319194
_cell_length_b 25.568928
_cell_length_c 5.296015
_cell_angle_alpha 99.805388
_cell_angle_beta 117.560208
_cell_angle_gamma 68.256071
_cell_volume 593.120925
_symmetry_space_group_name_H-M "P -1"
_symmetry_group_IT_number 2
_symmetry_cell_setting 'triclinic'
loop_
_space_group_symop_operation_xyz
x,y,z
-x,-y,-z
loop_
_atom_site_type_symbol
_atom_site_label
_atom_site_fract_x
_atom_site_fract_y
_atom_site_fract_z
Si Si1 0.892079 0.373839 0.862738
Si Si2 0.751881 0.737509 0.291777
Si Si3 0.140425 0.042597 0.458908
Si Si4 0.331265 0.355607 0.459274
Si Si5 0.133456 0.520311 0.330874
Si Si6 0.393115 0.916999 0.092438
Si Si7 0.372026 0.858071 0.542096
Si Si8 0.309586 0.755795 0.700163
O O1 0.536849 0.386964 0.708396
O O2 0.956331 0.412087 0.702504
O O3 0.034860 0.305507 0.856600
O O4 0.041008 0.388700 0.192338
O O5 0.721079 0.690864 0.426861
O O6 0.955116 0.770756 0.527421
O O7 0.442025 0.767998 0.033203
O O8 0.479796 0.034842 0.702581
O O9 0.979158 0.104701 0.561381
O O10 0.036330 0.943238 0.879400
O O11 0.000000 0.000000 0.500000
O O12 0.558511 0.312334 0.323987
O O13 0.500000 0.500000 0.500000
O O14 0.000000 0.500000 0.500000
O O15 0.000000 0.500000 0.000000
O O16 0.449817 0.875240 0.320063
O O17 0.513847 0.884946 0.857612
O O18 0.407910 0.794309 0.576425
#
# Coordination Sequence:
#
# PCOD9010479 Si02
#       8
#     2   2   2   2   2   2   2   2
#     4  10  23  40  65  93 130 172 224 274 338 400
#     4  10  22  40  62  91 123 169 212 269 328 394
#     4  10  24  43  65  94 126 169 216 265 326 392
#     4  10  21  40  63  92 123 172 215 274 329 403
#     4  12  28  49  74 111 145 193 241 301 361 428
#     4  10  25  41  65  91 124 169 209 263 328 379
#     4  10  26  41  65  94 130 168 214 270 328 390
#     4  10  23  37  60  92 123 160 217 260 328 392
#
# _framework density 26.975946
#
# number of rings (size 3 to 8) (size 9 to 14) (size 15 to 20)
#    0.750    1.000    0.000    2.250    8.750    1.000 
#    0.000    0.000    0.000    0.000    0.000    0.000 
#    0.000    0.000    0.000    0.000    0.000    0.000 
#
# Total GULP energy -89335.192489 kJ/mol
# GULP energy per Si atom -5583.449531 kJ/mol
# Density = 2.691455 g / cm^3
# Si number density = 26.975946 Si / 1000 Ang^3
#
#
#
# Elastic Constant Matrix: (Units=GPa)
#
#
# Indices 1 2 3 4 5 6 
#
# 1 103.1444 18.4164 101.9798 -7.6251 32.2042 51.5243
# 2 18.4164 131.1212 57.0324 -11.1056 9.5421 18.6744
# 3 101.9798 57.0324 277.1435 -16.0644 32.9274 34.2939
# 4 -7.6251 -11.1056 -16.0644 36.3560 14.0322 -13.5039
# 5 32.2042 9.5421 32.9274 14.0322 62.1916 2.0288
# 6 51.5243 18.6744 34.2939 -13.5039 2.0288 42.4804
#
#
#
# Elastic Compliance Matrix: (Units=1/GPa)
#
#
# Indices 1 2 3 4 5 6 
#
# 1 0.066548 0.008649 -0.014766 -0.008314 -0.023676 -0.074110
# 2 0.008649 0.009843 -0.003235 0.000541 -0.004012 -0.011843
# 3 -0.014766 -0.003235 0.007857 0.003525 0.002731 0.013979
# 4 -0.008314 0.000541 0.003525 0.037158 -0.006652 0.019130
# 5 -0.023676 -0.004012 0.002731 -0.006652 0.028200 0.024814
# 6 -0.074110 -0.011843 0.013979 0.019130 0.024814 0.112245
#
#
# Mechanical properties :
#
#
# Convention : Reuss Voigt Hill
#
# Bulk Modulus (GPa) = 15.25649 96.25183 55.75416
# Shear Modulus (GPa) = 16.53416 50.47096 33.50256
#
# Velocity S-wave (km/s) = 2.47841 4.33015 3.52794
# Velocity P-wave (km/s) = 3.72262 7.79477 6.10804
#
# Compressibility (1/GPa) = 0.06554588
#
# Stress axis : x y z
#
# Youngs Moduli (GPa) = 15.02667 101.59324 127.26712
#
# Poissons Ratio (x) = -0.87871 1.87924
# Poissons Ratio (y) = -0.12997 0.41168
# Poissons Ratio (z) = 0.22189 0.32863
#
# Static dielectric constant tensor:
#      x y z
#    x 2.287460 -0.188350 -0.057010 
#    y -0.188350 2.159670 0.088650 
#    z -0.057010 0.088650 2.035830 
# 
# From -- ./inp_files/14114.got.cif
#   From: 2010.05.17/outbox.cif.g08.bks.cpg/sg2_8_cif.got.tgz:14114.got - 2010.06.03 11:33:40.
