data_PCOD9010450
_publ_section_title
;
Structure prediction by ZEFSAII (Michael W. Deem and Ramdas Pophale) SiO2 
 PCOD9010450
Probable space group: P -1
;
_chemical_formula_sum "Si O2"
_cell_formula_units_Z 16
_cell_length_a 5.368818
_cell_length_b 4.981103
_cell_length_c 22.329002
_cell_angle_alpha 80.643162
_cell_angle_beta 90.099816
_cell_angle_gamma 99.400511
_cell_volume 581.090113
_symmetry_space_group_name_H-M "P -1"
_symmetry_group_IT_number 2
_symmetry_cell_setting 'triclinic'
loop_
_space_group_symop_operation_xyz
x,y,z
-x,-y,-z
loop_
_atom_site_type_symbol
_atom_site_label
_atom_site_fract_x
_atom_site_fract_y
_atom_site_fract_z
Si Si1 0.922032 0.847268 0.182011
Si Si2 0.072829 0.384569 0.692323
Si Si3 0.241290 0.792689 0.450228
Si Si4 0.882091 0.000972 0.936401
Si Si5 0.411545 0.539517 0.068937
Si Si6 0.314035 0.534514 0.570361
Si Si7 0.480598 0.184495 0.196480
Si Si8 0.257179 0.171798 0.326398
O O1 0.875781 0.599285 0.237698
O O2 0.925787 0.808363 0.113097
O O3 0.716784 0.033008 0.191575
O O4 0.214753 0.986661 0.186867
O O5 0.842247 0.543804 0.674595
O O6 0.286417 0.523387 0.642299
O O7 0.980372 0.064009 0.687233
O O8 0.276535 0.804880 0.521999
O O9 0.433153 0.582058 0.441756
O O10 0.947047 0.670087 0.441959
O O11 0.316560 0.044839 0.395317
O O12 0.636094 0.148905 0.934345
O O13 0.845171 0.686605 0.926458
O O14 0.000000 0.000000 0.000000
O O15 0.501882 0.427384 0.137566
O O16 0.500000 0.500000 0.000000
O O17 0.435508 0.209237 0.266947
#
# Coordination Sequence:
#
# PCOD9010450 Si02
#       8
#     2   2   2   2   2   2   2   2
#     4  10  22  42  65  93 126 165 209 258 312 371
#     4  10  21  40  63  91 125 164 208 257 311 370
#     4   9  18  35  59  88 122 161 205 254 308 367
#     4  11  23  41  64  95 128 166 210 258 313 372
#     4  11  23  41  64  95 128 166 210 258 313 372
#     4   9  18  35  59  88 122 161 205 254 308 367
#     4  10  22  42  65  93 126 165 209 258 312 371
#     4  10  21  40  63  91 125 164 208 257 311 370
#
# _framework density 27.534452000000002
#
# number of rings (size 3 to 8) (size 9 to 14) (size 15 to 20)
#    0.000    2.000    0.000    3.000    0.000    2.500 
#    0.000   30.000    0.000   13.500    0.000    0.000 
#    0.000    0.000    0.000    0.000    0.000    0.000 
#
# Total GULP energy -89440.423657 kJ/mol
# GULP energy per Si atom -5590.026479 kJ/mol
# Density = 2.747178 g / cm^3
# Si number density = 27.534452 Si / 1000 Ang^3
#
#
#
# Elastic Constant Matrix: (Units=GPa)
#
#
# Indices 1 2 3 4 5 6 
#
# 1 113.4151 39.1001 37.8568 -9.5005 -16.8216 -6.4700
# 2 39.1001 73.7690 31.3416 -12.0680 -0.0342 -21.9881
# 3 37.8568 31.3416 284.0865 -29.1547 2.6418 -5.5687
# 4 -9.5005 -12.0680 -29.1547 48.0816 -8.3984 -8.7365
# 5 -16.8216 -0.0342 2.6418 -8.3984 54.3114 -15.3864
# 6 -6.4700 -21.9881 -5.5687 -8.7365 -15.3864 55.2511
#
#
#
# Elastic Compliance Matrix: (Units=1/GPa)
#
#
# Indices 1 2 3 4 5 6 
#
# 1 0.011720 -0.005548 -0.000861 0.001157 0.003950 0.000361
# 2 -0.005548 0.020288 -0.000794 0.005366 0.001611 0.008641
# 3 -0.000861 -0.000794 0.003940 0.002063 -0.000057 0.000291
# 4 0.001157 0.005366 0.002063 0.026353 0.006752 0.008526
# 5 0.003950 0.001611 -0.000057 0.006752 0.023121 0.008604
# 6 0.000361 0.008641 0.000291 0.008526 0.008604 0.025354
#
#
# Mechanical properties :
#
#
# Convention : Reuss Voigt Hill
#
# Bulk Modulus (GPa) = 46.41740 76.42973 61.42356
# Shear Modulus (GPa) = 37.77503 55.72696 46.75100
#
# Velocity S-wave (km/s) = 3.70796 4.50366 4.12504
# Velocity P-wave (km/s) = 5.93519 7.40689 6.71150
#
# Compressibility (1/GPa) = 0.02154365
#
# Stress axis : x y z
#
# Youngs Moduli (GPa) = 85.32125 49.29013 253.79164
#
# Poissons Ratio (x) = 0.27346 0.21844
# Poissons Ratio (y) = 0.47336 0.20147
# Poissons Ratio (z) = 0.07344 0.03913
#
# Static dielectric constant tensor:
#      x y z
#    x 0.835340 -1.123740 0.128720 
#    y -1.123740 0.970800 0.127140 
#    z 0.128720 0.127140 2.299880 
# 
# From -- ./inp_files/603154.got.cif
#   From: 2010.05.17/outbox.cif.g08.bks.cpg/sg2_302_cif.got.tgz:603154.got - 2010.06.03 11:33:40.
