data_PCOD9010601
_publ_section_title
;
Structure prediction by ZEFSAII (Michael W. Deem and Ramdas Pophale) SiO2 
 PCOD9010601
Probable space group: P -1
;
_chemical_formula_sum "Si O2"
_cell_formula_units_Z 15
_cell_length_a 8.881718
_cell_length_b 13.171605
_cell_length_c 5.469964
_cell_angle_alpha 106.572286
_cell_angle_beta 72.080936
_cell_angle_gamma 112.488405
_cell_volume 552.260308
_symmetry_space_group_name_H-M "P -1"
_symmetry_group_IT_number 2
_symmetry_cell_setting 'triclinic'
loop_
_space_group_symop_operation_xyz
x,y,z
-x,-y,-z
loop_
_atom_site_type_symbol
_atom_site_label
_atom_site_fract_x
_atom_site_fract_y
_atom_site_fract_z
Si Si1 0.848283 0.897811 0.402589
Si Si2 0.645896 0.688335 0.631634
Si Si3 0.727106 0.355655 0.323992
Si Si4 0.000000 0.500000 0.000000
Si Si5 0.308353 0.424228 0.982738
Si Si6 0.134606 0.829130 0.118315
Si Si7 0.357443 0.018097 0.835906
Si Si8 0.649547 0.183468 0.615236
O O1 0.728804 0.819423 0.610046
O O2 0.752565 0.944197 0.280699
O O3 0.946803 0.822712 0.171194
O O4 0.000000 0.000000 0.500000
O O5 0.444714 0.653193 0.731312
O O6 0.675802 0.628135 0.327318
O O7 0.722772 0.656058 0.816176
O O8 0.663758 0.302434 0.583147
O O9 0.873611 0.468925 0.281148
O O10 0.812690 0.267789 0.105444
O O11 0.842778 0.524177 0.939845
O O12 0.500000 0.500000 0.000000
O O13 0.170364 0.811045 0.370812
O O14 0.248300 0.953356 0.068980
O O15 0.517721 0.128086 0.856113
O O16 0.406451 0.913582 0.626028
#
# Coordination Sequence:
#
# PCOD9010601 Si02
#       8
#     2   2   2   1   2   2   2   2
#     4  12  25  44  71 112 155 216 268 334 401 484
#     4  12  29  54  81 119 171 212 278 339 420 495
#     4  11  26  47  73 110 151 206 264 340 407 490
#     4  12  28  52  86 116 156 210 270 340 428 494
#     4  12  29  57  87 126 163 214 274 351 419 504
#     4  11  24  40  68 103 147 197 263 324 392 472
#     4  10  21  40  63  96 142 197 256 310 383 465
#     4  10  21  40  64  99 141 189 258 313 385 461
#
# _framework density 27.161104999999999
#
# number of rings (size 3 to 8) (size 9 to 14) (size 15 to 20)
#    0.000    0.800    4.000    2.000    3.733    3.733 
#    0.000    0.000    0.000    0.000    0.000    0.000 
#    0.000    0.000    0.000    0.000    0.000    0.000 
#
# Total GULP energy -83660.524604 kJ/mol
# GULP energy per Si atom -5577.368307 kJ/mol
# Density = 2.709929 g / cm^3
# Si number density = 27.161105 Si / 1000 Ang^3
#
#
#
# Elastic Constant Matrix: (Units=GPa)
#
#
# Indices 1 2 3 4 5 6 
#
# 1 225.0899 49.6631 54.3632 -22.1121 14.2171 -21.2809
# 2 49.6631 60.0384 42.4386 -10.9487 15.4287 4.7422
# 3 54.3632 42.4386 112.3863 -15.5824 10.0713 -5.0709
# 4 -22.1121 -10.9487 -15.5824 58.9044 -15.4164 2.1760
# 5 14.2171 15.4287 10.0713 -15.4164 56.0488 -13.0994
# 6 -21.2809 4.7422 -5.0709 2.1760 -13.0994 47.0157
#
#
#
# Elastic Compliance Matrix: (Units=1/GPa)
#
#
# Indices 1 2 3 4 5 6 
#
# 1 0.006077 -0.004657 -0.000942 0.001319 0.001056 0.003352
# 2 -0.004657 0.028869 -0.008390 -0.000183 -0.007157 -0.007910
# 3 -0.000942 -0.008390 0.012741 0.001697 0.001205 0.002051
# 4 0.001319 -0.000183 0.001697 0.019142 0.004980 0.001300
# 5 0.001056 -0.007157 0.001205 0.004980 0.022413 0.007344
# 6 0.003352 -0.007910 0.002051 0.001300 0.007344 0.025792
#
#
# Mechanical properties :
#
#
# Convention : Reuss Voigt Hill
#
# Bulk Modulus (GPa) = 50.73217 76.71605 63.72411
# Shear Modulus (GPa) = 33.42629 49.13042 41.27836
#
# Velocity S-wave (km/s) = 3.51189 4.25767 3.90264
# Velocity P-wave (km/s) = 5.92987 7.24407 6.61966
#
# Compressibility (1/GPa) = 0.01971136
#
# Stress axis : x y z
#
# Youngs Moduli (GPa) = 164.54235 34.63882 78.48500
#
# Poissons Ratio (x) = 0.16132 0.07390
# Poissons Ratio (y) = 0.76630 0.65846
# Poissons Ratio (z) = 0.15494 0.29061
#
# Static dielectric constant tensor:
#      x y z
#    x 2.131980 -0.015930 -0.091840 
#    y -0.015930 2.259640 0.028580 
#    z -0.091840 0.028580 2.187060 
# 
# From -- ./inp_files/38649.got.cif
#   From: 2010.05.17/outbox.cif.g08.bks.cpg/sg2_20_cif.got.tgz:38649.got - 2010.06.03 11:33:40.
