data_PCOD9010756
_publ_section_title
;
Structure prediction by ZEFSAII (Michael W. Deem and Ramdas Pophale) SiO2 
 PCOD9010756
Probable space group: P -1
;
_chemical_formula_sum "Si O2"
_cell_formula_units_Z 16
_cell_length_a 7.285101
_cell_length_b 9.505142
_cell_length_c 12.074904
_cell_angle_alpha 47.825334
_cell_angle_beta 84.900944
_cell_angle_gamma 86.642730
_cell_volume 617.210032
_symmetry_space_group_name_H-M "P -1"
_symmetry_group_IT_number 2
_symmetry_cell_setting 'triclinic'
loop_
_space_group_symop_operation_xyz
x,y,z
-x,-y,-z
loop_
_atom_site_type_symbol
_atom_site_label
_atom_site_fract_x
_atom_site_fract_y
_atom_site_fract_z
Si Si1 0.263158 0.319940 0.929699
Si Si2 0.702327 0.084529 0.919345
Si Si3 0.050353 0.888800 0.694203
Si Si4 0.851715 0.327633 0.985189
Si Si5 0.141739 0.759724 0.510406
Si Si6 0.348261 0.278711 0.184323
Si Si7 0.505366 0.342931 0.366504
Si Si8 0.696654 0.439597 0.574329
O O1 0.375550 0.464420 0.770349
O O2 0.391060 0.274827 0.053663
O O3 0.063334 0.404150 0.926996
O O4 0.197315 0.114861 0.998648
O O5 0.700860 0.228419 0.739718
O O6 0.788409 0.203555 0.950953
O O7 0.500000 0.000000 0.000000
O O8 0.155827 0.797605 0.837949
O O9 0.109419 0.797502 0.623522
O O10 0.832093 0.848788 0.732124
O O11 0.029391 0.114312 0.589879
O O12 0.722916 0.508071 0.906593
O O13 0.367497 0.785830 0.492639
O O14 0.153568 0.575143 0.525595
O O15 0.473450 0.243393 0.302502
O O16 0.317138 0.417570 0.394557
O O17 0.500000 0.500000 0.500000
#
# Coordination Sequence:
#
# PCOD9010756 Si02
#       8
#     2   2   2   2   2   2   2   2
#     4  11  22  37  65  97 129 168 216 271 331 383
#     4  12  23  42  66  98 132 167 219 276 327 387
#     4  10  22  42  64  94 126 176 219 272 323 396
#     4  11  22  40  67  94 132 164 217 273 332 385
#     4  10  22  41  66  84 135 177 221 262 331 395
#     4  11  21  38  64  97 127 162 221 275 329 377
#     4  11  21  39  64  95 129 173 216 271 326 389
#     4  10  21  40  64  90 132 173 208 265 327 393
#
# _framework density 25.923105
#
# number of rings (size 3 to 8) (size 9 to 14) (size 15 to 20)
#    0.000    1.250    2.500    5.250    0.000    1.500 
#    0.000    5.625    5.500    0.000    0.000    0.000 
#    0.000    0.000    0.000    0.000    0.000    0.000 
#
# Total GULP energy -89219.257266 kJ/mol
# GULP energy per Si atom -5576.203579 kJ/mol
# Density = 2.586410 g / cm^3
# Si number density = 25.923105 Si / 1000 Ang^3
#
#
#
# Elastic Constant Matrix: (Units=GPa)
#
#
# Indices 1 2 3 4 5 6 
#
# 1 55.1478 22.3628 17.9794 7.0171 -8.6314 -2.2286
# 2 22.3628 131.0291 40.1748 15.8644 -3.1771 -8.3849
# 3 17.9794 40.1748 74.0570 22.9213 5.6020 -0.2208
# 4 7.0171 15.8644 22.9213 42.3510 3.9655 0.4721
# 5 -8.6314 -3.1771 5.6020 3.9655 37.5983 8.8460
# 6 -2.2286 -8.3849 -0.2208 0.4721 8.8460 55.1189
#
#
#
# Elastic Compliance Matrix: (Units=1/GPa)
#
#
# Indices 1 2 3 4 5 6 
#
# 1 0.021323 -0.002143 -0.004119 -0.001014 0.005519 -0.000357
# 2 -0.002143 0.009568 -0.004444 -0.000911 0.000785 0.001233
# 3 -0.004119 -0.004444 0.019633 -0.007961 -0.003370 -0.000155
# 4 -0.001014 -0.000911 -0.007961 0.028629 -0.002116 -0.000117
# 5 0.005519 0.000785 -0.003370 -0.002116 0.029695 -0.004419
# 6 -0.000357 0.001233 -0.000155 -0.000117 -0.004419 0.019025
#
#
# Mechanical properties :
#
#
# Convention : Reuss Voigt Hill
#
# Bulk Modulus (GPa) = 34.34997 46.80756 40.57876
# Shear Modulus (GPa) = 31.44845 38.99477 35.22161
#
# Velocity S-wave (km/s) = 3.48680 3.88267 3.69005
# Velocity P-wave (km/s) = 5.43046 6.18027 5.81745
#
# Compressibility (1/GPa) = 0.02911211
#
# Stress axis : x y z
#
# Youngs Moduli (GPa) = 46.89726 104.50990 50.93568
#
# Poissons Ratio (x) = 0.22392 0.20982
# Poissons Ratio (y) = 0.10048 0.22637
# Poissons Ratio (z) = 0.19318 0.46447
#
# Static dielectric constant tensor:
#      x y z
#    x 2.123730 -0.077440 -0.060580 
#    y -0.077440 2.301930 -0.097600 
#    z -0.060580 -0.097600 2.250650 
# 
# From -- ./inp_files/377971.got.cif
#   From: 2010.05.17/outbox.cif.g08.bks.cpg/sg2_189_cif.got.tgz:377971.got - 2010.06.03 11:33:40.
