data_PCOD9010277
_publ_section_title
;
Structure prediction by ZEFSAII (Michael W. Deem and Ramdas Pophale) SiO2 
 PCOD9010277
Probable space group: P -1
;
_chemical_formula_sum "Si O2"
_cell_formula_units_Z 12
_cell_length_a 8.275573
_cell_length_b 13.380859
_cell_length_c 5.267685
_cell_angle_alpha 81.175846
_cell_angle_beta 62.059933
_cell_angle_gamma 103.376155
_cell_volume 477.517703
_symmetry_space_group_name_H-M "P -1"
_symmetry_group_IT_number 2
_symmetry_cell_setting 'triclinic'
loop_
_space_group_symop_operation_xyz
x,y,z
-x,-y,-z
loop_
_atom_site_type_symbol
_atom_site_label
_atom_site_fract_x
_atom_site_fract_y
_atom_site_fract_z
Si Si1 0.772211 0.685848 0.872498
Si Si2 0.663267 0.945977 0.462722
Si Si3 0.410397 0.739091 0.052904
Si Si4 0.924393 0.821133 0.186223
Si Si5 0.130821 0.522542 0.143894
Si Si6 0.718958 0.087722 0.780478
O O1 0.561423 0.692526 0.088723
O O2 0.846353 0.746877 0.525902
O O3 0.759645 0.563499 0.907404
O O4 0.907202 0.747225 0.982753
O O5 0.535344 0.837483 0.747369
O O6 0.792356 0.896126 0.212725
O O7 0.500000 0.000000 0.500000
O O8 0.804654 0.032776 0.520592
O O9 0.268324 0.645538 0.023857
O O10 0.304388 0.797127 0.298083
O O11 0.144353 0.891080 0.081606
O O12 0.000000 0.500000 0.500000
O O13 0.000000 0.500000 0.000000
O O14 0.500000 0.000000 0.000000
#
# Coordination Sequence:
#
# PCOD9010277 Si02
#       6
#     2   2   2   2   2   2
#     4  11  24  45  70 100 134 177 227 284 348 410
#     4  10  22  41  67 102 139 184 232 284 343 406
#     4  10  23  43  67  99 139 181 229 286 343 412
#     4  11  24  44  70 101 137 179 229 284 342 410
#     4  12  26  45  71 103 136 178 227 284 350 418
#     4  10  21  40  62  95 135 179 225 276 335 402
#
# _framework density 25.129958999999999
#
# number of rings (size 3 to 8) (size 9 to 14) (size 15 to 20)
#    0.000    1.333    0.000    5.000    0.000    9.333 
#    0.000   17.500    0.000    0.000    0.000    0.000 
#    0.000    0.000    0.000    0.000    0.000    0.000 
#
# Total GULP energy -67130.064021 kJ/mol
# GULP energy per Si atom -5594.172002 kJ/mol
# Density = 2.507276 g / cm^3
# Si number density = 25.129959 Si / 1000 Ang^3
#
#
#
# Elastic Constant Matrix: (Units=GPa)
#
#
# Indices 1 2 3 4 5 6 
#
# 1 109.8388 57.4706 8.4928 9.9454 0.1092 -4.8713
# 2 57.4706 229.3243 32.4672 25.8567 0.5715 -4.5664
# 3 8.4928 32.4672 73.2224 24.2094 16.0221 2.7526
# 4 9.9454 25.8567 24.2094 31.1540 -0.5345 3.7318
# 5 0.1092 0.5715 16.0221 -0.5345 39.9190 11.6032
# 6 -4.8713 -4.5664 2.7526 3.7318 11.6032 65.1335
#
#
#
# Elastic Compliance Matrix: (Units=1/GPa)
#
#
# Indices 1 2 3 4 5 6 
#
# 1 0.010573 -0.002506 0.000566 -0.001837 -0.000472 0.000780
# 2 -0.002506 0.005494 -0.001308 -0.002781 0.000312 0.000357
# 3 0.000566 -0.001308 0.021480 -0.016141 -0.009292 0.001623
# 4 -0.001837 -0.002781 -0.016141 0.048144 0.008298 -0.003887
# 5 -0.000472 0.000312 -0.009292 0.008298 0.030495 -0.005529
# 6 0.000780 0.000357 0.001623 -0.003887 -0.005529 0.016575
#
#
# Mechanical properties :
#
#
# Convention : Reuss Voigt Hill
#
# Bulk Modulus (GPa) = 32.20426 67.69408 49.94917
# Shear Modulus (GPa) = 33.42082 48.17163 40.79622
#
# Velocity S-wave (km/s) = 3.65076 4.38299 4.03353
# Velocity P-wave (km/s) = 5.53296 7.25329 6.45073
#
# Compressibility (1/GPa) = 0.03105179
#
# Stress axis : x y z
#
# Youngs Moduli (GPa) = 94.57968 182.02828 46.55465
#
# Poissons Ratio (x) = 0.45617 -0.02635
# Poissons Ratio (y) = 0.23702 0.06087
# Poissons Ratio (z) = -0.05353 0.23801
#
# Static dielectric constant tensor:
#      x y z
#    x 2.050090 0.019240 0.074570 
#    y 0.019240 1.937120 -0.001550 
#    z 0.074570 -0.001550 2.385380 
# 
# From -- ./inp_files/24590.got.cif
#   From: 2010.05.17/outbox.cif.g08.bks.cpg/sg2_13_cif.got.tgz:24590.got - 2010.06.03 11:33:40.
