data_PCOD9010772
_publ_section_title
;
Structure prediction by ZEFSAII (Michael W. Deem and Ramdas Pophale) SiO2 
 PCOD9010772
Probable space group: P -1
;
_chemical_formula_sum "Si O2"
_cell_formula_units_Z 16
_cell_length_a 26.753447
_cell_length_b 5.323440
_cell_length_c 4.865967
_cell_angle_alpha 88.356068
_cell_angle_beta 119.445436
_cell_angle_gamma 104.277879
_cell_volume 581.323464
_symmetry_space_group_name_H-M "P -1"
_symmetry_group_IT_number 2
_symmetry_cell_setting 'triclinic'
loop_
_space_group_symop_operation_xyz
x,y,z
-x,-y,-z
loop_
_atom_site_type_symbol
_atom_site_label
_atom_site_fract_x
_atom_site_fract_y
_atom_site_fract_z
Si Si1 0.167801 0.065487 0.673177
Si Si2 0.666368 0.755911 0.990827
Si Si3 0.774037 0.582576 0.704903
Si Si4 0.416354 0.308112 0.739501
Si Si5 0.688349 0.289512 0.933280
Si Si6 0.121057 0.625857 0.175550
Si Si7 0.933245 0.917746 0.215479
Si Si8 0.450303 0.858050 0.583394
O O1 0.194154 0.231481 0.471071
O O2 0.110805 0.144754 0.639528
O O3 0.215048 0.185327 0.038019
O O4 0.146472 0.762738 0.532092
O O5 0.642364 0.747168 0.614332
O O6 0.699570 0.537488 0.157352
O O7 0.704655 0.048363 0.123570
O O8 0.607554 0.687947 0.020971
O O9 0.717440 0.381802 0.719548
O O10 0.819003 0.394031 0.818339
O O11 0.455061 0.583562 0.722433
O O12 0.444633 0.069219 0.787149
O O13 0.616254 0.209264 0.724683
O O14 0.078322 0.336988 0.004400
O O15 0.086398 0.836177 0.973607
O O16 0.000000 0.000000 0.500000
O O17 0.500000 0.000000 0.500000
#
# Coordination Sequence:
#
# PCOD9010772 Si02
#       8
#     2   2   2   2   2   2   2   2
#     4  11  25  48  71 105 143 192 238 298 359 416
#     4  10  22  41  65  92 133 162 225 278 340 413
#     4  11  27  46  74 100 144 190 245 301 364 429
#     4  10  21  40  64  91 129 171 214 272 346 417
#     4  10  24  44  65 102 131 181 233 292 355 430
#     4  11  24  48  69 107 147 187 242 294 356 416
#     4  11  26  47  78 112 150 195 242 294 357 427
#     4  10  21  42  68  99 138 179 230 292 359 428
#
# _framework density 27.523402000000001
#
# number of rings (size 3 to 8) (size 9 to 14) (size 15 to 20)
#    0.000    1.500    2.500    1.500    5.250    5.000 
#    2.250   15.000    0.000    0.000    0.000    0.000 
#    0.000    0.000    0.000    0.000    0.000    0.000 
#
# Total GULP energy -89396.316077 kJ/mol
# GULP energy per Si atom -5587.269755 kJ/mol
# Density = 2.746076 g / cm^3
# Si number density = 27.523402 Si / 1000 Ang^3
#
#
#
# Elastic Constant Matrix: (Units=GPa)
#
#
# Indices 1 2 3 4 5 6 
#
# 1 -54.6526 -41.7954 -239.6396 -24.4801 -81.5113 -12.0992
# 2 -41.7954 155.2629 -100.8557 -15.3757 -52.9639 -36.4444
# 3 -239.6396 -100.8557 -339.6178 -59.1278 -173.1236 -3.9899
# 4 -24.4801 -15.3757 -59.1278 50.4320 -16.7068 8.2420
# 5 -81.5113 -52.9639 -173.1236 -16.7068 -4.1227 6.2421
# 6 -12.0992 -36.4444 -3.9899 8.2420 6.2421 73.1037
#
#
#
# Elastic Compliance Matrix: (Units=1/GPa)
#
#
# Indices 1 2 3 4 5 6 
#
# 1 0.011519 -0.001539 -0.004548 -0.002259 -0.005391 0.001606
# 2 -0.001539 0.006176 -0.001049 -0.000331 0.000640 0.002750
# 3 -0.004548 -0.001049 0.002582 -0.000607 -0.003711 -0.000749
# 4 -0.002259 -0.000331 -0.000607 0.017817 -0.001519 -0.002451
# 5 -0.005391 0.000640 -0.003711 -0.001519 0.014930 -0.001879
# 6 0.001606 0.002750 -0.000749 -0.002451 -0.001879 0.015712
#
#
# Mechanical properties :
#
#
# Convention : Reuss Voigt Hill
#
# Bulk Modulus (GPa) = 166.55074 -111.50986 27.52044
# Shear Modulus (GPa) = 58.81678 33.43479 46.12579
#
# Velocity S-wave (km/s) = 4.62776 3.48915 4.09819
# Velocity P-wave (km/s) = 9.44450 4.93663 5.69334
#
# Compressibility (1/GPa) = 0.00600418
#
# Stress axis : x y z
#
# Youngs Moduli (GPa) = 86.81669 161.91752 387.28128
#
# Poissons Ratio (x) = 0.24925 1.76137
# Poissons Ratio (y) = 0.13364 0.40617
# Poissons Ratio (z) = 0.39485 0.16982
#
# Static dielectric constant tensor:
#      x y z
#    x 2.116890 -0.111130 -0.009600 
#    y -0.111130 2.243720 -0.036720 
#    z -0.009600 -0.036720 1.906020 
# 
# From -- ./inp_files/121575.got.cif
#   From: 2010.05.17/outbox.cif.g08.bks.cpg/sg2_61_cif.got.tgz:121575.got - 2010.06.03 11:33:40.
