data_PCOD9010840
_publ_section_title
;
Structure prediction by ZEFSAII (Michael W. Deem and Ramdas Pophale) SiO2 
 PCOD9010840
Probable space group: P -1
;
_chemical_formula_sum "Si O2"
_cell_formula_units_Z 16
_cell_length_a 8.267442
_cell_length_b 27.408555
_cell_length_c 5.413420
_cell_angle_alpha 119.329438
_cell_angle_beta 106.506422
_cell_angle_gamma 36.776482
_cell_volume 626.352458
_symmetry_space_group_name_H-M "P -1"
_symmetry_group_IT_number 2
_symmetry_cell_setting 'triclinic'
loop_
_space_group_symop_operation_xyz
x,y,z
-x,-y,-z
loop_
_atom_site_type_symbol
_atom_site_label
_atom_site_fract_x
_atom_site_fract_y
_atom_site_fract_z
Si Si1 0.834076 0.583440 0.319791
Si Si2 0.756070 0.338118 0.132102
Si Si3 0.744835 0.931413 0.734993
Si Si4 0.407951 0.932002 0.381765
Si Si5 0.889970 0.096968 0.858138
Si Si6 0.965339 0.636793 0.851163
Si Si7 0.550193 0.556274 0.253838
Si Si8 0.577051 0.262161 0.852767
O O1 0.716277 0.569946 0.428668
O O2 0.022233 0.582059 0.507663
O O3 0.580493 0.682512 0.329669
O O4 0.000000 0.500000 0.000000
O O5 0.026922 0.301209 0.073943
O O6 0.654430 0.394037 0.479646
O O7 0.745148 0.274761 0.016905
O O8 0.567522 0.398174 0.955282
O O9 0.699639 0.880480 0.480344
O O10 0.678454 0.996750 0.669198
O O11 0.030676 0.874482 0.845648
O O12 0.500000 0.000000 0.000000
O O13 0.333006 0.891264 0.133472
O O14 0.184932 0.991708 0.658714
O O15 0.778817 0.157256 0.715200
O O16 0.223070 0.552600 0.929520
O O17 0.679948 0.689208 0.964942
#
# Coordination Sequence:
#
# PCOD9010840 Si02
#       8
#     2   2   2   2   2   2   2   2
#     4  11  22  41  68  87 129 175 225 278 336 400
#     4  11  26  42  66  97 131 173 231 286 347 406
#     4   9  18  37  66  97 126 160 215 272 321 405
#     4   9  19  39  67  97 123 173 221 263 332 405
#     4  10  21  40  64  93 134 171 217 272 337 398
#     4  12  23  41  65  92 124 173 226 279 344 404
#     4  11  22  42  67  93 127 172 230 293 339 405
#     4  11  25  43  59  95 134 174 217 283 346 399
#
# _framework density 25.544725
#
# number of rings (size 3 to 8) (size 9 to 14) (size 15 to 20)
#    0.000    1.500    2.500    3.000    1.750    1.000 
#    9.000    0.000    0.000    0.000    0.000    0.000 
#    0.000    0.000    0.000    0.000    0.000    0.000 
#
# Total GULP energy -89299.216098 kJ/mol
# GULP energy per Si atom -5581.201006 kJ/mol
# Density = 2.548658 g / cm^3
# Si number density = 25.544725 Si / 1000 Ang^3
#
#
#
# Elastic Constant Matrix: (Units=GPa)
#
#
# Indices 1 2 3 4 5 6 
#
# 1 227.1159 33.9655 35.4612 5.5612 18.0518 25.3936
# 2 33.9655 63.0541 17.3642 -2.6026 12.0946 8.5650
# 3 35.4612 17.3642 65.6798 -10.3486 1.5915 -7.3318
# 4 5.5612 -2.6026 -10.3486 26.0390 -6.5978 -0.1914
# 5 18.0518 12.0946 1.5915 -6.5978 43.1734 -0.4117
# 6 25.3936 8.5650 -7.3318 -0.1914 -0.4117 37.8023
#
#
#
# Elastic Compliance Matrix: (Units=1/GPa)
#
#
# Indices 1 2 3 4 5 6 
#
# 1 0.006010 -0.001167 -0.003964 -0.003680 -0.002646 -0.004589
# 2 -0.001167 0.019432 -0.005085 -0.001127 -0.004985 -0.004665
# 3 -0.003964 -0.005085 0.021043 0.009741 0.003871 0.007988
# 4 -0.003680 -0.001127 0.009741 0.045123 0.008438 0.004937
# 5 -0.002646 -0.004985 0.003871 0.008438 0.026850 0.003993
# 6 -0.004589 -0.004665 0.007988 0.004937 0.003993 0.032211
#
#
# Mechanical properties :
#
#
# Convention : Reuss Voigt Hill
#
# Bulk Modulus (GPa) = 38.38413 58.82573 48.60493
# Shear Modulus (GPa) = 27.81104 39.34019 33.57562
#
# Velocity S-wave (km/s) = 3.30315 3.92861 3.62938
# Velocity P-wave (km/s) = 5.44120 6.60735 6.05243
#
# Compressibility (1/GPa) = 0.02605243
#
# Stress axis : x y z
#
# Youngs Moduli (GPa) = 166.38751 51.46282 47.52207
#
# Poissons Ratio (x) = 0.06004 0.18840
# Poissons Ratio (y) = 0.19412 0.24164
# Poissons Ratio (z) = 0.65964 0.26168
#
# Static dielectric constant tensor:
#      x y z
#    x 2.128650 -0.060190 0.049580 
#    y -0.060190 1.998770 -0.035640 
#    z 0.049580 -0.035640 2.121950 
# 
# From -- ./inp_files/56503.got.cif
#   From: 2010.05.17/outbox.cif.g08.bks.cpg/sg2_29_cif.got.tgz:56503.got - 2010.06.03 11:33:40.
