data_PCOD9010419
_publ_section_title
;
Structure prediction by ZEFSAII (Michael W. Deem and Ramdas Pophale) SiO2 
 PCOD9010419
Probable space group: P -1
;
_chemical_formula_sum "Si O2"
_cell_formula_units_Z 14
_cell_length_a 13.056855
_cell_length_b 17.272570
_cell_length_c 9.073827
_cell_angle_alpha 43.637350
_cell_angle_beta 141.459171
_cell_angle_gamma 153.026220
_cell_volume 575.760543
_symmetry_space_group_name_H-M "P -1"
_symmetry_group_IT_number 2
_symmetry_cell_setting 'triclinic'
loop_
_space_group_symop_operation_xyz
x,y,z
-x,-y,-z
loop_
_atom_site_type_symbol
_atom_site_label
_atom_site_fract_x
_atom_site_fract_y
_atom_site_fract_z
Si Si1 0.052886 0.229596 0.476611
Si Si2 0.674002 0.434366 0.509537
Si Si3 0.193336 0.497595 0.760723
Si Si4 0.210188 0.622412 0.880847
Si Si5 0.150982 0.832870 0.980630
Si Si6 0.659531 0.815278 0.307626
Si Si7 0.609636 0.033916 0.413318
O O1 0.248402 0.412699 0.525603
O O2 0.187111 0.196402 0.592797
O O3 0.920358 0.222957 0.193981
O O4 0.848196 0.082593 0.569743
O O5 0.678765 0.465210 0.298792
O O6 0.400666 0.247847 0.505348
O O7 0.908478 0.465546 0.749680
O O8 0.341074 0.634852 0.868458
O O9 0.000000 0.500000 0.500000
O O10 0.064375 0.325809 0.934889
O O11 0.267558 0.782238 0.730684
O O12 0.370679 0.657354 0.145177
O O13 0.222731 0.001919 0.835086
O O14 0.395015 0.900284 0.235436
O O15 0.500000 0.000000 0.500000
#
# Coordination Sequence:
#
# PCOD9010419 Si02
#       7
#     2   2   2   2   2   2   2
#     4  11  23  40  62  91 126 164 203 252 306 366
#     4  10  21  40  64  90 121 164 210 252 297 364
#     4  10  21  40  64  92 120 157 207 258 302 357
#     4   9  20  38  62  87 118 160 206 249 300 360
#     4  11  23  40  63  92 124 161 205 251 307 367
#     4  11  23  40  61  92 127 163 204 253 305 361
#     4  10  21  40  63  90 119 157 206 255 302 361
#
# _framework density 24.315664000000002
#
# number of rings (size 3 to 8) (size 9 to 14) (size 15 to 20)
#    0.000    1.714    0.000    5.143    0.000    9.143 
#    0.000   10.714    0.000    0.000    0.000    0.000 
#    0.000    0.000    0.000    0.000    0.000    0.000 
#
# Total GULP energy -78082.583886 kJ/mol
# GULP energy per Si atom -5577.327420 kJ/mol
# Density = 2.426032 g / cm^3
# Si number density = 24.315664 Si / 1000 Ang^3
#
#
#
# Elastic Constant Matrix: (Units=GPa)
#
#
# Indices 1 2 3 4 5 6 
#
# 1 167.0795 57.6760 45.9009 -22.2633 -27.3733 16.8652
# 2 57.6760 49.6272 19.3257 -4.0638 -9.6604 -1.8764
# 3 45.9009 19.3257 45.2482 -13.8183 -19.0603 9.1523
# 4 -22.2633 -4.0638 -13.8183 22.9482 3.6650 -5.7521
# 5 -27.3733 -9.6604 -19.0603 3.6650 31.7247 -2.8753
# 6 16.8652 -1.8764 9.1523 -5.7521 -2.8753 47.9024
#
#
#
# Elastic Compliance Matrix: (Units=1/GPa)
#
#
# Indices 1 2 3 4 5 6 
#
# 1 0.013403 -0.012971 -0.003273 0.007145 0.004508 -0.003473
# 2 -0.012971 0.037265 -0.007992 -0.008723 -0.003065 0.006322
# 3 -0.003273 -0.007992 0.042410 0.017053 0.017877 -0.004143
# 4 0.007145 -0.008723 0.017053 0.058427 0.007125 0.001328
# 5 0.004508 -0.003065 0.017877 0.007125 0.044249 -0.001611
# 6 -0.003473 0.006322 -0.004143 0.001328 -0.001611 0.023201
#
#
# Mechanical properties :
#
#
# Convention : Reuss Voigt Hill
#
# Bulk Modulus (GPa) = 22.41802 56.41780 39.41791
# Shear Modulus (GPa) = 17.71188 29.78522 23.74855
#
# Velocity S-wave (km/s) = 2.70184 3.50371 3.12857
# Velocity P-wave (km/s) = 4.35579 6.29449 5.41265
#
# Compressibility (1/GPa) = 0.04460697
#
# Stress axis : x y z
#
# Youngs Moduli (GPa) = 74.60853 26.83456 23.57924
#
# Poissons Ratio (x) = 0.34808 0.07717
# Poissons Ratio (y) = 0.96776 0.18844
# Poissons Ratio (z) = 0.24419 0.21446
#
# Static dielectric constant tensor:
#      x y z
#    x 2.021400 0.050060 0.003360 
#    y 0.050060 1.997070 0.020150 
#    z 0.003360 0.020150 2.200200 
# 
# From -- ./inp_files/177728.got.cif
#   From: 2010.05.17/outbox.cif.g08.bks.cpg/sg2_89_cif.got.tgz:177728.got - 2010.06.03 11:33:40.
