data_PCOD9010656
_publ_section_title
;
Structure prediction by ZEFSAII (Michael W. Deem and Ramdas Pophale) SiO2 
 PCOD9010656
Probable space group: P -1
;
_chemical_formula_sum "Si O2"
_cell_formula_units_Z 14
_cell_length_a 14.442116
_cell_length_b 11.426494
_cell_length_c 9.374105
_cell_angle_alpha 71.039700
_cell_angle_beta 83.859440
_cell_angle_gamma 29.362589
_cell_volume 663.560822
_symmetry_space_group_name_H-M "P -1"
_symmetry_group_IT_number 2
_symmetry_cell_setting 'triclinic'
loop_
_space_group_symop_operation_xyz
x,y,z
-x,-y,-z
loop_
_atom_site_type_symbol
_atom_site_label
_atom_site_fract_x
_atom_site_fract_y
_atom_site_fract_z
Si Si1 0.221438 0.479712 0.857049
Si Si2 0.925202 0.396292 0.652663
Si Si3 0.418247 0.458050 0.700962
Si Si4 0.180164 0.328215 0.710949
Si Si5 0.681447 0.197049 0.262436
Si Si6 0.590502 0.705006 0.798300
Si Si7 0.207966 0.902015 0.400905
O O1 0.395830 0.343670 0.791199
O O2 0.205870 0.359997 0.847620
O O3 0.270783 0.435854 0.030906
O O4 0.016639 0.797145 0.726627
O O5 0.883429 0.489142 0.461227
O O6 0.723793 0.585656 0.687424
O O7 0.012860 0.417447 0.703206
O O8 0.112020 0.077931 0.747009
O O9 0.373483 0.594330 0.794294
O O10 0.254670 0.703358 0.513432
O O11 0.634530 0.241105 0.688224
O O12 0.386873 0.026248 0.732244
O O13 0.496861 0.330225 0.189008
O O14 0.727513 0.108864 0.456633
#
# Coordination Sequence:
#
# PCOD9010656 Si02
#       7
#     2   2   2   2   2   2   2
#     4  12  23  38  61  92 120 153 195 244 296 344
#     4  10  21  40  64  85 116 158 198 242 288 347
#     4   9  21  38  64  87 118 154 199 241 283 351
#     4  10  22  40  60  85 117 156 205 238 283 354
#     4   9  20  40  60  87 119 151 199 238 285 354
#     4  11  25  37  60  91 121 154 191 246 304 336
#     4   9  20  38  62  89 114 157 201 232 288 351
#
# _framework density 21.098291
#
# number of rings (size 3 to 8) (size 9 to 14) (size 15 to 20)
#    0.857    1.143    1.429    1.286    2.000    5.714 
#    0.000    1.429    0.000    0.000    0.000    0.000 
#    0.000    0.000    0.000    0.000    0.000    0.000 
#
# Total GULP energy -78122.264589 kJ/mol
# GULP energy per Si atom -5580.161756 kJ/mol
# Density = 2.105027 g / cm^3
# Si number density = 21.098291 Si / 1000 Ang^3
#
#
#
# Elastic Constant Matrix: (Units=GPa)
#
#
# Indices 1 2 3 4 5 6 
#
# 1 33.7520 2.0382 4.8341 -13.0542 18.5897 4.4089
# 2 2.0382 43.5388 -8.7144 -7.4006 -4.7731 -11.8732
# 3 4.8341 -8.7144 34.5007 -3.4977 14.7959 0.0021
# 4 -13.0542 -7.4006 -3.4977 1.5375 -1.0829 6.5793
# 5 18.5897 -4.7731 14.7959 -1.0829 28.8670 7.3813
# 6 4.4089 -11.8732 0.0021 6.5793 7.3813 22.6699
#
#
#
# Elastic Compliance Matrix: (Units=1/GPa)
#
#
# Indices 1 2 3 4 5 6 
#
# 1 0.008388 -0.009888 -0.005994 -0.068416 -0.010763 0.016551
# 2 -0.009888 0.028643 0.006612 -0.008609 0.002646 0.018561
# 3 -0.005994 0.006612 0.037645 -0.022622 -0.019691 0.017602
# 4 -0.068416 -0.008609 -0.022622 -0.116362 0.042520 0.028726
# 5 -0.010763 0.002646 -0.019691 0.042520 0.061046 -0.028736
# 6 0.016551 0.018561 0.017602 0.028726 -0.028736 0.051632
#
#
# Mechanical properties :
#
#
# Convention : Reuss Voigt Hill
#
# Bulk Modulus (GPa) = 17.81456 12.01191 14.91324
# Shear Modulus (GPa) = 46.19168 18.19047 32.19107
#
# Velocity S-wave (km/s) = 4.68413 2.93947 3.91034
# Velocity P-wave (km/s) = 6.14139 4.15046 5.24133
#
# Compressibility (1/GPa) = 0.05613387
#
# Stress axis : x y z
#
# Youngs Moduli (GPa) = 119.21475 34.91303 26.56402
#
# Poissons Ratio (x) = 0.34523 0.15923
# Poissons Ratio (y) = 1.17882 -0.17563
# Poissons Ratio (z) = 0.71461 -0.23083
#
# Static dielectric constant tensor:
#      x y z
#    x 1.756680 0.027530 0.018650 
#    y 0.027530 1.743750 -0.020350 
#    z 0.018650 -0.020350 1.763540 
# 
# From -- ./inp_files/307000.got.cif
#   From: 2010.05.17/outbox.cif.g08.bks.cpg/sg2_154_cif.got.tgz:307000.got - 2010.06.03 11:33:40.
