data_PCOD9010324
_publ_section_title
;
Structure prediction by ZEFSAII (Michael W. Deem and Ramdas Pophale) SiO2 
 PCOD9010324
Probable space group: P -1
;
_chemical_formula_sum "Si O2"
_cell_formula_units_Z 13
_cell_length_a 8.748378
_cell_length_b 15.761964
_cell_length_c 16.457577
_cell_angle_alpha 18.632814
_cell_angle_beta 75.264204
_cell_angle_gamma 86.217555
_cell_volume 577.820046
_symmetry_space_group_name_H-M "P -1"
_symmetry_group_IT_number 2
_symmetry_cell_setting 'triclinic'
loop_
_space_group_symop_operation_xyz
x,y,z
-x,-y,-z
loop_
_atom_site_type_symbol
_atom_site_label
_atom_site_fract_x
_atom_site_fract_y
_atom_site_fract_z
Si Si1 0.758250 0.230262 0.492825
Si Si2 0.890302 0.673560 0.360982
Si Si3 0.500000 0.500000 0.500000
Si Si4 0.045025 0.341396 0.210231
Si Si5 0.247259 0.267210 0.506365
Si Si6 0.319752 0.257052 0.916796
Si Si7 0.675384 0.247512 0.080664
O O1 0.910324 0.282724 0.358275
O O2 0.780740 0.560023 0.213684
O O3 0.759806 0.059375 0.730765
O O4 0.548768 0.989904 0.696487
O O5 0.673039 0.471843 0.539047
O O6 0.881920 0.766471 0.370725
O O7 0.000000 0.500000 0.500000
O O8 0.000000 0.000000 0.000000
O O9 0.355633 0.270413 0.803751
O O10 0.262843 0.592645 0.984201
O O11 0.000000 0.000000 0.500000
O O12 0.000000 0.500000 0.000000
O O13 0.463687 0.496509 0.302619
O O14 0.235319 0.458803 0.260767
O O15 0.231327 0.951192 0.766455
#
# Coordination Sequence:
#
# PCOD9010324 Si02
#       7
#     2   2   1   2   2   2   2
#     4  10  22  41  62  88 120 162 208 244 307 386
#     4  11  24  39  60  93 129 171 220 265 319 378
#     4  10  24  42  64  96 138 170 214 280 316 356
#     4  12  26  41  62  93 120 149 201 259 313 380
#     4   9  19  38  60  86 120 161 211 252 301 377
#     4   9  20  38  63  90 123 167 209 252 308 370
#     4  10  21  40  63  83 117 160 194 253 313 364
#
# _framework density 22.498356000000001
#
# number of rings (size 3 to 8) (size 9 to 14) (size 15 to 20)
#    0.000    1.846    0.000    2.769    0.000   11.077 
#    0.000    0.000    0.000    0.000    0.000    0.000 
#    0.000    0.000    0.000    0.000    0.000    0.000 
#
# Total GULP energy -72433.660268 kJ/mol
# GULP energy per Si atom -5571.820021 kJ/mol
# Density = 2.244715 g / cm^3
# Si number density = 22.498356 Si / 1000 Ang^3
#
#
#
# Elastic Constant Matrix: (Units=GPa)
#
#
# Indices 1 2 3 4 5 6 
#
# 1 186.5067 65.1761 48.3911 -0.6084 36.1116 5.6535
# 2 65.1761 69.4183 23.0125 9.1734 23.3363 7.7494
# 3 48.3911 23.0125 96.7739 -2.7105 32.8352 -2.5744
# 4 -0.6084 9.1734 -2.7105 43.0145 0.5430 2.5947
# 5 36.1116 23.3363 32.8352 0.5430 63.0095 4.0679
# 6 5.6535 7.7494 -2.5744 2.5947 4.0679 52.4110
#
#
#
# Elastic Compliance Matrix: (Units=1/GPa)
#
#
# Indices 1 2 3 4 5 6 
#
# 1 0.008693 -0.007253 -0.002179 0.001545 -0.001177 0.000043
# 2 -0.007253 0.023762 -0.000864 -0.005040 -0.004007 -0.002213
# 3 -0.002179 -0.000864 0.013600 0.000996 -0.005619 0.001418
# 4 0.001545 -0.005040 0.000996 0.024440 0.000291 -0.000605
# 5 -0.001177 -0.004007 -0.005619 0.000291 0.021032 -0.001203
# 6 0.000043 -0.002213 0.001418 -0.000605 -0.001203 0.019596
#
#
# Mechanical properties :
#
#
# Convention : Reuss Voigt Hill
#
# Bulk Modulus (GPa) = 39.27132 69.53981 54.40557
# Shear Modulus (GPa) = 35.66255 46.09493 40.87874
#
# Velocity S-wave (km/s) = 3.98567 4.53129 4.26721
# Velocity P-wave (km/s) = 6.21883 7.63890 6.96515
#
# Compressibility (1/GPa) = 0.02546388
#
# Stress axis : x y z
#
# Youngs Moduli (GPa) = 115.03216 42.08418 73.52788
#
# Poissons Ratio (x) = 0.30524 0.16019
# Poissons Ratio (y) = 0.83434 0.06354
# Poissons Ratio (z) = 0.25061 0.03637
#
# Static dielectric constant tensor:
#      x y z
#    x 1.850260 0.033500 -0.064830 
#    y 0.033500 1.802870 -0.041330 
#    z -0.064830 -0.041330 1.791400 
# 
# From -- ./inp_files/33188.got.cif
#   From: 2010.05.17/outbox.cif.g08.bks.cpg/sg2_17_cif.got.tgz:33188.got - 2010.06.03 11:33:40.
