data_PCOD9010288
_publ_section_title
;
Structure prediction by ZEFSAII (Michael W. Deem and Ramdas Pophale) SiO2 
 PCOD9010288
Probable space group: P -1
;
_chemical_formula_sum "Si O2"
_cell_formula_units_Z 15
_cell_length_a 11.951040
_cell_length_b 14.565751
_cell_length_c 8.958841
_cell_angle_alpha 88.401812
_cell_angle_beta 78.922434
_cell_angle_gamma 27.328437
_cell_volume 666.391817
_symmetry_space_group_name_H-M "P -1"
_symmetry_group_IT_number 2
_symmetry_cell_setting 'triclinic'
loop_
_space_group_symop_operation_xyz
x,y,z
-x,-y,-z
loop_
_atom_site_type_symbol
_atom_site_label
_atom_site_fract_x
_atom_site_fract_y
_atom_site_fract_z
Si Si1 0.551665 0.808276 0.516117
Si Si2 0.442412 0.021573 0.289926
Si Si3 0.731057 0.385196 0.032993
Si Si4 0.609457 0.356352 0.608409
Si Si5 0.869322 0.021865 0.348577
Si Si6 0.000000 0.000000 0.000000
Si Si7 0.983022 0.582778 0.776005
Si Si8 0.941765 0.423850 0.912649
O O1 0.627223 0.842390 0.590743
O O2 0.338998 0.902954 0.651095
O O3 0.804699 0.571284 0.402836
O O4 0.417548 0.947389 0.394966
O O5 0.239774 0.180364 0.201762
O O6 0.744909 0.810954 0.176918
O O7 0.612694 0.498722 0.218163
O O8 0.500000 0.500000 0.000000
O O9 0.950623 0.148580 0.004217
O O10 0.811817 0.419224 0.924671
O O11 0.500000 0.500000 0.500000
O O12 0.716871 0.187015 0.510332
O O13 0.862992 0.211263 0.639003
O O14 0.937663 0.039687 0.194693
O O15 0.864199 0.565352 0.820281
O O16 0.113458 0.505392 0.906608
#
# Coordination Sequence:
#
# PCOD9010288 Si02
#       8
#     2   2   2   2   2   1   2   2
#     4  10  22  39  63  94 128 163 216 262 324 393
#     4  10  21  40  62  96 130 161 211 267 325 387
#     4  12  25  43  65  99 139 182 225 276 333 400
#     4  11  24  45  64  92 135 176 229 271 328 394
#     4  11  24  42  67  97 133 179 223 279 325 402
#     4  12  24  44  64  96 136 174 236 270 328 396
#     4  10  21  43  66  98 126 169 216 266 335 394
#     4  10  23  40  66  94 132 165 220 270 320 397
#
# _framework density 22.50928
#
# number of rings (size 3 to 8) (size 9 to 14) (size 15 to 20)
#    0.000    1.333    2.667    2.400    0.000    4.267 
#    0.000    0.000    0.000    0.000    0.000    0.000 
#    0.000    0.000    0.000    0.000    0.000    0.000 
#
# Total GULP energy -83555.877255 kJ/mol
# GULP energy per Si atom -5570.391817 kJ/mol
# Density = 2.245805 g / cm^3
# Si number density = 22.509280 Si / 1000 Ang^3
#
#
#
# Elastic Constant Matrix: (Units=GPa)
#
#
# Indices 1 2 3 4 5 6 
#
# 1 76.9330 13.9900 0.9698 -9.6575 -22.2355 7.0389
# 2 13.9900 70.7623 10.2471 -3.4513 -17.9731 12.2652
# 3 0.9698 10.2471 94.4105 11.7266 -5.1465 1.1551
# 4 -9.6575 -3.4513 11.7266 41.5182 16.5707 3.9020
# 5 -22.2355 -17.9731 -5.1465 16.5707 34.1502 3.8126
# 6 7.0389 12.2652 1.1551 3.9020 3.8126 18.5724
#
#
#
# Elastic Compliance Matrix: (Units=1/GPa)
#
#
# Indices 1 2 3 4 5 6 
#
# 1 0.017599 0.001791 0.000571 -0.000467 0.013902 -0.010644
# 2 0.001791 0.020412 -0.001013 -0.001820 0.014503 -0.016691
# 3 0.000571 -0.001013 0.011497 -0.004741 0.003879 -0.000063
# 4 -0.000467 -0.001820 -0.004741 0.032281 -0.017470 -0.001522
# 5 0.013902 0.014503 0.003879 -0.017470 0.057624 -0.023247
# 6 -0.010644 -0.016691 -0.000063 -0.001522 -0.023247 0.073996
#
#
# Mechanical properties :
#
#
# Convention : Reuss Voigt Hill
#
# Bulk Modulus (GPa) = 19.15463 32.50218 25.82840
# Shear Modulus (GPa) = 21.91892 33.30810 27.61351
#
# Velocity S-wave (km/s) = 3.12392 3.85092 3.50631
# Velocity P-wave (km/s) = 4.64112 5.85181 5.28127
#
# Compressibility (1/GPa) = 0.05220670
#
# Stress axis : x y z
#
# Youngs Moduli (GPa) = 56.82212 48.98986 86.97785
#
# Poissons Ratio (x) = -0.08775 -0.04966
# Poissons Ratio (y) = -0.10178 0.08811
# Poissons Ratio (z) = -0.03244 0.04963
#
# Static dielectric constant tensor:
#      x y z
#    x 1.865600 -0.015300 0.026220 
#    y -0.015300 1.896820 -0.030230 
#    z 0.026220 -0.030230 1.878020 
# 
# From -- ./inp_files/273120.got.cif
#   From: 2010.05.17/outbox.cif.g08.bks.cpg/sg2_137_cif.got.tgz:273120.got - 2010.06.03 11:33:40.
