data_PCOD9010392
_publ_section_title
;
Structure prediction by ZEFSAII (Michael W. Deem and Ramdas Pophale) SiO2 
 PCOD9010392
Probable space group: P -1
;
_chemical_formula_sum "Si O2"
_cell_formula_units_Z 16
_cell_length_a 15.974483
_cell_length_b 24.260321
_cell_length_c 9.547101
_cell_angle_alpha 35.011307
_cell_angle_beta 25.533677
_cell_angle_gamma 21.461804
_cell_volume 578.455892
_symmetry_space_group_name_H-M "P -1"
_symmetry_group_IT_number 2
_symmetry_cell_setting 'triclinic'
loop_
_space_group_symop_operation_xyz
x,y,z
-x,-y,-z
loop_
_atom_site_type_symbol
_atom_site_label
_atom_site_fract_x
_atom_site_fract_y
_atom_site_fract_z
Si Si1 0.024323 0.752852 0.215134
Si Si2 0.871412 0.576332 0.325665
Si Si3 0.225348 0.172373 0.127209
Si Si4 0.621360 0.543094 0.549954
Si Si5 0.565340 0.781774 0.740337
Si Si6 0.248854 0.844197 0.814972
Si Si7 0.779982 0.017204 0.708428
Si Si8 0.279064 0.729951 0.429667
O O1 0.152844 0.627096 0.393387
O O2 0.728215 0.818825 0.452432
O O3 0.302198 0.653820 0.887802
O O4 0.993950 0.865222 0.108234
O O5 0.779469 0.577775 0.304220
O O6 0.570248 0.662665 0.688701
O O7 0.155031 0.404349 0.309201
O O8 0.885062 0.687155 0.078333
O O9 0.903136 0.239750 0.492902
O O10 0.500000 0.000000 0.000000
O O11 0.429816 0.128015 0.044030
O O12 0.545193 0.575777 0.432503
O O13 0.323755 0.869623 0.793861
O O14 0.388385 0.796042 0.102672
O O15 0.252961 0.917905 0.527735
O O16 0.988969 0.843571 0.735050
O O17 0.000000 0.000000 0.500000
#
# Coordination Sequence:
#
# PCOD9010392 Si02
#       8
#     2   2   2   2   2   2   2   2
#     4   9  20  38  61  90 120 167 207 249 312 364
#     4   9  19  37  61  90 119 166 210 251 305 366
#     4   9  20  36  59  89 115 157 206 254 294 361
#     4   9  19  37  62  87 123 159 210 257 295 374
#     4  11  24  38  60  95 133 163 195 263 325 366
#     4  10  21  40  63  89 122 165 215 254 302 381
#     4  10  21  43  67  88 115 163 218 259 301 373
#     4  11  23  38  59  96 126 158 207 258 317 366
#
# _framework density 27.659845000000001
#
# number of rings (size 3 to 8) (size 9 to 14) (size 15 to 20)
#    0.000    2.250    0.000    3.375    5.250    3.000 
#    6.750    0.625    0.000    0.000    0.000    0.000 
#    0.000    0.000    0.000    0.000    0.000    0.000 
#
# Total GULP energy -89277.081445 kJ/mol
# GULP energy per Si atom -5579.817590 kJ/mol
# Density = 2.759689 g / cm^3
# Si number density = 27.659845 Si / 1000 Ang^3
#
#
#
# Elastic Constant Matrix: (Units=GPa)
#
#
# Indices 1 2 3 4 5 6 
#
# 1 128.2318 54.8227 65.8275 0.6810 -36.2450 -24.4818
# 2 54.8227 114.7613 36.8555 7.2385 -19.0972 -13.2378
# 3 65.8275 36.8555 146.4752 3.6053 -54.8591 -9.2603
# 4 0.6810 7.2385 3.6053 42.5965 -0.2100 -13.6904
# 5 -36.2450 -19.0972 -54.8591 -0.2100 49.8820 4.9450
# 6 -24.4818 -13.2378 -9.2603 -13.6904 4.9450 55.9311
#
#
#
# Elastic Compliance Matrix: (Units=1/GPa)
#
#
# Indices 1 2 3 4 5 6 
#
# 1 0.013211 -0.004258 -0.003089 0.002222 0.004141 0.004441
# 2 -0.004258 0.011168 -0.000696 -0.001700 0.000388 0.000214
# 3 -0.003089 -0.000696 0.012679 -0.001073 0.011498 -0.000697
# 4 0.002222 -0.001700 -0.001073 0.026011 -0.000784 0.006829
# 5 0.004141 0.000388 0.011498 -0.000784 0.035802 0.000451
# 6 0.004441 0.000214 -0.000697 0.006829 0.000451 0.021390
#
#
# Mechanical properties :
#
#
# Convention : Reuss Voigt Hill
#
# Bulk Modulus (GPa) = 47.67964 78.27554 62.97759
# Shear Modulus (GPa) = 34.88309 45.14608 40.01459
#
# Velocity S-wave (km/s) = 3.55511 4.04442 3.80763
# Velocity P-wave (km/s) = 5.84184 7.08312 6.49221
#
# Compressibility (1/GPa) = 0.02097331
#
# Stress axis : x y z
#
# Youngs Moduli (GPa) = 75.69501 89.54441 78.87156
#
# Poissons Ratio (x) = 0.38126 0.24360
# Poissons Ratio (y) = 0.32229 0.05487
# Poissons Ratio (z) = 0.23379 0.06229
#
# Static dielectric constant tensor:
#      x y z
#    x 3.498180 -0.407460 -0.558620 
#    y -0.407460 2.334160 0.261870 
#    z -0.558620 0.261870 2.467380 
# 
# From -- ./inp_files/467684.got.cif
#   From: 2010.05.17/outbox.cif.g08.bks.cpg/sg2_234_cif.got.tgz:467684.got - 2010.06.03 11:33:40.
