data_PCOD9010332
_publ_section_title
;
Structure prediction by ZEFSAII (Michael W. Deem and Ramdas Pophale) SiO2 
 PCOD9010332
Probable space group: P -1
;
_chemical_formula_sum "Si O2"
_cell_formula_units_Z 16
_cell_length_a 16.698118
_cell_length_b 17.494840
_cell_length_c 16.253852
_cell_angle_alpha 155.834804
_cell_angle_beta 23.295111
_cell_angle_gamma 156.205873
_cell_volume 676.167271
_symmetry_space_group_name_H-M "P -1"
_symmetry_group_IT_number 2
_symmetry_cell_setting 'triclinic'
loop_
_space_group_symop_operation_xyz
x,y,z
-x,-y,-z
loop_
_atom_site_type_symbol
_atom_site_label
_atom_site_fract_x
_atom_site_fract_y
_atom_site_fract_z
Si Si1 0.931291 0.066528 0.045621
Si Si2 0.813674 0.401867 0.507254
Si Si3 0.271457 0.098136 0.362911
Si Si4 0.508782 0.277105 0.052341
Si Si5 0.920598 0.733571 0.595643
Si Si6 0.391122 0.400940 0.863162
Si Si7 0.730955 0.344803 0.076325
Si Si8 0.622218 0.928396 0.582998
O O1 0.750328 0.154622 0.315968
O O2 0.149600 0.274017 0.008894
O O3 0.000000 0.000000 0.000000
O O4 0.891967 0.885963 0.840124
O O5 0.901787 0.535470 0.470301
O O6 0.595742 0.437611 0.767925
O O7 0.000000 0.500000 0.500000
O O8 0.488904 0.290040 0.298971
O O9 0.316522 0.149685 0.467597
O O10 0.000000 0.000000 0.500000
O O11 0.291269 0.886142 0.126162
O O12 0.285121 0.306126 0.311120
O O13 0.587480 0.398634 0.010380
O O14 0.691798 0.386250 0.059308
O O15 0.451038 0.029022 0.859024
O O16 0.156207 0.862123 0.452895
O O17 0.422326 0.247922 0.616029
O O18 0.000000 0.500000 0.000000
#
# Coordination Sequence:
#
# PCOD9010332 Si02
#       8
#     2   2   2   2   2   2   2   2
#     4  11  22  40  60  89 119 160 200 257 314 363
#     4  11  22  40  59  89 118 156 205 254 307 378
#     4  10  22  41  66  96 130 171 215 267 325 384
#     4  10  21  42  62  88 123 163 202 259 313 371
#     4  10  21  40  63  85 122 159 207 257 311 373
#     4  10  24  40  62  89 118 160 210 248 312 379
#     4  10  23  42  64  97 132 169 216 266 325 385
#     4  10  21  41  61  90 122 161 206 259 310 372
#
# _framework density 23.662783999999998
#
# number of rings (size 3 to 8) (size 9 to 14) (size 15 to 20)
#    0.000    1.750    1.250    2.250    1.750    1.500 
#   18.000    0.000    0.000    0.000    0.000    0.000 
#    0.000    0.000    0.000    0.000    0.000    0.000 
#
# Total GULP energy -89225.996049 kJ/mol
# GULP energy per Si atom -5576.624753 kJ/mol
# Density = 2.360893 g / cm^3
# Si number density = 23.662784 Si / 1000 Ang^3
#
#
#
# Elastic Constant Matrix: (Units=GPa)
#
#
# Indices 1 2 3 4 5 6 
#
# 1 132.5097 17.3452 45.4048 -5.3294 -19.9699 12.3840
# 2 17.3452 76.9056 17.0784 -11.7031 0.4702 1.1654
# 3 45.4048 17.0784 89.5692 13.9445 -22.3644 -9.9283
# 4 -5.3294 -11.7031 13.9445 38.1778 -0.3787 -6.2196
# 5 -19.9699 0.4702 -22.3644 -0.3787 36.4503 -1.0400
# 6 12.3840 1.1654 -9.9283 -6.2196 -1.0400 31.7803
#
#
#
# Elastic Compliance Matrix: (Units=1/GPa)
#
#
# Indices 1 2 3 4 5 6 
#
# 1 0.010474 -0.000677 -0.005600 0.002466 0.002187 -0.005252
# 2 -0.000677 0.015048 -0.004308 0.005968 -0.003162 -0.000569
# 3 -0.005600 -0.004308 0.019012 -0.007813 0.008772 0.007038
# 4 0.002466 0.005968 -0.007813 0.031590 -0.003121 0.002460
# 5 0.002187 -0.003162 0.008772 -0.003121 0.034094 0.002509
# 6 -0.005252 -0.000569 0.007038 0.002460 0.002509 0.036296
#
#
# Mechanical properties :
#
#
# Convention : Reuss Voigt Hill
#
# Bulk Modulus (GPa) = 42.80301 50.96014 46.88158
# Shear Modulus (GPa) = 28.49446 35.89208 32.19327
#
# Velocity S-wave (km/s) = 3.47391 3.89886 3.69250
# Velocity P-wave (km/s) = 5.84968 6.46922 6.16724
#
# Compressibility (1/GPa) = 0.02336284
#
# Stress axis : x y z
#
# Youngs Moduli (GPa) = 95.47625 66.45214 52.59955
#
# Poissons Ratio (x) = 0.04499 0.29458
# Poissons Ratio (y) = 0.06464 0.22660
# Poissons Ratio (z) = 0.53471 0.28627
#
# Static dielectric constant tensor:
#      x y z
#    x 1.952720 0.065800 -0.010980 
#    y 0.065800 1.919530 -0.041760 
#    z -0.010980 -0.041760 1.945490 
# 
# From -- ./inp_files/534537.got.cif
#   From: 2010.05.17/outbox.cif.g08.bks.cpg/sg2_268_cif.got.tgz:534537.got - 2010.06.03 11:33:40.
