data_PCOD9010313
_publ_section_title
;
Structure prediction by ZEFSAII (Michael W. Deem and Ramdas Pophale) SiO2 
 PCOD9010313
Probable space group: P -1
;
_chemical_formula_sum "Si O2"
_cell_formula_units_Z 16
_cell_length_a 8.213809
_cell_length_b 12.785772
_cell_length_c 10.694023
_cell_angle_alpha 92.011791
_cell_angle_beta 114.790951
_cell_angle_gamma 47.494756
_cell_volume 698.054773
_symmetry_space_group_name_H-M "P -1"
_symmetry_group_IT_number 2
_symmetry_cell_setting 'triclinic'
loop_
_space_group_symop_operation_xyz
x,y,z
-x,-y,-z
loop_
_atom_site_type_symbol
_atom_site_label
_atom_site_fract_x
_atom_site_fract_y
_atom_site_fract_z
Si Si1 0.086514 0.080218 0.063052
Si Si2 0.005360 0.665229 0.050779
Si Si3 0.759385 0.548168 0.350090
Si Si4 0.630284 0.276310 0.541835
Si Si5 0.611137 0.685196 0.788227
Si Si6 0.024761 0.925467 0.697140
Si Si7 0.977019 0.258490 0.487215
Si Si8 0.329249 0.210823 0.802590
O O1 0.930283 0.244290 0.963904
O O2 0.062161 0.093301 0.204830
O O3 0.382271 0.958442 0.101593
O O4 0.000000 0.000000 0.000000
O O5 0.804520 0.696497 0.889205
O O6 0.852316 0.733987 0.135840
O O7 0.246752 0.483496 0.135161
O O8 0.529663 0.638672 0.381109
O O9 0.862660 0.387392 0.353237
O O10 0.675312 0.661650 0.217646
O O11 0.000000 0.500000 0.500000
O O12 0.453718 0.295388 0.379113
O O13 0.748537 0.327878 0.515448
O O14 0.872496 0.098351 0.644247
O O15 0.335500 0.810752 0.777587
O O16 0.946191 0.882446 0.557110
O O17 0.206215 0.212628 0.638375
#
# Coordination Sequence:
#
# PCOD9010313 Si02
#       8
#     2   2   2   2   2   2   2   2
#     4  12  28  44  66  98 136 184 227 276 335 412
#     4  11  26  44  70  95 136 188 227 276 332 408
#     4  10  21  40  63 100 137 173 220 274 333 403
#     4  11  22  42  70 102 138 173 224 282 345 398
#     4  10  23  45  69 100 133 179 228 277 342 402
#     4  11  25  44  68 104 135 173 223 287 342 396
#     4  10  23  38  70 101 132 176 216 284 344 394
#     4  11  24  43  65  97 134 178 227 273 338 404
#
# _framework density 22.920838
#
# number of rings (size 3 to 8) (size 9 to 14) (size 15 to 20)
#    0.000    1.250    1.250    4.500    5.250    8.000 
#    0.000    0.000    0.000    0.000    0.000    0.000 
#    0.000    0.000    0.000    0.000    0.000    0.000 
#
# Total GULP energy -89559.774516 kJ/mol
# GULP energy per Si atom -5597.485907 kJ/mol
# Density = 2.286867 g / cm^3
# Si number density = 22.920838 Si / 1000 Ang^3
#
#
#
# Elastic Constant Matrix: (Units=GPa)
#
#
# Indices 1 2 3 4 5 6 
#
# 1 54.9598 31.6301 12.5354 -9.3772 -9.6178 22.3013
# 2 31.6301 98.7044 17.8004 -19.5424 10.3498 5.1908
# 3 12.5354 17.8004 50.6970 -10.1277 1.3245 -5.5302
# 4 -9.3772 -19.5424 -10.1277 22.3100 5.1669 1.1480
# 5 -9.6178 10.3498 1.3245 5.1669 38.0013 -10.9034
# 6 22.3013 5.1908 -5.5302 1.1480 -10.9034 27.8167
#
#
#
# Elastic Compliance Matrix: (Units=1/GPa)
#
#
# Indices 1 2 3 4 5 6 
#
# 1 0.038986 -0.008422 -0.008922 0.005858 0.002907 -0.030561
# 2 -0.008422 0.016311 -0.001014 0.012214 -0.008267 -0.000238
# 3 -0.008922 -0.001014 0.024807 0.006066 -0.000249 0.011926
# 4 0.005858 0.012214 0.006066 0.064949 -0.014997 -0.014329
# 5 0.002907 -0.008267 -0.000249 -0.014997 0.035252 0.013599
# 6 -0.030561 -0.000238 0.011926 -0.014329 0.013599 0.068788
#
#
# Mechanical properties :
#
#
# Convention : Reuss Voigt Hill
#
# Bulk Modulus (GPa) = 23.04864 36.47702 29.76283
# Shear Modulus (GPa) = 16.65164 27.11863 21.88514
#
# Velocity S-wave (km/s) = 2.69826 3.44342 3.09336
# Velocity P-wave (km/s) = 4.44804 5.63546 5.07659
#
# Compressibility (1/GPa) = 0.04338650
#
# Stress axis : x y z
#
# Youngs Moduli (GPa) = 25.65027 61.30962 40.31189
#
# Poissons Ratio (x) = 0.51634 0.35966
# Poissons Ratio (y) = 0.21602 0.04090
# Poissons Ratio (z) = 0.22885 0.06220
#
# Static dielectric constant tensor:
#      x y z
#    x 1.854980 0.017240 0.011760 
#    y 0.017240 1.839770 0.003330 
#    z 0.011760 0.003330 1.887610 
# 
# From -- ./inp_files/392691.got.cif
#   From: 2010.05.17/outbox.cif.g08.bks.cpg/sg2_197_cif.got.tgz:392691.got - 2010.06.03 11:33:40.
