data_PCOD9010272
_publ_section_title
;
Structure prediction by ZEFSAII (Michael W. Deem and Ramdas Pophale) SiO2 
 PCOD9010272
Probable space group: P -1
;
_chemical_formula_sum "Si O2"
_cell_formula_units_Z 14
_cell_length_a 9.079009
_cell_length_b 13.954208
_cell_length_c 15.758714
_cell_angle_alpha 27.625585
_cell_angle_beta 88.016573
_cell_angle_gamma 67.888412
_cell_volume 616.040324
_symmetry_space_group_name_H-M "P -1"
_symmetry_group_IT_number 2
_symmetry_cell_setting 'triclinic'
loop_
_space_group_symop_operation_xyz
x,y,z
-x,-y,-z
loop_
_atom_site_type_symbol
_atom_site_label
_atom_site_fract_x
_atom_site_fract_y
_atom_site_fract_z
Si Si1 0.904744 0.066286 0.045908
Si Si2 0.054840 0.587133 0.010533
Si Si3 0.604664 0.020626 0.739451
Si Si4 0.169150 0.856725 0.531968
Si Si5 0.499551 0.814961 0.030883
Si Si6 0.352642 0.579231 0.517989
Si Si7 0.422484 0.266619 0.382557
O O1 0.737144 0.049626 0.068558
O O2 0.765612 0.402470 0.823678
O O3 0.108626 0.823612 0.295257
O O4 0.000000 0.000000 0.000000
O O5 0.290617 0.328343 0.253907
O O6 0.867505 0.714531 0.981256
O O7 0.987417 0.883448 0.743181
O O8 0.000000 0.500000 0.000000
O O9 0.593294 0.282125 0.529991
O O10 0.511702 0.032156 0.642912
O O11 0.486805 0.045432 0.802603
O O12 0.313575 0.507787 0.774097
O O13 0.364199 0.817913 0.580021
O O14 0.000000 0.000000 0.500000
O O15 0.585747 0.691826 0.221053
O O16 0.500000 0.500000 0.500000
#
# Coordination Sequence:
#
# PCOD9010272 Si02
#       7
#     2   2   2   2   2   2   2
#     4  11  20  41  67  92 128 172 211 266 332 384
#     4  11  22  40  65  91 131 176 215 272 331 381
#     4  11  23  41  65  95 131 169 224 268 321 396
#     4  10  21  40  62  95 130 167 221 268 323 389
#     4  11  23  41  65  97 128 172 220 265 328 391
#     4  12  22  43  67  92 135 171 209 278 328 383
#     4  10  21  41  64  89 133 173 212 274 325 385
#
# _framework density 22.725784999999998
#
# number of rings (size 3 to 8) (size 9 to 14) (size 15 to 20)
#    0.000    1.143    7.143    0.857    0.000    4.571 
#    0.000    5.714    0.000    0.000    0.000    0.000 
#    0.000    0.000    0.000    0.000    0.000    0.000 
#
# Total GULP energy -78091.921863 kJ/mol
# GULP energy per Si atom -5577.994419 kJ/mol
# Density = 2.267406 g / cm^3
# Si number density = 22.725785 Si / 1000 Ang^3
#
#
#
# Elastic Constant Matrix: (Units=GPa)
#
#
# Indices 1 2 3 4 5 6 
#
# 1 92.1101 48.6617 71.7983 22.0878 22.4406 -22.9848
# 2 48.6617 118.9254 22.4629 20.2673 9.9597 -25.0223
# 3 71.7983 22.4629 133.2993 27.2229 37.5454 -9.9503
# 4 22.0878 20.2673 27.2229 44.4936 0.6806 1.8942
# 5 22.4406 9.9597 37.5454 0.6806 56.8584 6.3122
# 6 -22.9848 -25.0223 -9.9503 1.8942 6.3122 50.1097
#
#
#
# Elastic Compliance Matrix: (Units=1/GPa)
#
#
# Indices 1 2 3 4 5 6 
#
# 1 0.025925 -0.006209 -0.010881 -0.003646 -0.002705 0.007109
# 2 -0.006209 0.012229 0.003163 -0.004574 -0.002207 0.004337
# 3 -0.010881 0.003163 0.015998 -0.005759 -0.006848 0.000846
# 4 -0.003646 -0.004574 -0.005759 0.030093 0.006465 -0.007052
# 5 -0.002705 -0.002207 -0.006848 0.006465 0.024264 -0.007004
# 6 0.007109 0.004337 0.000846 -0.007052 -0.007004 0.026700
#
#
# Mechanical properties :
#
#
# Convention : Reuss Voigt Hill
#
# Bulk Modulus (GPa) = 38.02455 70.02006 54.02231
# Shear Modulus (GPa) = 29.09880 43.71981 36.40930
#
# Velocity S-wave (km/s) = 3.58219 4.39087 4.00698
# Velocity P-wave (km/s) = 5.82046 7.52224 6.72539
#
# Compressibility (1/GPa) = 0.02629880
#
# Stress axis : x y z
#
# Youngs Moduli (GPa) = 38.57214 81.77398 62.50970
#
# Poissons Ratio (x) = 0.50776 0.68014
# Poissons Ratio (y) = 0.23951 -0.19774
# Poissons Ratio (z) = 0.41968 -0.25868
#
# Static dielectric constant tensor:
#      x y z
#    x 1.830040 0.078000 -0.029330 
#    y 0.078000 2.011460 -0.046980 
#    z -0.029330 -0.046980 1.901000 
# 
# From -- ./inp_files/197368.got.cif
#   From: 2010.05.17/outbox.cif.g08.bks.cpg/sg2_99_cif.got.tgz:197368.got - 2010.06.03 11:33:40.
