data_PCOD9010437
_publ_section_title
;
Structure prediction by ZEFSAII (Michael W. Deem and Ramdas Pophale) SiO2 
 PCOD9010437
Probable space group: P -1
;
_chemical_formula_sum "Si O2"
_cell_formula_units_Z 12
_cell_length_a 12.280204
_cell_length_b 9.704318
_cell_length_c 8.551328
_cell_angle_alpha 136.030676
_cell_angle_beta 123.913275
_cell_angle_gamma 48.612667
_cell_volume 524.181384
_symmetry_space_group_name_H-M "P -1"
_symmetry_group_IT_number 2
_symmetry_cell_setting 'triclinic'
loop_
_space_group_symop_operation_xyz
x,y,z
-x,-y,-z
loop_
_atom_site_type_symbol
_atom_site_label
_atom_site_fract_x
_atom_site_fract_y
_atom_site_fract_z
Si Si1 0.342187 0.344945 0.609788
Si Si2 0.091236 0.355459 0.189139
Si Si3 0.091007 0.773205 0.478668
Si Si4 0.447747 0.027925 0.731994
Si Si5 0.300828 0.945434 0.835376
Si Si6 0.909860 0.251311 0.188322
O O1 0.209148 0.325113 0.396291
O O2 0.386630 0.199521 0.682249
O O3 0.267024 0.605388 0.813309
O O4 0.473237 0.217522 0.486762
O O5 0.088745 0.550252 0.235229
O O6 0.949745 0.385456 0.197499
O O7 0.159532 0.128997 0.961706
O O8 0.032405 0.773745 0.607722
O O9 0.256016 0.749502 0.604154
O O10 0.000000 0.000000 0.500000
O O11 0.329545 0.032816 0.765394
O O12 0.563596 0.083505 0.969135
O O13 0.000000 0.000000 0.000000
#
# Coordination Sequence:
#
# PCOD9010437 Si02
#       6
#     2   2   2   2   2   2
#     4   9  19  38  66  88 120 170 210 246 322 361
#     4  10  22  41  63  90 131 161 206 268 314 366
#     4  11  24  38  62  98 126 165 209 260 321 372
#     4   9  20  39  64  91 126 171 204 262 298 385
#     4  10  21  40  63  90 131 158 215 255 317 366
#     4  11  22  41  64  94 127 165 209 263 316 373
#
# _framework density 22.892838000000001
#
# number of rings (size 3 to 8) (size 9 to 14) (size 15 to 20)
#    0.000    2.000    1.667    2.000    4.667    2.000 
#    0.000   16.667    3.667    0.000    0.000    0.000 
#    0.000    0.000    0.000    0.000    0.000    0.000 
#
# Total GULP energy -66842.216475 kJ/mol
# GULP energy per Si atom -5570.184706 kJ/mol
# Density = 2.284073 g / cm^3
# Si number density = 22.892838 Si / 1000 Ang^3
#
#
#
# Elastic Constant Matrix: (Units=GPa)
#
#
# Indices 1 2 3 4 5 6 
#
# 1 92.9255 15.5214 16.3703 -6.3671 -9.7776 23.9643
# 2 15.5214 116.9776 20.3833 1.0376 -6.6959 11.3906
# 3 16.3703 20.3833 79.2746 2.6627 -3.7377 2.4634
# 4 -6.3671 1.0376 2.6627 34.3930 4.1108 -6.1463
# 5 -9.7776 -6.6959 -3.7377 4.1108 39.6460 8.7714
# 6 23.9643 11.3906 2.4634 -6.1463 8.7714 29.5677
#
#
#
# Elastic Compliance Matrix: (Units=1/GPa)
#
#
# Indices 1 2 3 4 5 6 
#
# 1 0.015665 0.000187 -0.002486 -0.000371 0.006952 -0.014701
# 2 0.000187 0.009518 -0.002177 -0.001230 0.002608 -0.004666
# 3 -0.002486 -0.002177 0.013690 -0.001214 0.000121 0.001425
# 4 -0.000371 -0.001230 -0.001214 0.031444 -0.005687 0.009099
# 5 0.006952 0.002608 0.000121 -0.005687 0.031799 -0.017265
# 6 -0.014701 -0.004666 0.001425 0.009099 -0.017265 0.054428
#
#
# Mechanical properties :
#
#
# Convention : Reuss Voigt Hill
#
# Bulk Modulus (GPa) = 33.42034 43.74752 38.58393
# Shear Modulus (GPa) = 28.49528 36.51483 32.50506
#
# Velocity S-wave (km/s) = 3.53189 3.99812 3.77222
# Velocity P-wave (km/s) = 5.59130 6.36117 5.98862
#
# Compressibility (1/GPa) = 0.02992189
#
# Stress axis : x y z
#
# Youngs Moduli (GPa) = 63.83592 105.06777 73.04816
#
# Poissons Ratio (x) = -0.01968 0.18160
# Poissons Ratio (y) = -0.01196 0.15900
# Poissons Ratio (z) = 0.15870 0.22869
#
# Static dielectric constant tensor:
#      x y z
#    x 1.823730 -0.094370 -0.033410 
#    y -0.094370 2.372140 0.320800 
#    z -0.033410 0.320800 2.120450 
# 
# From -- ./inp_files/236257.got.cif
#   From: 2010.05.17/outbox.cif.g08.bks.cpg/sg2_119_cif.got.tgz:236257.got - 2010.06.03 11:33:40.
