data_PCOD9010158
_publ_section_title
;
Structure prediction by ZEFSAII (Michael W. Deem and Ramdas Pophale) SiO2 
 PCOD9010158
Probable space group: P -1
;
_chemical_formula_sum "Si O2"
_cell_formula_units_Z 16
_cell_length_a 15.010524
_cell_length_b 9.975895
_cell_length_c 20.944854
_cell_angle_alpha 135.247412
_cell_angle_beta 21.048929
_cell_angle_gamma 139.289220
_cell_volume 734.679587
_symmetry_space_group_name_H-M "P -1"
_symmetry_group_IT_number 2
_symmetry_cell_setting 'triclinic'
loop_
_space_group_symop_operation_xyz
x,y,z
-x,-y,-z
loop_
_atom_site_type_symbol
_atom_site_label
_atom_site_fract_x
_atom_site_fract_y
_atom_site_fract_z
Si Si1 0.394649 0.180804 0.438420
Si Si2 0.125798 0.088807 0.765472
Si Si3 0.554634 0.916828 0.037110
Si Si4 0.128778 0.865649 0.408515
Si Si5 0.797846 0.480803 0.570657
Si Si6 0.429343 0.010205 0.637488
Si Si7 0.188164 0.442062 0.764008
Si Si8 0.635014 0.329178 0.043453
O O1 0.255344 0.294163 0.616737
O O2 0.558926 0.346906 0.332348
O O3 0.187617 0.979314 0.475910
O O4 0.596486 0.107350 0.318618
O O5 0.159836 0.013794 0.787691
O O6 0.128638 0.315957 0.827238
O O7 0.405424 0.096569 0.550881
O O8 0.859456 0.942597 0.857604
O O9 0.396087 0.887599 0.199219
O O10 0.569051 0.125390 0.062485
O O11 0.396595 0.741239 0.032933
O O12 0.953447 0.627551 0.457867
O O13 0.000000 0.000000 0.500000
O O14 0.638896 0.243616 0.581105
O O15 0.576658 0.569298 0.768695
O O16 0.000000 0.500000 0.500000
O O17 0.930799 0.468941 0.915621
#
# Coordination Sequence:
#
# PCOD9010158 Si02
#       8
#     2   2   2   2   2   2   2   2
#     4  10  21  40  62  89 126 156 201 251 304 355
#     4   9  20  39  65  88 118 160 205 246 300 360
#     4  10  21  40  64  92 120 156 206 260 295 351
#     4  12  24  39  62  95 121 157 208 257 296 353
#     4  12  24  41  62  89 125 167 199 242 314 368
#     4  10  21  41  61  87 126 166 194 242 310 370
#     4   9  20  38  66  92 112 160 208 251 294 355
#     4  10  21  40  65  89 122 160 202 250 309 356
#
# _framework density 21.778202
#
# number of rings (size 3 to 8) (size 9 to 14) (size 15 to 20)
#    0.000    1.750    2.500    1.500    5.250    1.000 
#    6.750    5.000    0.000    0.000    0.000    0.000 
#    0.000    0.000    0.000    0.000    0.000    0.000 
#
# Total GULP energy -89317.062452 kJ/mol
# GULP energy per Si atom -5582.316403 kJ/mol
# Density = 2.172863 g / cm^3
# Si number density = 21.778202 Si / 1000 Ang^3
#
#
#
# Elastic Constant Matrix: (Units=GPa)
#
#
# Indices 1 2 3 4 5 6 
#
# 1 80.9074 12.3564 23.5109 20.0671 -32.3145 -17.4850
# 2 12.3564 38.4987 6.6055 -1.7236 -0.2420 -2.7299
# 3 23.5109 6.6055 61.5504 2.7675 -25.2705 -8.6718
# 4 20.0671 -1.7236 2.7675 14.6591 -7.4625 -3.3674
# 5 -32.3145 -0.2420 -25.2705 -7.4625 39.3988 7.2474
# 6 -17.4850 -2.7299 -8.6718 -3.3674 7.2474 28.2703
#
#
#
# Elastic Compliance Matrix: (Units=1/GPa)
#
#
# Indices 1 2 3 4 5 6 
#
# 1 0.031359 -0.010571 -0.001029 -0.033115 0.016925 0.009776
# 2 -0.010571 0.030445 -0.003110 0.014591 -0.007553 -0.000878
# 3 -0.001029 -0.003110 0.023036 0.004636 0.014232 0.003033
# 4 -0.033115 0.014591 0.004636 0.112460 -0.002113 -0.003713
# 5 0.016925 -0.007553 0.014232 -0.002113 0.047644 0.001639
# 6 0.009776 -0.000878 0.003033 -0.003713 0.001639 0.041402
#
#
# Mechanical properties :
#
#
# Convention : Reuss Voigt Hill
#
# Bulk Modulus (GPa) = 18.04432 29.54468 23.79450
# Shear Modulus (GPa) = 14.95931 25.69790 20.32860
#
# Velocity S-wave (km/s) = 2.62371 3.43881 3.05854
# Velocity P-wave (km/s) = 4.18114 5.41875 4.83967
#
# Compressibility (1/GPa) = 0.05541911
#
# Stress axis : x y z
#
# Youngs Moduli (GPa) = 31.88859 32.84610 43.41055
#
# Poissons Ratio (x) = 0.34723 0.04467
# Poissons Ratio (y) = 0.33711 0.13501
# Poissons Ratio (z) = 0.03281 0.10215
#
# Static dielectric constant tensor:
#      x y z
#    x 1.855270 -0.017050 0.023960 
#    y -0.017050 1.793260 0.011230 
#    z 0.023960 0.011230 1.798870 
# 
# From -- ./inp_files/237875.got.cif
#   From: 2010.05.17/outbox.cif.g08.bks.cpg/sg2_119_cif.got.tgz:237875.got - 2010.06.03 11:33:40.
