data_PCOD9010631
_publ_section_title
;
Structure prediction by ZEFSAII (Michael W. Deem and Ramdas Pophale) SiO2 
 PCOD9010631
Probable space group: P -1
;
_chemical_formula_sum "Si O2"
_cell_formula_units_Z 16
_cell_length_a 13.946604
_cell_length_b 11.418400
_cell_length_c 12.454712
_cell_angle_alpha 103.357149
_cell_angle_beta 122.615523
_cell_angle_gamma 30.058098
_cell_volume 694.288648
_symmetry_space_group_name_H-M "P -1"
_symmetry_group_IT_number 2
_symmetry_cell_setting 'triclinic'
loop_
_space_group_symop_operation_xyz
x,y,z
-x,-y,-z
loop_
_atom_site_type_symbol
_atom_site_label
_atom_site_fract_x
_atom_site_fract_y
_atom_site_fract_z
Si Si1 0.203456 0.267992 0.329655
Si Si2 0.485360 0.652831 0.872957
Si Si3 0.130916 0.694939 0.167012
Si Si4 0.741191 0.327761 0.394235
Si Si5 0.835894 0.409908 0.232650
Si Si6 0.051410 0.684690 0.334707
Si Si7 0.679714 0.033931 0.831721
Si Si8 0.209683 0.878430 0.275342
O O1 0.063290 0.530820 0.304612
O O2 0.006191 0.363071 0.289711
O O3 0.500000 0.000000 0.500000
O O4 0.264548 0.147459 0.226854
O O5 0.656092 0.523628 0.844123
O O6 0.390115 0.606031 0.778971
O O7 0.669094 0.506313 0.054944
O O8 0.229628 0.983111 0.787478
O O9 0.225526 0.563523 0.312704
O O10 0.039095 0.922380 0.159840
O O11 0.878781 0.859175 0.013203
O O12 0.842694 0.362885 0.499323
O O13 0.504188 0.539607 0.384034
O O14 0.000000 0.000000 0.500000
O O15 0.614715 0.660423 0.237168
O O16 0.068923 0.088501 0.328521
O O17 0.755167 0.062456 0.791807
#
# Coordination Sequence:
#
# PCOD9010631 Si02
#       8
#     2   2   2   2   2   2   2   2
#     4  11  26  48  68  92 132 175 225 275 323 395
#     4  10  21  40  63  99 135 166 217 271 332 388
#     4  11  22  39  64 100 134 172 215 269 336 388
#     4   9  21  40  63  92 134 173 209 267 327 386
#     4  11  23  42  67 101 130 173 223 271 329 390
#     4  11  23  42  66  96 135 175 221 266 331 394
#     4  11  23  42  65  98 130 172 225 269 330 387
#     4  10  22  39  66  96 139 169 214 274 323 392
#
# _framework density 23.045168
#
# number of rings (size 3 to 8) (size 9 to 14) (size 15 to 20)
#    0.000    1.500    3.750    1.875    1.750    8.000 
#    0.000    6.250    0.000    0.000    0.000    0.000 
#    0.000    0.000    0.000    0.000    0.000    0.000 
#
# Total GULP energy -89264.914102 kJ/mol
# GULP energy per Si atom -5579.057131 kJ/mol
# Density = 2.299272 g / cm^3
# Si number density = 23.045168 Si / 1000 Ang^3
#
#
#
# Elastic Constant Matrix: (Units=GPa)
#
#
# Indices 1 2 3 4 5 6 
#
# 1 75.9042 50.2493 33.6917 19.4319 11.3707 2.5734
# 2 50.2493 180.5744 38.0007 18.3553 26.4637 13.5689
# 3 33.6917 38.0007 116.1323 18.8335 18.1968 7.5660
# 4 19.4319 18.3553 18.8335 38.0934 0.2054 13.1110
# 5 11.3707 26.4637 18.1968 0.2054 24.4887 6.0494
# 6 2.5734 13.5689 7.5660 13.1110 6.0494 41.2510
#
#
#
# Elastic Compliance Matrix: (Units=1/GPa)
#
#
# Indices 1 2 3 4 5 6 
#
# 1 0.019321 -0.003715 -0.002755 -0.007917 -0.003729 0.003585
# 2 -0.003715 0.007739 -0.000188 -0.001391 -0.006260 -0.000919
# 3 -0.002755 -0.000188 0.011203 -0.004187 -0.006937 0.000527
# 4 -0.007917 -0.001391 -0.004187 0.036972 0.010851 -0.011623
# 5 -0.003729 -0.006260 -0.006937 0.010851 0.056410 -0.008157
# 6 0.003585 -0.000919 0.000527 -0.011623 -0.008157 0.029114
#
#
# Mechanical properties :
#
#
# Convention : Reuss Voigt Hill
#
# Bulk Modulus (GPa) = 40.08535 68.49938 54.29236
# Shear Modulus (GPa) = 27.41357 37.47789 32.44573
#
# Velocity S-wave (km/s) = 3.45274 4.03709 3.75630
# Velocity P-wave (km/s) = 5.77297 7.17769 6.51331
#
# Compressibility (1/GPa) = 0.02494677
#
# Stress axis : x y z
#
# Youngs Moduli (GPa) = 51.75843 129.21416 89.25840
#
# Poissons Ratio (x) = 0.48000 0.24590
# Poissons Ratio (y) = 0.19227 0.01682
# Poissons Ratio (z) = 0.14259 0.02434
#
# Static dielectric constant tensor:
#      x y z
#    x 1.923980 -0.035660 -0.000390 
#    y -0.035660 1.905010 -0.017110 
#    z -0.000390 -0.017110 1.900150 
# 
# From -- ./inp_files/532557.got.cif
#   From: 2010.05.17/outbox.cif.g08.bks.cpg/sg2_267_cif.got.tgz:532557.got - 2010.06.03 11:33:40.
