data_PCOD9010248
_publ_section_title
;
Structure prediction by ZEFSAII (Michael W. Deem and Ramdas Pophale) SiO2 
 PCOD9010248
Probable space group: P -1
;
_chemical_formula_sum "Si O2"
_cell_formula_units_Z 16
_cell_length_a 16.376419
_cell_length_b 6.803653
_cell_length_c 23.850344
_cell_angle_alpha 122.903112
_cell_angle_beta 162.433018
_cell_angle_gamma 58.721268
_cell_volume 673.389183
_symmetry_space_group_name_H-M "P -1"
_symmetry_group_IT_number 2
_symmetry_cell_setting 'triclinic'
loop_
_space_group_symop_operation_xyz
x,y,z
-x,-y,-z
loop_
_atom_site_type_symbol
_atom_site_label
_atom_site_fract_x
_atom_site_fract_y
_atom_site_fract_z
Si Si1 0.269464 0.612602 0.806171
Si Si2 0.901920 0.019389 0.103759
Si Si3 0.959439 0.814639 0.994220
Si Si4 0.410294 0.821313 0.691300
Si Si5 0.208726 0.292579 0.620524
Si Si6 0.857070 0.547703 0.175482
Si Si7 0.485269 0.660270 0.280322
Si Si8 0.119143 0.978368 0.366187
O O1 0.261085 0.371237 0.729608
O O2 0.193885 0.542073 0.808701
O O3 0.075373 0.831232 0.700202
O O4 0.575446 0.685116 0.002540
O O5 0.899789 0.298256 0.134982
O O6 0.046781 0.903106 0.126913
O O7 0.025268 0.964537 0.237303
O O8 0.595609 0.920610 0.879554
O O9 0.173808 0.615617 0.085309
O O10 0.000000 0.000000 0.000000
O O11 0.636700 0.790178 0.786043
O O12 0.333650 0.559376 0.615403
O O13 0.179238 0.011598 0.557230
O O14 0.461255 0.319893 0.747629
O O15 0.000000 0.500000 0.500000
O O16 0.086887 0.729198 0.336511
O O17 0.595150 0.892100 0.418593
#
# Coordination Sequence:
#
# PCOD9010248 Si02
#       8
#     2   2   2   2   2   2   2   2
#     4  10  21  40  62  93 126 173 229 268 323 394
#     4   9  22  41  66  97 125 171 229 271 320 400
#     4  10  21  45  72  98 131 176 233 275 329 398
#     4  10  24  44  72  95 132 176 229 279 321 408
#     4  12  24  43  64 101 133 175 225 277 338 396
#     4  10  21  41  67  89 130 175 222 274 325 393
#     4  12  25  43  67 101 138 177 218 281 346 385
#     4  11  24  40  62  99 136 172 219 274 339 396
#
# _framework density 23.760407000000001
#
# number of rings (size 3 to 8) (size 9 to 14) (size 15 to 20)
#    0.750    0.750    3.750    0.750    1.750    4.000 
#    0.000    0.625    0.000    0.000    0.000    0.000 
#    0.000    0.000    0.000    0.000    0.000    0.000 
#
# Total GULP energy -89152.176985 kJ/mol
# GULP energy per Si atom -5572.011062 kJ/mol
# Density = 2.370633 g / cm^3
# Si number density = 23.760407 Si / 1000 Ang^3
#
#
#
# Elastic Constant Matrix: (Units=GPa)
#
#
# Indices 1 2 3 4 5 6 
#
# 1 113.3878 20.3393 15.7991 5.6133 5.5062 -13.6931
# 2 20.3393 133.8545 20.3068 9.8605 7.6508 -0.8282
# 3 15.7991 20.3068 61.0990 4.9065 7.1144 -2.8906
# 4 5.6133 9.8605 4.9065 38.8797 0.6808 10.5228
# 5 5.5062 7.6508 7.1144 0.6808 27.3413 -1.7421
# 6 -13.6931 -0.8282 -2.8906 10.5228 -1.7421 29.7620
#
#
#
# Elastic Compliance Matrix: (Units=1/GPa)
#
#
# Indices 1 2 3 4 5 6 
#
# 1 0.010028 -0.001005 -0.001718 -0.002369 -0.000901 0.005204
# 2 -0.001005 0.008154 -0.002144 -0.001640 -0.001477 0.000050
# 3 -0.001718 -0.002144 0.018156 -0.001797 -0.003649 0.001335
# 4 -0.002369 -0.001640 -0.001797 0.029927 -0.000100 -0.011897
# 5 -0.000901 -0.001477 -0.003649 -0.000100 0.038215 0.001462
# 6 0.005204 0.000050 0.001335 -0.011897 0.001462 0.040417
#
#
# Mechanical properties :
#
#
# Convention : Reuss Voigt Hill
#
# Bulk Modulus (GPa) = 37.58740 46.80351 42.19545
# Shear Modulus (GPa) = 30.58115 35.98968 33.28541
#
# Velocity S-wave (km/s) = 3.59146 3.89613 3.74689
# Velocity P-wave (km/s) = 5.74907 6.32302 6.04286
#
# Compressibility (1/GPa) = 0.02660466
#
# Stress axis : x y z
#
# Youngs Moduli (GPa) = 99.71697 122.63361 55.07816
#
# Poissons Ratio (x) = 0.12325 0.09461
# Poissons Ratio (y) = 0.10022 0.11810
# Poissons Ratio (z) = 0.17130 0.26295
#
# Static dielectric constant tensor:
#      x y z
#    x 1.904380 0.047570 -0.054850 
#    y 0.047570 1.940320 -0.040070 
#    z -0.054850 -0.040070 2.080260 
# 
# From -- ./inp_files/620158.got.cif
#   From: 2010.05.17/outbox.cif.g08.bks.cpg/sg2_311_cif.got.tgz:620158.got - 2010.06.03 11:33:40.
