data_PCOD9010779
_publ_section_title
;
Structure prediction by ZEFSAII (Michael W. Deem and Ramdas Pophale) SiO2 
 PCOD9010779
Probable space group: P -1
;
_chemical_formula_sum "Si O2"
_cell_formula_units_Z 16
_cell_length_a 7.998775
_cell_length_b 18.674431
_cell_length_c 5.984225
_cell_angle_alpha 58.399911
_cell_angle_beta 68.856761
_cell_angle_gamma 59.550667
_cell_volume 650.799370
_symmetry_space_group_name_H-M "P -1"
_symmetry_group_IT_number 2
_symmetry_cell_setting 'triclinic'
loop_
_space_group_symop_operation_xyz
x,y,z
-x,-y,-z
loop_
_atom_site_type_symbol
_atom_site_label
_atom_site_fract_x
_atom_site_fract_y
_atom_site_fract_z
Si Si1 0.517925 0.407962 0.522303
Si Si2 0.834662 0.320199 0.164283
Si Si3 0.200640 0.774587 0.073629
Si Si4 0.888489 0.079025 0.750891
Si Si5 0.209356 0.325852 0.755848
Si Si6 0.854773 0.770556 0.443870
Si Si7 0.439877 0.134054 0.217506
Si Si8 0.266779 0.997782 0.418268
O O1 0.500000 0.500000 0.500000
O O2 0.636739 0.391563 0.256843
O O3 0.656628 0.326468 0.749327
O O4 0.312871 0.395988 0.622333
O O5 0.981629 0.276579 0.371594
O O6 0.778228 0.246331 0.170990
O O7 0.981213 0.353887 0.893944
O O8 0.217592 0.832018 0.191832
O O9 0.965277 0.805704 0.151526
O O10 0.742683 0.049283 0.730272
O O11 0.057539 0.067720 0.503748
O O12 0.000000 0.000000 0.000000
O O13 0.215652 0.298365 0.538046
O O14 0.346865 0.231763 0.977645
O O15 0.683043 0.848487 0.521971
O O16 0.653501 0.085633 0.303264
O O17 0.397481 0.055761 0.241456
#
# Coordination Sequence:
#
# PCOD9010779 Si02
#       8
#     2   2   2   2   2   2   2   2
#     4  11  26  46  72 106 135 170 228 288 342 414
#     4   9  22  44  71  96 138 178 221 281 341 408
#     4  10  22  43  66  94 137 186 221 278 347 399
#     4  11  25  38  63  96 136 181 231 278 337 404
#     4  10  23  42  72 101 131 184 227 270 352 409
#     4   9  19  39  66  94 128 179 226 275 335 403
#     4  10  21  40  64  91 136 179 228 287 328 398
#     4  10  24  40  59  98 133 179 234 283 332 392
#
# _framework density 24.585148
#
# number of rings (size 3 to 8) (size 9 to 14) (size 15 to 20)
#    0.000    2.000    1.250    0.000    8.750    4.000 
#    0.000    8.125    0.000    0.000    0.000    0.000 
#    0.000    0.000    0.000    0.000    0.000    0.000 
#
# Total GULP energy -89161.243167 kJ/mol
# GULP energy per Si atom -5572.577698 kJ/mol
# Density = 2.452919 g / cm^3
# Si number density = 24.585148 Si / 1000 Ang^3
#
#
#
# Elastic Constant Matrix: (Units=GPa)
#
#
# Indices 1 2 3 4 5 6 
#
# 1 74.7579 27.5332 35.9783 40.6968 3.5720 34.6166
# 2 27.5332 154.5169 54.5153 42.2510 10.4882 43.0057
# 3 35.9783 54.5153 51.5772 13.6441 11.9970 21.0752
# 4 40.6968 42.2510 13.6441 23.2640 -7.2826 4.9522
# 5 3.5720 10.4882 11.9970 -7.2826 35.2793 14.2163
# 6 34.6166 43.0057 21.0752 4.9522 14.2163 54.7859
#
#
#
# Elastic Compliance Matrix: (Units=1/GPa)
#
#
# Indices 1 2 3 4 5 6 
#
# 1 -0.008897 -0.013378 0.005207 0.037167 0.007196 0.008894
# 2 -0.013378 0.002323 -0.000913 0.019841 0.003328 0.004324
# 3 0.005207 -0.000913 0.030465 -0.027556 -0.012897 -0.008456
# 4 0.037167 0.019841 -0.027556 -0.035477 0.002860 -0.025994
# 5 0.007196 0.003328 -0.012897 0.002860 0.036399 -0.011901
# 6 0.008894 0.004324 -0.008456 -0.025994 -0.011901 0.017930
#
#
# Mechanical properties :
#
#
# Convention : Reuss Voigt Hill
#
# Bulk Modulus (GPa) = 174.72290 57.43396 116.07843
# Shear Modulus (GPa) = 79.59275 33.52085 56.55680
#
# Velocity S-wave (km/s) = 5.69602 3.69651 4.80150
# Velocity P-wave (km/s) = 10.69964 6.45220 8.83496
#
# Compressibility (1/GPa) = 0.00572335
#
# Stress axis : x y z
#
# Youngs Moduli (GPa) = -112.39414 430.44403 32.82408
#
# Poissons Ratio (x) = 5.75864 -0.17091
# Poissons Ratio (y) = -1.50365 0.02995
# Poissons Ratio (z) = 0.58523 0.39281
#
# Static dielectric constant tensor:
#      x y z
#    x 2.113970 0.027380 -0.123430 
#    y 0.027380 1.935530 -0.021350 
#    z -0.123430 -0.021350 2.085310 
# 
# From -- ./inp_files/46649.got.cif
#   From: 2010.05.17/outbox.cif.g08.bks.cpg/sg2_24_cif.got.tgz:46649.got - 2010.06.03 11:33:40.
