data_PCOD9010760
_publ_section_title
;
Structure prediction by ZEFSAII (Michael W. Deem and Ramdas Pophale) SiO2 
 PCOD9010760
Probable space group: P -1
;
_chemical_formula_sum "Si O2"
_cell_formula_units_Z 13
_cell_length_a 16.591995
_cell_length_b 11.696755
_cell_length_c 12.451969
_cell_angle_alpha 30.671262
_cell_angle_beta 28.637993
_cell_angle_gamma 34.059811
_cell_volume 563.432565
_symmetry_space_group_name_H-M "P -1"
_symmetry_group_IT_number 2
_symmetry_cell_setting 'triclinic'
loop_
_space_group_symop_operation_xyz
x,y,z
-x,-y,-z
loop_
_atom_site_type_symbol
_atom_site_label
_atom_site_fract_x
_atom_site_fract_y
_atom_site_fract_z
Si Si1 0.000000 0.000000 0.500000
Si Si2 0.348390 0.683485 0.962294
Si Si3 0.021205 0.990092 0.219487
Si Si4 0.193966 0.502517 0.735485
Si Si5 0.495408 0.171405 0.545784
Si Si6 0.271564 0.543551 0.847107
Si Si7 0.258448 0.277259 0.278034
O O1 0.012105 0.990987 0.358828
O O2 0.164335 0.754909 0.513863
O O3 0.213055 0.873882 0.039975
O O4 0.243658 0.525223 0.150990
O O5 0.500000 0.500000 0.000000
O O6 0.440426 0.805343 0.668064
O O7 0.902834 0.830274 0.441717
O O8 0.917709 0.254520 0.087650
O O9 0.291111 0.295422 0.709093
O O10 0.295945 0.471106 0.753958
O O11 0.000000 0.500000 0.000000
O O12 0.589176 0.334522 0.371037
O O13 0.575104 0.913756 0.709169
O O14 0.282246 0.323133 0.087544
#
# Coordination Sequence:
#
# PCOD9010760 Si02
#       7
#     1   2   2   2   2   2   2
#     4  10  22  40  64  90 122 156 198 254 300 350
#     4  11  24  40  61  90 126 161 199 252 304 358
#     4  10  21  40  64  91 121 161 206 245 299 361
#     4  11  22  37  61  90 121 159 203 249 302 360
#     4  10  23  40  59  89 121 158 204 248 302 361
#     4   9  21  38  60  88 120 158 201 252 298 353
#     4  10  22  40  63  90 122 162 204 248 298 361
#
# _framework density 23.072856999999999
#
# number of rings (size 3 to 8) (size 9 to 14) (size 15 to 20)
#    0.000    1.846    0.000    2.769    0.000   12.923 
#    0.000    0.000    0.000    0.000    0.000    0.000 
#    0.000    0.000    0.000    0.000    0.000    0.000 
#
# Total GULP energy -72446.177993 kJ/mol
# GULP energy per Si atom -5572.782923 kJ/mol
# Density = 2.302034 g / cm^3
# Si number density = 23.072857 Si / 1000 Ang^3
#
#
#
# Elastic Constant Matrix: (Units=GPa)
#
#
# Indices 1 2 3 4 5 6 
#
# 1 97.1789 39.2506 45.6148 3.6046 21.9722 -2.6716
# 2 39.2506 176.0109 78.9005 24.8839 29.9474 -0.9761
# 3 45.6148 78.9005 72.6096 -3.1526 19.9634 -10.5871
# 4 3.6046 24.8839 -3.1526 40.0231 -11.4482 -0.2206
# 5 21.9722 29.9474 19.9634 -11.4482 42.9392 -16.4500
# 6 -2.6716 -0.9761 -10.5871 -0.2206 -16.4500 36.5335
#
#
#
# Elastic Compliance Matrix: (Units=1/GPa)
#
#
# Indices 1 2 3 4 5 6 
#
# 1 0.019647 0.008964 -0.020231 -0.013158 -0.014552 -0.010818
# 2 0.008964 0.022982 -0.028543 -0.023041 -0.019606 -0.015969
# 3 -0.020231 -0.028543 0.056457 0.030211 0.021202 0.023848
# 4 -0.013158 -0.023041 0.030211 0.051784 0.030734 0.021328
# 5 -0.014552 -0.019606 0.021202 0.030734 0.053852 0.028990
# 6 -0.010818 -0.015969 0.023848 0.021328 0.028990 0.046247
#
#
# Mechanical properties :
#
#
# Convention : Reuss Voigt Hill
#
# Bulk Modulus (GPa) = 51.37019 74.81457 63.09238
# Shear Modulus (GPa) = 14.83335 36.03473 25.43404
#
# Velocity S-wave (km/s) = 2.53828 3.95622 3.32375
# Velocity P-wave (km/s) = 5.55906 7.30511 6.49107
#
# Compressibility (1/GPa) = 0.01946654
#
# Stress axis : x y z
#
# Youngs Moduli (GPa) = 50.89878 43.51197 17.71254
#
# Poissons Ratio (x) = -0.39003 0.35834
# Poissons Ratio (y) = -0.45625 0.50557
# Poissons Ratio (z) = 1.02972 1.24196
#
# Static dielectric constant tensor:
#      x y z
#    x 1.882880 0.022570 -0.067630 
#    y 0.022570 1.923040 0.011350 
#    z -0.067630 0.011350 1.902980 
# 
# From -- ./inp_files/58933.got.cif
#   From: 2010.05.17/outbox.cif.g08.bks.cpg/sg2_30_cif.got.tgz:58933.got - 2010.06.03 11:33:40.
