data_PCOD9010743
_publ_section_title
;
Structure prediction by ZEFSAII (Michael W. Deem and Ramdas Pophale) SiO2 
 PCOD9010743
Probable space group: P -1
;
_chemical_formula_sum "Si O2"
_cell_formula_units_Z 10
_cell_length_a 8.726915
_cell_length_b 14.760733
_cell_length_c 7.527444
_cell_angle_alpha 59.933388
_cell_angle_beta 72.646392
_cell_angle_gamma 124.906542
_cell_volume 389.730719
_symmetry_space_group_name_H-M "P -1"
_symmetry_group_IT_number 2
_symmetry_cell_setting 'triclinic'
loop_
_space_group_symop_operation_xyz
x,y,z
-x,-y,-z
loop_
_atom_site_type_symbol
_atom_site_label
_atom_site_fract_x
_atom_site_fract_y
_atom_site_fract_z
Si Si1 0.321322 0.082863 0.448243
Si Si2 0.660562 0.308704 0.449710
Si Si3 0.827400 0.625735 0.202189
Si Si4 0.113659 0.748238 0.363861
Si Si5 0.106829 0.960154 0.266973
O O1 0.149403 0.094999 0.546276
O O2 0.607979 0.233983 0.344456
O O3 0.365575 0.108124 0.196861
O O4 0.066956 0.844103 0.810194
O O5 0.739185 0.475219 0.264579
O O6 0.905700 0.372246 0.410571
O O7 0.308980 0.098749 0.881914
O O8 0.500000 0.500000 0.500000
O O9 0.997462 0.679874 0.269749
O O10 0.944874 0.753556 0.506625
O O11 0.500000 0.000000 0.000000
#
# Coordination Sequence:
#
# PCOD9010743 Si02
#       5
#     2   2   2   2   2
#     4  11  22  41  63  94 123 165 205 256 306 362
#     4  11  22  42  64  89 127 163 204 254 311 362
#     4  12  22  39  68  93 121 165 210 251 305 367
#     4  10  21  41  65  88 127 168 197 251 317 365
#     4  10  21  40  64  90 126 165 203 253 308 366
#
# _framework density 25.658742
#
# number of rings (size 3 to 8) (size 9 to 14) (size 15 to 20)
#    0.000    1.200    6.000    2.400    0.000    0.800 
#    3.600    4.000    0.000    0.000    0.000    0.000 
#    0.000    0.000    0.000    0.000    0.000    0.000 
#
# Total GULP energy -56063.116954 kJ/mol
# GULP energy per Si atom -5606.311695 kJ/mol
# Density = 2.560034 g / cm^3
# Si number density = 25.658742 Si / 1000 Ang^3
#
#
#
# Elastic Constant Matrix: (Units=GPa)
#
#
# Indices 1 2 3 4 5 6 
#
# 1 107.2808 -6.3260 17.5776 -8.6957 8.5204 -11.0151
# 2 -6.3260 92.3769 6.2184 -4.1313 9.1040 17.7906
# 3 17.5776 6.2184 68.6422 2.2902 9.6606 -8.9464
# 4 -8.6957 -4.1313 2.2902 36.6914 -7.7225 10.4891
# 5 8.5204 9.1040 9.6606 -7.7225 32.0277 -12.7421
# 6 -11.0151 17.7906 -8.9464 10.4891 -12.7421 68.7987
#
#
#
# Elastic Compliance Matrix: (Units=1/GPa)
#
#
# Indices 1 2 3 4 5 6 
#
# 1 0.010136 0.001036 -0.002495 0.002235 -0.001538 0.000405
# 2 0.001036 0.012378 -0.001371 0.002000 -0.004640 -0.004378
# 3 -0.002495 -0.001371 0.016215 -0.003090 -0.003859 0.001820
# 4 0.002235 0.002000 -0.003090 0.030555 0.005462 -0.004208
# 5 -0.001538 -0.004640 -0.003859 0.005462 0.038087 0.006673
# 6 0.000405 -0.004378 0.001820 -0.004208 0.006673 0.017846
#
#
# Mechanical properties :
#
#
# Convention : Reuss Voigt Hill
#
# Bulk Modulus (GPa) = 30.23958 33.69330 31.96644
# Shear Modulus (GPa) = 35.23627 44.22555 39.73091
#
# Velocity S-wave (km/s) = 3.70978 4.15614 3.93929
# Velocity P-wave (km/s) = 5.49189 6.01591 5.75986
#
# Compressibility (1/GPa) = 0.03306925
#
# Stress axis : x y z
#
# Youngs Moduli (GPa) = 98.65755 80.78737 61.67252
#
# Poissons Ratio (x) = -0.08367 0.15385
# Poissons Ratio (y) = -0.10217 0.08454
# Poissons Ratio (z) = 0.24612 0.11074
#
# Static dielectric constant tensor:
#      x y z
#    x 2.055660 0.015300 -0.035370 
#    y 0.015300 1.969720 -0.023570 
#    z -0.035370 -0.023570 2.011310 
# 
# From -- ./inp_files/59536.got.cif
#   From: 2010.05.17/outbox.cif.g08.bks.cpg/sg2_30_cif.got.tgz:59536.got - 2010.06.03 11:33:40.
