data_PCOD9010139
_publ_section_title
;
Structure prediction by ZEFSAII (Michael W. Deem and Ramdas Pophale) SiO2 
 PCOD9010139
Probable space group: P -1
;
_chemical_formula_sum "Si O2"
_cell_formula_units_Z 16
_cell_length_a 6.909201
_cell_length_b 16.227927
_cell_length_c 14.726174
_cell_angle_alpha 34.373708
_cell_angle_beta 105.103555
_cell_angle_gamma 126.821265
_cell_volume 638.335489
_symmetry_space_group_name_H-M "P -1"
_symmetry_group_IT_number 2
_symmetry_cell_setting 'triclinic'
loop_
_space_group_symop_operation_xyz
x,y,z
-x,-y,-z
loop_
_atom_site_type_symbol
_atom_site_label
_atom_site_fract_x
_atom_site_fract_y
_atom_site_fract_z
Si Si1 0.648790 0.235069 0.954162
Si Si2 0.037248 0.834986 0.050579
Si Si3 0.579475 0.581719 0.065787
Si Si4 0.515816 0.851851 0.716972
Si Si5 0.014997 0.143485 0.773874
Si Si6 0.617210 0.806504 0.565291
Si Si7 0.070331 0.774377 0.833367
Si Si8 0.082451 0.703186 0.546143
O O1 0.752371 0.189543 0.923829
O O2 0.820476 0.474808 0.760043
O O3 0.737456 0.186617 0.096880
O O4 0.314291 0.073121 0.060870
O O5 0.915167 0.761431 0.204164
O O6 0.797342 0.700412 0.067324
O O7 0.166161 0.065413 0.845432
O O8 0.512372 0.707700 0.910873
O O9 0.756055 0.594913 0.993277
O O10 0.344864 0.346141 0.281548
O O11 0.568887 0.841590 0.628880
O O12 0.203891 0.762137 0.775033
O O13 0.754318 0.086571 0.568805
O O14 0.023942 0.269207 0.582616
O O15 0.335544 0.711382 0.562136
O O16 0.874235 0.025494 0.353938
#
# Coordination Sequence:
#
# PCOD9010139 Si02
#       8
#     2   2   2   2   2   2   2   2
#     4  11  21  41  64  93 126 166 202 249 313 369
#     4  10  22  41  66  92 125 160 207 260 298 374
#     4  11  22  44  61  93 126 158 208 260 305 367
#     4  11  23  43  63  90 128 164 206 261 301 365
#     4  11  22  43  66  90 126 165 202 255 317 357
#     4  11  22  42  64  91 125 163 212 254 307 367
#     4  10  21  40  62  88 124 163 198 254 310 355
#     4  11  21  40  63  93 127 160 208 251 304 370
#
# _framework density 25.065187999999999
#
# number of rings (size 3 to 8) (size 9 to 14) (size 15 to 20)
#    0.000    1.250    6.250    2.250    0.000    1.500 
#    6.750    3.750    0.000    0.000    0.000    0.000 
#    0.000    0.000    0.000    0.000    0.000    0.000 
#
# Total GULP energy -89581.356805 kJ/mol
# GULP energy per Si atom -5598.834800 kJ/mol
# Density = 2.500814 g / cm^3
# Si number density = 25.065188 Si / 1000 Ang^3
#
#
#
# Elastic Constant Matrix: (Units=GPa)
#
#
# Indices 1 2 3 4 5 6 
#
# 1 81.2509 21.6087 25.4095 -8.4159 18.2300 -7.0883
# 2 21.6087 80.6765 48.5299 8.1910 3.8968 -9.7601
# 3 25.4095 48.5299 195.2555 -4.2367 31.4192 1.1259
# 4 -8.4159 8.1910 -4.2367 37.4297 6.3511 6.9001
# 5 18.2300 3.8968 31.4192 6.3511 40.5060 -3.2630
# 6 -7.0883 -9.7601 1.1259 6.9001 -3.2630 40.2078
#
#
#
# Elastic Compliance Matrix: (Units=1/GPa)
#
#
# Indices 1 2 3 4 5 6 
#
# 1 0.015842 -0.004821 0.000566 0.006066 -0.008064 -0.000089
# 2 -0.004821 0.017786 -0.004937 -0.007528 0.005902 0.005377
# 3 0.000566 -0.004937 0.007371 0.003549 -0.006249 -0.002421
# 4 0.006066 -0.007528 0.003549 0.033294 -0.010577 -0.007429
# 5 -0.008064 0.005902 -0.006249 -0.010577 0.034642 0.004813
# 6 -0.000089 0.005377 -0.002421 -0.007429 0.004813 0.027894
#
#
# Mechanical properties :
#
#
# Convention : Reuss Voigt Hill
#
# Bulk Modulus (GPa) = 44.21664 60.91990 52.56827
# Shear Modulus (GPa) = 30.72145 41.07102 35.89623
#
# Velocity S-wave (km/s) = 3.50474 4.05231 3.78844
# Velocity P-wave (km/s) = 5.83580 6.80091 6.33676
#
# Compressibility (1/GPa) = 0.02261592
#
# Stress axis : x y z
#
# Youngs Moduli (GPa) = 63.12177 56.22370 135.65780
#
# Poissons Ratio (x) = 0.27106 -0.07682
# Poissons Ratio (y) = 0.30431 0.66978
# Poissons Ratio (z) = -0.03574 0.27759
#
# Static dielectric constant tensor:
#      x y z
#    x 2.045190 -0.036770 0.012440 
#    y -0.036770 2.003880 -0.001320 
#    z 0.012440 -0.001320 1.948910 
# 
# From -- ./inp_files/507253.got.cif
#   From: 2010.05.17/outbox.cif.g08.bks.cpg/sg2_254_cif.got.tgz:507253.got - 2010.06.03 11:33:40.
