data_PCOD9010603
_publ_section_title
;
Structure prediction by ZEFSAII (Michael W. Deem and Ramdas Pophale) SiO2 
 PCOD9010603
Probable space group: P -1
;
_chemical_formula_sum "Si O2"
_cell_formula_units_Z 16
_cell_length_a 25.927943
_cell_length_b 9.134936
_cell_length_c 9.258281
_cell_angle_alpha 102.882382
_cell_angle_beta 136.237409
_cell_angle_gamma 42.442275
_cell_volume 765.197270
_symmetry_space_group_name_H-M "P -1"
_symmetry_group_IT_number 2
_symmetry_cell_setting 'triclinic'
loop_
_space_group_symop_operation_xyz
x,y,z
-x,-y,-z
loop_
_atom_site_type_symbol
_atom_site_label
_atom_site_fract_x
_atom_site_fract_y
_atom_site_fract_z
Si Si1 0.345096 0.739856 0.666511
Si Si2 0.622359 0.209724 0.582639
Si Si3 0.880652 0.849143 0.200150
Si Si4 0.692897 0.506430 0.317512
Si Si5 0.196944 0.201428 0.693889
Si Si6 0.570947 0.983153 0.292256
Si Si7 0.609402 0.872084 0.815894
Si Si8 0.833118 0.259308 0.232844
O O1 0.362144 0.733483 0.528148
O O2 0.288829 0.670458 0.583234
O O3 0.248676 0.033939 0.614581
O O4 0.500000 0.500000 0.000000
O O5 0.500000 0.500000 0.500000
O O6 0.584264 0.102859 0.447944
O O7 0.779740 0.925840 0.910456
O O8 0.852989 0.841936 0.305706
O O9 0.051164 0.548728 0.449680
O O10 0.810084 0.132597 0.101292
O O11 0.785233 0.342684 0.321608
O O12 0.707086 0.649612 0.445157
O O13 0.527928 0.786591 0.986613
O O14 0.321124 0.083616 0.002827
O O15 0.478111 0.018825 0.194773
O O16 0.500000 0.000000 0.500000
O O17 0.745832 0.526932 0.019851
O O18 0.000000 0.000000 0.500000
#
# Coordination Sequence:
#
# PCOD9010603 Si02
#       8
#     2   2   2   2   2   2   2   2
#     4  12  23  40  69  97 137 178 228 286 344 418
#     4  12  25  42  67 102 138 174 229 290 343 407
#     4  11  24  44  66  98 140 181 232 282 346 416
#     4  10  21  40  63  97 125 175 232 268 346 407
#     4  11  24  43  69  97 136 187 233 279 347 424
#     4  10  22  39  63  95 133 169 219 290 332 403
#     4  11  23  40  67 103 137 175 232 289 343 403
#     4  11  22  42  69  95 137 181 227 278 339 419
#
# _framework density 20.909642000000002
#
# number of rings (size 3 to 8) (size 9 to 14) (size 15 to 20)
#    0.000    1.000    3.750    3.750    3.500    3.500 
#    0.000    0.000    0.000    2.250    0.000    0.000 
#    0.000    0.000    0.000    0.000    0.000    0.000 
#
# Total GULP energy -89226.097633 kJ/mol
# GULP energy per Si atom -5576.631102 kJ/mol
# Density = 2.086205 g / cm^3
# Si number density = 20.909642 Si / 1000 Ang^3
#
#
#
# Elastic Constant Matrix: (Units=GPa)
#
#
# Indices 1 2 3 4 5 6 
#
# 1 89.8502 42.5600 20.2250 0.2882 -1.7290 -11.1622
# 2 42.5600 144.9170 33.7089 12.3390 9.7599 -9.8962
# 3 20.2250 33.7089 88.8593 0.2387 2.1358 -21.2623
# 4 0.2882 12.3390 0.2387 28.3412 3.9150 1.2406
# 5 -1.7290 9.7599 2.1358 3.9150 27.1723 5.1033
# 6 -11.1622 -9.8962 -21.2623 1.2406 5.1033 31.3045
#
#
#
# Elastic Compliance Matrix: (Units=1/GPa)
#
#
# Indices 1 2 3 4 5 6 
#
# 1 0.013495 -0.003746 -0.001074 0.001164 0.001635 0.002585
# 2 -0.003746 0.009088 -0.002389 -0.003520 -0.002907 0.000528
# 3 -0.001074 -0.002389 0.014640 0.000831 -0.002195 0.009130
# 4 0.001164 -0.003520 0.000831 0.037384 -0.003930 -0.000974
# 5 0.001635 -0.002907 -0.002195 -0.003930 0.040235 -0.008230
# 6 0.002585 0.000528 0.009130 -0.000974 -0.008230 0.040614
#
#
# Mechanical properties :
#
#
# Convention : Reuss Voigt Hill
#
# Bulk Modulus (GPa) = 43.85333 57.40161 50.62747
# Shear Modulus (GPa) = 28.17290 32.50579 30.33935
#
# Velocity S-wave (km/s) = 3.67463 3.94710 3.81330
# Velocity P-wave (km/s) = 6.24677 6.94871 6.60707
#
# Compressibility (1/GPa) = 0.02280328
#
# Stress axis : x y z
#
# Youngs Moduli (GPa) = 74.10293 110.03605 68.30689
#
# Poissons Ratio (x) = 0.41219 0.07338
# Poissons Ratio (y) = 0.27759 0.16321
# Poissons Ratio (z) = 0.07961 0.26291
#
# Static dielectric constant tensor:
#      x y z
#    x 0.315820 -1.799620 0.077470 
#    y -1.799620 -0.411260 0.112240 
#    z 0.077470 0.112240 1.785170 
# 
# From -- ./inp_files/356630.got.cif
#   From: 2010.05.17/outbox.cif.g08.bks.cpg/sg2_179_cif.got.tgz:356630.got - 2010.06.03 11:33:40.
