data_PCOD9010516
_publ_section_title
;
Structure prediction by ZEFSAII (Michael W. Deem and Ramdas Pophale) SiO2 
 PCOD9010516
Probable space group: P -1
;
_chemical_formula_sum "Si O2"
_cell_formula_units_Z 12
_cell_length_a 8.288345
_cell_length_b 11.563421
_cell_length_c 11.974038
_cell_angle_alpha 51.323409
_cell_angle_beta 147.424311
_cell_angle_gamma 126.339172
_cell_volume 476.402286
_symmetry_space_group_name_H-M "P -1"
_symmetry_group_IT_number 2
_symmetry_cell_setting 'triclinic'
loop_
_space_group_symop_operation_xyz
x,y,z
-x,-y,-z
loop_
_atom_site_type_symbol
_atom_site_label
_atom_site_fract_x
_atom_site_fract_y
_atom_site_fract_z
Si Si1 0.167655 0.376938 0.969589
Si Si2 0.539600 0.713626 0.346198
Si Si3 0.952552 0.921610 0.329848
Si Si4 0.942574 0.854516 0.127625
Si Si5 0.391831 0.240208 0.396587
Si Si6 0.018715 0.598257 0.567657
O O1 0.820546 0.317378 0.841302
O O2 0.248263 0.267067 0.986570
O O3 0.159483 0.523112 0.800795
O O4 0.355511 0.350426 0.205506
O O5 0.662930 0.692298 0.555005
O O6 0.673429 0.607867 0.399590
O O7 0.696471 0.881231 0.299029
O O8 0.799407 0.889199 0.139451
O O9 0.134888 0.778500 0.529566
O O10 0.161178 0.082174 0.349269
O O11 0.268932 0.800982 0.371397
O O12 0.000000 0.000000 0.000000
O O13 0.000000 0.500000 0.500000
#
# Coordination Sequence:
#
# PCOD9010516 Si02
#       6
#     2   2   2   2   2   2
#     4  11  21  40  67  91 125 171 200 256 312 363
#     4   9  23  40  64  89 131 161 208 252 310 371
#     4  10  21  40  63  93 125 161 208 257 305 365
#     4  11  22  41  66  92 124 165 209 258 310 363
#     4  11  23  40  66  93 126 159 213 254 311 370
#     4  10  21  41  65  91 128 165 210 250 308 372
#
# _framework density 25.188797999999998
#
# number of rings (size 3 to 8) (size 9 to 14) (size 15 to 20)
#    1.000    0.667    3.333    1.500    0.000    1.333 
#    3.000    2.500    7.333    0.000    0.000    0.000 
#    0.000    0.000    0.000    0.000    0.000    0.000 
#
# Total GULP energy -66949.663744 kJ/mol
# GULP energy per Si atom -5579.138645 kJ/mol
# Density = 2.513147 g / cm^3
# Si number density = 25.188798 Si / 1000 Ang^3
#
#
#
# Elastic Constant Matrix: (Units=GPa)
#
#
# Indices 1 2 3 4 5 6 
#
# 1 68.6409 24.5195 49.6874 21.7485 -4.8008 -1.0019
# 2 24.5195 100.5116 34.9134 -9.9161 1.4906 11.1213
# 3 49.6874 34.9134 192.9274 -18.7067 -20.0606 4.8585
# 4 21.7485 -9.9161 -18.7067 49.5808 5.8366 -10.0766
# 5 -4.8008 1.4906 -20.0606 5.8366 44.6000 -2.1426
# 6 -1.0019 11.1213 4.8585 -10.0766 -2.1426 36.7254
#
#
#
# Elastic Compliance Matrix: (Units=1/GPa)
#
#
# Indices 1 2 3 4 5 6 
#
# 1 0.027111 -0.005593 -0.007320 -0.016183 0.001886 -0.000929
# 2 -0.005593 0.012242 -0.000482 0.004398 -0.001933 -0.002702
# 3 -0.007320 -0.000482 0.007933 0.006002 0.002043 0.000663
# 4 -0.016183 0.004398 0.006002 0.032002 -0.003088 0.006033
# 5 0.001886 -0.001933 0.002043 -0.003088 0.024056 0.000923
# 6 -0.000929 -0.002702 0.000663 0.006033 0.000923 0.029644
#
#
# Mechanical properties :
#
#
# Convention : Reuss Voigt Hill
#
# Bulk Modulus (GPa) = 48.78475 64.48006 56.63240
# Shear Modulus (GPa) = 30.01034 43.04522 36.52778
#
# Velocity S-wave (km/s) = 3.45543 4.13837 3.81223
# Velocity P-wave (km/s) = 5.94388 6.96341 6.47375
#
# Compressibility (1/GPa) = 0.02049821
#
# Stress axis : x y z
#
# Youngs Moduli (GPa) = 36.88544 81.68400 126.05060
#
# Poissons Ratio (x) = 0.45684 0.92267
# Poissons Ratio (y) = 0.20629 0.06070
# Poissons Ratio (z) = 0.27000 0.03933
#
# Static dielectric constant tensor:
#      x y z
#    x 2.025520 0.094800 -0.130070 
#    y 0.094800 1.869960 0.146750 
#    z -0.130070 0.146750 1.755710 
# 
# From -- ./inp_files/151394.got.cif
#   From: 2010.05.17/outbox.cif.g08.bks.cpg/sg2_76_cif.got.tgz:151394.got - 2010.06.03 11:33:40.
