data_PCOD9010175
_publ_section_title
;
Structure prediction by ZEFSAII (Michael W. Deem and Ramdas Pophale) SiO2 
 PCOD9010175
Probable space group: P -1
;
_chemical_formula_sum "Si O2"
_cell_formula_units_Z 16
_cell_length_a 22.006731
_cell_length_b 7.682309
_cell_length_c 5.211878
_cell_angle_alpha 139.141838
_cell_angle_beta 101.611424
_cell_angle_gamma 77.501794
_cell_volume 561.791774
_symmetry_space_group_name_H-M "P -1"
_symmetry_group_IT_number 2
_symmetry_cell_setting 'triclinic'
loop_
_space_group_symop_operation_xyz
x,y,z
-x,-y,-z
loop_
_atom_site_type_symbol
_atom_site_label
_atom_site_fract_x
_atom_site_fract_y
_atom_site_fract_z
Si Si1 0.014320 0.769641 0.956994
Si Si2 0.234126 0.927472 0.809579
Si Si3 0.856870 0.498586 0.245572
Si Si4 0.113748 0.179608 0.862828
Si Si5 0.608524 0.905773 0.223526
Si Si6 0.362466 0.633590 0.588294
Si Si7 0.736978 0.743434 0.306630
Si Si8 0.514460 0.317926 0.053252
O O1 0.088199 0.732749 0.026172
O O2 0.000000 0.500000 0.500000
O O3 0.960705 0.815236 0.176523
O O4 0.000000 0.000000 0.000000
O O5 0.160308 0.920477 0.697020
O O6 0.241062 0.071816 0.245497
O O7 0.252417 0.120769 0.808422
O O8 0.288037 0.684250 0.604525
O O9 0.868127 0.608879 0.664043
O O10 0.783610 0.473777 0.096668
O O11 0.870420 0.719105 0.290605
O O12 0.618672 0.681727 0.755235
O O13 0.536243 0.896257 0.216565
O O14 0.662420 0.760718 0.290913
O O15 0.623712 0.194420 0.462664
O O16 0.410975 0.759943 0.960816
O O17 0.500000 0.500000 0.500000
O O18 0.500000 0.500000 0.000000
#
# Coordination Sequence:
#
# PCOD9010175 Si02
#       8
#     2   2   2   2   2   2   2   2
#     4  10  21  40  62  90 122 162 206 254 306 364
#     4   9  19  37  62  91 124 161 204 252 306 365
#     4   9  18  37  62  90 123 161 204 253 306 364
#     4   9  18  37  62  90 123 161 204 253 306 364
#     4  10  22  43  66  94 126 164 206 255 308 367
#     4  10  22  43  66  94 126 164 206 255 308 367
#     4   9  19  37  62  91 124 161 204 252 306 365
#     4  10  23  42  64  92 124 162 206 254 306 364
#
# _framework density 28.480301999999998
#
# number of rings (size 3 to 8) (size 9 to 14) (size 15 to 20)
#    0.000    2.500    0.000    0.750    0.000    8.000 
#    0.000   36.875    0.000    0.000    0.000    0.000 
#    0.000    0.000    0.000    0.000    0.000    0.000 
#
# Total GULP energy -89553.701472 kJ/mol
# GULP energy per Si atom -5597.106342 kJ/mol
# Density = 2.841548 g / cm^3
# Si number density = 28.480302 Si / 1000 Ang^3
#
#
#
# Elastic Constant Matrix: (Units=GPa)
#
#
# Indices 1 2 3 4 5 6 
#
# 1 169.2504 49.9802 51.6760 -5.2976 -2.4797 -48.5016
# 2 49.9802 127.6322 49.2015 -7.1075 2.2876 -8.1945
# 3 51.6760 49.2015 81.5314 -9.3552 2.1326 7.7912
# 4 -5.2976 -7.1075 -9.3552 53.1842 -9.6947 -3.2426
# 5 -2.4797 2.2876 2.1326 -9.6947 62.8870 -8.5770
# 6 -48.5016 -8.1945 7.7912 -3.2426 -8.5770 70.0593
#
#
#
# Elastic Compliance Matrix: (Units=1/GPa)
#
#
# Indices 1 2 3 4 5 6 
#
# 1 0.010807 -0.000977 -0.007049 0.000572 0.001937 0.008415
# 2 -0.000977 0.010564 -0.005831 0.000363 -0.000002 0.001224
# 3 -0.007049 -0.005831 0.021233 0.001460 -0.001660 -0.008059
# 4 0.000572 0.000363 0.001460 0.019852 0.003237 0.001591
# 5 0.001937 -0.000002 -0.001660 0.003237 0.017046 0.003762
# 6 0.008415 0.001224 -0.008059 0.001591 0.003762 0.021673
#
#
# Mechanical properties :
#
#
# Convention : Reuss Voigt Hill
#
# Bulk Modulus (GPa) = 67.16167 75.56993 71.36580
# Shear Modulus (GPa) = 37.35439 52.39651 44.87545
#
# Velocity S-wave (km/s) = 3.62551 4.29388 3.97377
# Velocity P-wave (km/s) = 6.41551 7.15366 6.79462
#
# Compressibility (1/GPa) = 0.01488945
#
# Stress axis : x y z
#
# Youngs Moduli (GPa) = 92.53411 94.65742 47.09661
#
# Poissons Ratio (x) = 0.09249 0.33198
# Poissons Ratio (y) = 0.09042 0.27463
# Poissons Ratio (z) = 0.65227 0.55197
#
# Static dielectric constant tensor:
#      x y z
#    x 2.478030 -0.079320 -0.025710 
#    y -0.079320 2.061430 -0.025510 
#    z -0.025710 -0.025510 2.345300 
# 
# From -- ./inp_files/122746.got.cif
#   From: 2010.05.17/outbox.cif.g08.bks.cpg/sg2_62_cif.got.tgz:122746.got - 2010.06.03 11:33:40.
