data_PCOD9010104
_publ_section_title
;
Structure prediction by ZEFSAII (Michael W. Deem and Ramdas Pophale) SiO2 
 PCOD9010104
Probable space group: P -1
;
_chemical_formula_sum "Si O2"
_cell_formula_units_Z 16
_cell_length_a 6.396845
_cell_length_b 18.858827
_cell_length_c 8.091210
_cell_angle_alpha 66.725441
_cell_angle_beta 95.991986
_cell_angle_gamma 123.071474
_cell_volume 743.512280
_symmetry_space_group_name_H-M "P -1"
_symmetry_group_IT_number 2
_symmetry_cell_setting 'triclinic'
loop_
_space_group_symop_operation_xyz
x,y,z
-x,-y,-z
loop_
_atom_site_type_symbol
_atom_site_label
_atom_site_fract_x
_atom_site_fract_y
_atom_site_fract_z
Si Si1 0.323656 0.951971 0.687477
Si Si2 0.006572 0.793603 0.599177
Si Si3 0.715520 0.440261 0.465879
Si Si4 0.803288 0.058353 0.808345
Si Si5 0.528947 0.458534 0.772162
Si Si6 0.907284 0.362397 0.307567
Si Si7 0.120553 0.103930 0.106254
Si Si8 0.453066 0.296043 0.120330
O O1 0.200505 0.844646 0.724057
O O2 0.065808 0.944757 0.707466
O O3 0.500000 0.000000 0.500000
O O4 0.507331 0.014091 0.794888
O O5 0.056476 0.869058 0.396611
O O6 0.052785 0.720186 0.589965
O O7 0.731448 0.743756 0.700532
O O8 0.539607 0.417056 0.632832
O O9 0.640202 0.498886 0.294395
O O10 0.731882 0.365875 0.430221
O O11 0.000000 0.500000 0.500000
O O12 0.802272 0.965501 0.875125
O O13 0.950539 0.106607 0.944124
O O14 0.816555 0.542601 0.758556
O O15 0.429224 0.375978 0.967675
O O16 0.743526 0.342105 0.148312
O O17 0.344667 0.206769 0.076298
#
# Coordination Sequence:
#
# PCOD9010104 Si02
#       8
#     2   2   2   2   2   2   2   2
#     4   9  19  37  58  83 116 153 191 242 299 357
#     4  10  23  37  59  90 121 157 201 249 302 360
#     4   9  21  40  64  87 115 157 200 247 299 352
#     4  10  21  40  62  86 118 156 199 251 303 361
#     4  10  22  42  63  88 123 159 202 249 298 357
#     4  11  22  39  61  88 120 163 204 244 301 355
#     4  10  22  38  61  88 116 156 202 247 304 359
#     4  11  24  39  59  90 124 158 202 253 299 356
#
# _framework density 21.519483000000001
#
# number of rings (size 3 to 8) (size 9 to 14) (size 15 to 20)
#    0.000    2.000    0.000    2.250    0.000   14.500 
#    0.000    5.000    0.000    0.000    0.000    0.000 
#    0.000    0.000    0.000    0.000    0.000    0.000 
#
# Total GULP energy -89140.757853 kJ/mol
# GULP energy per Si atom -5571.297366 kJ/mol
# Density = 2.147050 g / cm^3
# Si number density = 21.519483 Si / 1000 Ang^3
#
#
#
# Elastic Constant Matrix: (Units=GPa)
#
#
# Indices 1 2 3 4 5 6 
#
# 1 54.1586 33.3275 8.3504 -4.2701 9.5178 12.1676
# 2 33.3275 127.8377 22.9432 8.2090 10.6039 10.4596
# 3 8.3504 22.9432 73.0751 -6.1959 12.6424 21.2537
# 4 -4.2701 8.2090 -6.1959 25.0714 0.7293 -2.2558
# 5 9.5178 10.6039 12.6424 0.7293 22.7437 4.9473
# 6 12.1676 10.4596 21.2537 -2.2558 4.9473 34.1371
#
#
#
# Elastic Compliance Matrix: (Units=1/GPa)
#
#
# Indices 1 2 3 4 5 6 
#
# 1 0.025555 -0.006395 0.003265 0.006809 -0.008102 -0.007558
# 2 -0.006395 0.010351 -0.003105 -0.005165 -0.000424 0.000761
# 3 0.003265 -0.003105 0.019336 0.005642 -0.008533 -0.010641
# 4 0.006809 -0.005165 0.005642 0.044206 -0.004835 -0.000735
# 5 -0.008102 -0.000424 -0.008533 -0.004835 0.052363 0.000422
# 6 -0.007558 0.000761 -0.010641 -0.000735 0.000422 0.038270
#
#
# Mechanical properties :
#
#
# Convention : Reuss Voigt Hill
#
# Bulk Modulus (GPa) = 23.38012 42.70149 33.04081
# Shear Modulus (GPa) = 23.06185 29.08713 26.07449
#
# Velocity S-wave (km/s) = 3.27719 3.68049 3.48468
# Velocity P-wave (km/s) = 5.02078 6.16016 5.61942
#
# Compressibility (1/GPa) = 0.04277137
#
# Stress axis : x y z
#
# Youngs Moduli (GPa) = 39.13173 96.60502 51.71686
#
# Poissons Ratio (x) = 0.61778 -0.16884
# Poissons Ratio (y) = 0.25024 0.16059
# Poissons Ratio (z) = -0.12775 0.29998
#
# Static dielectric constant tensor:
#      x y z
#    x 1.851040 0.035530 0.000490 
#    y 0.035530 1.857480 0.085490 
#    z 0.000490 0.085490 1.830430 
# 
# From -- ./inp_files/107199.got.cif
#   From: 2010.05.17/outbox.cif.g08.bks.cpg/sg2_54_cif.got.tgz:107199.got - 2010.06.03 11:33:40.
