data_PCOD9010683
_publ_section_title
;
Structure prediction by ZEFSAII (Michael W. Deem and Ramdas Pophale) SiO2 
 PCOD9010683
Probable space group: P -1
;
_chemical_formula_sum "Si O2"
_cell_formula_units_Z 16
_cell_length_a 18.993174
_cell_length_b 10.823932
_cell_length_c 6.903542
_cell_angle_alpha 56.828368
_cell_angle_beta 135.416924
_cell_angle_gamma 124.282210
_cell_volume 796.656421
_symmetry_space_group_name_H-M "P -1"
_symmetry_group_IT_number 2
_symmetry_cell_setting 'triclinic'
loop_
_space_group_symop_operation_xyz
x,y,z
-x,-y,-z
loop_
_atom_site_type_symbol
_atom_site_label
_atom_site_fract_x
_atom_site_fract_y
_atom_site_fract_z
Si Si1 0.358867 0.318135 0.287541
Si Si2 0.287816 0.396642 0.679082
Si Si3 0.990564 0.005373 0.706174
Si Si4 0.765583 0.232991 0.129369
Si Si5 0.409358 0.610045 0.422504
Si Si6 0.745807 0.888494 0.403522
Si Si7 0.037332 0.761141 0.261163
Si Si8 0.094842 0.492181 0.059150
O O1 0.386461 0.457451 0.376248
O O2 0.468091 0.302928 0.430693
O O3 0.294261 0.171183 0.410361
O O4 0.299059 0.369267 0.949813
O O5 0.371939 0.546079 0.619653
O O6 0.302225 0.246939 0.726629
O O7 0.174912 0.414390 0.385096
O O8 0.870505 0.921715 0.602755
O O9 0.009341 0.173541 0.697150
O O10 0.000000 0.000000 0.500000
O O11 0.054230 0.901056 0.020302
O O12 0.850185 0.259843 0.447156
O O13 0.727635 0.050477 0.177947
O O14 0.665965 0.296146 0.889817
O O15 0.837410 0.336154 0.014524
O O16 0.956123 0.610553 0.139490
O O17 0.000000 0.500000 0.000000
#
# Coordination Sequence:
#
# PCOD9010683 Si02
#       8
#     2   2   2   2   2   2   2   2
#     4  10  21  40  68  87 118 158 203 256 307 364
#     4  10  21  40  64  88 123 158 208 245 301 370
#     4  10  22  40  62  88 127 167 209 250 299 370
#     4  10  23  41  58  85 131 152 205 255 300 367
#     4   9  21  42  63  92 117 155 205 255 307 361
#     4  10  22  39  58  94 119 157 204 249 306 372
#     4  10  22  39  61  90 122 169 204 249 304 362
#     4  11  24  39  60  93 127 167 207 250 306 366
#
# _framework density 20.083939999999998
#
# number of rings (size 3 to 8) (size 9 to 14) (size 15 to 20)
#    0.000    2.000    1.250    0.750    5.250    4.500 
#    0.000    0.625    0.000    0.000    0.000    0.000 
#    0.000    0.000    0.000    0.000    0.000    0.000 
#
# Total GULP energy -89307.349948 kJ/mol
# GULP energy per Si atom -5581.709372 kJ/mol
# Density = 2.003823 g / cm^3
# Si number density = 20.083940 Si / 1000 Ang^3
#
#
#
# Elastic Constant Matrix: (Units=GPa)
#
#
# Indices 1 2 3 4 5 6 
#
# 1 104.1987 49.0111 39.7466 -9.7655 -0.0303 13.4350
# 2 49.0111 82.8884 31.9305 -20.7060 -5.6876 9.4281
# 3 39.7466 31.9305 90.4594 -16.2556 0.9444 4.9806
# 4 -9.7655 -20.7060 -16.2556 27.9526 -10.0826 1.5949
# 5 -0.0303 -5.6876 0.9444 -10.0826 40.4483 4.3195
# 6 13.4350 9.4281 4.9806 1.5949 4.3195 18.7946
#
#
#
# Elastic Compliance Matrix: (Units=1/GPa)
#
#
# Indices 1 2 3 4 5 6 
#
# 1 0.015173 -0.007484 -0.004205 -0.002749 -0.001040 -0.005505
# 2 -0.007484 0.022921 -0.001290 0.017216 0.008524 -0.009227
# 3 -0.004205 -0.001290 0.014581 0.006555 0.001221 -0.001047
# 4 -0.002749 0.017216 0.006555 0.059220 0.018927 -0.017783
# 5 -0.001040 0.008524 0.001221 0.018927 0.031978 -0.012812
# 6 -0.005505 -0.009227 -0.001047 -0.017783 -0.012812 0.066502
#
#
# Mechanical properties :
#
#
# Convention : Reuss Voigt Hill
#
# Bulk Modulus (GPa) = 37.42916 57.65811 47.54363
# Shear Modulus (GPa) = 20.38828 27.89630 24.14229
#
# Velocity S-wave (km/s) = 3.18960 3.73095 3.47085
# Velocity P-wave (km/s) = 5.67817 6.87975 6.30763
#
# Compressibility (1/GPa) = 0.02671714
#
# Stress axis : x y z
#
# Youngs Moduli (GPa) = 65.90614 43.62748 68.58445
#
# Poissons Ratio (x) = 0.32649 0.28842
# Poissons Ratio (y) = 0.49322 0.08847
# Poissons Ratio (z) = 0.27716 0.05628
#
# Static dielectric constant tensor:
#      x y z
#    x 1.719560 0.001200 0.000520 
#    y 0.001200 1.749090 0.003660 
#    z 0.000520 0.003660 1.735690 
# 
# From -- ./inp_files/108898.got.cif
#   From: 2010.05.17/outbox.cif.g08.bks.cpg/sg2_55_cif.got.tgz:108898.got - 2010.06.03 11:33:40.
