data_PCOD9010321
_publ_section_title
;
Structure prediction by ZEFSAII (Michael W. Deem and Ramdas Pophale) SiO2 
 PCOD9010321
Probable space group: P -1
;
_chemical_formula_sum "Si O2"
_cell_formula_units_Z 16
_cell_length_a 7.561929
_cell_length_b 5.559624
_cell_length_c 20.504503
_cell_angle_alpha 81.205317
_cell_angle_beta 121.913938
_cell_angle_gamma 67.651275
_cell_volume 604.108328
_symmetry_space_group_name_H-M "P -1"
_symmetry_group_IT_number 2
_symmetry_cell_setting 'triclinic'
loop_
_space_group_symop_operation_xyz
x,y,z
-x,-y,-z
loop_
_atom_site_type_symbol
_atom_site_label
_atom_site_fract_x
_atom_site_fract_y
_atom_site_fract_z
Si Si1 0.105988 0.524469 0.134336
Si Si2 0.397882 0.151576 0.904690
Si Si3 0.689230 0.232899 0.289889
Si Si4 0.014792 0.085269 0.111586
Si Si5 0.794327 0.830128 0.433712
Si Si6 0.576348 0.301617 0.682149
Si Si7 0.482592 0.733009 0.539386
Si Si8 0.637328 0.308888 0.139338
O O1 0.397220 0.341604 0.217617
O O2 0.043362 0.832184 0.083787
O O3 0.904214 0.628336 0.150721
O O4 0.050452 0.334207 0.085301
O O5 0.504566 0.344875 0.897767
O O6 0.457780 0.905650 0.874331
O O7 0.500000 0.000000 0.000000
O O8 0.650336 0.478991 0.321852
O O9 0.797501 0.216053 0.240855
O O10 0.833124 0.932755 0.367807
O O11 0.208308 0.916571 0.217004
O O12 0.758575 0.248478 0.094420
O O13 0.530904 0.852601 0.374217
O O14 0.000000 0.500000 0.500000
O O15 0.764672 0.049621 0.475382
O O16 0.635556 0.498148 0.639329
O O17 0.500000 0.500000 0.500000
O O18 0.500000 0.000000 0.500000
#
# Coordination Sequence:
#
# PCOD9010321 Si02
#       8
#     2   2   2   2   2   2   2   2
#     4   9  18  35  60  84 119 164 196 242 306 373
#     4  10  21  40  63  92 127 164 204 254 313 373
#     4  10  22  38  62  93 125 168 213 263 319 389
#     4   9  18  35  58  84 109 159 206 243 292 371
#     4  11  24  42  65  92 131 170 212 278 343 378
#     4  10  21  40  63  82 123 163 212 258 331 375
#     4  11  23  42  62  85 116 160 212 264 321 390
#     4  10  22  37  62  94 124 158 211 258 304 374
#
# _framework density 26.485313999999999
#
# number of rings (size 3 to 8) (size 9 to 14) (size 15 to 20)
#    0.000    2.000    2.500    0.375    1.750    3.000 
#    2.250    1.250    0.000    0.000    0.000    0.000 
#    0.000    0.000    0.000    0.000    0.000    0.000 
#
# Total GULP energy -89151.616022 kJ/mol
# GULP energy per Si atom -5571.976001 kJ/mol
# Density = 2.642503 g / cm^3
# Si number density = 26.485314 Si / 1000 Ang^3
#
#
#
# Elastic Constant Matrix: (Units=GPa)
#
#
# Indices 1 2 3 4 5 6 
#
# 1 76.8474 25.1397 1.7734 -1.5469 -4.5929 -1.1984
# 2 25.1397 240.8746 47.5575 0.6881 -15.5230 46.6387
# 3 1.7734 47.5575 106.4846 -18.8906 -16.7965 3.9297
# 4 -1.5469 0.6881 -18.8906 43.9683 0.8115 1.1765
# 5 -4.5929 -15.5230 -16.7965 0.8115 39.2794 -6.0291
# 6 -1.1984 46.6387 3.9297 1.1765 -6.0291 29.5933
#
#
#
# Elastic Compliance Matrix: (Units=1/GPa)
#
#
# Indices 1 2 3 4 5 6 
#
# 1 0.013995 -0.002470 0.001143 0.000863 0.001845 0.004649
# 2 -0.002470 0.007092 -0.003000 -0.001187 -0.000420 -0.010916
# 3 0.001143 -0.003000 0.012217 0.005145 0.004664 0.003898
# 4 0.000863 -0.001187 0.005145 0.024964 0.001395 0.000514
# 5 0.001845 -0.000420 0.004664 0.001395 0.028371 0.005842
# 6 0.004649 -0.010916 0.003898 0.000514 0.005842 0.051836
#
#
# Mechanical properties :
#
#
# Convention : Reuss Voigt Hill
#
# Bulk Modulus (GPa) = 40.57138 63.68308 52.12723
# Shear Modulus (GPa) = 32.18669 45.88394 39.03531
#
# Velocity S-wave (km/s) = 3.48985 4.16676 3.84324
# Velocity P-wave (km/s) = 5.62053 6.87358 6.27840
#
# Compressibility (1/GPa) = 0.02464792
#
# Stress axis : x y z
#
# Youngs Moduli (GPa) = 71.45634 141.01190 81.85631
#
# Poissons Ratio (x) = 0.34829 -0.09353
# Poissons Ratio (y) = 0.17649 0.24557
# Poissons Ratio (z) = -0.08165 0.42304
#
# Static dielectric constant tensor:
#      x y z
#    x 2.191210 0.063820 0.019040 
#    y 0.063820 2.143540 0.024150 
#    z 0.019040 0.024150 2.101970 
# 
# From -- ./inp_files/142267.got.cif
#   From: 2010.05.17/outbox.cif.g08.bks.cpg/sg2_72_cif.got.tgz:142267.got - 2010.06.03 11:33:40.
