data_PCOD9010648
_publ_section_title
;
Structure prediction by ZEFSAII (Michael W. Deem and Ramdas Pophale) SiO2 
 PCOD9010648
Probable space group: P -1
;
_chemical_formula_sum "Si O2"
_cell_formula_units_Z 16
_cell_length_a 12.727798
_cell_length_b 9.965061
_cell_length_c 9.102380
_cell_angle_alpha 124.410206
_cell_angle_beta 97.160172
_cell_angle_gamma 50.691547
_cell_volume 685.960443
_symmetry_space_group_name_H-M "P -1"
_symmetry_group_IT_number 2
_symmetry_cell_setting 'triclinic'
loop_
_space_group_symop_operation_xyz
x,y,z
-x,-y,-z
loop_
_atom_site_type_symbol
_atom_site_label
_atom_site_fract_x
_atom_site_fract_y
_atom_site_fract_z
Si Si1 0.221244 0.048890 0.637100
Si Si2 0.334619 0.515707 0.876828
Si Si3 0.876932 0.754589 0.953145
Si Si4 0.437650 0.901552 0.002397
Si Si5 0.001801 0.627927 0.444693
Si Si6 0.629985 0.378559 0.758161
Si Si7 0.075130 0.763640 0.798421
Si Si8 0.446371 0.075958 0.699363
O O1 0.147074 0.190774 0.561129
O O2 0.366301 0.995376 0.676463
O O3 0.269610 0.814142 0.464116
O O4 0.115651 0.203314 0.849832
O O5 0.498205 0.395215 0.788607
O O6 0.243217 0.610505 0.771762
O O7 0.327226 0.344176 0.838407
O O8 0.289383 0.677072 0.105608
O O9 0.886179 0.558635 0.775089
O O10 0.008873 0.696640 0.853152
O O11 0.720319 0.983000 0.009702
O O12 0.427476 0.981248 0.215319
O O13 0.549214 0.631422 0.852397
O O14 0.500000 0.000000 0.000000
O O15 0.000000 0.500000 0.500000
O O16 0.045052 0.744922 0.614256
O O17 0.000000 0.000000 0.000000
O O18 0.500000 0.000000 0.500000
#
# Coordination Sequence:
#
# PCOD9010648 Si02
#       8
#     2   2   2   2   2   2   2   2
#     4  12  23  44  65 103 136 179 230 281 353 396
#     4  10  21  40  64 103 129 171 225 277 335 397
#     4  11  25  44  65  97 142 179 220 287 337 411
#     4  11  24  45  63 100 137 175 227 278 347 403
#     4  10  24  41  69  94 131 182 223 275 329 411
#     4  10  23  41  70  98 138 174 220 293 336 398
#     4  11  23  43  67  98 131 177 228 276 332 408
#     4  11  22  36  67  95 129 174 223 274 325 407
#
# _framework density 23.324960999999998
#
# number of rings (size 3 to 8) (size 9 to 14) (size 15 to 20)
#    0.000    1.250    2.500    3.375    5.250    0.500 
#    2.250    1.250    0.000    0.000    0.000    0.000 
#    0.000    0.000    0.000    0.000    0.000    0.000 
#
# Total GULP energy -89228.501146 kJ/mol
# GULP energy per Si atom -5576.781322 kJ/mol
# Density = 2.327187 g / cm^3
# Si number density = 23.324961 Si / 1000 Ang^3
#
#
#
# Elastic Constant Matrix: (Units=GPa)
#
#
# Indices 1 2 3 4 5 6 
#
# 1 44.5558 9.9782 23.6848 -6.9301 11.4807 -1.2517
# 2 9.9782 89.5961 33.6527 -17.4703 18.6580 -15.9344
# 3 23.6848 33.6527 198.5776 -14.7855 22.3802 -0.0675
# 4 -6.9301 -17.4703 -14.7855 35.6627 -1.0692 11.0548
# 5 11.4807 18.6580 22.3802 -1.0692 35.4025 -3.7854
# 6 -1.2517 -15.9344 -0.0675 11.0548 -3.7854 29.1101
#
#
#
# Elastic Compliance Matrix: (Units=1/GPa)
#
#
# Indices 1 2 3 4 5 6 
#
# 1 0.026001 -0.000071 -0.001945 0.004480 -0.007197 -0.001562
# 2 -0.000071 0.014926 -0.001466 0.004787 -0.006179 0.005542
# 3 -0.001945 -0.001466 0.005937 0.001883 -0.002497 -0.001912
# 4 0.004480 0.004787 0.001883 0.035384 -0.005307 -0.011310
# 5 -0.007197 -0.006179 -0.002497 -0.005307 0.035570 0.002943
# 6 -0.001562 0.005542 -0.001912 -0.011310 0.002943 0.041992
#
#
# Mechanical properties :
#
#
# Convention : Reuss Voigt Hill
#
# Bulk Modulus (GPa) = 25.06282 51.92900 38.49591
# Shear Modulus (GPa) = 27.76633 37.72931 32.74782
#
# Velocity S-wave (km/s) = 3.45398 4.02624 3.75104
# Velocity P-wave (km/s) = 5.16479 6.62765 5.94141
#
# Compressibility (1/GPa) = 0.03989974
#
# Stress axis : x y z
#
# Youngs Moduli (GPa) = 38.46022 66.99870 168.42564
#
# Poissons Ratio (x) = 0.00474 0.32760
# Poissons Ratio (y) = 0.00272 0.24696
# Poissons Ratio (z) = 0.07481 0.09824
#
# Static dielectric constant tensor:
#      x y z
#    x 1.902720 0.075450 0.078720 
#    y 0.075450 1.954330 0.034830 
#    z 0.078720 0.034830 2.036810 
# 
# From -- ./inp_files/262475.got.cif
#   From: 2010.05.17/outbox.cif.g08.bks.cpg/sg2_132_cif.got.tgz:262475.got - 2010.06.03 11:33:40.
