data_PCOD9010777
_publ_section_title
;
Structure prediction by ZEFSAII (Michael W. Deem and Ramdas Pophale) SiO2 
 PCOD9010777
Probable space group: P -1
;
_chemical_formula_sum "Si O2"
_cell_formula_units_Z 12
_cell_length_a 17.236961
_cell_length_b 11.280475
_cell_length_c 20.021322
_cell_angle_alpha 159.564259
_cell_angle_beta 20.973340
_cell_angle_gamma 149.085268
_cell_volume 481.975126
_symmetry_space_group_name_H-M "P -1"
_symmetry_group_IT_number 2
_symmetry_cell_setting 'triclinic'
loop_
_space_group_symop_operation_xyz
x,y,z
-x,-y,-z
loop_
_atom_site_type_symbol
_atom_site_label
_atom_site_fract_x
_atom_site_fract_y
_atom_site_fract_z
Si Si1 0.706705 0.808806 0.141910
Si Si2 0.380894 0.835687 0.309039
Si Si3 0.881762 0.719184 0.149489
Si Si4 0.717936 0.583239 0.402347
Si Si5 0.524980 0.485712 0.714641
Si Si6 0.869995 0.711390 0.483761
O O1 0.588373 0.942344 0.239244
O O2 0.572651 0.535751 0.143966
O O3 0.677097 0.123785 0.383769
O O4 0.942856 0.612683 0.832569
O O5 0.207651 0.914579 0.551571
O O6 0.260220 0.059903 0.464689
O O7 0.500000 0.500000 0.000000
O O8 0.685761 0.542736 0.179588
O O9 0.000000 0.500000 0.000000
O O10 0.073808 0.693277 0.927482
O O11 0.500000 0.500000 0.500000
O O12 0.703759 0.645339 0.523960
O O13 0.700717 0.752853 0.703450
O O14 0.000000 0.000000 0.500000
#
# Coordination Sequence:
#
# PCOD9010777 Si02
#       6
#     2   2   2   2   2   2
#     4  10  21  41  64  94 131 171 223 268 329 403
#     4  10  21  40  64  91 133 171 217 277 334 390
#     4   9  18  37  64  92 127 171 222 267 319 404
#     4  11  22  41  68  97 130 179 228 271 328 408
#     4  10  21  40  67  94 127 173 224 268 329 400
#     4  12  24  39  66 101 136 169 217 284 339 387
#
# _framework density 24.897549999999999
#
# number of rings (size 3 to 8) (size 9 to 14) (size 15 to 20)
#    0.000    1.667    1.667    4.500    0.000    0.667 
#    0.000    0.833    3.667    0.000    0.000    0.000 
#    0.000    0.000    0.000    0.000    0.000    0.000 
#
# Total GULP energy -66862.033561 kJ/mol
# GULP energy per Si atom -5571.836130 kJ/mol
# Density = 2.484088 g / cm^3
# Si number density = 24.897550 Si / 1000 Ang^3
#
#
#
# Elastic Constant Matrix: (Units=GPa)
#
#
# Indices 1 2 3 4 5 6 
#
# 1 76.3120 2.2638 3.3727 -2.4999 -22.2658 -0.8081
# 2 2.2638 118.8175 25.4987 -37.1893 4.3202 -0.4078
# 3 3.3727 25.4987 174.9057 -24.0234 3.2693 4.4515
# 4 -2.4999 -37.1893 -24.0234 41.8485 7.0386 5.9763
# 5 -22.2658 4.3202 3.2693 7.0386 47.8919 -3.8954
# 6 -0.8081 -0.4078 4.4515 5.9763 -3.8954 25.8685
#
#
#
# Elastic Compliance Matrix: (Units=1/GPa)
#
#
# Indices 1 2 3 4 5 6 
#
# 1 0.015386 -0.001061 -0.000618 -0.001998 0.007764 0.002201
# 2 -0.001061 0.012283 0.000014 0.011915 -0.003609 -0.003138
# 3 -0.000618 0.000014 0.006398 0.004239 -0.001538 -0.002331
# 4 -0.001998 0.011915 0.004239 0.039923 -0.009071 -0.011193
# 5 0.007764 -0.003609 -0.001538 -0.009071 0.026789 0.006580
# 6 0.002201 -0.003138 -0.002331 -0.011193 0.006580 0.042654
#
#
# Mechanical properties :
#
#
# Convention : Reuss Voigt Hill
#
# Bulk Modulus (GPa) = 32.53358 48.03395 40.28376
# Shear Modulus (GPa) = 31.84548 45.71513 38.78031
#
# Velocity S-wave (km/s) = 3.58028 4.28966 3.95092
# Velocity P-wave (km/s) = 5.49423 6.62340 6.08506
#
# Compressibility (1/GPa) = 0.03073747
#
# Stress axis : x y z
#
# Youngs Moduli (GPa) = 64.99431 81.41038 156.30776
#
# Poissons Ratio (x) = 0.08636 0.09654
# Poissons Ratio (y) = 0.06894 -0.00213
# Poissons Ratio (z) = 0.04014 -0.00111
#
# Static dielectric constant tensor:
#      x y z
#    x 1.958160 -0.066200 -0.006180 
#    y -0.066200 2.272530 0.104610 
#    z -0.006180 0.104610 2.010930 
# 
# From -- ./inp_files/188809.got.cif
#   From: 2010.05.17/outbox.cif.g08.bks.cpg/sg2_95_cif.got.tgz:188809.got - 2010.06.03 11:33:40.
