data_PCOD9010614
_publ_section_title
;
Structure prediction by ZEFSAII (Michael W. Deem and Ramdas Pophale) SiO2 
 PCOD9010614
Probable space group: P -1
;
_chemical_formula_sum "Si O2"
_cell_formula_units_Z 14
_cell_length_a 21.865664
_cell_length_b 5.143135
_cell_length_c 6.750678
_cell_angle_alpha 98.283827
_cell_angle_beta 123.985867
_cell_angle_gamma 96.020757
_cell_volume 606.801584
_symmetry_space_group_name_H-M "P -1"
_symmetry_group_IT_number 2
_symmetry_cell_setting 'triclinic'
loop_
_space_group_symop_operation_xyz
x,y,z
-x,-y,-z
loop_
_atom_site_type_symbol
_atom_site_label
_atom_site_fract_x
_atom_site_fract_y
_atom_site_fract_z
Si Si1 0.741676 0.223569 0.831684
Si Si2 0.009782 0.172579 0.342074
Si Si3 0.839818 0.442193 0.407330
Si Si4 0.428709 0.541982 0.749962
Si Si5 0.427883 0.998723 0.501406
Si Si6 0.258966 0.333195 0.454522
Si Si7 0.070138 0.761854 0.137033
O O1 0.654005 0.163195 0.736726
O O2 0.755802 0.478683 0.735802
O O3 0.748971 0.962514 0.686791
O O4 0.791718 0.281297 0.125900
O O5 0.075831 0.437815 0.515179
O O6 0.047835 0.007014 0.235447
O O7 0.000000 0.000000 0.500000
O O8 0.931691 0.191557 0.096031
O O9 0.794262 0.645135 0.451433
O O10 0.859680 0.289024 0.620946
O O11 0.438242 0.837459 0.704967
O O12 0.346103 0.456665 0.691973
O O13 0.422769 0.308143 0.548983
O O14 0.500000 0.500000 0.000000
O O15 0.500000 0.000000 0.500000
O O16 0.000000 0.500000 0.000000
#
# Coordination Sequence:
#
# PCOD9010614 Si02
#       7
#     2   2   2   2   2   2   2
#     4  10  25  44  67 102 141 182 233 283 353 403
#     4  10  23  44  69 100 132 169 226 278 347 412
#     4  11  25  43  72  96 134 187 224 282 355 404
#     4  10  21  40  64  96 130 182 227 280 348 391
#     4  10  21  40  63  97 133 175 228 288 333 407
#     4  10  25  45  65 101 145 176 237 291 333 423
#     4   9  22  43  63  98 128 167 222 269 341 416
#
# _framework density 23.071793
#
# number of rings (size 3 to 8) (size 9 to 14) (size 15 to 20)
#    0.000    2.000    0.000    0.857    6.000    6.857 
#    0.000    0.000    0.000    0.000    0.000    0.000 
#    0.000    0.000    0.000    0.000    0.000    0.000 
#
# Total GULP energy -78151.140714 kJ/mol
# GULP energy per Si atom -5582.224337 kJ/mol
# Density = 2.301928 g / cm^3
# Si number density = 23.071793 Si / 1000 Ang^3
#
#
#
# Elastic Constant Matrix: (Units=GPa)
#
#
# Indices 1 2 3 4 5 6 
#
# 1 94.7992 3.2897 40.4532 -5.4628 2.8250 11.8683
# 2 3.2897 90.9030 27.9527 -5.4151 2.0469 1.4730
# 3 40.4532 27.9527 180.2899 -18.2634 27.5680 13.5183
# 4 -5.4628 -5.4151 -18.2634 32.1934 -9.0123 -2.7352
# 5 2.8250 2.0469 27.5680 -9.0123 30.5368 1.7502
# 6 11.8683 1.4730 13.5183 -2.7352 1.7502 37.5836
#
#
#
# Elastic Compliance Matrix: (Units=1/GPa)
#
#
# Indices 1 2 3 4 5 6 
#
# 1 0.012057 0.000464 -0.002746 0.000809 0.001735 -0.002860
# 2 0.000464 0.011642 -0.001996 0.001296 0.001352 0.000146
# 3 -0.002746 -0.001996 0.007663 0.001767 -0.005928 -0.001406
# 4 0.000809 0.001296 0.001767 0.034894 0.008473 0.001203
# 5 0.001735 0.001352 -0.005928 0.008473 0.040333 0.000270
# 6 -0.002860 0.000146 -0.001406 0.001203 0.000270 0.028086
#
#
# Mechanical properties :
#
#
# Convention : Reuss Voigt Hill
#
# Bulk Modulus (GPa) = 43.84812 56.59817 50.22314
# Shear Modulus (GPa) = 33.14919 39.68253 36.41586
#
# Velocity S-wave (km/s) = 3.79461 4.15174 3.97718
# Velocity P-wave (km/s) = 6.18426 6.89689 6.55027
#
# Compressibility (1/GPa) = 0.02280600
#
# Stress axis : x y z
#
# Youngs Moduli (GPa) = 82.93692 85.89625 130.49525
#
# Poissons Ratio (x) = -0.03982 0.35838
# Poissons Ratio (y) = -0.03845 0.26041
# Poissons Ratio (z) = 0.22777 0.17141
#
# Static dielectric constant tensor:
#      x y z
#    x 1.955260 0.004390 0.068100 
#    y 0.004390 1.891090 0.003440 
#    z 0.068100 0.003440 1.882580 
# 
# From -- ./inp_files/8125.got.cif
#   From: 2010.05.17/outbox.cif.g08.bks.cpg/sg2_5_cif.got.tgz:8125.got - 2010.06.03 11:33:40.
