data_PCOD9010744
_publ_section_title
;
Structure prediction by ZEFSAII (Michael W. Deem and Ramdas Pophale) SiO2 
 PCOD9010744
Probable space group: P -1
;
_chemical_formula_sum "Si O2"
_cell_formula_units_Z 16
_cell_length_a 23.474386
_cell_length_b 8.938239
_cell_length_c 14.521157
_cell_angle_alpha 51.298064
_cell_angle_beta 159.855530
_cell_angle_gamma 128.329680
_cell_volume 812.617761
_symmetry_space_group_name_H-M "P -1"
_symmetry_group_IT_number 2
_symmetry_cell_setting 'triclinic'
loop_
_space_group_symop_operation_xyz
x,y,z
-x,-y,-z
loop_
_atom_site_type_symbol
_atom_site_label
_atom_site_fract_x
_atom_site_fract_y
_atom_site_fract_z
Si Si1 0.049710 0.988266 0.471715
Si Si2 0.813710 0.919586 0.778826
Si Si3 0.320139 0.508677 0.271525
Si Si4 0.751565 0.651058 0.306663
Si Si5 0.822953 0.792500 0.054034
Si Si6 0.070821 0.589431 0.700653
Si Si7 0.601570 0.259474 0.327970
Si Si8 0.455805 0.770633 0.538051
O O1 0.136294 0.792201 0.673570
O O2 0.900955 0.944926 0.189560
O O3 0.159802 0.192030 0.547416
O O4 0.000000 0.000000 0.500000
O O5 0.751440 0.708677 0.724335
O O6 0.686314 0.070998 0.501744
O O7 0.814752 0.885757 0.904349
O O8 0.000000 0.000000 0.000000
O O9 0.500000 0.500000 0.500000
O O10 0.346409 0.661499 0.334485
O O11 0.189639 0.572086 0.975511
O O12 0.690695 0.449204 0.340405
O O13 0.884960 0.610047 0.446851
O O14 0.593939 0.743794 0.990839
O O15 0.924684 0.609748 0.269330
O O16 0.638265 0.702279 0.836273
O O17 0.620036 0.272029 0.460956
O O18 0.500000 0.000000 0.500000
#
# Coordination Sequence:
#
# PCOD9010744 Si02
#       8
#     2   2   2   2   2   2   2   2
#     4  10  22  36  61  90 126 166 210 259 312 382
#     4  11  24  44  68  93 129 172 212 273 329 381
#     4  11  22  40  65  97 126 166 217 263 325 379
#     4  10  24  41  61  91 126 176 213 252 325 383
#     4  11  22  40  62  96 125 163 218 263 325 380
#     4  10  21  40  64  90 126 167 213 262 312 383
#     4  11  23  42  63  89 133 167 212 268 315 387
#     4  12  23  37  64  99 127 163 212 271 325 376
#
# _framework density 19.689454999999999
#
# number of rings (size 3 to 8) (size 9 to 14) (size 15 to 20)
#    0.000    1.250    3.750    3.375    7.000    1.000 
#    0.000    1.875    0.000    4.500    0.000    0.000 
#    0.000    0.000    0.000    0.000    0.000    0.000 
#
# Total GULP energy -89313.215809 kJ/mol
# GULP energy per Si atom -5582.075988 kJ/mol
# Density = 1.964464 g / cm^3
# Si number density = 19.689455 Si / 1000 Ang^3
#
#
#
# Elastic Constant Matrix: (Units=GPa)
#
#
# Indices 1 2 3 4 5 6 
#
# 1 36.7004 11.5791 -1.1474 4.2469 0.8636 -13.6985
# 2 11.5791 119.2199 36.8958 0.3502 -1.9107 -18.8371
# 3 -1.1474 36.8958 86.4904 -9.7529 7.8750 -11.7870
# 4 4.2469 0.3502 -9.7529 42.3493 -6.0280 -8.7365
# 5 0.8636 -1.9107 7.8750 -6.0280 39.7088 10.1415
# 6 -13.6985 -18.8371 -11.7870 -8.7365 10.1415 32.8825
#
#
#
# Elastic Compliance Matrix: (Units=1/GPa)
#
#
# Indices 1 2 3 4 5 6 
#
# 1 0.034282 -0.002114 0.004128 0.000077 -0.005835 0.016370
# 2 -0.002114 0.010399 -0.004033 -0.000019 0.000453 0.003486
# 3 0.004128 -0.004033 0.015199 0.003981 -0.004564 0.007323
# 4 0.000077 -0.000019 0.003981 0.026355 0.001140 0.008099
# 5 -0.005835 0.000453 -0.004564 0.001140 0.029640 -0.012646
# 6 0.016370 0.003486 0.007323 0.008099 -0.012646 0.047905
#
#
# Mechanical properties :
#
#
# Convention : Reuss Voigt Hill
#
# Bulk Modulus (GPa) = 17.90744 37.45174 27.67959
# Shear Modulus (GPa) = 26.81908 35.99367 31.40637
#
# Velocity S-wave (km/s) = 3.69467 4.28023 3.99819
# Velocity P-wave (km/s) = 5.22642 6.59467 5.95001
#
# Compressibility (1/GPa) = 0.05584272
#
# Stress axis : x y z
#
# Youngs Moduli (GPa) = 29.16954 96.15975 65.79194
#
# Poissons Ratio (x) = 0.20330 -0.27156
# Poissons Ratio (y) = 0.06167 0.26531
# Poissons Ratio (z) = -0.12040 0.38777
#
# Static dielectric constant tensor:
#      x y z
#    x 1.710280 -0.017180 0.002610 
#    y -0.017180 1.715840 -0.021240 
#    z 0.002610 -0.021240 1.731950 
# 
# From -- ./inp_files/500252.got.cif
#   From: 2010.05.17/outbox.cif.g08.bks.cpg/sg2_251_cif.got.tgz:500252.got - 2010.06.03 11:33:40.
