data_PCOD9010544
_publ_section_title
;
Structure prediction by ZEFSAII (Michael W. Deem and Ramdas Pophale) SiO2 
 PCOD9010544
Probable space group: P -1
;
_chemical_formula_sum "Si O2"
_cell_formula_units_Z 16
_cell_length_a 10.178412
_cell_length_b 16.400500
_cell_length_c 6.539937
_cell_angle_alpha 67.885818
_cell_angle_beta 66.304035
_cell_angle_gamma 116.818598
_cell_volume 652.027532
_symmetry_space_group_name_H-M "P -1"
_symmetry_group_IT_number 2
_symmetry_cell_setting 'triclinic'
loop_
_space_group_symop_operation_xyz
x,y,z
-x,-y,-z
loop_
_atom_site_type_symbol
_atom_site_label
_atom_site_fract_x
_atom_site_fract_y
_atom_site_fract_z
Si Si1 0.678179 0.504544 0.351385
Si Si2 0.682448 0.894126 0.749060
Si Si3 0.701127 0.742199 0.124670
Si Si4 0.918820 0.337333 0.784243
Si Si5 0.869170 0.481579 0.910994
Si Si6 0.339105 0.856526 0.160170
Si Si7 0.861038 0.865437 0.319547
Si Si8 0.046314 0.830036 0.590590
O O1 0.500000 0.500000 0.500000
O O2 0.538011 0.364292 0.666524
O O3 0.882124 0.599739 0.268077
O O4 0.726030 0.490834 0.104426
O O5 0.694909 0.844368 0.580879
O O6 0.807430 0.038845 0.504666
O O7 0.786952 0.871570 0.861344
O O8 0.477877 0.833264 0.050503
O O9 0.751299 0.761674 0.311760
O O10 0.833692 0.727694 0.934828
O O11 0.000577 0.415576 0.447027
O O12 0.794536 0.358785 0.963425
O O13 0.782946 0.195111 0.931220
O O14 0.000000 0.500000 0.000000
O O15 0.166564 0.793792 0.499796
O O16 0.500000 0.000000 0.000000
O O17 0.991828 0.857612 0.389060
O O18 0.000000 0.000000 0.000000
#
# Coordination Sequence:
#
# PCOD9010544 Si02
#       8
#     2   2   2   2   2   2   2   2
#     4  11  27  43  64 105 130 169 233 278 331 400
#     4  10  21  40  63  94 127 166 221 260 325 403
#     4  11  23  38  65  91 129 168 216 273 322 393
#     4  10  23  46  71  90 139 177 214 283 337 381
#     4   9  22  44  70  99 129 174 228 269 332 399
#     4  10  24  42  68  96 131 175 216 266 336 399
#     4  11  19  37  66  90 123 170 215 261 322 386
#     4  10  21  41  60  94 133 167 209 271 330 388
#
# _framework density 24.538838999999999
#
# number of rings (size 3 to 8) (size 9 to 14) (size 15 to 20)
#    0.000    1.750    2.500    0.750   10.500    1.500 
#    0.000    1.875    0.000    0.000    0.000    0.000 
#    0.000    0.000    0.000    0.000    0.000    0.000 
#
# Total GULP energy -89214.417492 kJ/mol
# GULP energy per Si atom -5575.901093 kJ/mol
# Density = 2.448299 g / cm^3
# Si number density = 24.538839 Si / 1000 Ang^3
#
#
#
# Elastic Constant Matrix: (Units=GPa)
#
#
# Indices 1 2 3 4 5 6 
#
# 1 92.6144 36.1306 56.3623 18.2022 -22.8989 -11.3750
# 2 36.1306 153.1535 34.9111 27.5925 -24.9200 4.4680
# 3 56.3623 34.9111 125.0118 35.2860 -37.6055 -6.0602
# 4 18.2022 27.5925 35.2860 47.2015 -12.6485 -15.6834
# 5 -22.8989 -24.9200 -37.6055 -12.6485 57.4907 12.6382
# 6 -11.3750 4.4680 -6.0602 -15.6834 12.6382 33.7247
#
#
#
# Elastic Compliance Matrix: (Units=1/GPa)
#
#
# Indices 1 2 3 4 5 6 
#
# 1 0.016427 -0.002913 -0.007053 0.002579 -0.000059 0.005881
# 2 -0.002913 0.008748 0.001342 -0.006059 0.003502 -0.006030
# 3 -0.007053 0.001342 0.015487 -0.010083 0.007264 -0.007185
# 4 0.002579 -0.006059 -0.010083 0.036210 -0.004249 0.018292
# 5 -0.000059 0.003502 0.007264 -0.004249 0.025020 -0.010531
# 6 0.005881 -0.006030 -0.007185 0.018292 -0.010531 0.043596
#
#
# Mechanical properties :
#
#
# Convention : Reuss Voigt Hill
#
# Bulk Modulus (GPa) = 42.71172 69.50974 56.11073
# Shear Modulus (GPa) = 29.31799 43.90840 36.61320
#
# Velocity S-wave (km/s) = 3.46028 4.23465 3.86690
# Velocity P-wave (km/s) = 5.77999 7.23171 6.54622
#
# Compressibility (1/GPa) = 0.02341278
#
# Stress axis : x y z
#
# Youngs Moduli (GPa) = 60.87406 114.30991 64.56842
#
# Poissons Ratio (x) = 0.33303 0.45543
# Poissons Ratio (y) = 0.17735 -0.08663
# Poissons Ratio (z) = 0.42937 -0.15338
#
# Static dielectric constant tensor:
#      x y z
#    x 1.969030 -0.063240 -0.013730 
#    y -0.063240 2.093990 -0.065600 
#    z -0.013730 -0.065600 1.979380 
# 
# From -- ./inp_files/81397.got.cif
#   From: 2010.05.17/outbox.cif.g08.bks.cpg/sg2_41_cif.got.tgz:81397.got - 2010.06.03 11:33:40.
