data_PCOD9010129
_publ_section_title
;
Structure prediction by ZEFSAII (Michael W. Deem and Ramdas Pophale) SiO2 
 PCOD9010129
Probable space group: P -1
;
_chemical_formula_sum "Si O2"
_cell_formula_units_Z 16
_cell_length_a 21.781157
_cell_length_b 22.223597
_cell_length_c 9.691577
_cell_angle_alpha 131.547795
_cell_angle_beta 36.237048
_cell_angle_gamma 162.035077
_cell_volume 702.502392
_symmetry_space_group_name_H-M "P -1"
_symmetry_group_IT_number 2
_symmetry_cell_setting 'triclinic'
loop_
_space_group_symop_operation_xyz
x,y,z
-x,-y,-z
loop_
_atom_site_type_symbol
_atom_site_label
_atom_site_fract_x
_atom_site_fract_y
_atom_site_fract_z
Si Si1 0.774954 0.902780 0.697309
Si Si2 0.622286 0.518832 0.904716
Si Si3 0.702984 0.089651 0.991027
Si Si4 0.678092 0.248830 0.278662
Si Si5 0.226031 0.012028 0.436823
Si Si6 0.353409 0.036670 0.808863
Si Si7 0.422721 0.650636 0.473710
Si Si8 0.326827 0.446903 0.809642
O O1 0.487288 0.644843 0.769229
O O2 0.922459 0.061020 0.546135
O O3 0.000000 0.000000 0.500000
O O4 0.644906 0.872313 0.994223
O O5 0.495390 0.346676 0.798216
O O6 0.982923 0.791305 0.637981
O O7 0.500000 0.500000 0.000000
O O8 0.594993 0.503612 0.094502
O O9 0.579333 0.923088 0.873866
O O10 0.070897 0.371526 0.726431
O O11 0.565506 0.077000 0.184716
O O12 0.661176 0.034012 0.141566
O O13 0.519208 0.215556 0.473569
O O14 0.638860 0.223622 0.477150
O O15 0.000000 0.500000 0.000000
O O16 0.373982 0.196507 0.524989
O O17 0.032015 0.804083 0.953542
O O18 0.500000 0.500000 0.500000
#
# Coordination Sequence:
#
# PCOD9010129 Si02
#       8
#     2   2   2   2   2   2   2   2
#     4  11  22  39  63  93 130 170 215 262 317 388
#     4  11  25  39  60  92 129 168 215 261 314 382
#     4   9  21  39  63  93 122 162 212 266 319 379
#     4  10  21  40  66  92 123 170 215 268 328 375
#     4  10  22  39  62  90 123 168 212 260 319 384
#     4  11  22  40  65  91 132 167 211 265 323 379
#     4  10  21  40  62  87 127 161 208 264 317 380
#     4  12  25  40  64  95 130 172 213 259 321 382
#
# _framework density 22.775722999999999
#
# number of rings (size 3 to 8) (size 9 to 14) (size 15 to 20)
#    0.000    1.500    1.250    3.375    5.250    1.000 
#    0.000    5.000    0.000   11.250    0.000    0.000 
#    0.000    0.000    0.000    0.000    0.000    0.000 
#
# Total GULP energy -89166.313284 kJ/mol
# GULP energy per Si atom -5572.894580 kJ/mol
# Density = 2.272388 g / cm^3
# Si number density = 22.775723 Si / 1000 Ang^3
#
#
#
# Elastic Constant Matrix: (Units=GPa)
#
#
# Indices 1 2 3 4 5 6 
#
# 1 99.3725 23.7783 46.4897 17.5111 17.4199 -18.3691
# 2 23.7783 105.9125 44.8892 24.2224 3.0299 1.6839
# 3 46.4897 44.8892 114.8254 24.0633 30.4486 -8.0800
# 4 17.5111 24.2224 24.0633 34.9894 -9.1487 8.5906
# 5 17.4199 3.0299 30.4486 -9.1487 42.8843 4.9002
# 6 -18.3691 1.6839 -8.0800 8.5906 4.9002 31.6051
#
#
#
# Elastic Compliance Matrix: (Units=1/GPa)
#
#
# Indices 1 2 3 4 5 6 
#
# 1 0.018811 -0.000575 0.001967 -0.019013 -0.015223 0.018994
# 2 -0.000575 0.012367 -0.003868 -0.005142 0.001095 -0.000754
# 3 0.001967 -0.003868 0.021341 -0.022909 -0.022452 0.016513
# 4 -0.019013 -0.005142 -0.022909 0.080932 0.046862 -0.045897
# 5 -0.015223 0.001095 -0.022452 0.046862 0.059548 -0.036616
# 6 0.018994 -0.000754 0.016513 -0.045897 -0.036616 0.065094
#
#
# Mechanical properties :
#
#
# Convention : Reuss Voigt Hill
#
# Bulk Modulus (GPa) = 21.02305 61.15830 41.09068
# Shear Modulus (GPa) = 17.92752 35.55929 26.74340
#
# Velocity S-wave (km/s) = 2.80863 3.95559 3.43039
# Velocity P-wave (km/s) = 4.44617 6.91180 5.81125
#
# Compressibility (1/GPa) = 0.04756683
#
# Stress axis : x y z
#
# Youngs Moduli (GPa) = 53.16092 80.86205 46.85762
#
# Poissons Ratio (x) = 0.04649 -0.09215
# Poissons Ratio (y) = 0.03056 0.18123
# Poissons Ratio (z) = -0.10454 0.31274
#
# Static dielectric constant tensor:
#      x y z
#    x 4.225210 2.097310 -0.681290 
#    y 2.097310 3.684670 -0.631670 
#    z -0.681290 -0.631670 2.191190 
# 
# From -- ./inp_files/349546.got.cif
#   From: 2010.05.17/outbox.cif.g08.bks.cpg/sg2_175_cif.got.tgz:349546.got - 2010.06.03 11:33:40.
