data_PCOD9010728
_publ_section_title
;
Structure prediction by ZEFSAII (Michael W. Deem and Ramdas Pophale) SiO2 
 PCOD9010728
Probable space group: P -1
;
_chemical_formula_sum "Si O2"
_cell_formula_units_Z 14
_cell_length_a 21.864207
_cell_length_b 8.340211
_cell_length_c 7.776470
_cell_angle_alpha 127.482539
_cell_angle_beta 128.473310
_cell_angle_gamma 34.058447
_cell_volume 607.575821
_symmetry_space_group_name_H-M "P -1"
_symmetry_group_IT_number 2
_symmetry_cell_setting 'triclinic'
loop_
_space_group_symop_operation_xyz
x,y,z
-x,-y,-z
loop_
_atom_site_type_symbol
_atom_site_label
_atom_site_fract_x
_atom_site_fract_y
_atom_site_fract_z
Si Si1 0.827116 0.823933 0.756137
Si Si2 0.662962 0.225042 0.427481
Si Si3 0.280122 0.762934 0.844929
Si Si4 0.124393 0.711898 0.415145
Si Si5 0.286321 0.423998 0.174279
Si Si6 0.512655 0.171722 0.012963
Si Si7 0.923130 0.079589 0.077284
O O1 0.880305 0.506926 0.668345
O O2 0.750386 0.964244 0.543490
O O3 0.752086 0.022889 0.921132
O O4 0.910925 0.858753 0.909975
O O5 0.714335 0.149403 0.276302
O O6 0.650813 0.477854 0.634347
O O7 0.552003 0.296265 0.266740
O O8 0.186079 0.763120 0.672650
O O9 0.399639 0.435955 0.885249
O O10 0.208500 0.544008 0.284386
O O11 0.000999 0.006068 0.322458
O O12 0.201305 0.599870 0.976469
O O13 0.382597 0.079107 0.091873
O O14 0.500000 0.000000 0.000000
O O15 0.000000 0.000000 0.000000
#
# Coordination Sequence:
#
# PCOD9010728 Si02
#       7
#     2   2   2   2   2   2   2
#     4  11  22  40  65  92 124 162 204 252 307 363
#     4  10  23  41  60  87 128 163 200 253 303 358
#     4  11  25  41  62  95 126 161 207 249 305 373
#     4  10  21  40  64  90 123 161 205 256 306 361
#     4   9  21  40  62  89 124 164 203 254 310 358
#     4  12  23  38  63  93 124 163 210 250 300 372
#     4   9  19  39  64  91 124 160 203 253 306 365
#
# _framework density 23.042393000000001
#
# number of rings (size 3 to 8) (size 9 to 14) (size 15 to 20)
#    0.000    1.714    0.000    5.143    0.000    6.286 
#    0.000    2.857    0.000   16.286    0.000    0.000 
#    0.000    0.000    0.000    0.000    0.000    0.000 
#
# Total GULP energy -78340.585720 kJ/mol
# GULP energy per Si atom -5595.756123 kJ/mol
# Density = 2.298995 g / cm^3
# Si number density = 23.042393 Si / 1000 Ang^3
#
#
#
# Elastic Constant Matrix: (Units=GPa)
#
#
# Indices 1 2 3 4 5 6 
#
# 1 74.0576 28.7704 46.9065 -1.9461 -4.9626 -1.3407
# 2 28.7704 118.8045 71.6161 0.4599 -3.9503 -8.4666
# 3 46.9065 71.6161 143.2732 -33.1490 6.9074 1.1488
# 4 -1.9461 0.4599 -33.1490 34.8962 2.7009 2.5785
# 5 -4.9626 -3.9503 6.9074 2.7009 50.7503 -6.3159
# 6 -1.3407 -8.4666 1.1488 2.5785 -6.3159 30.5690
#
#
#
# Elastic Compliance Matrix: (Units=1/GPa)
#
#
# Indices 1 2 3 4 5 6 
#
# 1 0.018660 0.001028 -0.008601 -0.007652 0.003839 0.002865
# 2 0.001028 0.015387 -0.010898 -0.011306 0.004197 0.006537
# 3 -0.008601 -0.010898 0.020209 0.019884 -0.006388 -0.007152
# 4 -0.007652 -0.011306 0.019884 0.048639 -0.008168 -0.010005
# 5 0.003839 0.004197 -0.006388 -0.008168 0.022572 0.006923
# 6 0.002865 0.006537 -0.007152 -0.010005 0.006923 0.037192
#
#
# Mechanical properties :
#
#
# Convention : Reuss Voigt Hill
#
# Bulk Modulus (GPa) = 57.76370 70.08013 63.92192
# Shear Modulus (GPa) = 24.34581 35.83259 30.08920
#
# Velocity S-wave (km/s) = 3.25401 3.94772 3.61753
# Velocity P-wave (km/s) = 6.26426 7.15953 6.72681
#
# Compressibility (1/GPa) = 0.01731191
#
# Stress axis : x y z
#
# Youngs Moduli (GPa) = 53.59159 64.98921 49.48230
#
# Poissons Ratio (x) = -0.06678 0.42561
# Poissons Ratio (y) = -0.05507 0.53928
# Poissons Ratio (z) = 0.46095 0.70828
#
# Static dielectric constant tensor:
#      x y z
#    x 1.930920 -0.022210 -0.047810 
#    y -0.022210 1.802720 -0.002520 
#    z -0.047810 -0.002520 1.868070 
# 
# From -- ./inp_files/189691.got.cif
#   From: 2010.05.17/outbox.cif.g08.bks.cpg/sg2_95_cif.got.tgz:189691.got - 2010.06.03 11:33:40.
