data_PCOD9010333
_publ_section_title
;
Structure prediction by ZEFSAII (Michael W. Deem and Ramdas Pophale) SiO2 
 PCOD9010333
Probable space group: P -1
;
_chemical_formula_sum "Si O2"
_cell_formula_units_Z 14
_cell_length_a 7.506581
_cell_length_b 20.020986
_cell_length_c 8.558224
_cell_angle_alpha 34.823914
_cell_angle_beta 53.588335
_cell_angle_gamma 45.779673
_cell_volume 525.689519
_symmetry_space_group_name_H-M "P -1"
_symmetry_group_IT_number 2
_symmetry_cell_setting 'triclinic'
loop_
_space_group_symop_operation_xyz
x,y,z
-x,-y,-z
loop_
_atom_site_type_symbol
_atom_site_label
_atom_site_fract_x
_atom_site_fract_y
_atom_site_fract_z
Si Si1 0.795678 0.691764 0.989168
Si Si2 0.101562 0.067615 0.028832
Si Si3 0.323490 0.754525 0.904000
Si Si4 0.573196 0.877320 0.019328
Si Si5 0.667877 0.507863 0.617719
Si Si6 0.922412 0.336325 0.407406
Si Si7 0.664697 0.647053 0.648566
O O1 0.571466 0.707632 0.964034
O O2 0.693945 0.823606 0.893133
O O3 0.807880 0.578011 0.319536
O O4 0.007717 0.680467 0.780138
O O5 0.300296 0.044353 0.110667
O O6 0.014902 0.196575 0.715139
O O7 0.860145 0.107395 0.186892
O O8 0.273156 0.951750 0.043369
O O9 0.221180 0.646248 0.180988
O O10 0.423436 0.728788 0.724907
O O11 0.655205 0.751877 0.327078
O O12 0.665676 0.534824 0.751773
O O13 0.374486 0.577524 0.588666
O O14 0.093465 0.395009 0.286772
#
# Coordination Sequence:
#
# PCOD9010333 Si02
#       7
#     2   2   2   2   2   2   2
#     4  10  22  39  62  93 118 161 208 246 307 369
#     4  10  21  40  63  85 124 166 196 262 308 356
#     4  11  22  39  61  91 125 159 206 249 309 364
#     4   9  21  42  60  88 122 157 213 253 304 367
#     4  11  22  43  61  92 131 160 201 259 299 371
#     4  10  22  41  63  93 127 160 202 254 312 357
#     4   9  22  41  61  94 121 162 210 246 306 375
#
# _framework density 26.631689999999999
#
# number of rings (size 3 to 8) (size 9 to 14) (size 15 to 20)
#    0.000    2.000    1.429    0.857    2.000    4.000 
#    5.143    2.143    0.000    0.000    0.000    0.000 
#    0.000    0.000    0.000    0.000    0.000    0.000 
#
# Total GULP energy -78278.420687 kJ/mol
# GULP energy per Si atom -5591.315763 kJ/mol
# Density = 2.657108 g / cm^3
# Si number density = 26.631690 Si / 1000 Ang^3
#
#
#
# Elastic Constant Matrix: (Units=GPa)
#
#
# Indices 1 2 3 4 5 6 
#
# 1 71.9668 30.9206 24.9282 0.4589 17.8240 -11.9286
# 2 30.9206 183.5601 49.5498 43.8082 12.1029 -11.2523
# 3 24.9282 49.5498 46.5864 31.3614 8.1247 -1.2079
# 4 0.4589 43.8082 31.3614 48.3476 2.7809 1.7039
# 5 17.8240 12.1029 8.1247 2.7809 27.6199 9.4478
# 6 -11.9286 -11.2523 -1.2079 1.7039 9.4478 48.0433
#
#
#
# Elastic Compliance Matrix: (Units=1/GPa)
#
#
# Indices 1 2 3 4 5 6 
#
# 1 0.025906 -0.000953 -0.019264 0.013677 -0.014799 0.008150
# 2 -0.000953 0.008203 -0.005105 -0.004083 -0.001768 0.002049
# 3 -0.019264 -0.005105 0.059542 -0.033790 0.001800 -0.003638
# 4 0.013677 -0.004083 -0.033790 0.046267 -0.001864 0.000316
# 5 -0.014799 -0.001768 0.001800 -0.001864 0.050978 -0.014002
# 6 0.008150 0.002049 -0.003638 0.000316 -0.014002 0.025969
#
#
# Mechanical properties :
#
#
# Convention : Reuss Voigt Hill
#
# Bulk Modulus (GPa) = 23.25198 56.99005 40.12101
# Shear Modulus (GPa) = 17.74022 37.91646 27.82834
#
# Velocity S-wave (km/s) = 2.58375 3.77733 3.23605
# Velocity P-wave (km/s) = 4.20130 6.36161 5.39078
#
# Compressibility (1/GPa) = 0.04300709
#
# Stress axis : x y z
#
# Youngs Moduli (GPa) = 38.60060 121.90905 16.79487
#
# Poissons Ratio (x) = 0.11613 0.32354
# Poissons Ratio (y) = 0.03677 0.08574
# Poissons Ratio (z) = 0.74362 0.62235
#
# Static dielectric constant tensor:
#      x y z
#    x 2.130310 0.043830 -0.043410 
#    y 0.043830 2.208590 -0.006410 
#    z -0.043410 -0.006410 2.112750 
# 
# From -- ./inp_files/178740.got.cif
#   From: 2010.05.17/outbox.cif.g08.bks.cpg/sg2_90_cif.got.tgz:178740.got - 2010.06.03 11:33:40.
