data_PCOD9010585
_publ_section_title
;
Structure prediction by ZEFSAII (Michael W. Deem and Ramdas Pophale) SiO2 
 PCOD9010585
Probable space group: P -1
;
_chemical_formula_sum "Si O2"
_cell_formula_units_Z 16
_cell_length_a 21.353504
_cell_length_b 18.619051
_cell_length_c 9.650672
_cell_angle_alpha 158.184883
_cell_angle_beta 32.783020
_cell_angle_gamma 152.265605
_cell_volume 659.538530
_symmetry_space_group_name_H-M "P -1"
_symmetry_group_IT_number 2
_symmetry_cell_setting 'triclinic'
loop_
_space_group_symop_operation_xyz
x,y,z
-x,-y,-z
loop_
_atom_site_type_symbol
_atom_site_label
_atom_site_fract_x
_atom_site_fract_y
_atom_site_fract_z
Si Si1 0.940353 0.017912 0.286958
Si Si2 0.364212 0.807685 0.481629
Si Si3 0.362800 0.217873 0.648187
Si Si4 0.883109 0.477205 0.075266
Si Si5 0.874662 0.812962 0.316414
Si Si6 0.626347 0.318480 0.460975
Si Si7 0.865275 0.386705 0.639987
Si Si8 0.604706 0.617124 0.396628
O O1 0.048686 0.250059 0.577485
O O2 0.791450 0.973747 0.445460
O O3 0.914805 0.825906 0.102889
O O4 0.000000 0.000000 0.000000
O O5 0.351125 0.801639 0.662346
O O6 0.248008 0.795923 0.578147
O O7 0.500000 0.000000 0.500000
O O8 0.363061 0.572703 0.050660
O O9 0.464617 0.176221 0.473345
O O10 0.440865 0.307264 0.516770
O O11 0.350494 0.428534 0.104858
O O12 0.737593 0.362883 0.216693
O O13 0.878296 0.352262 0.716400
O O14 0.000000 0.500000 0.000000
O O15 0.741913 0.828657 0.580125
O O16 0.829205 0.581771 0.063500
O O17 0.000000 0.000000 0.500000
O O18 0.000000 0.500000 0.500000
O O19 0.500000 0.500000 0.500000
#
# Coordination Sequence:
#
# PCOD9010585 Si02
#       8
#     2   2   2   2   2   2   2   2
#     4  11  22  41  67  97 129 168 219 270 322 397
#     4  10  23  44  63  87 127 174 213 258 325 383
#     4   9  20  38  68  96 126 164 212 272 327 375
#     4  12  26  42  67  96 133 177 215 270 338 387
#     4  10  21  40  63  96 124 163 218 263 322 380
#     4  10  21  43  65  95 130 166 218 273 322 390
#     4  11  25  44  65  93 136 173 215 271 326 388
#     4   9  20  36  62  91 126 157 206 267 315 376
#
# _framework density 24.259385999999999
#
# number of rings (size 3 to 8) (size 9 to 14) (size 15 to 20)
#    0.000    1.750    2.500    1.500    5.250    2.000 
#    6.750    1.250    0.000    0.000    0.000    0.000 
#    0.000    0.000    0.000    0.000    0.000    0.000 
#
# Total GULP energy -89209.900474 kJ/mol
# GULP energy per Si atom -5575.618780 kJ/mol
# Density = 2.420417 g / cm^3
# Si number density = 24.259386 Si / 1000 Ang^3
#
#
#
# Elastic Constant Matrix: (Units=GPa)
#
#
# Indices 1 2 3 4 5 6 
#
# 1 158.1160 61.7328 27.8556 -22.8328 29.6141 2.9511
# 2 61.7328 147.9155 18.7766 -28.1815 29.0194 11.2919
# 3 27.8556 18.7766 66.1342 -9.2398 12.4149 -1.3885
# 4 -22.8328 -28.1815 -9.2398 45.1289 -9.6040 6.6359
# 5 29.6141 29.0194 12.4149 -9.6040 27.0894 1.0503
# 6 2.9511 11.2919 -1.3885 6.6359 1.0503 45.9330
#
#
#
# Elastic Compliance Matrix: (Units=1/GPa)
#
#
# Indices 1 2 3 4 5 6 
#
# 1 0.008770 -0.001901 -0.001779 0.001611 -0.006155 -0.000242
# 2 -0.001901 0.009932 -0.000205 0.004138 -0.006893 -0.002766
# 3 -0.001779 -0.000205 0.017103 0.001266 -0.005250 0.000619
# 4 0.001611 0.004138 0.001266 0.027219 0.003073 -0.005085
# 5 -0.006155 -0.006893 -0.005250 0.003073 0.054513 0.000241
# 6 -0.000242 -0.002766 0.000619 -0.005085 0.000241 0.023214
#
#
# Mechanical properties :
#
#
# Convention : Reuss Voigt Hill
#
# Bulk Modulus (GPa) = 35.66921 65.43288 50.55105
# Shear Modulus (GPa) = 31.67222 41.21696 36.44459
#
# Velocity S-wave (km/s) = 3.61718 4.12638 3.88014
# Velocity P-wave (km/s) = 5.67279 7.05219 6.39976
#
# Compressibility (1/GPa) = 0.02803538
#
# Stress axis : x y z
#
# Youngs Moduli (GPa) = 114.02280 100.68412 58.46776
#
# Poissons Ratio (x) = 0.19145 0.10399
# Poissons Ratio (y) = 0.21681 0.01198
# Poissons Ratio (z) = 0.20281 0.02064
#
# Static dielectric constant tensor:
#      x y z
#    x 2.161180 -0.198060 -0.028260 
#    y -0.198060 2.428480 0.067330 
#    z -0.028260 0.067330 2.065440 
# 
# From -- ./inp_files/348984.got.cif
#   From: 2010.05.17/outbox.cif.g08.bks.cpg/sg2_175_cif.got.tgz:348984.got - 2010.06.03 11:33:40.
