data_PCOD9010043
_publ_section_title
;
Structure prediction by ZEFSAII (Michael W. Deem and Ramdas Pophale) SiO2 
 PCOD9010043
Probable space group: P -1
;
_chemical_formula_sum "Si O2"
_cell_formula_units_Z 16
_cell_length_a 15.286485
_cell_length_b 23.899186
_cell_length_c 14.589642
_cell_angle_alpha 32.159485
_cell_angle_beta 30.414265
_cell_angle_gamma 17.082263
_cell_volume 783.722748
_symmetry_space_group_name_H-M "P -1"
_symmetry_group_IT_number 2
_symmetry_cell_setting 'triclinic'
loop_
_space_group_symop_operation_xyz
x,y,z
-x,-y,-z
loop_
_atom_site_type_symbol
_atom_site_label
_atom_site_fract_x
_atom_site_fract_y
_atom_site_fract_z
Si Si1 0.713372 0.826651 0.670804
Si Si2 0.340874 0.460452 0.100687
Si Si3 0.654722 0.225915 0.495428
Si Si4 0.675028 0.717893 0.025517
Si Si5 0.541922 0.577229 0.421676
Si Si6 0.728929 0.783442 0.081637
Si Si7 0.255610 0.547965 0.268122
Si Si8 0.601157 0.814261 0.586591
O O1 0.581424 0.850220 0.662201
O O2 0.084589 0.612667 0.630549
O O3 0.654254 0.981031 0.515072
O O4 0.555831 0.849585 0.867648
O O5 0.223247 0.540960 0.199294
O O6 0.430352 0.293019 0.247989
O O7 0.059050 0.628590 0.050768
O O8 0.632308 0.388757 0.914842
O O9 0.628121 0.327852 0.458097
O O10 0.421905 0.247531 0.699521
O O11 0.537520 0.335997 0.353795
O O12 0.000000 0.000000 0.500000
O O13 0.461534 0.728220 0.234219
O O14 0.756336 0.746865 0.999625
O O15 0.000000 0.500000 0.000000
O O16 0.500000 0.500000 0.500000
O O17 0.500000 0.000000 0.000000
O O18 0.939912 0.679717 0.426449
#
# Coordination Sequence:
#
# PCOD9010043 Si02
#       8
#     2   2   2   2   2   2   2   2
#     4  10  22  41  65  91 121 172 215 256 326 383
#     4  11  24  42  65  93 130 174 209 263 333 378
#     4  11  23  41  64  94 133 166 214 273 317 383
#     4   9  20  39  62  89 124 164 206 259 318 380
#     4  10  21  40  61  93 130 162 208 267 322 378
#     4  11  23  39  64  97 127 169 216 264 329 383
#     4  11  24  42  65  94 131 166 218 265 314 393
#     4  11  22  44  66  89 131 168 215 266 313 386
#
# _framework density 20.415382000000001
#
# number of rings (size 3 to 8) (size 9 to 14) (size 15 to 20)
#    0.000    1.500    2.500    2.625    1.750    6.000 
#    4.500    1.250    0.000    0.000    0.000    0.000 
#    0.000    0.000    0.000    0.000    0.000    0.000 
#
# Total GULP energy -89356.850183 kJ/mol
# GULP energy per Si atom -5584.803136 kJ/mol
# Density = 2.036892 g / cm^3
# Si number density = 20.415382 Si / 1000 Ang^3
#
#
#
# Elastic Constant Matrix: (Units=GPa)
#
#
# Indices 1 2 3 4 5 6 
#
# 1 121.2376 20.9425 53.8126 -13.4767 0.4200 21.2160
# 2 20.9425 68.5183 23.5015 -21.8754 -0.4514 13.8337
# 3 53.8126 23.5015 112.7555 -28.9521 3.0300 5.3758
# 4 -13.4767 -21.8754 -28.9521 30.6980 3.8722 -3.8414
# 5 0.4200 -0.4514 3.0300 3.8722 36.4988 -9.0591
# 6 21.2160 13.8337 5.3758 -3.8414 -9.0591 20.3169
#
#
#
# Elastic Compliance Matrix: (Units=1/GPa)
#
#
# Indices 1 2 3 4 5 6 
#
# 1 0.013120 0.000587 -0.005801 -0.000664 -0.003083 -0.014065
# 2 0.000587 0.022170 -0.000327 0.014487 -0.004993 -0.015109
# 3 -0.005801 -0.000327 0.014529 0.011600 -0.001378 0.004015
# 4 -0.000664 0.014487 0.011600 0.053843 -0.007871 -0.005569
# 5 -0.003083 -0.004993 -0.001378 -0.007871 0.033379 0.020378
# 6 -0.014065 -0.015109 0.004015 -0.005569 0.020378 0.081167
#
#
# Mechanical properties :
#
#
# Convention : Reuss Voigt Hill
#
# Bulk Modulus (GPa) = 25.81430 55.44718 40.63074
# Shear Modulus (GPa) = 20.64385 31.11972 25.88179
#
# Velocity S-wave (km/s) = 3.18337 3.90850 3.56442
# Velocity P-wave (km/s) = 5.11701 6.89833 6.07333
#
# Compressibility (1/GPa) = 0.03873821
#
# Stress axis : x y z
#
# Youngs Moduli (GPa) = 76.22002 45.10590 68.82591
#
# Poissons Ratio (x) = -0.02648 0.39925
# Poissons Ratio (y) = -0.04475 0.02249
# Poissons Ratio (z) = 0.44215 0.01474
#
# Static dielectric constant tensor:
#      x y z
#    x 1.724460 0.002300 0.014010 
#    y 0.002300 1.723840 -0.004770 
#    z 0.014010 -0.004770 1.766610 
# 
# From -- ./inp_files/535397.got.cif
#   From: 2010.05.17/outbox.cif.g08.bks.cpg/sg2_268_cif.got.tgz:535397.got - 2010.06.03 11:33:40.
