data_PCOD9010573
_publ_section_title
;
Structure prediction by ZEFSAII (Michael W. Deem and Ramdas Pophale) SiO2 
 PCOD9010573
Probable space group: P -1
;
_chemical_formula_sum "Si O2"
_cell_formula_units_Z 16
_cell_length_a 11.845990
_cell_length_b 7.244304
_cell_length_c 12.666657
_cell_angle_alpha 117.633190
_cell_angle_beta 128.222753
_cell_angle_gamma 71.034840
_cell_volume 755.423531
_symmetry_space_group_name_H-M "P -1"
_symmetry_group_IT_number 2
_symmetry_cell_setting 'triclinic'
loop_
_space_group_symop_operation_xyz
x,y,z
-x,-y,-z
loop_
_atom_site_type_symbol
_atom_site_label
_atom_site_fract_x
_atom_site_fract_y
_atom_site_fract_z
Si Si1 0.014545 0.789557 0.155952
Si Si2 0.666654 0.456721 0.071119
Si Si3 0.385124 0.860052 0.757384
Si Si4 0.956420 0.619280 0.647199
Si Si5 0.079466 0.640560 0.941853
Si Si6 0.887521 0.140996 0.541068
Si Si7 0.769647 0.521597 0.351811
Si Si8 0.309262 0.028817 0.980892
O O1 0.016258 0.545778 0.124941
O O2 0.082167 0.892827 0.325684
O O3 0.848368 0.867236 0.065924
O O4 0.089271 0.796054 0.086504
O O5 0.690182 0.212024 0.047906
O O6 0.500000 0.500000 0.000000
O O7 0.764483 0.467192 0.027637
O O8 0.727351 0.607463 0.235907
O O9 0.274548 0.890385 0.603598
O O10 0.349754 0.628665 0.716697
O O11 0.557079 0.875838 0.854715
O O12 0.341649 0.018054 0.870826
O O13 0.925597 0.380129 0.598668
O O14 0.817136 0.675083 0.510283
O O15 0.004709 0.722264 0.810989
O O16 0.089140 0.621524 0.642169
O O17 0.000000 0.000000 0.500000
#
# Coordination Sequence:
#
# PCOD9010573 Si02
#       8
#     2   2   2   2   2   2   2   2
#     4  10  20  35  57  78 107 144 179 218 261 324
#     4  10  21  33  53  79 108 139 177 221 267 313
#     4   9  18  29  49  80 106 127 173 225 266 311
#     4   8  15  29  50  72 104 129 172 215 263 307
#     4   9  20  35  54  79 108 140 178 215 265 319
#     4  10  17  29  51  78 105 139 177 222 264 307
#     4   8  15  29  48  74  99 129 165 220 261 306
#     4  10  20  32  53  79 105 141 176 218 270 313
#
# _framework density 21.180173
#
# number of rings (size 3 to 8) (size 9 to 14) (size 15 to 20)
#    0.000    2.750    1.250    0.000    5.250    1.500 
#    0.000    0.000    2.750    3.750    0.000    0.000 
#    0.000    0.000    0.000    0.000    0.000    0.000 
#
# Total GULP energy -89089.791825 kJ/mol
# GULP energy per Si atom -5568.111989 kJ/mol
# Density = 2.113197 g / cm^3
# Si number density = 21.180173 Si / 1000 Ang^3
#
#
#
# Elastic Constant Matrix: (Units=GPa)
#
#
# Indices 1 2 3 4 5 6 
#
# 1 76.4583 11.8584 77.4165 -8.8620 -9.0932 -4.7724
# 2 11.8584 49.7510 24.8532 7.8314 -0.9265 4.0541
# 3 77.4165 24.8532 187.5367 -12.9027 -6.9500 -8.9413
# 4 -8.8620 7.8314 -12.9027 25.3974 2.5472 10.5257
# 5 -9.0932 -0.9265 -6.9500 2.5472 45.8837 4.5265
# 6 -4.7724 4.0541 -8.9413 10.5257 4.5265 25.5771
#
#
#
# Elastic Compliance Matrix: (Units=1/GPa)
#
#
# Indices 1 2 3 4 5 6 
#
# 1 0.023255 -0.001536 -0.009044 0.004005 0.003061 -0.000769
# 2 -0.001536 0.023559 -0.003155 -0.008788 0.000336 -0.001567
# 3 -0.009044 -0.003155 0.009679 0.002220 -0.000651 0.001398
# 4 0.004005 -0.008788 0.002220 0.052329 -0.000118 -0.018598
# 5 0.003061 0.000336 -0.000651 -0.000118 0.022678 -0.003675
# 6 -0.000769 -0.001567 0.001398 -0.018598 -0.003675 0.047995
#
#
# Mechanical properties :
#
#
# Convention : Reuss Voigt Hill
#
# Bulk Modulus (GPa) = 34.45443 60.22246 47.33844
# Shear Modulus (GPa) = 23.07987 32.67950 27.87968
#
# Velocity S-wave (km/s) = 3.30463 3.93227 3.63204
# Velocity P-wave (km/s) = 5.55548 7.00801 6.32359
#
# Compressibility (1/GPa) = 0.02902385
#
# Stress axis : x y z
#
# Youngs Moduli (GPa) = 43.00206 42.44575 103.31571
#
# Poissons Ratio (x) = 0.06519 0.93437
# Poissons Ratio (y) = 0.06604 0.32597
# Poissons Ratio (z) = 0.38890 0.13392
#
# Static dielectric constant tensor:
#      x y z
#    x 1.781740 0.045330 0.013320 
#    y 0.045330 1.870370 -0.047830 
#    z 0.013320 -0.047830 1.930570 
# 
# From -- ./inp_files/257429.got.cif
#   From: 2010.05.17/outbox.cif.g08.bks.cpg/sg2_129_cif.got.tgz:257429.got - 2010.06.03 11:33:40.
