data_PCOD9010049
_publ_section_title
;
Structure prediction by ZEFSAII (Michael W. Deem and Ramdas Pophale) SiO2 
 PCOD9010049
Probable space group: P -1
;
_chemical_formula_sum "Si O2"
_cell_formula_units_Z 16
_cell_length_a 13.847522
_cell_length_b 10.894530
_cell_length_c 15.535941
_cell_angle_alpha 46.043428
_cell_angle_beta 20.561007
_cell_angle_gamma 45.021691
_cell_volume 577.331801
_symmetry_space_group_name_H-M "P -1"
_symmetry_group_IT_number 2
_symmetry_cell_setting 'triclinic'
loop_
_space_group_symop_operation_xyz
x,y,z
-x,-y,-z
loop_
_atom_site_type_symbol
_atom_site_label
_atom_site_fract_x
_atom_site_fract_y
_atom_site_fract_z
Si Si1 0.673851 0.379771 0.315642
Si Si2 0.094232 0.287394 0.795323
Si Si3 0.297522 0.658602 0.206846
Si Si4 0.206134 0.302365 0.123079
Si Si5 0.907017 0.056664 0.940760
Si Si6 0.637641 0.713308 0.721637
Si Si7 0.201252 0.132562 0.027537
Si Si8 0.671535 0.268242 0.570264
O O1 0.421253 0.289327 0.540939
O O2 0.693276 0.354473 0.415958
O O3 0.573916 0.572956 0.265370
O O4 0.004385 0.300932 0.061463
O O5 0.917182 0.484042 0.869224
O O6 0.988392 0.131380 0.009510
O O7 0.052136 0.213631 0.770535
O O8 0.356765 0.447529 0.269223
O O9 0.960221 0.712673 0.471250
O O10 0.483556 0.740071 0.078340
O O11 0.462832 0.677999 0.969863
O O12 0.194419 0.173938 0.113285
O O13 0.937328 0.247127 0.419540
O O14 0.577819 0.114361 0.215410
O O15 0.915235 0.014853 0.852032
O O16 0.531423 0.109079 0.744367
#
# Coordination Sequence:
#
# PCOD9010049 Si02
#       8
#     2   2   2   2   2   2   2   2
#     4   9  18  33  54  83 122 175 214 252 311 391
#     4  10  21  40  61  93 140 166 215 274 331 415
#     4  10  22  46  75  96 126 177 236 282 326 400
#     4  10  22  39  66  97 122 173 230 269 323 401
#     4  11  23  39  62  97 138 170 209 277 350 397
#     4  10  23  45  72  98 132 175 226 285 338 397
#     4  11  22  34  61  90 130 173 213 269 331 399
#     4   9  18  33  54  84 129 162 214 265 308 391
#
# _framework density 27.713698999999998
#
# number of rings (size 3 to 8) (size 9 to 14) (size 15 to 20)
#    0.000    2.000    2.500    1.125    3.500    1.500 
#    0.000    2.500    0.000    0.000    0.000    0.000 
#    0.000    0.000    0.000    0.000    0.000    0.000 
#
# Total GULP energy -89091.061699 kJ/mol
# GULP energy per Si atom -5568.191356 kJ/mol
# Density = 2.765062 g / cm^3
# Si number density = 27.713699 Si / 1000 Ang^3
#
#
#
# Elastic Constant Matrix: (Units=GPa)
#
#
# Indices 1 2 3 4 5 6 
#
# 1 104.0883 31.0287 45.7288 -1.9649 -47.0226 42.3220
# 2 31.0287 73.2162 20.7769 -13.9118 -10.8635 19.1800
# 3 45.7288 20.7769 135.7131 7.4975 -54.1761 5.0145
# 4 -1.9649 -13.9118 7.4975 31.8570 -6.0588 -9.9886
# 5 -47.0226 -10.8635 -54.1761 -6.0588 56.1440 -13.4386
# 6 42.3220 19.1800 5.0145 -9.9886 -13.4386 35.3366
#
#
#
# Elastic Compliance Matrix: (Units=1/GPa)
#
#
# Indices 1 2 3 4 5 6 
#
# 1 0.030645 -0.003138 -0.002555 -0.005719 0.014631 -0.030690
# 2 -0.003138 0.017852 -0.002753 0.006386 -0.002239 -0.004587
# 3 -0.002555 -0.002753 0.013014 0.000014 0.011591 0.007120
# 4 -0.005719 0.006386 0.000014 0.039870 0.004696 0.016438
# 5 0.014631 -0.002239 0.011591 0.004696 0.041084 -0.001000
# 6 -0.030690 -0.004587 0.007120 0.016438 -0.001000 0.070801
#
#
# Mechanical properties :
#
#
# Convention : Reuss Voigt Hill
#
# Bulk Modulus (GPa) = 22.41212 56.45404 39.43308
# Shear Modulus (GPa) = 20.40548 39.03306 29.71927
#
# Velocity S-wave (km/s) = 2.71642 3.75699 3.27825
# Velocity P-wave (km/s) = 4.23594 6.26375 5.34686
#
# Compressibility (1/GPa) = 0.04461872
#
# Stress axis : x y z
#
# Youngs Moduli (GPa) = 32.63157 56.01559 76.83973
#
# Poissons Ratio (x) = 0.17580 0.19633
# Poissons Ratio (y) = 0.10241 0.21153
# Poissons Ratio (z) = 0.08338 0.15420
#
# Static dielectric constant tensor:
#      x y z
#    x 2.510010 0.048540 0.232570 
#    y 0.048540 2.301540 0.147980 
#    z 0.232570 0.147980 2.433760 
# 
# From -- ./inp_files/573580.got.cif
#   From: 2010.05.17/outbox.cif.g08.bks.cpg/sg2_287_cif.got.tgz:573580.got - 2010.06.03 11:33:40.
