data_PCOD9010500
_publ_section_title
;
Structure prediction by ZEFSAII (Michael W. Deem and Ramdas Pophale) SiO2 
 PCOD9010500
Probable space group: P -1
;
_chemical_formula_sum "Si O2"
_cell_formula_units_Z 16
_cell_length_a 22.975568
_cell_length_b 19.981686
_cell_length_c 12.786424
_cell_angle_alpha 155.102321
_cell_angle_beta 145.751557
_cell_angle_gamma 18.075941
_cell_volume 737.619712
_symmetry_space_group_name_H-M "P -1"
_symmetry_group_IT_number 2
_symmetry_cell_setting 'triclinic'
loop_
_space_group_symop_operation_xyz
x,y,z
-x,-y,-z
loop_
_atom_site_type_symbol
_atom_site_label
_atom_site_fract_x
_atom_site_fract_y
_atom_site_fract_z
Si Si1 0.896339 0.274385 0.882248
Si Si2 0.628236 0.912715 0.658206
Si Si3 0.920295 0.542594 0.050437
Si Si4 0.384309 0.507896 0.069898
Si Si5 0.497887 0.221774 0.613016
Si Si6 0.472086 0.758935 0.544773
Si Si7 0.050229 0.423625 0.629364
Si Si8 0.790037 0.371153 0.638262
O O1 0.755156 0.419344 0.778889
O O2 0.809629 0.308660 0.905200
O O3 0.919481 0.431810 0.150050
O O4 0.097500 0.932111 0.661002
O O5 0.563189 0.884642 0.617466
O O6 0.859796 0.602648 0.544255
O O7 0.500000 0.000000 0.500000
O O8 0.557170 0.187702 0.934772
O O9 0.010329 0.497087 0.225312
O O10 0.697476 0.890489 0.219001
O O11 0.929865 0.340662 0.784600
O O12 0.000000 0.500000 0.000000
O O13 0.402995 0.436280 0.874154
O O14 0.393907 0.683890 0.344001
O O15 0.434650 0.365086 0.608529
O O16 0.734188 0.932149 0.565401
O O17 0.609244 0.626128 0.655444
#
# Coordination Sequence:
#
# PCOD9010500 Si02
#       8
#     2   2   2   2   2   2   2   2
#     4  10  21  40  63  92 131 160 217 261 316 376
#     4  10  22  39  64  93 121 169 215 251 310 377
#     4  10  22  38  61  90 122 164 213 253 319 389
#     4  11  22  40  63  91 126 167 215 257 307 383
#     4  10  23  43  61  95 132 164 214 258 313 387
#     4  11  23  40  64  90 131 166 204 270 319 370
#     4  10  21  40  65  90 130 169 200 271 314 363
#     4  10  22  39  61  92 124 167 207 268 318 369
#
# _framework density 21.691393000000001
#
# number of rings (size 3 to 8) (size 9 to 14) (size 15 to 20)
#    0.000    1.750    1.250    2.250    1.750    3.500 
#    4.500    0.625    0.000    0.000    0.000    0.000 
#    0.000    0.000    0.000    0.000    0.000    0.000 
#
# Total GULP energy -89340.851016 kJ/mol
# GULP energy per Si atom -5583.803189 kJ/mol
# Density = 2.164202 g / cm^3
# Si number density = 21.691393 Si / 1000 Ang^3
#
#
#
# Elastic Constant Matrix: (Units=GPa)
#
#
# Indices 1 2 3 4 5 6 
#
# 1 114.8237 6.6785 13.0476 -15.5768 -11.7579 -0.1261
# 2 6.6785 91.0066 10.4282 -12.7062 -7.7373 5.9307
# 3 13.0476 10.4282 49.6861 -7.3149 -4.6720 -0.4650
# 4 -15.5768 -12.7062 -7.3149 17.2503 5.1784 0.6929
# 5 -11.7579 -7.7373 -4.6720 5.1784 36.1719 4.8782
# 6 -0.1261 5.9307 -0.4650 0.6929 4.8782 22.5184
#
#
#
# Elastic Compliance Matrix: (Units=1/GPa)
#
#
# Indices 1 2 3 4 5 6 
#
# 1 0.010216 0.000867 -0.001392 0.008645 0.002216 -0.000946
# 2 0.000867 0.012812 -0.001410 0.009162 0.002086 -0.004132
# 3 -0.001392 -0.001410 0.021870 0.006642 0.001068 0.000379
# 4 0.008645 0.009162 0.006642 0.076958 -0.004913 -0.003531
# 5 0.002216 0.002086 0.001068 -0.004913 0.030597 -0.006992
# 6 -0.000946 -0.004132 0.000379 -0.003531 -0.006992 0.047122
#
#
# Mechanical properties :
#
#
# Convention : Reuss Voigt Hill
#
# Bulk Modulus (GPa) = 24.37481 35.09167 29.73324
# Shear Modulus (GPa) = 23.02864 30.21227 26.62045
#
# Velocity S-wave (km/s) = 3.26183 3.73610 3.50699
# Velocity P-wave (km/s) = 5.04455 5.90119 5.48961
#
# Compressibility (1/GPa) = 0.04102596
#
# Stress axis : x y z
#
# Youngs Moduli (GPa) = 97.89044 78.05198 45.72516
#
# Poissons Ratio (x) = -0.06767 0.06366
# Poissons Ratio (y) = -0.08487 0.06449
# Poissons Ratio (z) = 0.13629 0.11009
#
# Static dielectric constant tensor:
#      x y z
#    x 1.829640 0.020530 -0.028310 
#    y 0.020530 1.798590 -0.000080 
#    z -0.028310 -0.000080 1.820290 
# 
# From -- ./inp_files/451045.got.cif
#   From: 2010.05.17/outbox.cif.g08.bks.cpg/sg2_226_cif.got.tgz:451045.got - 2010.06.03 11:33:40.
