data_PCOD9010488
_publ_section_title
;
Structure prediction by ZEFSAII (Michael W. Deem and Ramdas Pophale) SiO2 
 PCOD9010488
Probable space group: P -1
;
_chemical_formula_sum "Si O2"
_cell_formula_units_Z 16
_cell_length_a 19.693948
_cell_length_b 24.446966
_cell_length_c 7.847495
_cell_angle_alpha 38.488708
_cell_angle_beta 133.183826
_cell_angle_gamma 160.311899
_cell_volume 766.829817
_symmetry_space_group_name_H-M "P -1"
_symmetry_group_IT_number 2
_symmetry_cell_setting 'triclinic'
loop_
_space_group_symop_operation_xyz
x,y,z
-x,-y,-z
loop_
_atom_site_type_symbol
_atom_site_label
_atom_site_fract_x
_atom_site_fract_y
_atom_site_fract_z
Si Si1 0.725404 0.178989 0.787776
Si Si2 0.194952 0.690989 0.755357
Si Si3 0.582950 0.543924 0.769883
Si Si4 0.357158 0.513474 0.646397
Si Si5 0.872899 0.089207 0.795090
Si Si6 0.805162 0.838009 0.185593
Si Si7 0.308850 0.916856 0.696222
Si Si8 0.545772 0.862785 0.060361
O O1 0.846575 0.311414 0.502707
O O2 0.550542 0.106189 0.692312
O O3 0.818075 0.235927 0.993933
O O4 0.608819 0.989489 0.997714
O O5 0.284983 0.846103 0.647703
O O6 0.363609 0.754971 0.897925
O O7 0.000000 0.500000 0.000000
O O8 0.480158 0.548699 0.649405
O O9 0.780097 0.737697 0.521529
O O10 0.407710 0.348329 0.832959
O O11 0.638433 0.529974 0.057122
O O12 0.459429 0.696094 0.380660
O O13 0.116631 0.316559 0.658539
O O14 0.766743 0.049319 0.550964
O O15 0.832387 0.952132 0.049714
O O16 0.752737 0.019810 0.924896
O O17 0.000000 0.000000 0.000000
#
# Coordination Sequence:
#
# PCOD9010488 Si02
#       8
#     2   2   2   2   2   2   2   2
#     4  10  21  40  64  91 128 176 212 258 332 382
#     4  11  21  40  65  92 136 171 213 266 328 386
#     4  10  24  44  62  92 131 162 218 274 323 397
#     4  11  24  41  64  96 122 168 220 265 332 389
#     4  12  22  40  67  95 127 172 222 266 328 389
#     4  11  23  43  66  92 129 173 209 272 336 383
#     4  10  21  40  63  92 126 169 218 263 315 390
#     4  11  22  40  64  93 131 171 213 274 318 388
#
# _framework density 20.865126
#
# number of rings (size 3 to 8) (size 9 to 14) (size 15 to 20)
#    0.000    1.250    5.000    1.500    1.750    2.000 
#    0.000    0.000    0.000    0.000    0.000    0.000 
#    0.000    0.000    0.000    0.000    0.000    0.000 
#
# Total GULP energy -89295.889865 kJ/mol
# GULP energy per Si atom -5580.993117 kJ/mol
# Density = 2.081764 g / cm^3
# Si number density = 20.865126 Si / 1000 Ang^3
#
#
#
# Elastic Constant Matrix: (Units=GPa)
#
#
# Indices 1 2 3 4 5 6 
#
# 1 75.3981 8.8976 35.9744 -3.0264 -16.7369 4.7097
# 2 8.8976 32.7698 36.6679 -8.7236 -1.2748 11.5394
# 3 35.9744 36.6679 141.8859 -12.7254 -18.5319 7.1022
# 4 -3.0264 -8.7236 -12.7254 25.8677 -3.1875 -7.3887
# 5 -16.7369 -1.2748 -18.5319 -3.1875 46.2168 -0.8908
# 6 4.7097 11.5394 7.1022 -7.3887 -0.8908 22.4014
#
#
#
# Elastic Compliance Matrix: (Units=1/GPa)
#
#
# Indices 1 2 3 4 5 6 
#
# 1 0.015987 0.000638 -0.003510 0.000233 0.004371 -0.002326
# 2 0.000638 0.053940 -0.012999 0.005070 -0.003573 -0.022268
# 3 -0.003510 -0.012999 0.011746 0.002755 0.003362 0.004753
# 4 0.000233 0.005070 0.002755 0.045678 0.004705 0.011719
# 5 0.004371 -0.003573 0.003362 0.004705 0.024840 0.002396
# 6 -0.002326 -0.022268 0.004753 0.011719 0.002396 0.059054
#
#
# Mechanical properties :
#
#
# Convention : Reuss Voigt Hill
#
# Bulk Modulus (GPa) = 20.02769 45.90374 32.96572
# Shear Modulus (GPa) = 19.25816 30.13144 24.69480
#
# Velocity S-wave (km/s) = 3.04136 3.80426 3.44400
# Velocity P-wave (km/s) = 4.68536 6.42997 5.62571
#
# Compressibility (1/GPa) = 0.04993086
#
# Stress axis : x y z
#
# Youngs Moduli (GPa) = 62.54942 18.53914 85.13876
#
# Poissons Ratio (x) = -0.01183 0.29885
# Poissons Ratio (y) = -0.03991 1.10671
# Poissons Ratio (z) = 0.21956 0.24099
#
# Static dielectric constant tensor:
#      x y z
#    x 1.870180 -0.014920 -0.036680 
#    y -0.014920 1.769980 -0.003700 
#    z -0.036680 -0.003700 1.770420 
# 
# From -- ./inp_files/350228.got.cif
#   From: 2010.05.17/outbox.cif.g08.bks.cpg/sg2_176_cif.got.tgz:350228.got - 2010.06.03 11:33:40.
