data_PCOD9010736
_publ_section_title
;
Structure prediction by ZEFSAII (Michael W. Deem and Ramdas Pophale) SiO2 
 PCOD9010736
Probable space group: P -1
;
_chemical_formula_sum "Si O2"
_cell_formula_units_Z 16
_cell_length_a 9.042753
_cell_length_b 7.567425
_cell_length_c 14.286124
_cell_angle_alpha 84.671253
_cell_angle_beta 133.619270
_cell_angle_gamma 71.450484
_cell_volume 597.458113
_symmetry_space_group_name_H-M "P -1"
_symmetry_group_IT_number 2
_symmetry_cell_setting 'triclinic'
loop_
_space_group_symop_operation_xyz
x,y,z
-x,-y,-z
loop_
_atom_site_type_symbol
_atom_site_label
_atom_site_fract_x
_atom_site_fract_y
_atom_site_fract_z
Si Si1 0.911061 0.177141 0.588693
Si Si2 0.692499 0.070363 0.968929
Si Si3 0.113316 0.372128 0.187303
Si Si4 0.255625 0.726107 0.691833
Si Si5 0.416405 0.274559 0.026151
Si Si6 0.126936 0.726113 0.072102
Si Si7 0.924849 0.558108 0.570769
Si Si8 0.499876 0.281245 0.512289
O O1 0.736987 0.288475 0.416735
O O2 0.983776 0.336928 0.650457
O O3 0.772415 0.124808 0.607749
O O4 0.128777 0.971143 0.649656
O O5 0.662992 0.237742 0.870609
O O6 0.578338 0.927739 0.919926
O O7 0.591248 0.190136 0.016844
O O8 0.972186 0.893007 0.078204
O O9 0.187127 0.506578 0.149549
O O10 0.325624 0.267752 0.360426
O O11 0.861130 0.543459 0.117729
O O12 0.047184 0.242445 0.094554
O O13 0.490533 0.630790 0.861341
O O14 0.081321 0.655265 0.660056
O O15 0.639651 0.713108 0.455958
O O16 0.000000 0.500000 0.500000
O O17 0.500000 0.500000 0.500000
#
# Coordination Sequence:
#
# PCOD9010736 Si02
#       8
#     2   2   2   2   2   2   2   2
#     4   9  21  40  63  89 126 166 210 263 315 369
#     4   9  20  38  57  87 125 163 206 255 320 374
#     4  10  22  39  64  92 125 161 209 263 315 377
#     4  10  21  40  64  90 125 167 210 262 316 380
#     4  10  22  39  61  92 126 165 207 262 319 382
#     4   9  20  39  60  87 124 165 207 258 315 374
#     4   9  20  41  64  92 126 163 213 262 317 382
#     4  10  22  40  65  90 122 164 209 263 313 376
#
# _framework density 26.78012
#
# number of rings (size 3 to 8) (size 9 to 14) (size 15 to 20)
#    0.000    2.500    0.000    0.000    7.000    7.000 
#    2.250    5.000    5.500    0.000    0.000    0.000 
#    0.000    0.000    0.000    0.000    0.000    0.000 
#
# Total GULP energy -89408.618487 kJ/mol
# GULP energy per Si atom -5588.038655 kJ/mol
# Density = 2.671917 g / cm^3
# Si number density = 26.780120 Si / 1000 Ang^3
#
#
#
# Elastic Constant Matrix: (Units=GPa)
#
#
# Indices 1 2 3 4 5 6 
#
# 1 208.8509 24.9766 27.1373 11.3855 -2.2251 -10.3150
# 2 24.9766 96.2407 18.0064 15.9565 -2.9318 -0.7687
# 3 27.1373 18.0064 76.9312 23.6814 -1.2425 0.4652
# 4 11.3855 15.9565 23.6814 18.6189 -7.4177 -0.9726
# 5 -2.2251 -2.9318 -1.2425 -7.4177 11.4737 -0.9389
# 6 -10.3150 -0.7687 0.4652 -0.9726 -0.9389 51.6472
#
#
#
# Elastic Compliance Matrix: (Units=1/GPa)
#
#
# Indices 1 2 3 4 5 6 
#
# 1 0.005174 -0.001029 -0.001614 0.000116 0.000726 0.001048
# 2 -0.001029 0.012648 0.002125 -0.015693 -0.006921 -0.000458
# 3 -0.001614 0.002125 0.026565 -0.045178 -0.026253 -0.001858
# 4 0.000116 -0.015693 -0.045178 0.163568 0.097280 0.005045
# 5 0.000726 -0.006921 -0.026253 0.097280 0.145967 0.004764
# 6 0.001048 -0.000458 -0.001858 0.005045 0.004764 0.019763
#
#
# Mechanical properties :
#
#
# Convention : Reuss Voigt Hill
#
# Bulk Modulus (GPa) = 23.06912 58.02928 40.54920
# Shear Modulus (GPa) = 12.84777 37.14144 24.99460
#
# Velocity S-wave (km/s) = 2.19270 3.72816 3.05835
# Velocity P-wave (km/s) = 3.87860 6.34413 5.25793
#
# Compressibility (1/GPa) = 0.04334798
#
# Stress axis : x y z
#
# Youngs Moduli (GPa) = 193.26724 79.06608 37.64370
#
# Poissons Ratio (x) = 0.08139 0.06077
# Poissons Ratio (y) = 0.19896 -0.07997
# Poissons Ratio (z) = 0.31202 -0.16798
#
# Static dielectric constant tensor:
#      x y z
#    x 2.111450 -0.020190 -0.021790 
#    y -0.020190 2.149240 -0.100620 
#    z -0.021790 -0.100620 2.203720 
# 
# From -- ./inp_files/493078.got.cif
#   From: 2010.05.17/outbox.cif.g08.bks.cpg/sg2_247_cif.got.tgz:493078.got - 2010.06.03 11:33:40.
