data_PCOD9010612
_publ_section_title
;
Structure prediction by ZEFSAII (Michael W. Deem and Ramdas Pophale) SiO2 
 PCOD9010612
Probable space group: P -1
;
_chemical_formula_sum "Si O2"
_cell_formula_units_Z 16
_cell_length_a 10.753110
_cell_length_b 12.580567
_cell_length_c 11.056681
_cell_angle_alpha 56.401781
_cell_angle_beta 139.723742
_cell_angle_gamma 134.335396
_cell_volume 690.972081
_symmetry_space_group_name_H-M "P -1"
_symmetry_group_IT_number 2
_symmetry_cell_setting 'triclinic'
loop_
_space_group_symop_operation_xyz
x,y,z
-x,-y,-z
loop_
_atom_site_type_symbol
_atom_site_label
_atom_site_fract_x
_atom_site_fract_y
_atom_site_fract_z
Si Si1 0.312445 0.335736 0.922948
Si Si2 0.528243 0.739520 0.127659
Si Si3 0.630997 0.409267 0.641763
Si Si4 0.270664 0.980512 0.783529
Si Si5 0.606352 0.895643 0.728886
Si Si6 0.926099 0.309409 0.275358
Si Si7 0.082813 0.672684 0.463790
Si Si8 0.561825 0.899093 0.433681
O O1 0.379788 0.344172 0.827499
O O2 0.062716 0.303879 0.758098
O O3 0.500000 0.500000 0.000000
O O4 0.314247 0.198984 0.076167
O O5 0.407934 0.668122 0.208575
O O6 0.741701 0.899154 0.220029
O O7 0.330865 0.731785 0.903715
O O8 0.500000 0.500000 0.500000
O O9 0.546940 0.276602 0.564927
O O10 0.888841 0.528535 0.732020
O O11 0.312274 0.028209 0.644358
O O12 0.069859 0.812084 0.733624
O O13 0.500000 0.000000 0.000000
O O14 0.347003 0.775454 0.580118
O O15 0.705814 0.941777 0.637920
O O16 0.595387 0.027883 0.707093
O O17 0.960246 0.296873 0.449708
O O18 0.000000 0.500000 0.500000
#
# Coordination Sequence:
#
# PCOD9010612 Si02
#       8
#     2   2   2   2   2   2   2   2
#     4  12  24  41  69 102 134 177 230 282 340 405
#     4  10  21  40  63  97 132 173 219 283 338 399
#     4  11  24  39  62  98 137 174 229 278 343 400
#     4   9  18  38  68  94 128 174 225 270 336 402
#     4  11  22  43  69  93 140 181 226 276 348 398
#     4  11  20  40  67  94 130 174 227 272 341 400
#     4  12  22  39  66 101 132 174 225 276 336 408
#     4  10  22  42  67  93 139 185 214 288 342 397
#
# _framework density 23.155783
#
# number of rings (size 3 to 8) (size 9 to 14) (size 15 to 20)
#    0.000    1.250    3.750    2.625    1.750    0.000 
#    2.250    4.375    0.000    0.000    0.000    0.000 
#    0.000    0.000    0.000    0.000    0.000    0.000 
#
# Total GULP energy -89311.063946 kJ/mol
# GULP energy per Si atom -5581.941497 kJ/mol
# Density = 2.310308 g / cm^3
# Si number density = 23.155783 Si / 1000 Ang^3
#
#
#
# Elastic Constant Matrix: (Units=GPa)
#
#
# Indices 1 2 3 4 5 6 
#
# 1 45.6820 14.6296 14.6387 7.4400 -12.1499 -18.8564
# 2 14.6296 145.3369 22.4101 10.8452 4.5173 -33.3104
# 3 14.6387 22.4101 125.5991 -13.0956 7.2646 -9.6594
# 4 7.4400 10.8452 -13.0956 34.6453 -3.1704 -8.5235
# 5 -12.1499 4.5173 7.2646 -3.1704 30.0741 3.9044
# 6 -18.8564 -33.3104 -9.6594 -8.5235 3.9044 41.5516
#
#
#
# Elastic Compliance Matrix: (Units=1/GPa)
#
#
# Indices 1 2 3 4 5 6 
#
# 1 0.031764 0.000007 -0.003965 -0.004415 0.011834 0.011481
# 2 0.000007 0.008760 -0.001116 -0.001731 -0.002084 0.006607
# 3 -0.003965 -0.001116 0.009352 0.004615 -0.003303 0.000737
# 4 -0.004415 -0.001731 0.004615 0.033224 0.000284 0.004471
# 5 0.011834 -0.002084 -0.003303 0.000284 0.039263 -0.000699
# 6 0.011481 0.006607 0.000737 0.004471 -0.000699 0.035728
#
#
# Mechanical properties :
#
#
# Convention : Reuss Voigt Hill
#
# Bulk Modulus (GPa) = 25.17063 46.66387 35.91725
# Shear Modulus (GPa) = 27.55098 38.91684 33.23391
#
# Velocity S-wave (km/s) = 3.45310 4.10402 3.79255
# Velocity P-wave (km/s) = 5.17613 6.53095 5.89260
#
# Compressibility (1/GPa) = 0.03972884
#
# Stress axis : x y z
#
# Youngs Moduli (GPa) = 31.48190 114.15333 106.92986
#
# Poissons Ratio (x) = -0.00081 0.42400
# Poissons Ratio (y) = -0.00022 0.11929
# Poissons Ratio (z) = 0.12483 0.12735
#
# Static dielectric constant tensor:
#      x y z
#    x 1.941970 -0.016690 0.031460 
#    y -0.016690 1.935960 -0.051610 
#    z 0.031460 -0.051610 1.919780 
# 
# From -- ./inp_files/425546.got.cif
#   From: 2010.05.17/outbox.cif.g08.bks.cpg/sg2_213_cif.got.tgz:425546.got - 2010.06.03 11:33:40.
