data_PCOD9010521
_publ_section_title
;
Structure prediction by ZEFSAII (Michael W. Deem and Ramdas Pophale) SiO2 
 PCOD9010521
Probable space group: P -1
;
_chemical_formula_sum "Si O2"
_cell_formula_units_Z 16
_cell_length_a 9.346497
_cell_length_b 5.318112
_cell_length_c 20.225727
_cell_angle_alpha 84.566137
_cell_angle_beta 46.891177
_cell_angle_gamma 85.738814
_cell_volume 730.589531
_symmetry_space_group_name_H-M "P -1"
_symmetry_group_IT_number 2
_symmetry_cell_setting 'triclinic'
loop_
_space_group_symop_operation_xyz
x,y,z
-x,-y,-z
loop_
_atom_site_type_symbol
_atom_site_label
_atom_site_fract_x
_atom_site_fract_y
_atom_site_fract_z
Si Si1 0.664299 0.301131 0.209901
Si Si2 0.387323 0.243306 0.558525
Si Si3 0.421242 0.213770 0.970412
Si Si4 0.021399 0.213743 0.581959
Si Si5 0.785376 0.775124 0.245946
Si Si6 0.791204 0.106307 0.041193
Si Si7 0.197507 0.587614 0.106597
Si Si8 0.204028 0.266496 0.377694
O O1 0.722044 0.564884 0.218012
O O2 0.714364 0.292580 0.116966
O O3 0.435473 0.254786 0.295114
O O4 0.777893 0.057633 0.211869
O O5 0.500000 0.500000 0.500000
O O6 0.359654 0.226626 0.646124
O O7 0.175151 0.239227 0.591522
O O8 0.500000 0.000000 0.500000
O O9 0.608181 0.397026 0.909486
O O10 0.363187 0.113592 0.919889
O O11 0.229056 0.322503 0.065825
O O12 0.500000 0.000000 0.000000
O O13 0.877706 0.455998 0.621309
O O14 0.145140 0.222180 0.474056
O O15 0.903611 0.952818 0.623982
O O16 0.000097 0.671239 0.202791
O O17 0.805369 0.236074 0.962261
O O18 0.000000 0.000000 0.000000
#
# Coordination Sequence:
#
# PCOD9010521 Si02
#       8
#     2   2   2   2   2   2   2   2
#     4  12  26  42  66 101 133 172 224 278 331 392
#     4  12  25  45  69  97 133 173 222 272 335 403
#     4   9  21  41  63  94 132 182 221 276 340 394
#     4  10  21  40  66  91 124 168 206 264 331 391
#     4  12  26  43  68  98 132 174 222 279 329 401
#     4  11  22  40  66  95 135 174 227 275 334 400
#     4  10  22  42  66  94 135 181 222 279 338 400
#     4  10  21  40  63  93 128 160 209 266 327 388
#
# _framework density 21.900120999999999
#
# number of rings (size 3 to 8) (size 9 to 14) (size 15 to 20)
#    0.000    1.250    1.250    4.500    3.500    4.000 
#    6.750    0.000    0.000    0.000    0.000    0.000 
#    0.000    0.000    0.000    0.000    0.000    0.000 
#
# Total GULP energy -89418.208607 kJ/mol
# GULP energy per Si atom -5588.638038 kJ/mol
# Density = 2.185028 g / cm^3
# Si number density = 21.900121 Si / 1000 Ang^3
#
#
#
# Elastic Constant Matrix: (Units=GPa)
#
#
# Indices 1 2 3 4 5 6 
#
# 1 112.5237 23.2205 22.1714 16.9045 0.8967 14.6411
# 2 23.2205 103.3062 28.4030 24.6593 4.0065 9.7403
# 3 22.1714 28.4030 91.5833 27.9613 -5.5391 3.0707
# 4 16.9045 24.6593 27.9613 32.6383 -2.4670 -0.1066
# 5 0.8967 4.0065 -5.5391 -2.4670 40.5950 11.6165
# 6 14.6411 9.7403 3.0707 -0.1066 11.6165 36.4806
#
#
#
# Elastic Compliance Matrix: (Units=1/GPa)
#
#
# Indices 1 2 3 4 5 6 
#
# 1 0.010345 -0.000773 -0.000868 -0.003994 0.000658 -0.004094
# 2 -0.000773 0.012382 -0.001181 -0.008036 -0.001121 -0.002563
# 3 -0.000868 -0.001181 0.015165 -0.011513 0.001860 -0.001238
# 4 -0.003994 -0.008036 -0.011513 0.048730 0.000969 0.004551
# 5 0.000658 -0.001121 0.001860 0.000969 0.027590 -0.008904
# 6 -0.004094 -0.002563 -0.001238 0.004551 -0.008904 0.032692
#
#
# Mechanical properties :
#
#
# Convention : Reuss Voigt Hill
#
# Bulk Modulus (GPa) = 31.01137 50.55590 40.78363
# Shear Modulus (GPa) = 30.61909 37.51733 34.06821
#
# Velocity S-wave (km/s) = 3.74321 4.14346 3.94841
# Velocity P-wave (km/s) = 5.73352 6.78424 6.28089
#
# Compressibility (1/GPa) = 0.03224624
#
# Stress axis : x y z
#
# Youngs Moduli (GPa) = 96.66524 80.76450 65.94316
#
# Poissons Ratio (x) = 0.06241 0.05726
# Poissons Ratio (y) = 0.07470 0.07791
# Poissons Ratio (z) = 0.08394 0.09542
#
# Static dielectric constant tensor:
#      x y z
#    x 1.882770 0.162750 0.037900 
#    y 0.162750 2.107180 0.068850 
#    z 0.037900 0.068850 1.848960 
# 
# From -- ./inp_files/107034.got.cif
#   From: 2010.05.17/outbox.cif.g08.bks.cpg/sg2_54_cif.got.tgz:107034.got - 2010.06.03 11:33:40.
