data_PCOD9010204
_publ_section_title
;
Structure prediction by ZEFSAII (Michael W. Deem and Ramdas Pophale) SiO2 
 PCOD9010204
Probable space group: P -1
;
_chemical_formula_sum "Si O2"
_cell_formula_units_Z 12
_cell_length_a 8.443670
_cell_length_b 12.166784
_cell_length_c 9.236357
_cell_angle_alpha 143.119117
_cell_angle_beta 119.660095
_cell_angle_gamma 76.041773
_cell_volume 472.608373
_symmetry_space_group_name_H-M "P -1"
_symmetry_group_IT_number 2
_symmetry_cell_setting 'triclinic'
loop_
_space_group_symop_operation_xyz
x,y,z
-x,-y,-z
loop_
_atom_site_type_symbol
_atom_site_label
_atom_site_fract_x
_atom_site_fract_y
_atom_site_fract_z
Si Si1 0.696489 0.506148 0.515339
Si Si2 0.098209 0.821164 0.054505
Si Si3 0.707789 0.974040 0.244566
Si Si4 0.890242 0.800476 0.363683
Si Si5 0.703578 0.080240 0.037600
Si Si6 0.688727 0.480305 0.140864
O O1 0.500000 0.500000 0.500000
O O2 0.712467 0.292226 0.318529
O O3 0.686069 0.531838 0.363262
O O4 0.896028 0.659384 0.811766
O O5 0.135089 0.887263 0.974084
O O6 0.263278 0.720607 0.056338
O O7 0.117405 0.012069 0.353307
O O8 0.709998 0.957510 0.053298
O O9 0.895346 0.149948 0.547243
O O10 0.741663 0.797647 0.163986
O O11 0.504995 0.002481 0.216440
O O12 0.848338 0.628693 0.274221
O O13 0.500000 0.500000 0.000000
#
# Coordination Sequence:
#
# PCOD9010204 Si02
#       6
#     2   2   2   2   2   2
#     4  11  23  41  64  93 127 167 213 259 312 373
#     4  11  24  42  67  93 126 170 209 256 316 373
#     4  10  22  39  63  92 126 164 208 261 308 370
#     4  11  23  42  64  93 128 164 208 257 315 371
#     4  10  21  40  62  91 127 165 211 257 309 372
#     4  11  25  44  66  94 129 165 209 263 313 371
#
# _framework density 25.391003000000001
#
# number of rings (size 3 to 8) (size 9 to 14) (size 15 to 20)
#    0.000    1.333    0.000    7.000    0.000   10.667 
#    0.000    5.000    0.000    0.000    0.000    0.000 
#    0.000    0.000    0.000    0.000    0.000    0.000 
#
# Total GULP energy -67199.937544 kJ/mol
# GULP energy per Si atom -5599.994795 kJ/mol
# Density = 2.533321 g / cm^3
# Si number density = 25.391003 Si / 1000 Ang^3
#
#
#
# Elastic Constant Matrix: (Units=GPa)
#
#
# Indices 1 2 3 4 5 6 
#
# 1 118.6845 42.6547 20.6101 5.8756 7.4506 2.3731
# 2 42.6547 170.4983 25.0481 -6.5971 3.7576 3.4604
# 3 20.6101 25.0481 51.6096 -0.9570 -2.0707 -10.0777
# 4 5.8756 -6.5971 -0.9570 35.8817 -2.2095 12.4531
# 5 7.4506 3.7576 -2.0707 -2.2095 34.5963 -4.2815
# 6 2.3731 3.4604 -10.0777 12.4531 -4.2815 60.9908
#
#
#
# Elastic Compliance Matrix: (Units=1/GPa)
#
#
# Indices 1 2 3 4 5 6 
#
# 1 0.009978 -0.002038 -0.003234 -0.002046 -0.002320 -0.000552
# 2 -0.002038 0.006887 -0.002746 0.001909 -0.000499 -0.001190
# 3 -0.003234 -0.002746 0.022967 -0.000722 0.002871 0.004425
# 4 -0.002046 0.001909 -0.000722 0.030823 0.001373 -0.006345
# 5 -0.002320 -0.000499 0.002871 0.001373 0.030018 0.002420
# 6 -0.000552 -0.001190 0.004425 -0.006345 0.002420 0.018682
#
#
# Mechanical properties :
#
#
# Convention : Reuss Voigt Hill
#
# Bulk Modulus (GPa) = 42.02490 57.49089 49.75789
# Shear Modulus (GPa) = 34.88657 43.12574 39.00615
#
# Velocity S-wave (km/s) = 3.71074 4.12571 3.92372
# Velocity P-wave (km/s) = 5.91155 6.73697 6.33771
#
# Compressibility (1/GPa) = 0.02379542
#
# Stress axis : x y z
#
# Youngs Moduli (GPa) = 100.22311 145.19265 43.54167
#
# Poissons Ratio (x) = 0.29588 0.14083
# Poissons Ratio (y) = 0.20424 0.11956
# Poissons Ratio (z) = 0.32416 0.39868
#
# Static dielectric constant tensor:
#      x y z
#    x 2.046620 0.019000 0.048350 
#    y 0.019000 2.018350 -0.050600 
#    z 0.048350 -0.050600 2.055650 
# 
# From -- ./inp_files/145102.got.cif
#   From: 2010.05.17/outbox.cif.g08.bks.cpg/sg2_73_cif.got.tgz:145102.got - 2010.06.03 11:33:40.
