data_PCOD9010472
_publ_section_title
;
Structure prediction by ZEFSAII (Michael W. Deem and Ramdas Pophale) SiO2 
 PCOD9010472
Probable space group: P -1
;
_chemical_formula_sum "Si O2"
_cell_formula_units_Z 16
_cell_length_a 26.790312
_cell_length_b 16.411222
_cell_length_c 17.092599
_cell_angle_alpha 154.947928
_cell_angle_beta 16.208134
_cell_angle_gamma 158.784948
_cell_volume 754.760405
_symmetry_space_group_name_H-M "P -1"
_symmetry_group_IT_number 2
_symmetry_cell_setting 'triclinic'
loop_
_space_group_symop_operation_xyz
x,y,z
-x,-y,-z
loop_
_atom_site_type_symbol
_atom_site_label
_atom_site_fract_x
_atom_site_fract_y
_atom_site_fract_z
Si Si1 0.241629 0.632411 0.270876
Si Si2 0.556623 0.118211 0.193732
Si Si3 0.278210 0.483990 0.811221
Si Si4 0.797212 0.609482 0.479482
Si Si5 0.882129 0.267041 0.129914
Si Si6 0.860782 0.215525 0.289297
Si Si7 0.611502 0.712722 0.278543
Si Si8 0.793166 0.029898 0.903033
O O1 0.244085 0.700499 0.417527
O O2 0.000000 0.500000 0.500000
O O3 0.114425 0.381948 0.042068
O O4 0.322586 0.468794 0.986531
O O5 0.673832 0.270508 0.075023
O O6 0.459702 0.249514 0.497345
O O7 0.373431 0.866247 0.229258
O O8 0.682044 0.075920 0.037346
O O9 0.500000 0.500000 0.500000
O O10 0.117253 0.318630 0.840795
O O11 0.902915 0.499471 0.273792
O O12 0.594096 0.397519 0.562678
O O13 0.961155 0.777925 0.314263
O O14 0.748761 0.778263 0.745150
O O15 0.776033 0.202212 0.318009
O O16 0.759117 0.086465 0.090531
O O17 0.793272 0.962990 0.196063
#
# Coordination Sequence:
#
# PCOD9010472 Si02
#       8
#     2   2   2   2   2   2   2   2
#     4  11  26  44  65  94 130 176 226 267 317 390
#     4  11  22  43  71  98 127 169 225 267 323 391
#     4  10  23  43  69  95 130 172 217 269 327 382
#     4  11  21  35  63 100 132 166 218 262 323 392
#     4  10  21  40  63  91 133 172 201 273 324 375
#     4   9  25  45  61  94 135 166 221 263 329 387
#     4  11  23  40  69  92 128 178 215 262 328 382
#     4  11  20  38  64 101 132 163 218 272 323 383
#
# _framework density 21.198779999999999
#
# number of rings (size 3 to 8) (size 9 to 14) (size 15 to 20)
#    0.750    0.750    3.750    1.125    3.500    2.500 
#    0.000    3.125    0.000    0.000    0.000    0.000 
#    0.000    0.000    0.000    0.000    0.000    0.000 
#
# Total GULP energy -89191.579544 kJ/mol
# GULP energy per Si atom -5574.473722 kJ/mol
# Density = 2.115053 g / cm^3
# Si number density = 21.198780 Si / 1000 Ang^3
#
#
#
# Elastic Constant Matrix: (Units=GPa)
#
#
# Indices 1 2 3 4 5 6 
#
# 1 48.2244 26.2773 8.7999 2.5979 -6.7630 -0.3707
# 2 26.2773 118.9314 37.8821 -2.5823 15.4369 2.7482
# 3 8.7999 37.8821 87.4210 13.1670 -7.6896 5.7571
# 4 2.5979 -2.5823 13.1670 40.4897 8.0087 1.3598
# 5 -6.7630 15.4369 -7.6896 8.0087 32.1191 -10.2308
# 6 -0.3707 2.7482 5.7571 1.3598 -10.2308 14.7111
#
#
#
# Elastic Compliance Matrix: (Units=1/GPa)
#
#
# Indices 1 2 3 4 5 6 
#
# 1 0.028955 -0.010438 0.003443 -0.007845 0.018689 0.015055
# 2 -0.010438 0.016087 -0.007880 0.008323 -0.018234 -0.013634
# 3 0.003443 -0.007880 0.016582 -0.008623 0.011966 0.004188
# 4 -0.007845 0.008323 -0.008623 0.033265 -0.021161 -0.016169
# 5 0.018689 -0.018234 0.011966 -0.021161 0.067234 0.047908
# 6 0.015055 -0.013634 0.004188 -0.016169 0.047908 0.104075
#
#
# Mechanical properties :
#
#
# Convention : Reuss Voigt Hill
#
# Bulk Modulus (GPa) = 31.37350 44.49948 37.93649
# Shear Modulus (GPa) = 16.30939 29.57185 22.94062
#
# Velocity S-wave (km/s) = 2.77673 3.73899 3.29320
# Velocity P-wave (km/s) = 5.01120 6.29898 5.69163
#
# Compressibility (1/GPa) = 0.03187404
#
# Stress axis : x y z
#
# Youngs Moduli (GPa) = 34.53622 62.16315 60.30499
#
# Poissons Ratio (x) = 0.64886 -0.20760
# Poissons Ratio (y) = 0.36049 0.47518
# Poissons Ratio (z) = -0.11889 0.48982
#
# Static dielectric constant tensor:
#      x y z
#    x 6.565790 0.586160 -10.237240 
#    y 0.586160 1.844550 -1.269050 
#    z -10.237240 -1.269050 23.795930 
# 
# From -- ./inp_files/543042.got.cif
#   From: 2010.05.17/outbox.cif.g08.bks.cpg/sg2_272_cif.got.tgz:543042.got - 2010.06.03 11:33:40.
