data_PCOD9010977
_publ_section_title
;
Structure prediction by ZEFSAII (Michael W. Deem and Ramdas Pophale) SiO2 
 PCOD9010977
Probable space group: P -1
;
_chemical_formula_sum "Si O2"
_cell_formula_units_Z 14
_cell_length_a 12.624179
_cell_length_b 9.401974
_cell_length_c 24.490921
_cell_angle_alpha 154.538455
_cell_angle_beta 28.177579
_cell_angle_gamma 141.158360
_cell_volume 588.037376
_symmetry_space_group_name_H-M "P -1"
_symmetry_group_IT_number 2
_symmetry_cell_setting 'triclinic'
loop_
_space_group_symop_operation_xyz
x,y,z
-x,-y,-z
loop_
_atom_site_type_symbol
_atom_site_label
_atom_site_fract_x
_atom_site_fract_y
_atom_site_fract_z
Si Si1 0.502295 0.561774 0.456057
Si Si2 0.194399 0.369753 0.325429
Si Si3 0.782377 0.616787 0.876604
Si Si4 0.128395 0.665399 0.877549
Si Si5 0.290326 0.634790 0.065508
Si Si6 0.053704 0.346126 0.569551
Si Si7 0.413910 0.219109 0.667766
O O1 0.500000 0.500000 0.500000
O O2 0.736454 0.483227 0.289346
O O3 0.315788 0.351455 0.439039
O O4 0.410078 0.942400 0.619490
O O5 0.106503 0.519075 0.359688
O O6 0.416759 0.523216 0.298822
O O7 0.000000 0.500000 0.500000
O O8 0.229361 0.972556 0.177223
O O9 0.785468 0.345051 0.829204
O O10 0.994882 0.587801 0.730905
O O11 0.558489 0.572622 0.927428
O O12 0.782475 0.978898 0.028624
O O13 0.197544 0.429636 0.815773
O O14 0.861756 0.646723 0.985180
O O15 0.000000 0.000000 0.500000
O O16 0.500000 0.000000 0.500000
#
# Coordination Sequence:
#
# PCOD9010977 Si02
#       7
#     2   2   2   2   2   2   2
#     4  11  23  42  67 102 138 176 233 287 340 405
#     4  12  22  42  70  99 136 182 229 284 345 414
#     4  11  26  46  68 104 139 182 233 282 351 414
#     4  11  22  46  71  99 136 185 232 280 344 416
#     4  11  24  43  74  98 138 184 229 280 347 410
#     4  12  27  45  70 101 139 179 231 291 348 412
#     4  10  21  40  64  98 133 175 228 277 336 412
#
# _framework density 23.808009999999999
#
# number of rings (size 3 to 8) (size 9 to 14) (size 15 to 20)
#    0.000    0.857    1.429    7.286    4.000    0.571 
#    2.571    1.429    0.000    0.000    0.000    0.000 
#    0.000    0.000    0.000    0.000    0.000    0.000 
#
# Total GULP energy -78303.005843 kJ/mol
# GULP energy per Si atom -5593.071846 kJ/mol
# Density = 2.375382 g / cm^3
# Si number density = 23.808010 Si / 1000 Ang^3
#
#
#
# Elastic Constant Matrix: (Units=GPa)
#
#
# Indices 1 2 3 4 5 6 
#
# 1 140.6779 52.0040 29.2409 6.9678 -27.1473 -13.6754
# 2 52.0040 123.4950 26.6230 1.0765 -21.2041 2.3526
# 3 29.2409 26.6230 38.9852 3.6747 -6.3600 -4.8967
# 4 6.9678 1.0765 3.6747 28.0559 -6.0890 -17.4070
# 5 -27.1473 -21.2041 -6.3600 -6.0890 34.3686 -4.4766
# 6 -13.6754 2.3526 -4.8967 -17.4070 -4.4766 66.5451
#
#
#
# Elastic Compliance Matrix: (Units=1/GPa)
#
#
# Indices 1 2 3 4 5 6 
#
# 1 0.010426 -0.002262 -0.005006 0.001163 0.006457 0.002593
# 2 -0.002262 0.010894 -0.005275 0.001352 0.004119 -0.000607
# 3 -0.005006 -0.005275 0.033125 -0.002723 -0.001458 0.000785
# 4 0.001163 0.001352 -0.002723 0.045976 0.011057 0.012761
# 5 0.006457 0.004119 -0.001458 0.011057 0.039288 0.006609
# 6 0.002593 -0.000607 0.000785 0.012761 0.006609 0.019422
#
#
# Mechanical properties :
#
#
# Convention : Reuss Voigt Hill
#
# Bulk Modulus (GPa) = 34.06040 57.65487 45.85764
# Shear Modulus (GPa) = 25.77304 38.81328 32.29316
#
# Velocity S-wave (km/s) = 3.29376 4.04203 3.68693
# Velocity P-wave (km/s) = 5.36680 6.78625 6.11783
#
# Compressibility (1/GPa) = 0.02935961
#
# Stress axis : x y z
#
# Youngs Moduli (GPa) = 95.91854 91.79254 30.18908
#
# Poissons Ratio (x) = 0.20763 0.15111
# Poissons Ratio (y) = 0.21697 0.15924
# Poissons Ratio (z) = 0.48012 0.48418
#
# Static dielectric constant tensor:
#      x y z
#    x 1.897190 -0.006610 -0.005940 
#    y -0.006610 1.977240 0.018020 
#    z -0.005940 0.018020 1.929520 
# 
# From -- ./inp_files/186003.got.cif
#   From: 2010.05.17/outbox.cif.g08.bks.cpg/sg2_94_cif.got.tgz:186003.got - 2010.06.03 11:33:40.
