data_PCOD9010127
_publ_section_title
;
Structure prediction by ZEFSAII (Michael W. Deem and Ramdas Pophale) SiO2 
 PCOD9010127
Probable space group: P -1
;
_chemical_formula_sum "Si O2"
_cell_formula_units_Z 14
_cell_length_a 8.713711
_cell_length_b 7.875450
_cell_length_c 19.473427
_cell_angle_alpha 130.645496
_cell_angle_beta 43.938177
_cell_angle_gamma 127.789327
_cell_volume 676.852244
_symmetry_space_group_name_H-M "P -1"
_symmetry_group_IT_number 2
_symmetry_cell_setting 'triclinic'
loop_
_space_group_symop_operation_xyz
x,y,z
-x,-y,-z
loop_
_atom_site_type_symbol
_atom_site_label
_atom_site_fract_x
_atom_site_fract_y
_atom_site_fract_z
Si Si1 0.758213 0.607124 0.417739
Si Si2 0.220121 0.130852 0.169840
Si Si3 0.774785 0.159215 0.249550
Si Si4 0.568034 0.013003 0.561004
Si Si5 0.745692 0.835342 0.054946
Si Si6 0.107194 0.512005 0.393508
Si Si7 0.623740 0.304829 0.985641
O O1 0.500000 0.500000 0.500000
O O2 0.785228 0.428157 0.302303
O O3 0.759120 0.868556 0.468409
O O4 0.939012 0.581882 0.410526
O O5 0.161847 0.275543 0.290241
O O6 0.031115 0.144941 0.177746
O O7 0.211882 0.864517 0.114923
O O8 0.472109 0.254304 0.090740
O O9 0.638763 0.094473 0.348193
O O10 0.660871 0.977060 0.180127
O O11 0.500000 0.000000 0.500000
O O12 0.666051 0.277064 0.621423
O O13 0.563420 0.784233 0.038185
O O14 0.747418 0.577017 0.010101
O O15 0.000000 0.000000 0.000000
O O16 0.000000 0.500000 0.500000
#
# Coordination Sequence:
#
# PCOD9010127 Si02
#       7
#     2   2   2   2   2   2   2
#     4   9  20  38  60  86 121 159 204 254 311 371
#     4  10  21  42  60  93 122 165 205 261 317 369
#     4  10  21  40  62  87 125 159 204 259 311 376
#     4  11  22  39  59  92 124 166 211 254 314 377
#     4  11  22  42  61  92 120 165 210 256 315 373
#     4  11  22  39  62  89 128 162 207 263 312 381
#     4  10  23  41  65  88 128 161 213 259 311 380
#
# _framework density 20.683982
#
# number of rings (size 3 to 8) (size 9 to 14) (size 15 to 20)
#    0.000    1.714    1.429    3.857    0.000    4.000 
#    7.714    0.000    0.000    0.000    0.000    0.000 
#    0.000    0.000    0.000    0.000    0.000    0.000 
#
# Total GULP energy -78120.415750 kJ/mol
# GULP energy per Si atom -5580.029696 kJ/mol
# Density = 2.063690 g / cm^3
# Si number density = 20.683982 Si / 1000 Ang^3
#
#
#
# Elastic Constant Matrix: (Units=GPa)
#
#
# Indices 1 2 3 4 5 6 
#
# 1 33.5661 -0.9242 38.8798 9.3657 6.8960 1.9722
# 2 -0.9242 69.0405 26.4884 15.2717 3.6336 6.2721
# 3 38.8798 26.4884 134.8283 30.1529 8.7084 -12.1197
# 4 9.3657 15.2717 30.1529 35.5372 -1.6446 -2.0776
# 5 6.8960 3.6336 8.7084 -1.6446 40.4318 5.9905
# 6 1.9722 6.2721 -12.1197 -2.0776 5.9905 30.4832
#
#
#
# Elastic Compliance Matrix: (Units=1/GPa)
#
#
# Indices 1 2 3 4 5 6 
#
# 1 0.052117 0.009329 -0.016547 -0.004579 -0.004681 -0.011262
# 2 0.009329 0.018811 -0.005494 -0.006342 -0.001345 -0.006826
# 3 -0.016547 -0.005494 0.015435 -0.005962 -0.001469 0.008220
# 4 -0.004579 -0.006342 -0.005962 0.037373 0.004008 0.000990
# 5 -0.004681 -0.001345 -0.001469 0.004008 0.026874 -0.005013
# 6 -0.011262 -0.006826 0.008220 0.000990 -0.005013 0.039259
#
#
# Mechanical properties :
#
#
# Convention : Reuss Voigt Hill
#
# Bulk Modulus (GPa) = 16.41043 40.70254 28.55648
# Shear Modulus (GPa) = 21.22176 32.82316 27.02246
#
# Velocity S-wave (km/s) = 3.20660 3.98790 3.61840
# Velocity P-wave (km/s) = 4.65412 6.39730 5.59403
#
# Compressibility (1/GPa) = 0.06093686
#
# Stress axis : x y z
#
# Youngs Moduli (GPa) = 19.18766 53.16106 64.78794
#
# Poissons Ratio (x) = -0.49592 1.07207
# Poissons Ratio (y) = -0.17900 0.35595
# Poissons Ratio (z) = 0.31751 0.29207
#
# Static dielectric constant tensor:
#      x y z
#    x 1.712590 0.034550 -0.031760 
#    y 0.034550 1.690870 0.078730 
#    z -0.031760 0.078730 1.714880 
# 
# From -- ./inp_files/203982.got.cif
#   From: 2010.05.17/outbox.cif.g08.bks.cpg/sg2_102_cif.got.tgz:203982.got - 2010.06.03 11:33:40.
