data_PCOD9010142
_publ_section_title
;
Structure prediction by ZEFSAII (Michael W. Deem and Ramdas Pophale) SiO2 
 PCOD9010142
Probable space group: P -1
;
_chemical_formula_sum "Si O2"
_cell_formula_units_Z 14
_cell_length_a 12.218254
_cell_length_b 7.313805
_cell_length_c 10.873899
_cell_angle_alpha 95.462755
_cell_angle_beta 131.838808
_cell_angle_gamma 57.126845
_cell_volume 549.959827
_symmetry_space_group_name_H-M "P -1"
_symmetry_group_IT_number 2
_symmetry_cell_setting 'triclinic'
loop_
_space_group_symop_operation_xyz
x,y,z
-x,-y,-z
loop_
_atom_site_type_symbol
_atom_site_label
_atom_site_fract_x
_atom_site_fract_y
_atom_site_fract_z
Si Si1 0.744608 0.937005 0.088055
Si Si2 0.933294 0.074117 0.703355
Si Si3 0.651982 0.307259 0.704261
Si Si4 0.697777 0.610838 0.925350
Si Si5 0.755030 0.927344 0.383983
Si Si6 0.636910 0.557078 0.133022
Si Si7 0.710590 0.570040 0.444318
O O1 0.804771 0.853753 0.271822
O O2 0.847921 0.040173 0.131198
O O3 0.779546 0.751002 0.000578
O O4 0.514988 0.155319 0.937524
O O5 0.829304 0.080124 0.747017
O O6 0.836145 0.354337 0.621062
O O7 0.118935 0.018810 0.452367
O O8 0.500000 0.500000 0.500000
O O9 0.731124 0.420997 0.843500
O O10 0.514462 0.284700 0.679753
O O11 0.464807 0.819896 0.762179
O O12 0.756326 0.502880 0.099299
O O13 0.760036 0.740229 0.460843
O O14 0.746096 0.441557 0.332677
O O15 0.500000 0.500000 0.000000
#
# Coordination Sequence:
#
# PCOD9010142 Si02
#       7
#     2   2   2   2   2   2   2
#     4  11  23  39  61  96 130 154 197 270 320 342
#     4  11  25  43  57  93 136 162 196 256 315 363
#     4  10  21  40  62  88 124 171 205 245 300 377
#     4  11  19  38  66  89 122 160 210 257 299 364
#     4  11  20  39  65  90 118 163 210 251 303 367
#     4  11  19  36  66  93 116 159 211 257 301 360
#     4  11  20  38  67  91 112 169 217 241 297 373
#
# _framework density 25.456403000000002
#
# number of rings (size 3 to 8) (size 9 to 14) (size 15 to 20)
#    0.000    1.143    7.143    2.143    0.000    1.714 
#    2.571    0.714    0.000    0.000    0.000    0.000 
#    0.000    0.000    0.000    0.000    0.000    0.000 
#
# Total GULP energy -78271.243005 kJ/mol
# GULP energy per Si atom -5590.803072 kJ/mol
# Density = 2.539846 g / cm^3
# Si number density = 25.456403 Si / 1000 Ang^3
#
#
#
# Elastic Constant Matrix: (Units=GPa)
#
#
# Indices 1 2 3 4 5 6 
#
# 1 106.2720 39.3416 25.3717 10.4437 6.7484 0.6858
# 2 39.3416 71.3874 25.5095 15.1384 5.8930 6.1617
# 3 25.3717 25.5095 91.7582 20.3716 13.0673 -7.6571
# 4 10.4437 15.1384 20.3716 48.3135 6.3189 -0.6809
# 5 6.7484 5.8930 13.0673 6.3189 44.0503 5.0447
# 6 0.6858 6.1617 -7.6571 -0.6809 5.0447 45.0232
#
#
#
# Elastic Compliance Matrix: (Units=1/GPa)
#
#
# Indices 1 2 3 4 5 6 
#
# 1 0.012065 -0.006101 -0.001517 0.000034 -0.000640 0.000465
# 2 -0.006101 0.019540 -0.003259 -0.003495 0.000156 -0.003206
# 3 -0.001517 -0.003259 0.013835 -0.004020 -0.003216 0.003122
# 4 0.000034 -0.003495 -0.004020 0.023720 -0.001788 0.000353
# 5 -0.000640 0.000156 -0.003216 -0.001788 0.024369 -0.003316
# 6 0.000465 -0.003206 0.003122 0.000353 -0.003316 0.023550
#
#
# Mechanical properties :
#
#
# Convention : Reuss Voigt Hill
#
# Bulk Modulus (GPa) = 42.22160 49.98480 46.10320
# Shear Modulus (GPa) = 34.07638 39.42373 36.75005
#
# Velocity S-wave (km/s) = 3.66268 3.93959 3.80366
# Velocity P-wave (km/s) = 5.87442 6.35389 6.11885
#
# Compressibility (1/GPa) = 0.02368456
#
# Stress axis : x y z
#
# Youngs Moduli (GPa) = 82.88370 51.17678 72.28166
#
# Poissons Ratio (x) = 0.31225 0.10968
# Poissons Ratio (y) = 0.50570 0.23557
# Poissons Ratio (z) = 0.12576 0.16678
#
# Static dielectric constant tensor:
#      x y z
#    x 2.059050 -0.031290 -0.002400 
#    y -0.031290 2.140550 -0.067210 
#    z -0.002400 -0.067210 2.016880 
# 
# From -- ./inp_files/417666.got.cif
#   From: 2010.05.17/outbox.cif.g08.bks.cpg/sg2_209_cif.got.tgz:417666.got - 2010.06.03 11:33:40.
