data_PCOD9010237
_publ_section_title
;
Structure prediction by ZEFSAII (Michael W. Deem and Ramdas Pophale) SiO2 
 PCOD9010237
Probable space group: P -1
;
_chemical_formula_sum "Si O2"
_cell_formula_units_Z 16
_cell_length_a 23.175221
_cell_length_b 8.952389
_cell_length_c 22.712313
_cell_angle_alpha 135.691065
_cell_angle_beta 17.741049
_cell_angle_gamma 144.669637
_cell_volume 778.232333
_symmetry_space_group_name_H-M "P -1"
_symmetry_group_IT_number 2
_symmetry_cell_setting 'triclinic'
loop_
_space_group_symop_operation_xyz
x,y,z
-x,-y,-z
loop_
_atom_site_type_symbol
_atom_site_label
_atom_site_fract_x
_atom_site_fract_y
_atom_site_fract_z
Si Si1 0.833606 0.561333 0.502611
Si Si2 0.719615 0.887716 0.096622
Si Si3 0.045172 0.986054 0.313508
Si Si4 0.799216 0.038940 0.362928
Si Si5 0.825046 0.493360 0.622472
Si Si6 0.615841 0.894313 0.632041
Si Si7 0.620319 0.163366 0.369102
Si Si8 0.142860 0.734535 0.044130
O O1 0.543354 0.409078 0.743644
O O2 0.842606 0.325291 0.403225
O O3 0.933245 0.627504 0.490955
O O4 0.977801 0.815819 0.390545
O O5 0.688879 0.009149 0.218621
O O6 0.949688 0.896113 0.878808
O O7 0.777765 0.089737 0.043298
O O8 0.148577 0.897650 0.140010
O O9 0.792954 0.901018 0.506974
O O10 0.223595 0.312255 0.245972
O O11 0.713231 0.917005 0.478181
O O12 0.578462 0.844477 0.477377
O O13 0.000000 0.500000 0.500000
O O14 0.641186 0.169909 0.695332
O O15 0.325974 0.663622 0.854555
O O16 0.865247 0.464714 0.229752
O O17 0.500000 0.000000 0.500000
#
# Coordination Sequence:
#
# PCOD9010237 Si02
#       8
#     2   2   2   2   2   2   2   2
#     4  10  21  41  61  95 131 156 202 259 302 355
#     4  11  22  40  67  88 120 169 204 247 308 364
#     4  11  23  37  64  93 124 162 203 256 314 350
#     4  10  21  41  64  87 124 164 204 251 299 368
#     4   9  19  39  65  89 124 166 204 247 303 365
#     4  10  21  40  62  93 122 159 211 253 296 371
#     4  11  25  41  60  93 129 155 202 261 307 359
#     4  12  22  39  65  92 119 165 210 249 303 370
#
# _framework density 20.559412999999999
#
# number of rings (size 3 to 8) (size 9 to 14) (size 15 to 20)
#    0.000    1.500    5.000    2.250    0.000    4.500 
#    0.000    0.000    0.000    6.000    0.000    0.000 
#    0.000    0.000    0.000    0.000    0.000    0.000 
#
# Total GULP energy -89316.061221 kJ/mol
# GULP energy per Si atom -5582.253826 kJ/mol
# Density = 2.051262 g / cm^3
# Si number density = 20.559413 Si / 1000 Ang^3
#
#
#
# Elastic Constant Matrix: (Units=GPa)
#
#
# Indices 1 2 3 4 5 6 
#
# 1 134.7418 27.5858 48.9428 1.8666 18.6552 0.2568
# 2 27.5858 28.6042 19.4380 6.0917 27.4383 0.0800
# 3 48.9428 19.4380 137.5955 19.0493 4.6132 0.2550
# 4 1.8666 6.0917 19.0493 21.4367 -10.7270 3.2712
# 5 18.6552 27.4383 4.6132 -10.7270 17.2603 12.1060
# 6 0.2568 0.0800 0.2550 3.2712 12.1060 21.2300
#
#
#
# Elastic Compliance Matrix: (Units=1/GPa)
#
#
# Indices 1 2 3 4 5 6 
#
# 1 0.009841 -0.004420 -0.002899 0.000979 -0.003455 0.001752
# 2 -0.004420 0.001172 -0.003221 0.024921 0.036489 -0.024559
# 3 -0.002899 -0.003221 0.009695 -0.007035 0.000965 0.000464
# 4 0.000979 0.024921 -0.007035 0.029636 -0.028595 0.011718
# 5 -0.003455 0.036489 0.000965 -0.028595 -0.028962 0.020814
# 6 0.001752 -0.024559 0.000464 0.011718 0.020814 0.033495
#
#
# Mechanical properties :
#
#
# Convention : Reuss Voigt Hill
#
# Bulk Modulus (GPa) = -2677.73015 54.76386 -1311.48315
# Shear Modulus (GPa) = 65.93421 25.65038 45.79229
#
# Velocity S-wave (km/s) = 5.66919 3.53600 4.72456
# Velocity P-wave (km/s) = 35.53040 6.58527 24.68850
#
# Compressibility (1/GPa) = -0.00037345
#
# Stress axis : x y z
#
# Youngs Moduli (GPa) = 101.61603 853.37098 103.14968
#
# Poissons Ratio (x) = 3.77202 0.29903
# Poissons Ratio (y) = 0.44916 0.33228
# Poissons Ratio (z) = 0.29459 2.74896
#
# Static dielectric constant tensor:
#      x y z
#    x 1.730550 0.018700 -0.033260 
#    y 0.018700 1.782500 -0.014390 
#    z -0.033260 -0.014390 1.729140 
# 
# From -- ./inp_files/201287.got.cif
#   From: 2010.05.17/outbox.cif.g08.bks.cpg/sg2_101_cif.got.tgz:201287.got - 2010.06.03 11:33:40.
