data_PCOD9010337
_publ_section_title
;
Structure prediction by ZEFSAII (Michael W. Deem and Ramdas Pophale) SiO2 
 PCOD9010337
Probable space group: P -1
;
_chemical_formula_sum "Si O2"
_cell_formula_units_Z 15
_cell_length_a 7.765232
_cell_length_b 15.612449
_cell_length_c 8.120283
_cell_angle_alpha 102.184874
_cell_angle_beta 57.251093
_cell_angle_gamma 64.427340
_cell_volume 605.194376
_symmetry_space_group_name_H-M "P -1"
_symmetry_group_IT_number 2
_symmetry_cell_setting 'triclinic'
loop_
_space_group_symop_operation_xyz
x,y,z
-x,-y,-z
loop_
_atom_site_type_symbol
_atom_site_label
_atom_site_fract_x
_atom_site_fract_y
_atom_site_fract_z
Si Si1 0.253345 0.246740 0.742550
Si Si2 0.791767 0.878413 0.751427
Si Si3 0.839310 0.081898 0.272829
Si Si4 0.669394 0.494743 0.115436
Si Si5 0.500000 0.500000 0.500000
Si Si6 0.870737 0.682195 0.811651
Si Si7 0.457926 0.377996 0.107545
Si Si8 0.042809 0.129691 0.707426
O O1 0.514542 0.184285 0.467482
O O2 0.188416 0.161356 0.758822
O O3 0.308265 0.264648 0.906148
O O4 0.977758 0.374745 0.875953
O O5 0.793048 0.777817 0.761849
O O6 0.857409 0.872186 0.524846
O O7 0.021114 0.868577 0.723981
O O8 0.500000 0.000000 0.000000
O O9 0.884810 0.990532 0.343387
O O10 0.000000 0.000000 0.000000
O O11 0.612561 0.554938 0.342094
O O12 0.504189 0.449431 0.232654
O O13 0.548020 0.575319 0.051925
O O14 0.825387 0.383338 0.312979
O O15 0.806423 0.606385 0.737341
O O16 0.721162 0.241861 0.935447
#
# Coordination Sequence:
#
# PCOD9010337 Si02
#       8
#     2   2   2   2   1   2   2   2
#     4  10  22  40  62  88 122 157 197 248 300 353
#     4  12  24  39  60  89 123 158 201 247 298 357
#     4  12  24  40  64  89 119 159 203 248 299 355
#     4   9  21  41  63  89 120 156 199 248 296 353
#     4  10  22  38  60  92 122 154 198 246 294 352
#     4  11  23  40  61  89 124 160 199 244 298 358
#     4  10  21  40  63  86 119 161 199 241 298 352
#     4  11  22  41  63  88 121 156 201 250 299 354
#
# _framework density 24.785426000000001
#
# number of rings (size 3 to 8) (size 9 to 14) (size 15 to 20)
#    0.000    1.333    0.000    5.600    0.000    3.733 
#    0.000    1.333    0.000    0.000    0.000    0.000 
#    0.000    0.000    0.000    0.000    0.000    0.000 
#
# Total GULP energy -83779.575011 kJ/mol
# GULP energy per Si atom -5585.305001 kJ/mol
# Density = 2.472901 g / cm^3
# Si number density = 24.785426 Si / 1000 Ang^3
#
#
#
# Elastic Constant Matrix: (Units=GPa)
#
#
# Indices 1 2 3 4 5 6 
#
# 1 83.3944 30.4844 25.0645 -7.9714 -14.4606 23.9844
# 2 30.4844 64.6361 9.1315 -2.9243 -13.1153 3.7580
# 3 25.0645 9.1315 109.3720 21.0105 -4.4273 -1.1358
# 4 -7.9714 -2.9243 21.0105 22.9095 1.4631 -2.3772
# 5 -14.4606 -13.1153 -4.4273 1.4631 33.0829 -4.1126
# 6 23.9844 3.7580 -1.1358 -2.3772 -4.1126 32.7172
#
#
#
# Elastic Compliance Matrix: (Units=1/GPa)
#
#
# Indices 1 2 3 4 5 6 
#
# 1 0.022822 -0.007682 -0.006786 0.011414 0.003678 -0.014792
# 2 -0.007682 0.019808 0.000442 -0.000461 0.005069 0.003975
# 3 -0.006786 0.000442 0.013440 -0.014187 0.000180 0.004382
# 4 0.011414 -0.000461 -0.014187 0.060129 -0.000308 -0.004477
# 5 0.003678 0.005069 0.000180 -0.000308 0.034004 0.000979
# 6 -0.014792 0.003975 0.004382 -0.004477 0.000979 0.040902
#
#
# Mechanical properties :
#
#
# Convention : Reuss Voigt Hill
#
# Bulk Modulus (GPa) = 35.69267 42.97370 39.33318
# Shear Modulus (GPa) = 21.88215 30.59006 26.23611
#
# Velocity S-wave (km/s) = 2.97453 3.51692 3.25703
# Velocity P-wave (km/s) = 5.12143 5.81959 5.48163
#
# Compressibility (1/GPa) = 0.02801696
#
# Stress axis : x y z
#
# Youngs Moduli (GPa) = 43.81736 50.48351 74.40737
#
# Poissons Ratio (x) = 0.38782 0.50493
# Poissons Ratio (y) = 0.33661 -0.03286
# Poissons Ratio (z) = 0.29735 -0.02230
#
# Static dielectric constant tensor:
#      x y z
#    x 1.126500 0.166150 -0.621370 
#    y 0.166150 1.968730 0.045070 
#    z -0.621370 0.045070 1.520990 
# 
# From -- ./inp_files/48327.got.cif
#   From: 2010.05.17/outbox.cif.g08.bks.cpg/sg2_25_cif.got.tgz:48327.got - 2010.06.03 11:33:40.
