data_PCOD9010751
_publ_section_title
;
Structure prediction by ZEFSAII (Michael W. Deem and Ramdas Pophale) SiO2 
 PCOD9010751
Probable space group: P -1
;
_chemical_formula_sum "Si O2"
_cell_formula_units_Z 14
_cell_length_a 9.725648
_cell_length_b 13.780213
_cell_length_c 10.908131
_cell_angle_alpha 43.865253
_cell_angle_beta 143.735365
_cell_angle_gamma 136.081862
_cell_volume 563.726466
_symmetry_space_group_name_H-M "P -1"
_symmetry_group_IT_number 2
_symmetry_cell_setting 'triclinic'
loop_
_space_group_symop_operation_xyz
x,y,z
-x,-y,-z
loop_
_atom_site_type_symbol
_atom_site_label
_atom_site_fract_x
_atom_site_fract_y
_atom_site_fract_z
Si Si1 0.545826 0.575117 0.597046
Si Si2 0.704848 0.175452 0.225667
Si Si3 0.321048 0.452074 0.781437
Si Si4 0.240113 0.121114 0.393468
Si Si5 0.081405 0.694809 0.973219
Si Si6 0.882140 0.466772 0.226728
Si Si7 0.762766 0.869228 0.904456
O O1 0.500000 0.500000 0.500000
O O2 0.332748 0.469565 0.628877
O O3 0.833421 0.589186 0.820594
O O4 0.200897 0.287913 0.898522
O O5 0.702561 0.241721 0.027754
O O6 0.874400 0.314610 0.298931
O O7 0.450374 0.128353 0.157871
O O8 0.795336 0.035382 0.426584
O O9 0.580441 0.744234 0.516178
O O10 0.188806 0.552894 0.663405
O O11 0.617969 0.494412 0.978010
O O12 0.310786 0.122336 0.298812
O O13 0.991317 0.162320 0.171457
O O14 0.086620 0.603478 0.182046
O O15 0.000000 0.000000 0.000000
#
# Coordination Sequence:
#
# PCOD9010751 Si02
#       7
#     2   2   2   2   2   2   2
#     4   9  19  35  62  88 121 162 203 244 306 371
#     4  11  21  35  63  99 121 162 203 263 311 357
#     4   9  16  35  57  83 111 165 200 244 296 364
#     4  10  21  40  64  90 129 158 204 256 310 365
#     4   9  19  36  62  88 127 163 201 246 312 369
#     4   9  16  33  63  86 117 156 208 240 303 371
#     4  11  23  40  63  90 124 167 211 251 306 374
#
# _framework density 24.834738000000002
#
# number of rings (size 3 to 8) (size 9 to 14) (size 15 to 20)
#    0.857    1.429    1.429    3.000    0.000    1.143 
#    0.000    2.143    3.143    3.429    0.000    0.000 
#    0.000    0.000    0.000    0.000    0.000    0.000 
#
# Total GULP energy -78084.656850 kJ/mol
# GULP energy per Si atom -5577.475489 kJ/mol
# Density = 2.477821 g / cm^3
# Si number density = 24.834738 Si / 1000 Ang^3
#
#
#
# Elastic Constant Matrix: (Units=GPa)
#
#
# Indices 1 2 3 4 5 6 
#
# 1 190.6148 56.0850 25.8115 -9.2522 -38.4936 -2.2663
# 2 56.0850 115.9223 45.4518 -21.5597 -7.0264 -12.1947
# 3 25.8115 45.4518 78.7804 -21.3905 -23.7313 -8.1492
# 4 -9.2522 -21.5597 -21.3905 44.4860 -6.5913 -3.5549
# 5 -38.4936 -7.0264 -23.7313 -6.5913 37.4591 -5.9041
# 6 -2.2663 -12.1947 -8.1492 -3.5549 -5.9041 29.8355
#
#
#
# Elastic Compliance Matrix: (Units=1/GPa)
#
#
# Indices 1 2 3 4 5 6 
#
# 1 0.008518 -0.004135 0.004685 0.004071 0.012155 0.003127
# 2 -0.004135 0.013814 -0.007860 0.001327 -0.006067 0.002143
# 3 0.004685 -0.007860 0.029516 0.016337 0.026880 0.012471
# 4 0.004071 0.001327 0.016337 0.036441 0.023448 0.014296
# 5 0.012155 -0.006067 0.026880 0.023448 0.062505 0.020948
# 6 0.003127 0.002143 0.012471 0.014296 0.020948 0.043885
#
#
# Mechanical properties :
#
#
# Convention : Reuss Voigt Hill
#
# Bulk Modulus (GPa) = 26.86199 71.11267 48.98733
# Shear Modulus (GPa) = 22.55211 39.55405 31.05308
#
# Velocity S-wave (km/s) = 3.01672 3.99518 3.53992
# Velocity P-wave (km/s) = 4.79311 7.06955 6.03955
#
# Compressibility (1/GPa) = 0.03722732
#
# Stress axis : x y z
#
# Youngs Moduli (GPa) = 117.40004 72.39206 33.87968
#
# Poissons Ratio (x) = 0.29936 -0.15874
# Poissons Ratio (y) = 0.48549 0.26630
# Poissons Ratio (z) = -0.55007 0.56902
#
# Static dielectric constant tensor:
#      x y z
#    x 2.052790 -0.056850 0.003900 
#    y -0.056850 2.017860 0.140390 
#    z 0.003900 0.140390 2.219440 
# 
# From -- ./inp_files/398471.got.cif
#   From: 2010.05.17/outbox.cif.g08.bks.cpg/sg2_200_cif.got.tgz:398471.got - 2010.06.03 11:33:40.
