data_PCOD9010822
_publ_section_title
;
Structure prediction by ZEFSAII (Michael W. Deem and Ramdas Pophale) SiO2 
 PCOD9010822
Probable space group: P -1
;
_chemical_formula_sum "Si O2"
_cell_formula_units_Z 14
_cell_length_a 7.435230
_cell_length_b 17.477665
_cell_length_c 13.152079
_cell_angle_alpha 22.370084
_cell_angle_beta 87.550522
_cell_angle_gamma 87.578402
_cell_volume 649.858278
_symmetry_space_group_name_H-M "P -1"
_symmetry_group_IT_number 2
_symmetry_cell_setting 'triclinic'
loop_
_space_group_symop_operation_xyz
x,y,z
-x,-y,-z
loop_
_atom_site_type_symbol
_atom_site_label
_atom_site_fract_x
_atom_site_fract_y
_atom_site_fract_z
Si Si1 0.096348 0.712023 0.222248
Si Si2 0.770795 0.947675 0.840218
Si Si3 0.541693 0.360666 0.822369
Si Si4 0.888238 0.578937 0.046065
Si Si5 0.165535 0.763605 0.685099
Si Si6 0.497402 0.240393 0.200117
Si Si7 0.733672 0.310944 0.545041
O O1 0.272686 0.674172 0.196585
O O2 0.164186 0.776609 0.252724
O O3 0.000000 0.500000 0.500000
O O4 0.951233 0.860201 0.993612
O O5 0.815679 0.022481 0.632908
O O6 0.706805 0.140501 0.670592
O O7 0.610734 0.788494 0.034169
O O8 0.451933 0.582423 0.546422
O O9 0.565571 0.312008 0.000544
O O10 0.920667 0.378693 0.223797
O O11 0.849238 0.491101 0.267061
O O12 0.703885 0.677078 0.889671
O O13 0.045943 0.732611 0.826508
O O14 0.365390 0.693495 0.797190
O O15 0.500000 0.000000 0.500000
#
# Coordination Sequence:
#
# PCOD9010822 Si02
#       7
#     2   2   2   2   2   2   2
#     4  12  26  44  69  94 131 167 219 271 320 377
#     4  11  24  44  68  96 130 169 217 263 317 389
#     4  11  25  45  63  98 128 171 213 269 321 375
#     4   9  22  40  63  93 127 162 207 261 312 374
#     4  10  21  40  64  93 127 163 207 259 313 379
#     4  11  22  36  62  92 126 162 204 251 319 379
#     4  10  23  47  66  94 131 171 215 263 322 377
#
# _framework density 21.54316
#
# number of rings (size 3 to 8) (size 9 to 14) (size 15 to 20)
#    0.000    1.429    2.857    1.286    4.000    1.143 
#    2.571    0.000    0.000    0.000    0.000    0.000 
#    0.000    0.000    0.000    0.000    0.000    0.000 
#
# Total GULP energy -78238.169745 kJ/mol
# GULP energy per Si atom -5588.440696 kJ/mol
# Density = 2.149413 g / cm^3
# Si number density = 21.543160 Si / 1000 Ang^3
#
#
#
# Elastic Constant Matrix: (Units=GPa)
#
#
# Indices 1 2 3 4 5 6 
#
# 1 119.7080 10.1876 55.3894 5.6020 6.7355 -13.1101
# 2 10.1876 39.8275 15.5677 -13.6132 4.8253 6.4087
# 3 55.3894 15.5677 81.0797 2.4242 22.0705 -4.1958
# 4 5.6020 -13.6132 2.4242 30.3868 12.8407 9.8401
# 5 6.7355 4.8253 22.0705 12.8407 28.1508 8.8124
# 6 -13.1101 6.4087 -4.1958 9.8401 8.8124 32.2396
#
#
#
# Elastic Compliance Matrix: (Units=1/GPa)
#
#
# Indices 1 2 3 4 5 6 
#
# 1 0.014162 -0.004577 -0.010326 -0.009044 0.007749 0.005967
# 2 -0.004577 0.042258 -0.003457 0.030608 -0.012162 -0.016729
# 3 -0.010326 -0.003457 0.025807 0.005979 -0.021082 0.003784
# 4 -0.009044 0.030608 0.005979 0.068274 -0.032345 -0.020981
# 5 0.007749 -0.012162 -0.021082 -0.032345 0.068962 -0.006153
# 6 0.005967 -0.016729 0.003784 -0.020981 -0.006153 0.045348
#
#
# Mechanical properties :
#
#
# Convention : Reuss Voigt Hill
#
# Bulk Modulus (GPa) = 21.97476 44.76715 33.37096
# Shear Modulus (GPa) = 15.78782 28.78680 22.28731
#
# Velocity S-wave (km/s) = 2.71005 3.65943 3.21992
# Velocity P-wave (km/s) = 4.47381 6.21937 5.41736
#
# Compressibility (1/GPa) = 0.04550674
#
# Stress axis : x y z
#
# Youngs Moduli (GPa) = 70.61248 23.66436 38.74861
#
# Poissons Ratio (x) = 0.10830 0.40012
# Poissons Ratio (y) = 0.32317 0.13396
# Poissons Ratio (z) = 0.72915 0.08181
#
# Static dielectric constant tensor:
#      x y z
#    x 1.757360 0.001190 -0.020990 
#    y 0.001190 1.822030 0.003420 
#    z -0.020990 0.003420 1.801220 
# 
# From -- ./inp_files/28167.got.cif
#   From: 2010.05.17/outbox.cif.g08.bks.cpg/sg2_15_cif.got.tgz:28167.got - 2010.06.03 11:33:40.
