data_PCOD9010802
_publ_section_title
;
Structure prediction by ZEFSAII (Michael W. Deem and Ramdas Pophale) SiO2 
 PCOD9010802
Probable space group: P -1
;
_chemical_formula_sum "Si O2"
_cell_formula_units_Z 16
_cell_length_a 9.205309
_cell_length_b 8.530542
_cell_length_c 15.593970
_cell_angle_alpha 82.400737
_cell_angle_beta 65.788161
_cell_angle_gamma 128.937472
_cell_volume 725.658809
_symmetry_space_group_name_H-M "P -1"
_symmetry_group_IT_number 2
_symmetry_cell_setting 'triclinic'
loop_
_space_group_symop_operation_xyz
x,y,z
-x,-y,-z
loop_
_atom_site_type_symbol
_atom_site_label
_atom_site_fract_x
_atom_site_fract_y
_atom_site_fract_z
Si Si1 0.508262 0.548303 0.393944
Si Si2 0.010533 0.682162 0.023838
Si Si3 0.072323 0.419610 0.423045
Si Si4 0.930001 0.069927 0.167802
Si Si5 0.234702 0.472001 0.198571
Si Si6 0.312476 0.079531 0.050583
Si Si7 0.440306 0.271822 0.190735
Si Si8 0.241213 0.073038 0.425139
O O1 0.500000 0.500000 0.500000
O O2 0.279741 0.478517 0.420380
O O3 0.471292 0.348587 0.375776
O O4 0.737328 0.815622 0.282444
O O5 0.135267 0.890981 0.907551
O O6 0.726835 0.511598 0.116991
O O7 0.000000 0.500000 0.000000
O O8 0.155430 0.820715 0.066704
O O9 0.168140 0.516965 0.296993
O O10 0.000000 0.500000 0.500000
O O11 0.829568 0.132220 0.489709
O O12 0.021683 0.272709 0.197084
O O13 0.148326 0.115741 0.085275
O O14 0.323276 0.360195 0.211024
O O15 0.451163 0.716144 0.078168
O O16 0.396890 0.142208 0.123702
O O17 0.296195 0.072867 0.314201
O O18 0.000000 0.000000 0.500000
#
# Coordination Sequence:
#
# PCOD9010802 Si02
#       8
#     2   2   2   2   2   2   2   2
#     4  11  23  40  71 101 129 179 237 289 339 408
#     4  12  26  42  62 104 145 176 221 281 352 413
#     4  11  25  44  66  98 136 185 226 287 356 406
#     4  11  22  42  70 101 133 171 234 284 337 410
#     4  11  20  43  71  96 128 177 230 279 340 413
#     4  11  23  39  75  97 128 179 226 278 345 403
#     4  11  21  42  65 101 128 175 229 278 330 414
#     4  10  21  40  64  92 133 172 231 277 330 413
#
# _framework density 22.048929999999999
#
# number of rings (size 3 to 8) (size 9 to 14) (size 15 to 20)
#    0.000    1.000    5.000    3.375    5.250    2.500 
#    2.250    2.500    0.000    0.000    0.000    0.000 
#    0.000    0.000    0.000    0.000    0.000    0.000 
#
# Total GULP energy -89356.000705 kJ/mol
# GULP energy per Si atom -5584.750044 kJ/mol
# Density = 2.199875 g / cm^3
# Si number density = 22.048930 Si / 1000 Ang^3
#
#
#
# Elastic Constant Matrix: (Units=GPa)
#
#
# Indices 1 2 3 4 5 6 
#
# 1 13.2834 8.3692 26.7767 0.7349 5.2290 9.2487
# 2 8.3692 135.7041 68.1859 10.0300 -1.4570 19.4877
# 3 26.7767 68.1859 194.2796 9.1675 18.8800 9.6044
# 4 0.7349 10.0300 9.1675 44.3188 -4.0251 -2.8903
# 5 5.2290 -1.4570 18.8800 -4.0251 19.5230 6.2855
# 6 9.2487 19.4877 9.6044 -2.8903 6.2855 24.4456
#
#
#
# Elastic Compliance Matrix: (Units=1/GPa)
#
#
# Indices 1 2 3 4 5 6 
#
# 1 0.152934 0.009771 -0.021270 -0.004273 -0.002110 -0.057256
# 2 0.009771 0.011520 -0.005366 -0.001844 0.007185 -0.012837
# 3 -0.021270 -0.005366 0.010267 -0.000619 -0.008074 0.010294
# 4 -0.004273 -0.001844 -0.000619 0.023950 0.004971 0.004883
# 5 -0.002110 0.007185 -0.008074 0.004971 0.067086 -0.018419
# 6 -0.057256 -0.012837 0.010294 0.004883 -0.018419 0.074071
#
#
# Mechanical properties :
#
#
# Convention : Reuss Voigt Hill
#
# Bulk Modulus (GPa) = 7.09275 61.10342 34.09808
# Shear Modulus (GPa) = 11.88905 33.65317 22.77111
#
# Velocity S-wave (km/s) = 2.32461 3.91102 3.21713
# Velocity P-wave (km/s) = 3.22938 6.94029 5.41279
#
# Compressibility (1/GPa) = 0.14098905
#
# Stress axis : x y z
#
# Youngs Moduli (GPa) = 6.53879 86.80851 97.39789
#
# Poissons Ratio (x) = -0.84821 2.07168
# Poissons Ratio (y) = -0.06389 0.52267
# Poissons Ratio (z) = 0.13908 0.46584
#
# Static dielectric constant tensor:
#      x y z
#    x 1.853100 0.009360 0.018830 
#    y 0.009360 1.852770 0.025830 
#    z 0.018830 0.025830 1.814760 
# 
# From -- ./inp_files/515886.got.cif
#   From: 2010.05.17/outbox.cif.g08.bks.cpg/sg2_258_cif.got.tgz:515886.got - 2010.06.03 11:33:40.
