data_PCOD9010463
_publ_section_title
;
Structure prediction by ZEFSAII (Michael W. Deem and Ramdas Pophale) SiO2 
 PCOD9010463
Probable space group: P -1
;
_chemical_formula_sum "Si O2"
_cell_formula_units_Z 14
_cell_length_a 14.857137
_cell_length_b 6.200684
_cell_length_c 15.974675
_cell_angle_alpha 93.795606
_cell_angle_beta 27.054197
_cell_angle_gamma 83.047891
_cell_volume 613.116193
_symmetry_space_group_name_H-M "P -1"
_symmetry_group_IT_number 2
_symmetry_cell_setting 'triclinic'
loop_
_space_group_symop_operation_xyz
x,y,z
-x,-y,-z
loop_
_atom_site_type_symbol
_atom_site_label
_atom_site_fract_x
_atom_site_fract_y
_atom_site_fract_z
Si Si1 0.316565 0.395105 0.644500
Si Si2 0.764893 0.698468 0.990274
Si Si3 0.415450 0.578095 0.979584
Si Si4 0.124021 0.167551 0.928887
Si Si5 0.007975 0.055607 0.311037
Si Si6 0.158582 0.488858 0.444209
Si Si7 0.158422 0.264965 0.618882
O O1 0.500000 0.500000 0.500000
O O2 0.279240 0.197748 0.728543
O O3 0.329862 0.307485 0.535539
O O4 0.092688 0.608026 0.860640
O O5 0.936916 0.428067 0.854502
O O6 0.878502 0.820926 0.839015
O O7 0.597054 0.636794 0.070811
O O8 0.732500 0.847669 0.105852
O O9 0.596101 0.646248 0.789249
O O10 0.500000 0.500000 0.000000
O O11 0.191972 0.804941 0.177372
O O12 0.000000 0.000000 0.000000
O O13 0.832167 0.995235 0.403734
O O14 0.899609 0.238041 0.478689
O O15 0.140830 0.365806 0.542360
O O16 0.000000 0.500000 0.500000
#
# Coordination Sequence:
#
# PCOD9010463 Si02
#       7
#     2   2   2   2   2   2   2
#     4  10  22  39  63  92 130 166 213 272 324 380
#     4   9  20  38  61  88 121 162 208 257 311 380
#     4  11  24  40  62  92 124 162 210 257 313 382
#     4  10  21  40  63  91 129 169 215 265 326 386
#     4  10  21  42  65  84 129 165 201 259 322 364
#     4  11  24  40  62  92 124 162 211 259 309 379
#     4   9  20  39  60  88 123 161 205 260 314 377
#
# _framework density 22.83417
#
# number of rings (size 3 to 8) (size 9 to 14) (size 15 to 20)
#    0.000    2.000    0.000    3.429    2.000    7.429 
#    2.571    0.000    0.000    0.000    0.000    0.000 
#    0.000    0.000    0.000    0.000    0.000    0.000 
#
# Total GULP energy -77936.356638 kJ/mol
# GULP energy per Si atom -5566.882617 kJ/mol
# Density = 2.278220 g / cm^3
# Si number density = 22.834170 Si / 1000 Ang^3
#
#
#
# Elastic Constant Matrix: (Units=GPa)
#
#
# Indices 1 2 3 4 5 6 
#
# 1 142.7997 47.9511 29.5305 -16.6687 13.1388 51.0821
# 2 47.9511 80.1333 18.7227 -10.1459 1.4387 35.6877
# 3 29.5305 18.7227 94.1136 -12.8155 0.9982 10.3669
# 4 -16.6687 -10.1459 -12.8155 39.4899 7.1406 -2.7512
# 5 13.1388 1.4387 0.9982 7.1406 28.7816 -3.0898
# 6 51.0821 35.6877 10.3669 -2.7512 -3.0898 42.7449
#
#
#
# Elastic Compliance Matrix: (Units=1/GPa)
#
#
# Indices 1 2 3 4 5 6 
#
# 1 0.016018 0.000670 -0.001938 0.006948 -0.011105 -0.019587
# 2 0.000670 0.021232 -0.001750 0.004707 -0.004419 -0.018119
# 3 -0.001938 -0.001750 0.011822 0.002640 0.000023 0.001082
# 4 0.006948 0.004707 0.002640 0.031790 -0.012646 -0.011741
# 5 -0.011105 -0.004419 0.000023 -0.012646 0.045256 0.019413
# 6 -0.019587 -0.018119 0.001082 -0.011741 0.019413 0.062316
#
#
# Mechanical properties :
#
#
# Convention : Reuss Voigt Hill
#
# Bulk Modulus (GPa) = 23.23662 56.60615 39.92139
# Shear Modulus (GPa) = 23.94464 36.92609 30.43537
#
# Velocity S-wave (km/s) = 3.24177 4.02573 3.65483
# Velocity P-wave (km/s) = 4.92041 6.81562 5.94403
#
# Compressibility (1/GPa) = 0.04303551
#
# Stress axis : x y z
#
# Youngs Moduli (GPa) = 62.42933 47.09868 84.58937
#
# Poissons Ratio (x) = -0.03156 0.16392
# Poissons Ratio (y) = -0.04183 0.14807
# Poissons Ratio (z) = 0.12098 0.08244
#
# Static dielectric constant tensor:
#      x y z
#    x 1.912220 0.025610 -0.054490 
#    y 0.025610 1.915680 0.016280 
#    z -0.054490 0.016280 1.888210 
# 
# From -- ./inp_files/91146.got.cif
#   From: 2010.05.17/outbox.cif.g08.bks.cpg/sg2_46_cif.got.tgz:91146.got - 2010.06.03 11:33:40.
