data_PCOD9010804
_publ_section_title
;
Structure prediction by ZEFSAII (Michael W. Deem and Ramdas Pophale) SiO2 
 PCOD9010804
Probable space group: P -1
;
_chemical_formula_sum "Si O2"
_cell_formula_units_Z 14
_cell_length_a 12.675315
_cell_length_b 9.457559
_cell_length_c 12.343588
_cell_angle_alpha 44.550820
_cell_angle_beta 36.192019
_cell_angle_gamma 52.954109
_cell_volume 611.646103
_symmetry_space_group_name_H-M "P -1"
_symmetry_group_IT_number 2
_symmetry_cell_setting 'triclinic'
loop_
_space_group_symop_operation_xyz
x,y,z
-x,-y,-z
loop_
_atom_site_type_symbol
_atom_site_label
_atom_site_fract_x
_atom_site_fract_y
_atom_site_fract_z
Si Si1 0.843338 0.902114 0.927100
Si Si2 0.452554 0.811403 0.318987
Si Si3 0.224210 0.181406 0.646749
Si Si4 0.940735 0.712748 0.485198
Si Si5 0.891578 0.256330 0.020260
Si Si6 0.167406 0.138180 0.284740
Si Si7 0.437957 0.601313 0.664166
O O1 0.832134 0.799278 0.874763
O O2 0.987769 0.791625 0.946480
O O3 0.646115 0.888321 0.145739
O O4 0.902611 0.129953 0.737886
O O5 0.370514 0.723624 0.544839
O O6 0.483691 0.617593 0.320577
O O7 0.337149 0.989702 0.258268
O O8 0.212125 0.193679 0.520267
O O9 0.399918 0.279225 0.487670
O O10 0.200081 0.949756 0.825079
O O11 0.043548 0.294269 0.785352
O O12 0.870105 0.710277 0.667380
O O13 0.000000 0.500000 0.500000
O O14 0.723060 0.401795 0.115432
O O15 0.000000 0.000000 0.500000
#
# Coordination Sequence:
#
# PCOD9010804 Si02
#       7
#     2   2   2   2   2   2   2
#     4  10  21  42  65  90 130 164 209 268 309 378
#     4  11  23  40  60  97 126 163 218 257 319 373
#     4  10  21  40  64  92 134 162 211 268 311 381
#     4  10  23  42  65  92 121 169 217 255 318 383
#     4  10  21  41  65  97 124 173 208 256 333 361
#     4  10  22  41  66  86 126 172 206 261 317 372
#     4  11  23  38  64  95 131 165 213 263 305 392
#
# _framework density 22.889050000000001
#
# number of rings (size 3 to 8) (size 9 to 14) (size 15 to 20)
#    0.000    1.714    1.429    3.429    4.000    1.714 
#    2.571    0.714    0.000    0.000    0.000    0.000 
#    0.000    0.000    0.000    0.000    0.000    0.000 
#
# Total GULP energy -78239.180475 kJ/mol
# GULP energy per Si atom -5588.512891 kJ/mol
# Density = 2.283695 g / cm^3
# Si number density = 22.889050 Si / 1000 Ang^3
#
#
#
# Elastic Constant Matrix: (Units=GPa)
#
#
# Indices 1 2 3 4 5 6 
#
# 1 98.1439 44.2280 33.9972 0.5126 -12.6517 26.8775
# 2 44.2280 123.1805 21.7464 7.2354 -5.5210 20.7850
# 3 33.9972 21.7464 85.2413 14.9252 -6.0213 11.3990
# 4 0.5126 7.2354 14.9252 29.3432 6.3190 2.6466
# 5 -12.6517 -5.5210 -6.0213 6.3190 47.8675 11.9013
# 6 26.8775 20.7850 11.3990 2.6466 11.9013 25.6470
#
#
#
# Elastic Compliance Matrix: (Units=1/GPa)
#
#
# Indices 1 2 3 4 5 6 
#
# 1 0.019877 -0.002458 -0.004124 0.002256 0.009540 -0.021665
# 2 -0.002458 0.010416 -0.000190 -0.002364 0.002506 -0.006700
# 3 -0.004124 -0.000190 0.015369 -0.008004 0.002552 -0.002713
# 4 0.002256 -0.002364 -0.008004 0.039903 -0.006443 0.001981
# 5 0.009540 0.002506 0.002552 -0.006443 0.031630 -0.027175
# 6 -0.021665 -0.006700 -0.002713 0.001981 -0.027175 0.080737
#
#
# Mechanical properties :
#
#
# Convention : Reuss Voigt Hill
#
# Bulk Modulus (GPa) = 31.13623 56.27879 43.70751
# Shear Modulus (GPa) = 22.50411 34.34448 28.42429
#
# Velocity S-wave (km/s) = 3.13898 3.87780 3.52778
# Velocity P-wave (km/s) = 5.17399 6.68512 5.97750
#
# Compressibility (1/GPa) = 0.03211693
#
# Stress axis : x y z
#
# Youngs Moduli (GPa) = 50.31050 96.00717 65.06452
#
# Poissons Ratio (x) = 0.23597 0.26836
# Poissons Ratio (y) = 0.12366 0.01237
# Poissons Ratio (z) = 0.20750 0.01825
#
# Static dielectric constant tensor:
#      x y z
#    x 0.736160 0.324680 -0.559770 
#    y 0.324680 1.799460 0.180780 
#    z -0.559770 0.180780 1.516900 
# 
# From -- ./inp_files/308492.got.cif
#   From: 2010.05.17/outbox.cif.g08.bks.cpg/sg2_155_cif.got.tgz:308492.got - 2010.06.03 11:33:40.
