data_PCOD9010781
_publ_section_title
;
Structure prediction by ZEFSAII (Michael W. Deem and Ramdas Pophale) SiO2 
 PCOD9010781
Probable space group: P -1
;
_chemical_formula_sum "Si O2"
_cell_formula_units_Z 15
_cell_length_a 22.068665
_cell_length_b 10.438457
_cell_length_c 12.396910
_cell_angle_alpha 135.217631
_cell_angle_beta 156.988033
_cell_angle_gamma 33.323820
_cell_volume 589.470875
_symmetry_space_group_name_H-M "P -1"
_symmetry_group_IT_number 2
_symmetry_cell_setting 'triclinic'
loop_
_space_group_symop_operation_xyz
x,y,z
-x,-y,-z
loop_
_atom_site_type_symbol
_atom_site_label
_atom_site_fract_x
_atom_site_fract_y
_atom_site_fract_z
Si Si1 0.647539 0.039245 0.814306
Si Si2 0.691498 0.712796 0.329744
Si Si3 0.966097 0.533324 0.093360
Si Si4 0.562419 0.435987 0.247204
Si Si5 0.002434 0.112828 0.873279
Si Si6 0.672962 0.401039 0.815535
Si Si7 0.000000 0.500000 0.500000
Si Si8 0.358503 0.156475 0.964199
O O1 0.515143 0.320374 0.793193
O O2 0.500000 0.000000 0.500000
O O3 0.790394 0.817333 0.999772
O O4 0.811770 0.977007 0.956359
O O5 0.825479 0.578007 0.573069
O O6 0.849324 0.623290 0.436721
O O7 0.526386 0.006230 0.242850
O O8 0.541183 0.660778 0.030459
O O9 0.000000 0.500000 0.000000
O O10 0.926646 0.354840 0.955882
O O11 0.458695 0.527219 0.249563
O O12 0.804937 0.225883 0.541860
O O13 0.117954 0.880749 0.002847
O O14 0.500000 0.500000 0.500000
O O15 0.740404 0.562644 0.031030
O O16 0.144111 0.224246 0.631589
O O17 0.500000 0.000000 0.000000
#
# Coordination Sequence:
#
# PCOD9010781 Si02
#       8
#     2   2   2   2   2   2   1   2
#     4  10  21  43  70  92 132 176 227 287 352 418
#     4  11  24  43  69 102 144 184 235 290 346 421
#     4  10  22  46  70  98 137 190 232 288 359 420
#     4  11  23  41  65 104 136 176 233 296 343 417
#     4  10  23  40  69  94 136 177 235 283 351 415
#     4  11  23  39  63  99 135 180 231 283 338 413
#     4  10  22  42  66  96 136 190 222 272 352 414
#     4  10  21  40  64  91 140 182 226 275 344 411
#
# _framework density 25.446549999999998
#
# number of rings (size 3 to 8) (size 9 to 14) (size 15 to 20)
#    0.000    1.600    4.000    0.800    1.867    2.133 
#    4.800    2.667    0.000    0.000    0.000    0.000 
#    0.000    0.000    0.000    0.000    0.000    0.000 
#
# Total GULP energy -83544.186636 kJ/mol
# GULP energy per Si atom -5569.612442 kJ/mol
# Density = 2.538863 g / cm^3
# Si number density = 25.446550 Si / 1000 Ang^3
#
#
#
# Elastic Constant Matrix: (Units=GPa)
#
#
# Indices 1 2 3 4 5 6 
#
# 1 88.0788 22.3935 34.0113 -12.3062 1.8952 -11.2627
# 2 22.3935 174.9966 51.3807 -37.2859 -0.3065 46.6434
# 3 34.0113 51.3807 171.0697 -44.1579 -12.5050 19.4906
# 4 -12.3062 -37.2859 -44.1579 58.8361 6.7721 -5.5819
# 5 1.8952 -0.3065 -12.5050 6.7721 47.2168 -9.1911
# 6 -11.2627 46.6434 19.4906 -5.5819 -9.1911 23.0845
#
#
#
# Elastic Compliance Matrix: (Units=1/GPa)
#
#
# Indices 1 2 3 4 5 6 
#
# 1 0.023518 -0.016017 -0.006755 -0.006369 0.008044 0.051203
# 2 -0.016017 0.027794 0.005274 0.013065 -0.013397 -0.070600
# 3 -0.006755 0.005274 0.009811 0.007536 -0.002331 -0.021341
# 4 -0.006369 0.013065 0.007536 0.027438 -0.007902 -0.032381
# 5 0.008044 -0.013397 -0.002331 -0.007902 0.029625 0.042846
# 6 0.051203 -0.070600 -0.021341 -0.032381 0.042846 0.238198
#
#
# Mechanical properties :
#
#
# Convention : Reuss Voigt Hill
#
# Bulk Modulus (GPa) = 38.27483 72.19067 55.23275
# Shear Modulus (GPa) = 12.49721 47.58479 30.04100
#
# Velocity S-wave (km/s) = 2.21852 4.32903 3.43964
# Velocity P-wave (km/s) = 4.65149 7.30879 6.12596
#
# Compressibility (1/GPa) = 0.02612683
#
# Stress axis : x y z
#
# Youngs Moduli (GPa) = 42.51997 35.97956 101.92683
#
# Poissons Ratio (x) = 0.57627 0.68851
# Poissons Ratio (y) = 0.68103 -0.53751
# Poissons Ratio (z) = 0.28722 -0.18974
#
# Static dielectric constant tensor:
#      x y z
#    x 0.980370 0.483970 0.495630 
#    y 0.483970 2.027430 -0.261800 
#    z 0.495630 -0.261800 1.267940 
# 
# From -- ./inp_files/543983.got.cif
#   From: 2010.05.17/outbox.cif.g08.bks.cpg/sg2_272_cif.got.tgz:543983.got - 2010.06.03 11:33:40.
