data_PCOD9010599
_publ_section_title
;
Structure prediction by ZEFSAII (Michael W. Deem and Ramdas Pophale) SiO2 
 PCOD9010599
Probable space group: P -1
;
_chemical_formula_sum "Si O2"
_cell_formula_units_Z 16
_cell_length_a 8.748130
_cell_length_b 7.330791
_cell_length_c 22.973279
_cell_angle_alpha 38.911237
_cell_angle_beta 40.741771
_cell_angle_gamma 48.637327
_cell_volume 594.763570
_symmetry_space_group_name_H-M "P -1"
_symmetry_group_IT_number 2
_symmetry_cell_setting 'triclinic'
loop_
_space_group_symop_operation_xyz
x,y,z
-x,-y,-z
loop_
_atom_site_type_symbol
_atom_site_label
_atom_site_fract_x
_atom_site_fract_y
_atom_site_fract_z
Si Si1 0.882014 0.941084 0.889486
Si Si2 0.603138 0.357927 0.769238
Si Si3 0.253770 0.885982 0.610767
Si Si4 0.463966 0.588572 0.422499
Si Si5 0.963729 0.761404 0.518514
Si Si6 0.319031 0.590366 0.081912
Si Si7 0.414564 0.829935 0.795585
Si Si8 0.877147 0.484415 0.163141
O O1 0.779334 0.132950 0.814273
O O2 0.700979 0.099752 0.953034
O O3 0.135611 0.964082 0.840168
O O4 0.955322 0.616156 0.918043
O O5 0.755507 0.573646 0.638785
O O6 0.375912 0.279691 0.818723
O O7 0.431585 0.562469 0.812161
O O8 0.322563 0.569919 0.638108
O O9 0.191427 0.812745 0.712524
O O10 0.500000 0.000000 0.500000
O O11 0.067814 0.069240 0.575520
O O12 0.500000 0.500000 0.500000
O O13 0.453291 0.928996 0.330640
O O14 0.202952 0.524093 0.501466
O O15 0.000000 0.000000 0.500000
O O16 0.065100 0.583023 0.128639
O O17 0.418248 0.325105 0.163216
O O18 0.500000 0.500000 0.000000
#
# Coordination Sequence:
#
# PCOD9010599 Si02
#       8
#     2   2   2   2   2   2   2   2
#     4  10  24  44  73  98 139 181 217 289 362 413
#     4  10  21  40  63  96 138 183 226 279 349 404
#     4  12  26  41  57 100 142 181 239 278 335 412
#     4  12  23  36  66  93 132 189 228 277 333 390
#     4  12  22  37  62  93 131 185 242 280 323 409
#     4  11  26  49  77 105 132 176 237 298 360 427
#     4  10  21  42  67 103 135 178 235 281 345 421
#     4  11  25  45  67  99 143 178 232 294 344 426
#
# _framework density 26.901446
#
# number of rings (size 3 to 8) (size 9 to 14) (size 15 to 20)
#    0.000    1.000    3.750    2.250    5.250    4.500 
#    0.000    5.625    0.000    0.000    0.000    0.000 
#    0.000    0.000    0.000    0.000    0.000    0.000 
#
# Total GULP energy -89271.195943 kJ/mol
# GULP energy per Si atom -5579.449746 kJ/mol
# Density = 2.684022 g / cm^3
# Si number density = 26.901446 Si / 1000 Ang^3
#
#
#
# Elastic Constant Matrix: (Units=GPa)
#
#
# Indices 1 2 3 4 5 6 
#
# 1 105.7616 39.1290 25.8654 12.1713 -5.9846 -19.5228
# 2 39.1290 138.4859 32.5419 38.4850 -0.0301 -15.0073
# 3 25.8654 32.5419 80.5345 10.9606 8.1558 -9.0167
# 4 12.1713 38.4850 10.9606 33.6251 2.2485 -2.1552
# 5 -5.9846 -0.0301 8.1558 2.2485 41.3682 5.4325
# 6 -19.5228 -15.0073 -9.0167 -2.1552 5.4325 53.2505
#
#
#
# Elastic Compliance Matrix: (Units=1/GPa)
#
#
# Indices 1 2 3 4 5 6 
#
# 1 0.011634 -0.002100 -0.002619 -0.000886 0.001851 0.003005
# 2 -0.002100 0.011885 -0.002374 -0.012005 0.000611 0.001630
# 3 -0.002619 -0.002374 0.014813 -0.000860 -0.003411 0.001192
# 4 -0.000886 -0.012005 -0.000860 0.044104 -0.002121 -0.001852
# 5 0.001851 0.000611 -0.003411 -0.002121 0.025547 -0.002419
# 6 0.003005 0.001630 0.001192 -0.001852 -0.002419 0.020714
#
#
# Mechanical properties :
#
#
# Convention : Reuss Voigt Hill
#
# Bulk Modulus (GPa) = 41.41063 57.76162 49.58613
# Shear Modulus (GPa) = 33.12799 40.79847 36.96323
#
# Velocity S-wave (km/s) = 3.51302 3.89857 3.71080
# Velocity P-wave (km/s) = 5.64641 6.46400 6.06899
#
# Compressibility (1/GPa) = 0.02414839
#
# Stress axis : x y z
#
# Youngs Moduli (GPa) = 85.95582 84.13999 67.50803
#
# Poissons Ratio (x) = 0.17666 0.17677
# Poissons Ratio (y) = 0.18047 0.16024
# Poissons Ratio (z) = 0.22508 0.19972
#
# Static dielectric constant tensor:
#      x y z
#    x 2.602970 -0.161920 0.114310 
#    y -0.161920 2.263220 -0.055090 
#    z 0.114310 -0.055090 2.142310 
# 
# From -- ./inp_files/206646.got.cif
#   From: 2010.05.17/outbox.cif.g08.bks.cpg/sg2_104_cif.got.tgz:206646.got - 2010.06.03 11:33:40.
