data_PCOD9010854
_publ_section_title
;
Structure prediction by ZEFSAII (Michael W. Deem and Ramdas Pophale) SiO2 
 PCOD9010854
Probable space group: P -1
;
_chemical_formula_sum "Si O2"
_cell_formula_units_Z 16
_cell_length_a 8.327935
_cell_length_b 12.342897
_cell_length_c 8.175396
_cell_angle_alpha 85.237008
_cell_angle_beta 51.761674
_cell_angle_gamma 84.854597
_cell_volume 656.984774
_symmetry_space_group_name_H-M "P -1"
_symmetry_group_IT_number 2
_symmetry_cell_setting 'triclinic'
loop_
_space_group_symop_operation_xyz
x,y,z
-x,-y,-z
loop_
_atom_site_type_symbol
_atom_site_label
_atom_site_fract_x
_atom_site_fract_y
_atom_site_fract_z
Si Si1 0.669347 0.058023 0.781981
Si Si2 0.094411 0.200970 0.813594
Si Si3 0.021276 0.438891 0.233836
Si Si4 0.801232 0.240335 0.244866
Si Si5 0.488302 0.267377 0.706592
Si Si6 0.435739 0.500742 0.850823
Si Si7 0.104796 0.995584 0.668139
Si Si8 0.219047 0.364338 0.456315
O O1 0.592002 0.181815 0.778267
O O2 0.889356 0.046563 0.731584
O O3 0.720214 0.002444 0.580842
O O4 0.500000 0.000000 0.000000
O O5 0.247892 0.251669 0.840937
O O6 0.152193 0.073131 0.779058
O O7 0.148763 0.256151 0.600393
O O8 0.863391 0.228577 0.017103
O O9 0.134517 0.377527 0.324147
O O10 0.890827 0.350289 0.241020
O O11 0.887599 0.538495 0.381726
O O12 0.193605 0.490243 0.006274
O O13 0.584705 0.236842 0.472963
O O14 0.915480 0.129860 0.258187
O O15 0.522762 0.390395 0.722775
O O16 0.542926 0.605183 0.699423
O O17 0.500000 0.500000 0.000000
#
# Coordination Sequence:
#
# PCOD9010854 Si02
#       8
#     2   2   2   2   2   2   2   2
#     4  10  23  41  70  98 127 171 223 269 317 384
#     4  12  26  42  65 100 137 171 213 272 330 388
#     4  10  21  42  68  91 127 172 216 267 324 383
#     4  11  23  43  68  90 135 176 213 265 330 389
#     4  11  24  42  64  95 135 174 212 270 331 387
#     4  10  21  40  64  94 124 170 217 268 320 382
#     4  10  25  42  67  99 131 173 221 267 319 392
#     4  10  24  39  66  97 127 165 222 271 318 385
#
# _framework density 24.353684999999999
#
# number of rings (size 3 to 8) (size 9 to 14) (size 15 to 20)
#    0.000    1.500    2.500    1.125    5.250    6.000 
#    0.000    0.000    0.000    0.000    0.000    0.000 
#    0.000    0.000    0.000    0.000    0.000    0.000 
#
# Total GULP energy -89497.766345 kJ/mol
# GULP energy per Si atom -5593.610397 kJ/mol
# Density = 2.429826 g / cm^3
# Si number density = 24.353685 Si / 1000 Ang^3
#
#
#
# Elastic Constant Matrix: (Units=GPa)
#
#
# Indices 1 2 3 4 5 6 
#
# 1 28.1379 8.1343 9.6398 -6.1749 3.1844 -9.2843
# 2 8.1343 62.8596 18.6967 -10.8481 20.2499 7.1776
# 3 9.6398 18.6967 164.7238 -12.3350 -15.6291 -4.8746
# 4 -6.1749 -10.8481 -12.3350 42.5170 -1.4067 12.5431
# 5 3.1844 20.2499 -15.6291 -1.4067 30.1445 -5.0478
# 6 -9.2843 7.1776 -4.8746 12.5431 -5.0478 32.5061
#
#
#
# Elastic Compliance Matrix: (Units=1/GPa)
#
#
# Indices 1 2 3 4 5 6 
#
# 1 0.042419 -0.007644 -0.000971 -0.000149 0.002505 0.014105
# 2 -0.007644 0.029632 -0.005011 0.009140 -0.024074 -0.016743
# 3 -0.000971 -0.005011 0.007548 0.000103 0.007915 0.003151
# 4 -0.000149 0.009140 0.000103 0.029965 -0.007137 -0.014716
# 5 0.002505 -0.024074 0.007915 -0.007137 0.055976 0.018664
# 6 0.014105 -0.016743 0.003151 -0.014716 0.018664 0.047538
#
#
# Mechanical properties :
#
#
# Convention : Reuss Voigt Hill
#
# Bulk Modulus (GPa) = 19.10298 36.51811 27.81054
# Shear Modulus (GPa) = 19.39630 35.65022 27.52326
#
# Velocity S-wave (km/s) = 2.82519 3.83018 3.36541
# Velocity P-wave (km/s) = 4.30154 5.88115 5.15224
#
# Compressibility (1/GPa) = 0.05234786
#
# Stress axis : x y z
#
# Youngs Moduli (GPa) = 23.57424 33.74693 132.48083
#
# Poissons Ratio (x) = 0.25795 0.12863
# Poissons Ratio (y) = 0.18020 0.66389
# Poissons Ratio (z) = 0.02289 0.16911
#
# Static dielectric constant tensor:
#      x y z
#    x 1.953170 -0.011810 0.009410 
#    y -0.011810 1.873730 -0.006620 
#    z 0.009410 -0.006620 1.955400 
# 
# From -- ./inp_files/186455.got.cif
#   From: 2010.05.17/outbox.cif.g08.bks.cpg/sg2_94_cif.got.tgz:186455.got - 2010.06.03 11:33:40.
