data_PCOD9010615
_publ_section_title
;
Structure prediction by ZEFSAII (Michael W. Deem and Ramdas Pophale) SiO2 
 PCOD9010615
Probable space group: P -1
;
_chemical_formula_sum "Si O2"
_cell_formula_units_Z 16
_cell_length_a 11.174036
_cell_length_b 11.826295
_cell_length_c 11.196490
_cell_angle_alpha 107.833779
_cell_angle_beta 107.037231
_cell_angle_gamma 27.231177
_cell_volume 643.773591
_symmetry_space_group_name_H-M "P -1"
_symmetry_group_IT_number 2
_symmetry_cell_setting 'triclinic'
loop_
_space_group_symop_operation_xyz
x,y,z
-x,-y,-z
loop_
_atom_site_type_symbol
_atom_site_label
_atom_site_fract_x
_atom_site_fract_y
_atom_site_fract_z
Si Si1 0.935112 0.164103 0.951640
Si Si2 0.650432 0.811251 0.374161
Si Si3 0.336904 0.420954 0.104863
Si Si4 0.202845 0.818648 0.722262
Si Si5 0.647705 0.196858 0.455663
Si Si6 0.561225 0.624859 0.296966
Si Si7 0.602206 0.093008 0.877166
Si Si8 0.056490 0.646997 0.335943
O O1 0.966573 0.081425 0.802065
O O2 0.129702 0.105338 0.039164
O O3 0.679981 0.452869 0.950277
O O4 0.000000 0.000000 0.000000
O O5 0.713431 0.621961 0.364437
O O6 0.453563 0.966200 0.251248
O O7 0.911339 0.656694 0.355779
O O8 0.500000 0.000000 0.500000
O O9 0.579224 0.264768 0.202901
O O10 0.110619 0.590809 0.190820
O O11 0.394727 0.266346 0.981289
O O12 0.243101 0.782329 0.580641
O O13 0.263183 0.639003 0.734896
O O14 0.643058 0.214813 0.602157
O O15 0.342405 0.428657 0.407722
O O16 0.846149 0.926493 0.390212
O O17 0.434108 0.765299 0.179157
#
# Coordination Sequence:
#
# PCOD9010615 Si02
#       8
#     2   2   2   2   2   2   2   2
#     4  11  20  36  65  96 134 170 215 279 339 411
#     4  10  22  46  67  92 136 179 230 279 329 397
#     4  10  21  40  66  93 134 171 220 281 340 404
#     4  10  21  40  63  97 134 172 218 280 348 402
#     4  11  23  44  70  98 136 180 226 281 340 406
#     4  10  21  42  64  97 135 174 229 275 343 403
#     4   9  22  41  62  99 127 176 226 270 344 395
#     4  11  23  46  70  97 133 187 228 276 341 393
#
# _framework density 24.853459000000001
#
# number of rings (size 3 to 8) (size 9 to 14) (size 15 to 20)
#    0.750    1.000    2.500    1.875    0.000    3.000 
#   13.500    2.500    0.000    0.000    0.000    0.000 
#    0.000    0.000    0.000    0.000    0.000    0.000 
#
# Total GULP energy -89231.703598 kJ/mol
# GULP energy per Si atom -5576.981475 kJ/mol
# Density = 2.479689 g / cm^3
# Si number density = 24.853459 Si / 1000 Ang^3
#
#
#
# Elastic Constant Matrix: (Units=GPa)
#
#
# Indices 1 2 3 4 5 6 
#
# 1 97.1255 16.4653 43.4502 0.4983 6.0858 -6.8592
# 2 16.4653 59.6845 41.7509 5.4953 8.2251 -10.1875
# 3 43.4502 41.7509 174.9809 15.4028 2.0179 -16.3848
# 4 0.4983 5.4953 15.4028 40.6898 3.5760 -1.2716
# 5 6.0858 8.2251 2.0179 3.5760 38.7171 -0.0461
# 6 -6.8592 -10.1875 -16.3848 -1.2716 -0.0461 21.7306
#
#
#
# Elastic Compliance Matrix: (Units=1/GPa)
#
#
# Indices 1 2 3 4 5 6 
#
# 1 0.011851 -0.001083 -0.002648 0.001185 -0.001603 0.001302
# 2 -0.001083 0.021759 -0.004185 -0.000768 -0.004155 0.006650
# 3 -0.002648 -0.004185 0.007847 -0.002378 0.001119 0.002982
# 4 0.001185 -0.000768 -0.002378 0.025757 -0.002278 -0.000277
# 5 -0.001603 -0.004155 0.001119 -0.002278 0.027113 -0.001686
# 6 0.001302 0.006650 0.002982 -0.000277 -0.001686 0.051775
#
#
# Mechanical properties :
#
#
# Convention : Reuss Voigt Hill
#
# Bulk Modulus (GPa) = 39.02428 59.45819 49.24124
# Shear Modulus (GPa) = 29.32984 35.56915 32.44949
#
# Velocity S-wave (km/s) = 3.43900 3.78716 3.61727
# Velocity P-wave (km/s) = 5.61291 6.56498 6.10753
#
# Compressibility (1/GPa) = 0.02562507
#
# Stress axis : x y z
#
# Youngs Moduli (GPa) = 84.38450 45.95745 127.44395
#
# Poissons Ratio (x) = 0.04976 0.33750
# Poissons Ratio (y) = 0.09137 0.53331
# Poissons Ratio (z) = 0.22347 0.19232
#
# Static dielectric constant tensor:
#      x y z
#    x 2.059530 -0.020560 -0.042450 
#    y -0.020560 2.014720 -0.003660 
#    z -0.042450 -0.003660 2.063360 
# 
# From -- ./inp_files/428392.got.cif
#   From: 2010.05.17/outbox.cif.g08.bks.cpg/sg2_215_cif.got.tgz:428392.got - 2010.06.03 11:33:40.
