data_PCOD9010528
_publ_section_title
;
Structure prediction by ZEFSAII (Michael W. Deem and Ramdas Pophale) SiO2 
 PCOD9010528
Probable space group: P -1
;
_chemical_formula_sum "Si O2"
_cell_formula_units_Z 16
_cell_length_a 11.180023
_cell_length_b 11.920014
_cell_length_c 8.196699
_cell_angle_alpha 128.550738
_cell_angle_beta 122.177918
_cell_angle_gamma 72.413647
_cell_volume 722.324807
_symmetry_space_group_name_H-M "P -1"
_symmetry_group_IT_number 2
_symmetry_cell_setting 'triclinic'
loop_
_space_group_symop_operation_xyz
x,y,z
-x,-y,-z
loop_
_atom_site_type_symbol
_atom_site_label
_atom_site_fract_x
_atom_site_fract_y
_atom_site_fract_z
Si Si1 0.376982 0.460080 0.000867
Si Si2 0.959830 0.291165 0.976698
Si Si3 0.694369 0.277330 0.577341
Si Si4 0.505366 0.783584 0.910087
Si Si5 0.239551 0.116676 0.052647
Si Si6 0.528280 0.947844 0.650671
Si Si7 0.922469 0.135784 0.144343
Si Si8 0.062515 0.420912 0.629872
O O1 0.231310 0.424265 0.768026
O O2 0.500000 0.500000 0.000000
O O3 0.346723 0.587596 0.220511
O O4 0.428727 0.330575 0.028177
O O5 0.882863 0.223955 0.027604
O O6 0.981082 0.464219 0.160447
O O7 0.110707 0.218853 0.020512
O O8 0.858940 0.257760 0.718529
O O9 0.623532 0.285852 0.355091
O O10 0.606738 0.142534 0.466721
O O11 0.635296 0.848313 0.952838
O O12 0.454284 0.912810 0.097843
O O13 0.328911 0.139711 0.306859
O O14 0.176599 0.954239 0.881274
O O15 0.500000 0.000000 0.500000
O O16 0.005757 0.257301 0.421382
O O17 0.000000 0.000000 0.000000
O O18 0.000000 0.500000 0.500000
#
# Coordination Sequence:
#
# PCOD9010528 Si02
#       8
#     2   2   2   2   2   2   2   2
#     4  11  24  43  67  93 123 172 220 265 325 388
#     4   9  19  37  62  91 127 175 219 261 316 380
#     4  10  21  41  63  92 131 164 211 268 318 381
#     4  11  25  43  62  96 131 164 213 270 328 388
#     4  10  21  40  63  93 130 172 210 261 326 379
#     4  11  23  42  66  93 126 167 215 267 317 388
#     4   9  18  34  60  94 131 172 215 258 311 377
#     4   9  20  38  60  94 128 158 217 274 308 373
#
# _framework density 22.150701999999999
#
# number of rings (size 3 to 8) (size 9 to 14) (size 15 to 20)
#    0.000    2.000    0.000    3.375    0.000   13.000 
#    0.000   11.875    0.000    0.000    0.000    0.000 
#    0.000    0.000    0.000    0.000    0.000    0.000 
#
# Total GULP energy -89214.903951 kJ/mol
# GULP energy per Si atom -5575.931497 kJ/mol
# Density = 2.210029 g / cm^3
# Si number density = 22.150702 Si / 1000 Ang^3
#
#
#
# Elastic Constant Matrix: (Units=GPa)
#
#
# Indices 1 2 3 4 5 6 
#
# 1 83.4004 68.2844 54.6815 -2.6365 29.3891 -18.3814
# 2 68.2844 150.8805 64.9370 -1.4905 30.4094 -7.5896
# 3 54.6815 64.9370 175.9739 -19.8165 11.4203 -22.8873
# 4 -2.6365 -1.4905 -19.8165 68.7797 16.6931 11.4230
# 5 29.3891 30.4094 11.4203 16.6931 56.0971 1.5602
# 6 -18.3814 -7.5896 -22.8873 11.4230 1.5602 40.9054
#
#
#
# Elastic Compliance Matrix: (Units=1/GPa)
#
#
# Indices 1 2 3 4 5 6 
#
# 1 0.025688 -0.007990 -0.003298 0.000623 -0.008874 0.008380
# 2 -0.007990 0.011227 -0.001873 0.000186 -0.001503 -0.002550
# 3 -0.003298 -0.001873 0.007806 0.001587 0.000624 0.002071
# 4 0.000623 0.000186 0.001587 0.016959 -0.005705 -0.003316
# 5 -0.008874 -0.001503 0.000624 -0.005705 0.024951 -0.003276
# 6 0.008380 -0.002550 0.002071 -0.003316 -0.003276 0.029949
#
#
# Mechanical properties :
#
#
# Convention : Reuss Voigt Hill
#
# Bulk Modulus (GPa) = 54.35205 87.34005 70.84605
# Shear Modulus (GPa) = 33.54889 47.97990 40.76440
#
# Velocity S-wave (km/s) = 3.89598 4.65915 4.29455
# Velocity P-wave (km/s) = 6.69543 8.27400 7.52622
#
# Compressibility (1/GPa) = 0.01839857
#
# Stress axis : x y z
#
# Youngs Moduli (GPa) = 38.92828 89.07473 128.10377
#
# Poissons Ratio (x) = 0.71174 0.42245
# Poissons Ratio (y) = 0.31105 0.23996
# Poissons Ratio (z) = 0.12838 0.16685
#
# Static dielectric constant tensor:
#      x y z
#    x 1.958200 0.009250 -0.056220 
#    y 0.009250 1.799450 -0.039900 
#    z -0.056220 -0.039900 1.876520 
# 
# From -- ./inp_files/263642.got.cif
#   From: 2010.05.17/outbox.cif.g08.bks.cpg/sg2_132_cif.got.tgz:263642.got - 2010.06.03 11:33:40.
