data_PCOD9010103
_publ_section_title
;
Structure prediction by ZEFSAII (Michael W. Deem and Ramdas Pophale) SiO2 
 PCOD9010103
Probable space group: P -1
;
_chemical_formula_sum "Si O2"
_cell_formula_units_Z 16
_cell_length_a 8.872108
_cell_length_b 19.815584
_cell_length_c 9.064872
_cell_angle_alpha 122.404931
_cell_angle_beta 148.143936
_cell_angle_gamma 53.940150
_cell_volume 677.542289
_symmetry_space_group_name_H-M "P -1"
_symmetry_group_IT_number 2
_symmetry_cell_setting 'triclinic'
loop_
_space_group_symop_operation_xyz
x,y,z
-x,-y,-z
loop_
_atom_site_type_symbol
_atom_site_label
_atom_site_fract_x
_atom_site_fract_y
_atom_site_fract_z
Si Si1 0.767710 0.711524 0.968762
Si Si2 0.910928 0.056393 0.845061
Si Si3 0.752464 0.198571 0.528670
Si Si4 0.329648 0.516977 0.686157
Si Si5 0.158846 0.623474 0.937756
Si Si6 0.813356 0.618102 0.199321
Si Si7 0.432492 0.756176 0.248717
Si Si8 0.559499 0.043587 0.252342
O O1 0.834175 0.663686 0.119433
O O2 0.932558 0.783679 0.178132
O O3 0.910438 0.647352 0.882371
O O4 0.420113 0.752754 0.697978
O O5 0.679809 0.149084 0.793167
O O6 0.756327 0.015907 0.537165
O O7 0.216689 0.073978 0.063643
O O8 0.000000 0.000000 0.000000
O O9 0.556034 0.234006 0.553591
O O10 0.738053 0.105359 0.409746
O O11 0.528434 0.422674 0.771718
O O12 0.114481 0.546398 0.405241
O O13 0.145155 0.556235 0.726128
O O14 0.563977 0.570557 0.929891
O O15 0.183779 0.706655 0.975722
O O16 0.710424 0.692602 0.322531
O O17 0.500000 0.000000 0.000000
#
# Coordination Sequence:
#
# PCOD9010103 Si02
#       8
#     2   2   2   2   2   2   2   2
#     4  11  22  37  60  89 120 157 205 257 310 360
#     4  11  24  43  67  98 131 167 211 262 324 383
#     4  10  21  40  62  86 116 162 210 247 298 378
#     4  10  22  38  58  86 120 161 207 250 304 369
#     4   9  20  38  61  84 117 163 208 250 300 369
#     4  11  23  38  58  90 124 156 200 259 312 357
#     4   9  21  41  64  86 120 164 209 252 303 376
#     4  11  23  43  67  95 129 166 211 263 319 382
#
# _framework density 23.614761999999999
#
# number of rings (size 3 to 8) (size 9 to 14) (size 15 to 20)
#    0.000    1.750    0.000    4.500    0.000   11.500 
#    0.000    5.000    0.000    0.000    0.000    0.000 
#    0.000    0.000    0.000    0.000    0.000    0.000 
#
# Total GULP energy -89322.632377 kJ/mol
# GULP energy per Si atom -5582.664524 kJ/mol
# Density = 2.356101 g / cm^3
# Si number density = 23.614762 Si / 1000 Ang^3
#
#
#
# Elastic Constant Matrix: (Units=GPa)
#
#
# Indices 1 2 3 4 5 6 
#
# 1 39.1729 27.0476 13.9567 4.0749 -10.0617 14.5373
# 2 27.0476 111.6708 35.7579 5.6799 -15.6065 21.7222
# 3 13.9567 35.7579 137.1908 1.5148 -11.7731 3.9812
# 4 4.0749 5.6799 1.5148 45.5177 2.7013 -5.8644
# 5 -10.0617 -15.6065 -11.7731 2.7013 26.7242 -11.6901
# 6 14.5373 21.7222 3.9812 -5.8644 -11.6901 30.1315
#
#
#
# Elastic Compliance Matrix: (Units=1/GPa)
#
#
# Indices 1 2 3 4 5 6 
#
# 1 0.035794 -0.004816 -0.001548 -0.004461 0.004946 -0.012542
# 2 -0.004816 0.012409 -0.002381 -0.001918 0.001995 -0.005907
# 3 -0.001548 -0.002381 0.008224 0.000322 0.002706 0.002489
# 4 -0.004461 -0.001918 0.000322 0.023658 -0.001815 0.007392
# 5 0.004946 0.001995 0.002706 -0.001815 0.047981 0.014080
# 6 -0.012542 -0.005907 0.002489 0.007392 0.014080 0.050070
#
#
# Mechanical properties :
#
#
# Convention : Reuss Voigt Hill
#
# Bulk Modulus (GPa) = 25.68290 49.06207 37.37248
# Shear Modulus (GPa) = 23.96893 34.55951 29.26422
#
# Velocity S-wave (km/s) = 3.18936 3.82968 3.52409
# Velocity P-wave (km/s) = 4.94592 6.35424 5.69379
#
# Compressibility (1/GPa) = 0.03893642
#
# Stress axis : x y z
#
# Youngs Moduli (GPa) = 27.93787 80.58695 121.60189
#
# Poissons Ratio (x) = 0.38809 0.18829
# Poissons Ratio (y) = 0.13454 0.28949
# Poissons Ratio (z) = 0.04326 0.19185
#
# Static dielectric constant tensor:
#      x y z
#    x 1.878590 -0.031600 -0.009600 
#    y -0.031600 1.934930 0.017240 
#    z -0.009600 0.017240 1.952310 
# 
# From -- ./inp_files/223954.got.cif
#   From: 2010.05.17/outbox.cif.g08.bks.cpg/sg2_112_cif.got.tgz:223954.got - 2010.06.03 11:33:40.
