data_PCOD9010654
_publ_section_title
;
Structure prediction by ZEFSAII (Michael W. Deem and Ramdas Pophale) SiO2 
 PCOD9010654
Probable space group: P -1
;
_chemical_formula_sum "Si O2"
_cell_formula_units_Z 16
_cell_length_a 14.288769
_cell_length_b 12.488029
_cell_length_c 11.546253
_cell_angle_alpha 102.433389
_cell_angle_beta 29.997804
_cell_angle_gamma 122.954867
_cell_volume 685.067675
_symmetry_space_group_name_H-M "P -1"
_symmetry_group_IT_number 2
_symmetry_cell_setting 'triclinic'
loop_
_space_group_symop_operation_xyz
x,y,z
-x,-y,-z
loop_
_atom_site_type_symbol
_atom_site_label
_atom_site_fract_x
_atom_site_fract_y
_atom_site_fract_z
Si Si1 0.561122 0.898532 0.402222
Si Si2 0.878161 0.456435 0.247055
Si Si3 0.383040 0.408724 0.728024
Si Si4 0.943763 0.997151 0.695828
Si Si5 0.974673 0.058562 0.177537
Si Si6 0.976915 0.601702 0.391070
Si Si7 0.368436 0.719622 0.180466
Si Si8 0.390522 0.354432 0.272628
O O1 0.282453 0.726750 0.609668
O O2 0.500000 0.000000 0.500000
O O3 0.821543 0.958416 0.067316
O O4 0.671675 0.910382 0.415232
O O5 0.620932 0.428251 0.517017
O O6 0.077148 0.601967 0.158737
O O7 0.000000 0.500000 0.000000
O O8 0.500000 0.500000 0.500000
O O9 0.393671 0.511950 0.832384
O O10 0.111059 0.219304 0.998734
O O11 0.010735 0.926602 0.695628
O O12 0.620109 0.881397 0.015197
O O13 0.000000 0.000000 0.500000
O O14 0.145739 0.181972 0.556142
O O15 0.829857 0.428326 0.554373
O O16 0.759499 0.606302 0.616164
O O17 0.208346 0.728994 0.265953
O O18 0.478778 0.668379 0.967999
#
# Coordination Sequence:
#
# PCOD9010654 Si02
#       8
#     2   2   2   2   2   2   2   2
#     4  10  23  39  64  91 121 171 204 251 324 369
#     4  10  23  38  57  89 129 154 206 259 301 377
#     4  10  23  39  63  92 120 167 205 249 322 373
#     4  10  22  40  64  92 124 167 206 257 311 364
#     4  10  23  43  62  89 134 157 208 268 301 376
#     4  10  22  40  59  91 117 166 206 256 309 367
#     4  10  21  40  64  84 125 158 209 259 309 357
#     4  10  22  37  62  89 121 157 209 249 311 371
#
# _framework density 23.355357000000001
#
# number of rings (size 3 to 8) (size 9 to 14) (size 15 to 20)
#    0.000    2.000    0.000    2.625    8.750    3.500 
#    0.000    5.000    0.000    0.000    0.000    0.000 
#    0.000    0.000    0.000    0.000    0.000    0.000 
#
# Total GULP energy -89188.801486 kJ/mol
# GULP energy per Si atom -5574.300093 kJ/mol
# Density = 2.330220 g / cm^3
# Si number density = 23.355357 Si / 1000 Ang^3
#
#
#
# Elastic Constant Matrix: (Units=GPa)
#
#
# Indices 1 2 3 4 5 6 
#
# 1 90.8419 -1.2541 10.9965 -6.6229 8.5443 2.0965
# 2 -1.2541 64.1621 5.4890 -3.6413 0.3348 -0.4522
# 3 10.9965 5.4890 47.2985 -3.3750 4.2378 3.0332
# 4 -6.6229 -3.6413 -3.3750 39.7967 -0.8781 -11.6000
# 5 8.5443 0.3348 4.2378 -0.8781 33.7713 2.9989
# 6 2.0965 -0.4522 3.0332 -11.6000 2.9989 32.2643
#
#
#
# Elastic Compliance Matrix: (Units=1/GPa)
#
#
# Indices 1 2 3 4 5 6 
#
# 1 0.011685 0.000558 -0.002438 0.001843 -0.002642 0.000386
# 2 0.000558 0.015861 -0.001905 0.001664 -0.000103 0.000973
# 3 -0.002438 -0.001905 0.022264 0.000834 -0.002005 -0.001475
# 4 0.001843 0.001664 0.000834 0.028608 -0.000748 0.010180
# 5 -0.002642 -0.000103 -0.002005 -0.000748 0.030759 -0.002769
# 6 0.000386 0.000973 -0.001475 0.010180 -0.002769 0.035039
#
#
# Mechanical properties :
#
#
# Convention : Reuss Voigt Hill
#
# Bulk Modulus (GPa) = 23.67392 25.86282 24.76837
# Shear Modulus (GPa) = 30.14493 33.63788 31.89141
#
# Velocity S-wave (km/s) = 3.59654 3.79920 3.69926
# Velocity P-wave (km/s) = 5.23500 5.50844 5.37346
#
# Compressibility (1/GPa) = 0.04224057
#
# Stress axis : x y z
#
# Youngs Moduli (GPa) = 85.58022 63.04685 44.91565
#
# Poissons Ratio (x) = -0.03518 0.10950
# Poissons Ratio (y) = -0.04776 0.08556
# Poissons Ratio (z) = 0.20864 0.12010
#
# Static dielectric constant tensor:
#      x y z
#    x 2.016330 0.015300 0.010580 
#    y 0.015300 2.344960 0.443440 
#    z 0.010580 0.443440 2.470870 
# 
# From -- ./inp_files/452446.got.cif
#   From: 2010.05.17/outbox.cif.g08.bks.cpg/sg2_227_cif.got.tgz:452446.got - 2010.06.03 11:33:40.
