data_PCOD9010539
_publ_section_title
;
Structure prediction by ZEFSAII (Michael W. Deem and Ramdas Pophale) SiO2 
 PCOD9010539
Probable space group: P -1
;
_chemical_formula_sum "Si O2"
_cell_formula_units_Z 16
_cell_length_a 10.878997
_cell_length_b 11.840637
_cell_length_c 6.825754
_cell_angle_alpha 109.415105
_cell_angle_beta 69.564800
_cell_angle_gamma 104.762318
_cell_volume 767.432484
_symmetry_space_group_name_H-M "P -1"
_symmetry_group_IT_number 2
_symmetry_cell_setting 'triclinic'
loop_
_space_group_symop_operation_xyz
x,y,z
-x,-y,-z
loop_
_atom_site_type_symbol
_atom_site_label
_atom_site_fract_x
_atom_site_fract_y
_atom_site_fract_z
Si Si1 0.477958 0.450883 0.769475
Si Si2 0.874424 0.735815 0.489347
Si Si3 0.856219 0.117853 0.707816
Si Si4 0.593634 0.798476 0.526232
Si Si5 0.273561 0.514274 0.626482
Si Si6 0.117857 0.081455 0.098565
Si Si7 0.324521 0.783662 0.829233
Si Si8 0.711713 0.011569 0.348323
O O1 0.457117 0.306419 0.662707
O O2 0.346738 0.493106 0.777115
O O3 0.609945 0.501036 0.601517
O O4 0.500000 0.500000 0.000000
O O5 0.737061 0.775525 0.509300
O O6 0.848635 0.590712 0.404875
O O7 0.896606 0.789553 0.727903
O O8 0.001399 0.797159 0.330284
O O9 0.816897 0.075044 0.485913
O O10 0.863381 0.000597 0.769723
O O11 0.744393 0.181568 0.914069
O O12 0.482542 0.781182 0.748698
O O13 0.605239 0.930395 0.498426
O O14 0.252618 0.652929 0.719802
O O15 0.236198 0.086031 0.880371
O O16 0.000000 0.000000 0.000000
O O17 0.313818 0.883950 0.726242
#
# Coordination Sequence:
#
# PCOD9010539 Si02
#       8
#     2   2   2   2   2   2   2   2
#     4   9  19  37  62  88 121 162 197 254 305 348
#     4  11  21  40  68  91 118 159 205 261 304 347
#     4  11  23  41  63  87 127 162 199 253 308 357
#     4  10  21  40  63  94 123 152 210 254 299 362
#     4   9  21  40  57  90 125 154 206 250 294 365
#     4  11  21  37  64  91 124 155 201 262 309 349
#     4  10  24  42  59  87 131 166 194 245 304 370
#     4  11  22  39  61  93 123 162 203 245 306 371
#
# _framework density 20.848741
#
# number of rings (size 3 to 8) (size 9 to 14) (size 15 to 20)
#    0.000    1.750    2.500    2.250    1.750    3.000 
#    2.250    0.625    0.000    0.000    0.000    0.000 
#    0.000    0.000    0.000    0.000    0.000    0.000 
#
# Total GULP energy -89282.400587 kJ/mol
# GULP energy per Si atom -5580.150037 kJ/mol
# Density = 2.080129 g / cm^3
# Si number density = 20.848741 Si / 1000 Ang^3
#
#
#
# Elastic Constant Matrix: (Units=GPa)
#
#
# Indices 1 2 3 4 5 6 
#
# 1 46.9713 18.2365 37.9572 -2.5413 -6.5863 20.5180
# 2 18.2365 105.5813 27.5855 8.2957 -9.0499 26.3668
# 3 37.9572 27.5855 109.7837 7.7348 1.8463 16.2736
# 4 -2.5413 8.2957 7.7348 18.7638 2.8529 -1.2689
# 5 -6.5863 -9.0499 1.8463 2.8529 32.9914 -2.7453
# 6 20.5180 26.3668 16.2736 -1.2689 -2.7453 35.1483
#
#
#
# Elastic Compliance Matrix: (Units=1/GPa)
#
#
# Indices 1 2 3 4 5 6 
#
# 1 0.039590 0.000515 -0.011940 0.007891 0.006602 -0.017169
# 2 0.000515 0.012881 -0.001692 -0.006076 0.003497 -0.009126
# 3 -0.011940 -0.001692 0.013943 -0.006071 -0.002992 0.001331
# 4 0.007891 -0.006076 -0.006071 0.060563 -0.004607 0.004589
# 5 0.006602 0.003497 -0.002992 -0.004607 0.032931 -0.002686
# 6 -0.017169 -0.009126 0.001331 0.004589 -0.002686 0.044658
#
#
# Mechanical properties :
#
#
# Convention : Reuss Voigt Hill
#
# Bulk Modulus (GPa) = 24.88847 47.76609 36.32728
# Shear Modulus (GPa) = 20.47552 29.28449 24.88001
#
# Velocity S-wave (km/s) = 3.13724 3.75189 3.45825
# Velocity P-wave (km/s) = 5.00866 6.45983 5.77997
#
# Compressibility (1/GPa) = 0.04017925
#
# Stress axis : x y z
#
# Youngs Moduli (GPa) = 25.25861 77.63512 71.72083
#
# Poissons Ratio (x) = -0.03995 0.85632
# Poissons Ratio (y) = -0.01300 0.12139
# Poissons Ratio (z) = 0.30158 0.13140
#
# Static dielectric constant tensor:
#      x y z
#    x 1.816970 -0.011430 -0.033640 
#    y -0.011430 1.796330 0.001360 
#    z -0.033640 0.001360 1.735710 
# 
# From -- ./inp_files/71716.got.cif
#   From: 2010.05.17/outbox.cif.g08.bks.cpg/sg2_36_cif.got.tgz:71716.got - 2010.06.03 11:33:40.
