data_PCOD9010287
_publ_section_title
;
Structure prediction by ZEFSAII (Michael W. Deem and Ramdas Pophale) SiO2 
 PCOD9010287
Probable space group: P -1
;
_chemical_formula_sum "Si O2"
_cell_formula_units_Z 16
_cell_length_a 10.871763
_cell_length_b 18.537884
_cell_length_c 19.742210
_cell_angle_alpha 20.770739
_cell_angle_beta 147.586762
_cell_angle_gamma 147.585679
_cell_volume 724.154121
_symmetry_space_group_name_H-M "P -1"
_symmetry_group_IT_number 2
_symmetry_cell_setting 'triclinic'
loop_
_space_group_symop_operation_xyz
x,y,z
-x,-y,-z
loop_
_atom_site_type_symbol
_atom_site_label
_atom_site_fract_x
_atom_site_fract_y
_atom_site_fract_z
Si Si1 0.774591 0.310927 0.716769
Si Si2 0.246558 0.076115 0.859193
Si Si3 0.955914 0.872865 0.425827
Si Si4 0.272299 0.515610 0.130397
Si Si5 0.399836 0.122497 0.484774
Si Si6 0.613753 0.010489 0.256210
Si Si7 0.362500 0.525206 0.321054
Si Si8 0.944982 0.350768 0.538880
O O1 0.575900 0.435628 0.527165
O O2 0.009781 0.481500 0.649644
O O3 0.642199 0.158249 0.728042
O O4 0.791581 0.149608 0.924841
O O5 0.116515 0.070867 0.731477
O O6 0.522759 0.220307 0.850171
O O7 0.137023 0.220262 0.731888
O O8 0.870182 0.617671 0.622535
O O9 0.309796 0.011502 0.612453
O O10 0.234046 0.978187 0.478133
O O11 0.350299 0.350254 0.265409
O O12 0.307701 0.464379 0.270148
O O13 0.413393 0.758296 0.970735
O O14 0.000000 0.500000 0.000000
O O15 0.685351 0.182070 0.562245
O O16 0.198126 0.033548 0.672619
O O17 0.000000 0.500000 0.500000
#
# Coordination Sequence:
#
# PCOD9010287 Si02
#       8
#     2   2   2   2   2   2   2   2
#     4  10  21  41  66  93 123 164 213 264 307 370
#     4  11  24  43  65  94 128 172 213 254 321 374
#     4  11  23  41  63  95 135 168 202 262 320 389
#     4  12  21  36  62  96 128 161 204 254 321 373
#     4  12  23  43  63  95 135 162 214 267 311 372
#     4  11  21  38  65  97 126 164 211 260 321 375
#     4  10  21  40  62  96 128 162 207 257 314 378
#     4  11  24  44  67  92 123 167 221 269 304 371
#
# _framework density 22.094745
#
# number of rings (size 3 to 8) (size 9 to 14) (size 15 to 20)
#    0.000    1.000    6.250    2.250    0.000    4.000 
#    4.500    0.625    0.000    0.000    0.000    0.000 
#    0.000    0.000    0.000    0.000    0.000    0.000 
#
# Total GULP energy -89441.808924 kJ/mol
# GULP energy per Si atom -5590.113058 kJ/mol
# Density = 2.204446 g / cm^3
# Si number density = 22.094745 Si / 1000 Ang^3
#
#
#
# Elastic Constant Matrix: (Units=GPa)
#
#
# Indices 1 2 3 4 5 6 
#
# 1 77.1885 32.7744 32.2103 2.2964 -10.6265 0.5825
# 2 32.7744 127.9270 21.9067 9.3631 -20.8931 -1.1303
# 3 32.2103 21.9067 110.3397 -18.3741 -22.0795 2.6024
# 4 2.2964 9.3631 -18.3741 36.1655 1.9484 -6.1456
# 5 -10.6265 -20.8931 -22.0795 1.9484 29.2312 3.2613
# 6 0.5825 -1.1303 2.6024 -6.1456 3.2613 27.7341
#
#
#
# Elastic Compliance Matrix: (Units=1/GPa)
#
#
# Indices 1 2 3 4 5 6 
#
# 1 0.016304 -0.003134 -0.004441 -0.002632 0.000586 -0.000705
# 2 -0.003134 0.009860 -0.000328 -0.002988 0.005956 -0.000864
# 3 -0.004441 -0.000328 0.013047 0.006481 0.007642 -0.000607
# 4 -0.002632 -0.002988 0.006481 0.033102 -0.001162 0.006797
# 5 0.000586 0.005956 0.007642 -0.001162 0.045206 -0.006060
# 6 -0.000705 -0.000864 -0.000607 0.006797 -0.006060 0.038312
#
#
# Mechanical properties :
#
#
# Convention : Reuss Voigt Hill
#
# Bulk Modulus (GPa) = 42.72879 54.35975 48.54427
# Shear Modulus (GPa) = 27.86464 33.86375 30.86419
#
# Velocity S-wave (km/s) = 3.55511 3.91917 3.74157
# Velocity P-wave (km/s) = 6.01935 6.71835 6.37844
#
# Compressibility (1/GPa) = 0.02340342
#
# Stress axis : x y z
#
# Youngs Moduli (GPa) = 61.33534 101.42106 76.64443
#
# Poissons Ratio (x) = 0.31788 0.34041
# Poissons Ratio (y) = 0.19224 0.02514
# Poissons Ratio (z) = 0.27242 0.03327
#
# Static dielectric constant tensor:
#      x y z
#    x 1.864350 -0.003570 0.014920 
#    y -0.003570 1.859650 -0.029020 
#    z 0.014920 -0.029020 1.822020 
# 
# From -- ./inp_files/596235.got.cif
#   From: 2010.05.17/outbox.cif.g08.bks.cpg/sg2_299_cif.got.tgz:596235.got - 2010.06.03 11:33:40.
