data_PCOD9010795
_publ_section_title
;
Structure prediction by ZEFSAII (Michael W. Deem and Ramdas Pophale) SiO2 
 PCOD9010795
Probable space group: P -1
;
_chemical_formula_sum "Si O2"
_cell_formula_units_Z 12
_cell_length_a 7.464168
_cell_length_b 13.607602
_cell_length_c 9.136992
_cell_angle_alpha 147.948654
_cell_angle_beta 99.570512
_cell_angle_gamma 71.321060
_cell_volume 456.223826
_symmetry_space_group_name_H-M "P -1"
_symmetry_group_IT_number 2
_symmetry_cell_setting 'triclinic'
loop_
_space_group_symop_operation_xyz
x,y,z
-x,-y,-z
loop_
_atom_site_type_symbol
_atom_site_label
_atom_site_fract_x
_atom_site_fract_y
_atom_site_fract_z
Si Si1 0.381558 0.027147 0.870274
Si Si2 0.815454 0.227839 0.352106
Si Si3 0.168089 0.833461 0.075011
Si Si4 0.441827 0.443969 0.079975
Si Si5 0.672607 0.860038 0.445787
Si Si6 0.921390 0.578727 0.749290
O O1 0.192557 0.963609 0.801555
O O2 0.544645 0.886759 0.608789
O O3 0.500000 0.000000 0.000000
O O4 0.292307 0.255116 0.093176
O O5 0.818180 0.181420 0.120558
O O6 0.624298 0.381739 0.592179
O O7 0.944717 0.369503 0.563728
O O8 0.378021 0.711374 0.013312
O O9 0.043557 0.714686 0.983976
O O10 0.155986 0.052818 0.399458
O O11 0.500000 0.500000 0.000000
O O12 0.279350 0.348109 0.891103
O O13 0.500000 0.000000 0.500000
O O14 0.000000 0.500000 0.500000
#
# Coordination Sequence:
#
# PCOD9010795 Si02
#       6
#     2   2   2   2   2   2
#     4  12  24  41  70 101 126 174 227 272 321 391
#     4  11  23  42  69  97 132 171 225 269 325 397
#     4  10  22  42  65  91 130 178 213 273 330 384
#     4  11  22  39  66  98 127 169 226 268 320 393
#     4  10  21  40  64  92 129 172 217 268 323 389
#     4  10  25  42  64  99 139 170 214 274 338 382
#
# _framework density 26.302876999999999
#
# number of rings (size 3 to 8) (size 9 to 14) (size 15 to 20)
#    0.000    1.333    3.333    2.500    4.667    2.667 
#    3.000    8.333    0.000    0.000    0.000    0.000 
#    0.000    0.000    0.000    0.000    0.000    0.000 
#
# Total GULP energy -66896.669688 kJ/mol
# GULP energy per Si atom -5574.722474 kJ/mol
# Density = 2.624301 g / cm^3
# Si number density = 26.302877 Si / 1000 Ang^3
#
#
#
# Elastic Constant Matrix: (Units=GPa)
#
#
# Indices 1 2 3 4 5 6 
#
# 1 76.1612 7.8796 10.5025 4.0568 38.1126 17.1862
# 2 7.8796 81.5835 14.8380 14.5648 15.9113 23.2177
# 3 10.5025 14.8380 115.0620 3.8777 28.6993 -8.5318
# 4 4.0568 14.5648 3.8777 45.5041 12.9789 3.0172
# 5 38.1126 15.9113 28.6993 12.9789 58.5272 20.4446
# 6 17.1862 23.2177 -8.5318 3.0172 20.4446 29.3640
#
#
#
# Elastic Compliance Matrix: (Units=1/GPa)
#
#
# Indices 1 2 3 4 5 6 
#
# 1 0.020091 0.001104 0.000958 0.001718 -0.013025 -0.003461
# 2 0.001104 0.018731 -0.004960 -0.005723 0.004740 -0.019609
# 3 0.000958 -0.004960 0.013134 0.002680 -0.011523 0.014925
# 4 0.001718 -0.005723 0.002680 0.025568 -0.009423 0.008231
# 5 -0.013025 0.004740 -0.011523 -0.009423 0.041619 -0.027482
# 6 -0.003461 -0.019609 0.014925 0.008231 -0.027482 0.074211
#
#
# Mechanical properties :
#
#
# Convention : Reuss Voigt Hill
#
# Bulk Modulus (GPa) = 21.66371 37.69410 29.67890
# Shear Modulus (GPa) = 23.30615 42.65151 32.97883
#
# Velocity S-wave (km/s) = 2.97992 4.03122 3.54476
# Velocity P-wave (km/s) = 4.48264 6.00246 5.29734
#
# Compressibility (1/GPa) = 0.04616015
#
# Stress axis : x y z
#
# Youngs Moduli (GPa) = 49.77267 53.38857 76.14014
#
# Poissons Ratio (x) = -0.05894 -0.07294
# Poissons Ratio (y) = -0.05494 0.37763
# Poissons Ratio (z) = -0.04768 0.26479
#
# Static dielectric constant tensor:
#      x y z
#    x 2.250780 0.061810 0.070250 
#    y 0.061810 2.070810 0.094180 
#    z 0.070250 0.094180 2.020020 
# 
# From -- ./inp_files/204935.got.cif
#   From: 2010.05.17/outbox.cif.g08.bks.cpg/sg2_103_cif.got.tgz:204935.got - 2010.06.03 11:33:40.
