data_PCOD9010934
_publ_section_title
;
Structure prediction by ZEFSAII (Michael W. Deem and Ramdas Pophale) SiO2 
 PCOD9010934
Probable space group: P -1
;
_chemical_formula_sum "Si O2"
_cell_formula_units_Z 16
_cell_length_a 9.812946
_cell_length_b 11.699014
_cell_length_c 11.475502
_cell_angle_alpha 80.793623
_cell_angle_beta 130.217555
_cell_angle_gamma 66.373408
_cell_volume 738.290880
_symmetry_space_group_name_H-M "P -1"
_symmetry_group_IT_number 2
_symmetry_cell_setting 'triclinic'
loop_
_space_group_symop_operation_xyz
x,y,z
-x,-y,-z
loop_
_atom_site_type_symbol
_atom_site_label
_atom_site_fract_x
_atom_site_fract_y
_atom_site_fract_z
Si Si1 0.818362 0.110649 0.276590
Si Si2 0.109670 0.839037 0.325351
Si Si3 0.038782 0.778925 0.845247
Si Si4 0.671403 0.211206 0.801575
Si Si5 0.539350 0.048704 0.654316
Si Si6 0.723746 0.472693 0.568393
Si Si7 0.141415 0.374677 0.237010
Si Si8 0.489393 0.803514 0.711810
O O1 0.566675 0.214062 0.186408
O O2 0.893830 0.198044 0.246058
O O3 0.000000 0.000000 0.500000
O O4 0.869575 0.997932 0.219613
O O5 0.179945 0.835744 0.230712
O O6 0.116251 0.698632 0.366004
O O7 0.316939 0.809300 0.524476
O O8 0.068718 0.628084 0.883512
O O9 0.767606 0.927392 0.714999
O O10 0.196488 0.777610 0.026792
O O11 0.631287 0.090945 0.802646
O O12 0.413371 0.384925 0.619515
O O13 0.342217 0.214301 0.452314
O O14 0.455462 0.957890 0.662149
O O15 0.500000 0.500000 0.500000
O O16 0.861894 0.497853 0.728527
O O17 0.250233 0.333883 0.174302
#
# Coordination Sequence:
#
# PCOD9010934 Si02
#       8
#     2   2   2   2   2   2   2   2
#     4  10  19  31  50  78 105 132 163 207 257 305
#     4  10  17  32  53  78 100 134 171 206 251 302
#     4  11  20  31  52  79 106 127 167 219 255 290
#     4  10  19  31  52  77 105 129 165 220 255 283
#     4  10  17  30  51  76 101 130 169 207 250 299
#     4   9  17  32  54  77  99 133 174 211 243 294
#     4  10  17  31  54  78  97 132 176 206 240 302
#     4  10  17  29  52  76 100 133 165 204 248 305
#
# _framework density 21.671673999999999
#
# number of rings (size 3 to 8) (size 9 to 14) (size 15 to 20)
#    0.000    2.000    5.000    4.125    0.000    0.000 
#    0.000    3.125    0.000   15.000    0.000    0.000 
#    0.000    0.000    0.000    0.000    0.000    0.000 
#
# Total GULP energy -89207.848057 kJ/mol
# GULP energy per Si atom -5575.490504 kJ/mol
# Density = 2.162235 g / cm^3
# Si number density = 21.671674 Si / 1000 Ang^3
#
#
#
# Elastic Constant Matrix: (Units=GPa)
#
#
# Indices 1 2 3 4 5 6 
#
# 1 121.8595 55.1228 15.8174 15.4060 -15.1551 11.4948
# 2 55.1228 154.1523 27.6556 24.9694 5.3619 43.6823
# 3 15.8174 27.6556 54.5646 30.0152 -1.6576 7.6711
# 4 15.4060 24.9694 30.0152 34.2134 3.5406 9.8464
# 5 -15.1551 5.3619 -1.6576 3.5406 18.0815 5.7748
# 6 11.4948 43.6823 7.6711 9.8464 5.7748 35.8752
#
#
#
# Elastic Compliance Matrix: (Units=1/GPa)
#
#
# Indices 1 2 3 4 5 6 
#
# 1 0.012144 -0.004403 0.002048 -0.005503 0.012584 0.000516
# 2 -0.004403 0.012251 -0.003172 -0.000297 -0.003674 -0.012155
# 3 0.002048 -0.003172 0.038008 -0.033898 0.011996 0.002452
# 4 -0.005503 -0.000297 -0.033898 0.065177 -0.018632 -0.005516
# 5 0.012584 -0.003674 0.011996 -0.018632 0.074569 -0.009014
# 6 0.000516 -0.012155 0.002452 -0.005516 -0.009014 0.044950
#
#
# Mechanical properties :
#
#
# Convention : Reuss Voigt Hill
#
# Bulk Modulus (GPa) = 19.47507 58.64090 39.05798
# Shear Modulus (GPa) = 18.16407 33.09937 25.63172
#
# Velocity S-wave (km/s) = 2.89822 3.91232 3.44281
# Velocity P-wave (km/s) = 4.49505 6.89390 5.81942
#
# Compressibility (1/GPa) = 0.05134770
#
# Stress axis : x y z
#
# Youngs Moduli (GPa) = 82.34587 81.62748 26.31053
#
# Poissons Ratio (x) = 0.35937 -0.05388
# Poissons Ratio (y) = 0.36254 0.08347
# Poissons Ratio (z) = -0.16862 0.25895
#
# Static dielectric constant tensor:
#      x y z
#    x 1.849660 0.011180 0.023450 
#    y 0.011180 1.839050 -0.039780 
#    z 0.023450 -0.039780 1.917360 
# 
# From -- ./inp_files/390073.got.cif
#   From: 2010.05.17/outbox.cif.g08.bks.cpg/sg2_196_cif.got.tgz:390073.got - 2010.06.03 11:33:40.
