data_PCOD9010524
_publ_section_title
;
Structure prediction by ZEFSAII (Michael W. Deem and Ramdas Pophale) SiO2 
 PCOD9010524
Probable space group: P -1
;
_chemical_formula_sum "Si O2"
_cell_formula_units_Z 14
_cell_length_a 14.982115
_cell_length_b 23.470899
_cell_length_c 6.163133
_cell_angle_alpha 120.777003
_cell_angle_beta 63.333627
_cell_angle_gamma 160.510390
_cell_volume 616.953662
_symmetry_space_group_name_H-M "P -1"
_symmetry_group_IT_number 2
_symmetry_cell_setting 'triclinic'
loop_
_space_group_symop_operation_xyz
x,y,z
-x,-y,-z
loop_
_atom_site_type_symbol
_atom_site_label
_atom_site_fract_x
_atom_site_fract_y
_atom_site_fract_z
Si Si1 0.338906 0.084413 0.696105
Si Si2 0.537608 0.276509 0.241351
Si Si3 0.876838 0.883825 0.706850
Si Si4 0.115312 0.409434 0.261616
Si Si5 0.246560 0.702599 0.670006
Si Si6 0.092379 0.269479 0.304828
Si Si7 0.548060 0.451110 0.185533
O O1 0.548851 0.169859 0.505303
O O2 0.509180 0.244645 0.954266
O O3 0.117511 0.982217 0.581176
O O4 0.157646 0.932160 0.766928
O O5 0.264700 0.148691 0.351320
O O6 0.772081 0.469701 0.445185
O O7 0.592691 0.238282 0.206397
O O8 0.629572 0.690245 0.703001
O O9 0.000000 0.000000 0.000000
O O10 0.033888 0.292297 0.246493
O O11 0.884361 0.306081 0.180661
O O12 0.352407 0.536720 0.084265
O O13 0.000000 0.500000 0.500000
O O14 0.348357 0.383213 0.172327
O O15 0.193979 0.360131 0.603921
#
# Coordination Sequence:
#
# PCOD9010524 Si02
#       7
#     2   2   2   2   2   2   2
#     4  10  23  43  61  92 131 157 210 261 302 374
#     4  10  22  40  63  94 123 164 204 254 315 355
#     4   9  19  37  62  92 122 159 197 256 315 351
#     4  11  23  39  66  93 122 168 210 247 310 375
#     4  10  25  40  60  93 127 168 209 249 308 370
#     4  10  22  42  65  90 123 170 202 255 317 360
#     4  10  21  40  63  93 129 157 207 256 309 375
#
# _framework density 22.692140999999999
#
# number of rings (size 3 to 8) (size 9 to 14) (size 15 to 20)
#    0.000    2.000    1.429    0.429    8.000    5.714 
#    5.143    1.429    0.000    0.000    0.000    0.000 
#    0.000    0.000    0.000    0.000    0.000    0.000 
#
# Total GULP energy -78101.713765 kJ/mol
# GULP energy per Si atom -5578.693840 kJ/mol
# Density = 2.264049 g / cm^3
# Si number density = 22.692141 Si / 1000 Ang^3
#
#
#
# Elastic Constant Matrix: (Units=GPa)
#
#
# Indices 1 2 3 4 5 6 
#
# 1 210.8079 35.9698 14.7701 -17.6134 -5.9508 15.6037
# 2 35.9698 55.7807 8.4877 0.2306 4.3535 5.4727
# 3 14.7701 8.4877 -28.3555 -1.9333 -9.1222 -7.8115
# 4 -17.6134 0.2306 -1.9333 30.4020 5.6768 -2.9990
# 5 -5.9508 4.3535 -9.1222 5.6768 25.4894 -5.4441
# 6 15.6037 5.4727 -7.8115 -2.9990 -5.4441 35.5879
#
#
#
# Elastic Compliance Matrix: (Units=1/GPa)
#
#
# Indices 1 2 3 4 5 6 
#
# 1 0.005691 -0.003909 0.001381 0.003010 0.001586 -0.001095
# 2 -0.003909 0.019948 0.005002 -0.001742 -0.002302 -0.000755
# 3 0.001381 0.005002 -0.026690 0.000434 -0.012113 -0.009049
# 4 0.003010 -0.001742 0.000434 0.036022 -0.006640 0.001063
# 5 0.001586 -0.002302 -0.012113 -0.006640 0.037608 0.002193
# 6 -0.001095 -0.000755 -0.009049 0.001063 0.002193 0.027134
#
#
# Mechanical properties :
#
#
# Convention : Reuss Voigt Hill
#
# Bulk Modulus (GPa) = 256.57978 39.63204 148.10591
# Shear Modulus (GPa) = 52.04841 30.22955 41.13898
#
# Velocity S-wave (km/s) = 4.79443 3.65384 4.26246
# Velocity P-wave (km/s) = 11.99850 5.94169 9.46752
#
# Compressibility (1/GPa) = 0.00389742
#
# Stress axis : x y z
#
# Youngs Moduli (GPa) = 175.70890 50.13104 -37.46766
#
# Poissons Ratio (x) = 0.19595 0.05173
# Poissons Ratio (y) = 0.68682 0.18743
# Poissons Ratio (z) = -0.24258 -0.25077
#
# Static dielectric constant tensor:
#      x y z
#    x 1.936320 -0.002110 -0.000610 
#    y -0.002110 1.846540 0.029090 
#    z -0.000610 0.029090 1.865670 
# 
# From -- ./inp_files/76752.got.cif
#   From: 2010.05.17/outbox.cif.g08.bks.cpg/sg2_39_cif.got.tgz:76752.got - 2010.06.03 11:33:40.
