data_PCOD9010176
_publ_section_title
;
Structure prediction by ZEFSAII (Michael W. Deem and Ramdas Pophale) SiO2 
 PCOD9010176
Probable space group: P -1
;
_chemical_formula_sum "Si O2"
_cell_formula_units_Z 14
_cell_length_a 10.473725
_cell_length_b 7.813765
_cell_length_c 15.412922
_cell_angle_alpha 106.317494
_cell_angle_beta 137.044358
_cell_angle_gamma 51.863826
_cell_volume 640.739805
_symmetry_space_group_name_H-M "P -1"
_symmetry_group_IT_number 2
_symmetry_cell_setting 'triclinic'
loop_
_space_group_symop_operation_xyz
x,y,z
-x,-y,-z
loop_
_atom_site_type_symbol
_atom_site_label
_atom_site_fract_x
_atom_site_fract_y
_atom_site_fract_z
Si Si1 0.679893 0.026010 0.700568
Si Si2 0.741537 0.679379 0.354434
Si Si3 0.585038 0.466252 0.136636
Si Si4 0.927252 0.301985 0.013695
Si Si5 0.923698 0.389928 0.835653
Si Si6 0.569559 0.150149 0.381867
Si Si7 0.957546 0.048510 0.685575
O O1 0.579853 0.881407 0.625466
O O2 0.878023 0.907774 0.858497
O O3 0.447912 0.266477 0.656952
O O4 0.805310 0.030993 0.680396
O O5 0.706919 0.581140 0.238615
O O6 0.000000 0.500000 0.500000
O O7 0.672972 0.928264 0.342040
O O8 0.500000 0.500000 0.000000
O O9 0.340607 0.598667 0.087692
O O10 0.782004 0.200048 0.223237
O O11 0.944120 0.500200 0.077841
O O12 0.994246 0.247049 0.938566
O O13 0.637433 0.605612 0.727652
O O14 0.974536 0.238731 0.756442
O O15 0.791761 0.123004 0.529220
#
# Coordination Sequence:
#
# PCOD9010176 Si02
#       7
#     2   2   2   2   2   2   2
#     4   9  20  37  65  89 119 160 208 253 300 364
#     4  10  21  40  62  90 123 160 204 257 307 360
#     4  12  24  36  64  98 126 150 209 269 306 352
#     4  10  22  43  59  92 122 168 204 245 315 367
#     4  10  23  40  64  83 127 168 206 243 304 388
#     4   9  21  40  62  87 123 163 207 248 306 371
#     4  12  21  37  64  94 123 160 207 259 307 361
#
# _framework density 21.849743
#
# number of rings (size 3 to 8) (size 9 to 14) (size 15 to 20)
#    0.857    0.857    2.857    1.714    2.000    1.714 
#    0.000    0.714    0.000    0.000    0.000    0.000 
#    0.000    0.000    0.000    0.000    0.000    0.000 
#
# Total GULP energy -78163.781577 kJ/mol
# GULP energy per Si atom -5583.127256 kJ/mol
# Density = 2.180001 g / cm^3
# Si number density = 21.849743 Si / 1000 Ang^3
#
#
#
# Elastic Constant Matrix: (Units=GPa)
#
#
# Indices 1 2 3 4 5 6 
#
# 1 25.2457 -9.2598 1.1291 -6.6815 13.3982 -3.9154
# 2 -9.2598 100.3190 43.0805 13.1125 13.2630 -6.3378
# 3 1.1291 43.0805 142.7850 11.3680 21.0316 -2.3269
# 4 -6.6815 13.1125 11.3680 48.2666 -4.6137 10.4828
# 5 13.3982 13.2630 21.0316 -4.6137 26.1702 -7.3075
# 6 -3.9154 -6.3378 -2.3269 10.4828 -7.3075 24.1418
#
#
#
# Elastic Compliance Matrix: (Units=1/GPa)
#
#
# Indices 1 2 3 4 5 6 
#
# 1 0.064736 0.010082 0.002125 0.001815 -0.039468 0.000616
# 2 0.010082 0.013965 -0.002503 -0.003535 -0.009841 0.003616
# 3 0.002125 -0.002503 0.008977 -0.001642 -0.007613 -0.001039
# 4 0.001815 -0.003535 -0.001642 0.024950 0.003642 -0.010523
# 5 -0.039468 -0.009841 -0.007613 0.003642 0.073197 0.010856
# 6 0.000616 0.003616 -0.001039 -0.010523 0.010856 0.050227
#
#
# Mechanical properties :
#
#
# Convention : Reuss Voigt Hill
#
# Bulk Modulus (GPa) = 9.33825 37.58326 23.46076
# Shear Modulus (GPa) = 19.81457 35.27571 27.54514
#
# Velocity S-wave (km/s) = 3.01467 4.02240 3.55443
# Velocity P-wave (km/s) = 4.04979 6.22986 5.25414
#
# Compressibility (1/GPa) = 0.10708640
#
# Stress axis : x y z
#
# Youngs Moduli (GPa) = 15.44740 71.60538 111.39232
#
# Poissons Ratio (x) = -0.72195 -0.23671
# Poissons Ratio (y) = -0.15575 0.27886
# Poissons Ratio (z) = -0.03283 0.17926
#
# Static dielectric constant tensor:
#      x y z
#    x 1.807700 0.026670 -0.005090 
#    y 0.026670 1.808370 0.021690 
#    z -0.005090 0.021690 1.696340 
# 
# From -- ./inp_files/298572.got.cif
#   From: 2010.05.17/outbox.cif.g08.bks.cpg/sg2_150_cif.got.tgz:298572.got - 2010.06.03 11:33:40.
