data_PCOD9010913
_publ_section_title
;
Structure prediction by ZEFSAII (Michael W. Deem and Ramdas Pophale) SiO2 
 PCOD9010913
Probable space group: P -1
;
_chemical_formula_sum "Si O2"
_cell_formula_units_Z 14
_cell_length_a 13.923484
_cell_length_b 22.047675
_cell_length_c 7.809175
_cell_angle_alpha 123.792417
_cell_angle_beta 117.249699
_cell_angle_gamma 19.089360
_cell_volume 630.999412
_symmetry_space_group_name_H-M "P -1"
_symmetry_group_IT_number 2
_symmetry_cell_setting 'triclinic'
loop_
_space_group_symop_operation_xyz
x,y,z
-x,-y,-z
loop_
_atom_site_type_symbol
_atom_site_label
_atom_site_fract_x
_atom_site_fract_y
_atom_site_fract_z
Si Si1 0.231968 0.913117 0.247394
Si Si2 0.727384 0.982563 0.321454
Si Si3 0.013067 0.081499 0.827817
Si Si4 0.367925 0.339306 0.167108
Si Si5 0.320108 0.670156 0.738274
Si Si6 0.094976 0.615607 0.148084
Si Si7 0.872073 0.630510 0.756900
O O1 0.369511 0.893848 0.431510
O O2 0.892452 0.147951 0.274582
O O3 0.183311 0.868976 0.244275
O O4 0.436113 0.782026 0.037945
O O5 0.989844 0.862172 0.245712
O O6 0.841801 0.837660 0.277896
O O7 0.455530 0.136441 0.212652
O O8 0.360882 0.832783 0.741349
O O9 0.916268 0.193932 0.086607
O O10 0.128414 0.554201 0.263713
O O11 0.181348 0.387151 0.149685
O O12 0.500000 0.500000 0.500000
O O13 0.591807 0.538907 0.849627
O O14 0.050845 0.586864 0.910255
O O15 0.000000 0.500000 0.500000
#
# Coordination Sequence:
#
# PCOD9010913 Si02
#       7
#     2   2   2   2   2   2   2
#     4  11  19  41  69  93 129 167 215 255 311 388
#     4  11  25  40  64  97 131 167 206 268 322 359
#     4  10  21  40  64  95 134 165 208 259 311 385
#     4  10  21  42  69  90 120 171 216 261 305 379
#     4  11  21  39  64  97 129 163 208 261 319 370
#     4  12  22  43  64  93 132 163 214 262 307 378
#     4  11  26  47  65  90 125 171 219 259 315 376
#
# _framework density 22.187024999999998
#
# number of rings (size 3 to 8) (size 9 to 14) (size 15 to 20)
#    0.000    1.143    4.286    3.000    0.000    0.571 
#    2.571    2.857    0.000    0.000    0.000    0.000 
#    0.000    0.000    0.000    0.000    0.000    0.000 
#
# Total GULP energy -77946.669257 kJ/mol
# GULP energy per Si atom -5567.619233 kJ/mol
# Density = 2.213653 g / cm^3
# Si number density = 22.187025 Si / 1000 Ang^3
#
#
#
# Elastic Constant Matrix: (Units=GPa)
#
#
# Indices 1 2 3 4 5 6 
#
# 1 91.3939 44.0528 36.7998 4.3479 13.2775 9.1972
# 2 44.0528 107.9687 13.0009 -6.5460 13.1889 5.0737
# 3 36.7998 13.0009 76.5799 1.2825 21.7099 -2.3707
# 4 4.3479 -6.5460 1.2825 27.4408 -2.9229 11.4587
# 5 13.2775 13.1889 21.7099 -2.9229 26.1700 -4.5902
# 6 9.1972 5.0737 -2.3707 11.4587 -4.5902 37.1702
#
#
#
# Elastic Compliance Matrix: (Units=1/GPa)
#
#
# Indices 1 2 3 4 5 6 
#
# 1 0.017315 -0.006139 -0.007164 -0.002612 -0.000596 -0.003172
# 2 -0.006139 0.012438 0.002050 0.004137 -0.004727 -0.001907
# 3 -0.007164 0.002050 0.020210 -0.001440 -0.014064 0.001489
# 4 -0.002612 0.004137 -0.001440 0.043706 0.003017 -0.013111
# 5 -0.000596 -0.004727 -0.014064 0.003017 0.053886 0.005620
# 6 -0.003172 -0.001907 0.001489 -0.013111 0.005620 0.032779
#
#
# Mechanical properties :
#
#
# Convention : Reuss Voigt Hill
#
# Bulk Modulus (GPa) = 36.41953 51.51662 43.96807
# Shear Modulus (GPa) = 23.58579 30.29547 26.94063
#
# Velocity S-wave (km/s) = 3.26397 3.69922 3.48839
# Velocity P-wave (km/s) = 5.53671 6.44324 6.00710
#
# Compressibility (1/GPa) = 0.02745780
#
# Stress axis : x y z
#
# Youngs Moduli (GPa) = 57.75274 80.40139 49.48053
#
# Poissons Ratio (x) = 0.49356 0.35447
# Poissons Ratio (y) = 0.35453 -0.10144
# Poissons Ratio (z) = 0.41373 -0.16483
#
# Static dielectric constant tensor:
#      x y z
#    x 1.843810 -0.001120 0.040710 
#    y -0.001120 1.906740 0.031890 
#    z 0.040710 0.031890 1.891720 
# 
# From -- ./inp_files/320146.got.cif
#   From: 2010.05.17/outbox.cif.g08.bks.cpg/sg2_161_cif.got.tgz:320146.got - 2010.06.03 11:33:40.
