data_PCOD9010979
_publ_section_title
;
Structure prediction by ZEFSAII (Michael W. Deem and Ramdas Pophale) SiO2 
 PCOD9010979
Probable space group: P -1
;
_chemical_formula_sum "Si O2"
_cell_formula_units_Z 14
_cell_length_a 7.335246
_cell_length_b 9.113149
_cell_length_c 15.797788
_cell_angle_alpha 38.465055
_cell_angle_beta 109.510357
_cell_angle_gamma 105.504602
_cell_volume 619.146147
_symmetry_space_group_name_H-M "P -1"
_symmetry_group_IT_number 2
_symmetry_cell_setting 'triclinic'
loop_
_space_group_symop_operation_xyz
x,y,z
-x,-y,-z
loop_
_atom_site_type_symbol
_atom_site_label
_atom_site_fract_x
_atom_site_fract_y
_atom_site_fract_z
Si Si1 0.228843 0.157326 0.795595
Si Si2 0.296582 0.374436 0.042615
Si Si3 0.649390 0.786400 0.626613
Si Si4 0.947573 0.723111 0.115436
Si Si5 0.718030 0.365819 0.914448
Si Si6 0.547583 0.447795 0.436144
Si Si7 0.149541 0.957980 0.319767
O O1 0.130412 0.308788 0.787567
O O2 0.396374 0.310760 0.710612
O O3 0.058671 0.089799 0.732868
O O4 0.316269 0.911458 0.955170
O O5 0.204659 0.547604 0.021239
O O6 0.272916 0.118941 0.199323
O O7 0.500000 0.500000 0.000000
O O8 0.206395 0.338539 0.952748
O O9 0.570543 0.571616 0.772143
O O10 0.633413 0.682973 0.576998
O O11 0.500000 0.000000 0.500000
O O12 0.834260 0.894651 0.656240
O O13 0.135264 0.607574 0.154071
O O14 0.000000 0.000000 0.000000
O O15 0.500000 0.500000 0.500000
O O16 0.735714 0.281789 0.538353
#
# Coordination Sequence:
#
# PCOD9010979 Si02
#       7
#     2   2   2   2   2   2   2
#     4  11  24  42  67  99 130 172 223 271 329 384
#     4  11  23  38  67  99 134 171 211 272 333 381
#     4   9  22  43  66  89 132 174 208 269 327 385
#     4  10  21  40  64  98 136 167 214 274 324 389
#     4  10  22  41  68  95 134 171 221 260 327 400
#     4  11  26  43  66  92 131 173 223 274 331 379
#     4  10  22  45  63  86 139 172 216 265 322 400
#
# _framework density 22.611787
#
# number of rings (size 3 to 8) (size 9 to 14) (size 15 to 20)
#    0.000    1.714    2.857    0.857   10.000    0.571 
#    0.000    0.714    0.000    0.000    0.000    0.000 
#    0.000    0.000    0.000    0.000    0.000    0.000 
#
# Total GULP energy -77995.590041 kJ/mol
# GULP energy per Si atom -5571.113574 kJ/mol
# Density = 2.256032 g / cm^3
# Si number density = 22.611787 Si / 1000 Ang^3
#
#
#
# Elastic Constant Matrix: (Units=GPa)
#
#
# Indices 1 2 3 4 5 6 
#
# 1 39.1328 42.8169 15.3911 3.1898 -9.1226 1.6358
# 2 42.8169 204.3277 39.5544 37.0763 1.0860 -2.5588
# 3 15.3911 39.5544 88.7716 -11.7704 5.4380 -5.7920
# 4 3.1898 37.0763 -11.7704 45.1762 -4.1584 3.1543
# 5 -9.1226 1.0860 5.4380 -4.1584 31.8053 11.3786
# 6 1.6358 -2.5588 -5.7920 3.1543 11.3786 40.6582
#
#
#
# Elastic Compliance Matrix: (Units=1/GPa)
#
#
# Indices 1 2 3 4 5 6 
#
# 1 0.040379 -0.008902 -0.003785 0.005471 0.015974 -0.007619
# 2 -0.008902 0.008847 -0.003051 -0.007971 -0.004188 0.002271
# 3 -0.003785 -0.003051 0.014466 0.006032 -0.003580 0.002555
# 4 0.005471 -0.007971 0.006032 0.030718 0.006256 -0.003996
# 5 0.015974 -0.004188 -0.003580 0.006256 0.042535 -0.013805
# 6 -0.007619 0.002271 0.002555 -0.003996 -0.013805 0.029582
#
#
# Mechanical properties :
#
#
# Convention : Reuss Voigt Hill
#
# Bulk Modulus (GPa) = 31.03898 58.63967 44.83932
# Shear Modulus (GPa) = 23.95309 39.15925 31.55617
#
# Velocity S-wave (km/s) = 3.25825 4.16601 3.73978
# Velocity P-wave (km/s) = 5.28314 7.00931 6.20653
#
# Compressibility (1/GPa) = 0.03221755
#
# Stress axis : x y z
#
# Youngs Moduli (GPa) = 24.76561 113.02969 69.12611
#
# Poissons Ratio (x) = 1.00616 0.26161
# Poissons Ratio (y) = 0.22046 0.21090
# Poissons Ratio (z) = 0.09373 0.34485
#
# Static dielectric constant tensor:
#      x y z
#    x 1.926330 -0.007110 0.067630 
#    y -0.007110 1.896160 0.006580 
#    z 0.067630 0.006580 1.878410 
# 
# From -- ./inp_files/491864.got.cif
#   From: 2010.05.17/outbox.cif.g08.bks.cpg/sg2_246_cif.got.tgz:491864.got - 2010.06.03 11:33:40.
