data_PCOD9010161
_publ_section_title
;
Structure prediction by ZEFSAII (Michael W. Deem and Ramdas Pophale) SiO2 
 PCOD9010161
Probable space group: P -1
;
_chemical_formula_sum "Si O2"
_cell_formula_units_Z 16
_cell_length_a 7.268092
_cell_length_b 9.339707
_cell_length_c 15.330663
_cell_angle_alpha 123.505444
_cell_angle_beta 108.412656
_cell_angle_gamma 109.293278
_cell_volume 633.980546
_symmetry_space_group_name_H-M "P -1"
_symmetry_group_IT_number 2
_symmetry_cell_setting 'triclinic'
loop_
_space_group_symop_operation_xyz
x,y,z
-x,-y,-z
loop_
_atom_site_type_symbol
_atom_site_label
_atom_site_fract_x
_atom_site_fract_y
_atom_site_fract_z
Si Si1 0.496553 0.118209 0.766469
Si Si2 0.214619 0.180054 0.159498
Si Si3 0.128013 0.580562 0.409622
Si Si4 0.678879 0.370833 0.716641
Si Si5 0.196280 0.507677 0.913689
Si Si6 0.851933 0.005582 0.729246
Si Si7 0.621008 0.235196 0.137476
Si Si8 0.937885 0.728473 0.564664
O O1 0.470260 0.209252 0.702828
O O2 0.632815 0.019525 0.721884
O O3 0.227413 0.926121 0.703102
O O4 0.665532 0.318932 0.928037
O O5 0.306786 0.422843 0.236189
O O6 0.453334 0.197111 0.179873
O O7 0.123641 0.094438 0.214167
O O8 0.000000 0.000000 0.000000
O O9 0.901826 0.358087 0.250843
O O10 0.197696 0.490900 0.468559
O O11 0.318622 0.725986 0.408516
O O12 0.992133 0.669674 0.460516
O O13 0.938809 0.465241 0.837600
O O14 0.363101 0.615771 0.887720
O O15 0.099398 0.261970 0.836817
O O16 0.810007 0.841502 0.591943
O O17 0.500000 0.000000 0.000000
#
# Coordination Sequence:
#
# PCOD9010161 Si02
#       8
#     2   2   2   2   2   2   2   2
#     4  11  23  42  63  94 130 168 202 264 322 367
#     4  12  22  35  62  97 123 160 208 258 313 383
#     4  10  22  46  60  93 123 169 207 266 309 372
#     4  10  21  40  62  89 128 160 204 261 316 369
#     4  10  22  41  63  92 132 163 202 266 321 369
#     4  11  23  41  62  97 127 167 213 259 317 373
#     4  11  23  40  66  91 128 164 205 262 325 369
#     4  11  24  41  68  87 130 168 219 252 313 381
#
# _framework density 25.237366999999999
#
# number of rings (size 3 to 8) (size 9 to 14) (size 15 to 20)
#    0.000    1.250    1.250    6.750    3.500    1.000 
#    2.250    7.500    0.000    0.000    0.000    0.000 
#    0.000    0.000    0.000    0.000    0.000    0.000 
#
# Total GULP energy -89572.266787 kJ/mol
# GULP energy per Si atom -5598.266674 kJ/mol
# Density = 2.517993 g / cm^3
# Si number density = 25.237367 Si / 1000 Ang^3
#
#
#
# Elastic Constant Matrix: (Units=GPa)
#
#
# Indices 1 2 3 4 5 6 
#
# 1 73.3482 17.7319 17.8764 3.6332 -18.0201 4.5402
# 2 17.7319 177.5028 32.3754 5.3849 -20.1951 17.2389
# 3 17.8764 32.3754 80.0774 5.9841 -19.2137 -1.1601
# 4 3.6332 5.3849 5.9841 35.3820 2.4338 -10.1630
# 5 -18.0201 -20.1951 -19.2137 2.4338 41.9542 2.9539
# 6 4.5402 17.2389 -1.1601 -10.1630 2.9539 39.3704
#
#
#
# Elastic Compliance Matrix: (Units=1/GPa)
#
#
# Indices 1 2 3 4 5 6 
#
# 1 0.015982 -0.000180 -0.001834 -0.002586 0.006297 -0.002958
# 2 -0.000180 0.006722 -0.001957 -0.001909 0.002632 -0.003671
# 3 -0.001834 -0.001957 0.015138 -0.002288 0.005299 0.000526
# 4 -0.002586 -0.001909 -0.002288 0.032427 -0.005653 0.009862
# 5 0.006297 0.002632 0.005299 -0.005653 0.030949 -0.005504
# 6 -0.002958 -0.003671 0.000526 0.009862 -0.005504 0.030322
#
#
# Mechanical properties :
#
#
# Convention : Reuss Voigt Hill
#
# Bulk Modulus (GPa) = 33.44278 51.87732 42.66005
# Shear Modulus (GPa) = 33.45593 40.87097 37.16345
#
# Velocity S-wave (km/s) = 3.64490 4.02862 3.84155
# Velocity P-wave (km/s) = 5.56721 6.49924 6.05119
#
# Compressibility (1/GPa) = 0.02990182
#
# Stress axis : x y z
#
# Youngs Moduli (GPa) = 62.56957 148.75606 66.05699
#
# Poissons Ratio (x) = 0.02676 0.12114
# Poissons Ratio (y) = 0.01126 0.12926
# Poissons Ratio (z) = 0.11475 0.29108
#
# Static dielectric constant tensor:
#      x y z
#    x 2.023180 -0.004250 0.027930 
#    y -0.004250 1.989660 -0.002240 
#    z 0.027930 -0.002240 2.031630 
# 
# From -- ./inp_files/446366.got.cif
#   From: 2010.05.17/outbox.cif.g08.bks.cpg/sg2_224_cif.got.tgz:446366.got - 2010.06.03 11:33:40.
