data_PCOD9010273
_publ_section_title
;
Structure prediction by ZEFSAII (Michael W. Deem and Ramdas Pophale) SiO2 
 PCOD9010273
Probable space group: P -1
;
_chemical_formula_sum "Si O2"
_cell_formula_units_Z 12
_cell_length_a 9.060735
_cell_length_b 5.938466
_cell_length_c 14.398236
_cell_angle_alpha 68.277446
_cell_angle_beta 75.886709
_cell_angle_gamma 122.591196
_cell_volume 499.802941
_symmetry_space_group_name_H-M "P -1"
_symmetry_group_IT_number 2
_symmetry_cell_setting 'triclinic'
loop_
_space_group_symop_operation_xyz
x,y,z
-x,-y,-z
loop_
_atom_site_type_symbol
_atom_site_label
_atom_site_fract_x
_atom_site_fract_y
_atom_site_fract_z
Si Si1 0.716100 0.817189 0.043736
Si Si2 0.574921 0.968314 0.742471
Si Si3 0.176888 0.104204 0.384877
Si Si4 0.698590 0.351214 0.856411
Si Si5 0.436098 0.323533 0.635405
Si Si6 0.010210 0.861209 0.866793
O O1 0.595139 0.435567 0.152619
O O2 0.862512 0.062827 0.069843
O O3 0.856019 0.902795 0.920202
O O4 0.529136 0.797141 0.052557
O O5 0.785736 0.118200 0.631159
O O6 0.651308 0.134725 0.807261
O O7 0.464543 0.066667 0.688649
O O8 0.185553 0.291959 0.267461
O O9 0.397149 0.381828 0.363335
O O10 0.000000 0.000000 0.500000
O O11 0.862259 0.498929 0.893562
O O12 0.500000 0.500000 0.500000
O O13 0.200091 0.138574 0.726516
#
# Coordination Sequence:
#
# PCOD9010273 Si02
#       6
#     2   2   2   2   2   2
#     4  10  22  43  64  93 136 170 223 269 324 385
#     4  10  21  43  64  93 134 171 215 277 322 392
#     4  10  21  42  63  89 134 171 215 272 326 388
#     4  10  21  40  62  95 132 168 222 266 327 386
#     4  11  23  41  63  96 133 167 223 271 327 391
#     4  11  21  42  66  94 133 177 210 280 322 379
#
# _framework density 24.009464000000001
#
# number of rings (size 3 to 8) (size 9 to 14) (size 15 to 20)
#    0.000    1.667    5.000    1.500    0.000    4.667 
#    6.000    0.000    0.000    0.000    0.000    0.000 
#    0.000    0.000    0.000    0.000    0.000    0.000 
#
# Total GULP energy -67055.460096 kJ/mol
# GULP energy per Si atom -5587.955008 kJ/mol
# Density = 2.395482 g / cm^3
# Si number density = 24.009464 Si / 1000 Ang^3
#
#
#
# Elastic Constant Matrix: (Units=GPa)
#
#
# Indices 1 2 3 4 5 6 
#
# 1 123.2719 75.5625 86.8410 12.0560 -13.0347 5.2619
# 2 75.5625 124.0642 53.4053 5.1046 -6.4834 32.7338
# 3 86.8410 53.4053 165.5987 19.2337 -47.0002 -9.5406
# 4 12.0560 5.1046 19.2337 26.2526 -4.7314 -13.1874
# 5 -13.0347 -6.4834 -47.0002 -4.7314 64.7769 0.6041
# 6 5.2619 32.7338 -9.5406 -13.1874 0.6041 41.7068
#
#
#
# Elastic Compliance Matrix: (Units=1/GPa)
#
#
# Indices 1 2 3 4 5 6 
#
# 1 0.018338 -0.008971 -0.007221 -0.000325 -0.002499 0.003009
# 2 -0.008971 0.018834 -0.002036 -0.006466 -0.001719 -0.016136
# 3 -0.007221 -0.002036 0.013199 -0.002195 0.007716 0.004723
# 4 -0.000325 -0.006466 -0.002195 0.051888 0.001289 0.021002
# 5 -0.002499 -0.001719 0.007716 0.001289 0.020422 0.003541
# 6 0.003009 -0.016136 0.004723 0.021002 0.003541 0.043931
#
#
# Mechanical properties :
#
#
# Convention : Reuss Voigt Hill
#
# Bulk Modulus (GPa) = 71.87179 93.83915 82.85547
# Shear Modulus (GPa) = 24.07227 39.68898 31.88063
#
# Velocity S-wave (km/s) = 3.16985 4.07019 3.64790
# Velocity P-wave (km/s) = 6.58764 7.82673 7.23376
#
# Compressibility (1/GPa) = 0.01391367
#
# Stress axis : x y z
#
# Youngs Moduli (GPa) = 54.53264 53.09436 75.76248
#
# Poissons Ratio (x) = 0.47633 0.54711
# Poissons Ratio (y) = 0.48923 0.15425
# Poissons Ratio (z) = 0.39380 0.10810
#
# Static dielectric constant tensor:
#      x y z
#    x 1.948270 -0.047270 0.029860 
#    y -0.047270 2.016340 0.011050 
#    z 0.029860 0.011050 2.007600 
# 
# From -- ./inp_files/479573.got.cif
#   From: 2010.05.17/outbox.cif.g08.bks.cpg/sg2_240_cif.got.tgz:479573.got - 2010.06.03 11:33:40.
