data_PCOD9010375
_publ_section_title
;
Structure prediction by ZEFSAII (Michael W. Deem and Ramdas Pophale) SiO2 
 PCOD9010375
Probable space group: P -1
;
_chemical_formula_sum "Si O2"
_cell_formula_units_Z 16
_cell_length_a 15.510687
_cell_length_b 12.049310
_cell_length_c 14.981036
_cell_angle_alpha 151.515138
_cell_angle_beta 145.040815
_cell_angle_gamma 52.240803
_cell_volume 702.840165
_symmetry_space_group_name_H-M "P -1"
_symmetry_group_IT_number 2
_symmetry_cell_setting 'triclinic'
loop_
_space_group_symop_operation_xyz
x,y,z
-x,-y,-z
loop_
_atom_site_type_symbol
_atom_site_label
_atom_site_fract_x
_atom_site_fract_y
_atom_site_fract_z
Si Si1 0.479598 0.473067 0.857614
Si Si2 0.735659 0.983616 0.759566
Si Si3 0.051891 0.268867 0.136005
Si Si4 0.112812 0.082603 0.882692
Si Si5 0.078060 0.775968 0.462891
Si Si6 0.385966 0.920211 0.090768
Si Si7 0.622670 0.444189 0.631341
Si Si8 0.733959 0.695208 0.081708
O O1 0.384320 0.190496 0.540236
O O2 0.500000 0.500000 0.000000
O O3 0.381401 0.647987 0.871603
O O4 0.648097 0.597036 0.033041
O O5 0.828121 0.819991 0.768102
O O6 0.646324 0.062462 0.819203
O O7 0.885411 0.220365 0.012892
O O8 0.138793 0.560727 0.389357
O O9 0.006538 0.095696 0.885859
O O10 0.041973 0.906693 0.613577
O O11 0.249492 0.988736 0.972040
O O12 0.201523 0.369943 0.124583
O O13 0.900052 0.647205 0.176433
O O14 0.203952 0.005107 0.674190
O O15 0.560546 0.143393 0.372691
O O16 0.500000 0.500000 0.500000
O O17 0.611565 0.545563 0.792857
#
# Coordination Sequence:
#
# PCOD9010375 Si02
#       8
#     2   2   2   2   2   2   2   2
#     4  12  27  40  62  91 126 171 205 248 309 371
#     4  10  23  43  59  94 124 157 218 255 296 372
#     4  10  22  39  69  88 120 167 204 257 309 359
#     4   9  20  38  63  95 117 155 205 256 309 367
#     4  10  22  42  63  89 128 159 199 258 311 361
#     4  10  21  40  63  88 125 159 206 259 305 356
#     4   9  18  39  64  91 123 155 198 260 307 358
#     4  10  23  43  60  93 130 159 208 255 301 375
#
# _framework density 22.764776999999999
#
# number of rings (size 3 to 8) (size 9 to 14) (size 15 to 20)
#    0.000    2.000    1.250    0.750    5.250    1.500 
#    0.000    8.125    0.000    0.000    0.000    0.000 
#    0.000    0.000    0.000    0.000    0.000    0.000 
#
# Total GULP energy -89384.034021 kJ/mol
# GULP energy per Si atom -5586.502126 kJ/mol
# Density = 2.271296 g / cm^3
# Si number density = 22.764777 Si / 1000 Ang^3
#
#
#
# Elastic Constant Matrix: (Units=GPa)
#
#
# Indices 1 2 3 4 5 6 
#
# 1 81.3304 8.4221 11.8352 -15.6978 -4.1853 21.4112
# 2 8.4221 46.3434 7.8709 5.4146 1.4965 14.3092
# 3 11.8352 7.8709 46.7456 -10.5806 -7.9156 3.6403
# 4 -15.6978 5.4146 -10.5806 28.4809 8.0722 -11.0246
# 5 -4.1853 1.4965 -7.9156 8.0722 26.6493 -2.6925
# 6 21.4112 14.3092 3.6403 -11.0246 -2.6925 30.9338
#
#
#
# Elastic Compliance Matrix: (Units=1/GPa)
#
#
# Indices 1 2 3 4 5 6 
#
# 1 0.015895 -0.000222 -0.002329 0.004577 -0.000482 -0.009036
# 2 -0.000222 0.030511 -0.007337 -0.015596 -0.001098 -0.018750
# 3 -0.002329 -0.007337 0.026035 0.010727 0.005158 0.006214
# 4 0.004577 -0.015596 0.010727 0.055845 -0.009930 0.021822
# 5 -0.000482 -0.001098 0.005158 -0.009930 0.042087 0.000359
# 6 -0.009036 -0.018750 0.006214 0.021822 0.000359 0.054332
#
#
# Mechanical properties :
#
#
# Convention : Reuss Voigt Hill
#
# Bulk Modulus (GPa) = 18.98802 25.63066 22.30934
# Shear Modulus (GPa) = 19.08133 26.96554 23.02344
#
# Velocity S-wave (km/s) = 2.89830 3.44543 3.18364
# Velocity P-wave (km/s) = 4.42259 5.20686 4.83066
#
# Compressibility (1/GPa) = 0.05266477
#
# Stress axis : x y z
#
# Youngs Moduli (GPa) = 62.91372 32.77454 38.41014
#
# Poissons Ratio (x) = 0.00729 0.08945
# Poissons Ratio (y) = 0.01399 0.28181
# Poissons Ratio (z) = 0.14652 0.24046
#
# Static dielectric constant tensor:
#      x y z
#    x 1.841630 0.028240 -0.002930 
#    y 0.028240 1.860520 -0.013400 
#    z -0.002930 -0.013400 1.833420 
# 
# From -- ./inp_files/425318.got.cif
#   From: 2010.05.17/outbox.cif.g08.bks.cpg/sg2_213_cif.got.tgz:425318.got - 2010.06.03 11:33:40.
