data_PCOD9010301
_publ_section_title
;
Structure prediction by ZEFSAII (Michael W. Deem and Ramdas Pophale) SiO2 
 PCOD9010301
Probable space group: P -1
;
_chemical_formula_sum "Si O2"
_cell_formula_units_Z 15
_cell_length_a 5.068392
_cell_length_b 10.896293
_cell_length_c 13.252460
_cell_angle_alpha 78.004700
_cell_angle_beta 97.898677
_cell_angle_gamma 119.386389
_cell_volume 623.253236
_symmetry_space_group_name_H-M "P -1"
_symmetry_group_IT_number 2
_symmetry_cell_setting 'triclinic'
loop_
_space_group_symop_operation_xyz
x,y,z
-x,-y,-z
loop_
_atom_site_type_symbol
_atom_site_label
_atom_site_fract_x
_atom_site_fract_y
_atom_site_fract_z
Si Si1 0.702604 0.045783 0.254261
Si Si2 0.131016 0.769222 0.488844
Si Si3 0.100195 0.672127 0.876048
Si Si4 0.733285 0.929287 0.607597
Si Si5 0.500000 0.500000 0.000000
Si Si6 0.296692 0.434691 0.330214
Si Si7 0.252560 0.475029 0.819255
Si Si8 0.318506 0.721244 0.290931
O O1 0.736979 0.157954 0.151091
O O2 0.461675 0.050703 0.317203
O O3 0.021959 0.102706 0.320014
O O4 0.578475 0.879452 0.252921
O O5 0.468821 0.816670 0.541902
O O6 0.146258 0.724394 0.383517
O O7 0.870826 0.654712 0.565291
O O8 0.105364 0.914962 0.462774
O O9 0.303197 0.588753 0.896698
O O10 0.952406 0.618135 0.764871
O O11 0.855011 0.619576 0.958007
O O12 0.551062 0.583652 0.102573
O O13 0.579687 0.435915 0.286657
O O14 0.419112 0.600951 0.333139
O O15 0.933236 0.348477 0.796376
#
# Coordination Sequence:
#
# PCOD9010301 Si02
#       8
#     2   2   2   2   1   2   2   2
#     4  11  24  43  68  96 138 180 226 273 336 387
#     4  10  21  40  62  97 136 185 233 270 321 377
#     4  10  22  42  69  99 123 169 217 280 329 409
#     4  10  24  41  62  97 137 183 233 276 314 393
#     4  10  22  42  76 100 120 164 218 284 340 410
#     4  10  21  40  63  94 132 182 221 274 321 390
#     4  10  23  44  67  98 134 164 224 278 342 398
#     4  10  24  40  60  96 138 182 218 278 325 395
#
# _framework density 24.067264000000002
#
# number of rings (size 3 to 8) (size 9 to 14) (size 15 to 20)
#    0.000    1.867    1.333    0.800    7.467    5.333 
#    9.600    0.667    0.000    8.000    0.000    0.000 
#    0.000    0.000    0.000    0.000    0.000    0.000 
#
# Total GULP energy -83650.792117 kJ/mol
# GULP energy per Si atom -5576.719474 kJ/mol
# Density = 2.401249 g / cm^3
# Si number density = 24.067264 Si / 1000 Ang^3
#
#
#
# Elastic Constant Matrix: (Units=GPa)
#
#
# Indices 1 2 3 4 5 6 
#
# 1 109.2490 47.4809 33.5387 -12.2426 -8.8201 3.1221
# 2 47.4809 156.4784 55.9447 -29.0035 -4.6070 0.4556
# 3 33.5387 55.9447 94.6080 -17.5308 -4.4101 0.6111
# 4 -12.2426 -29.0035 -17.5308 36.8029 6.7909 0.9991
# 5 -8.8201 -4.6070 -4.4101 6.7909 34.0343 0.4709
# 6 3.1221 0.4556 0.6111 0.9991 0.4709 28.9005
#
#
#
# Elastic Compliance Matrix: (Units=1/GPa)
#
#
# Indices 1 2 3 4 5 6 
#
# 1 0.011178 -0.002421 -0.002363 0.000307 0.002218 -0.001166
# 2 -0.002421 0.009376 -0.003813 0.004920 -0.000835 0.000038
# 3 -0.002363 -0.003813 0.014218 0.002961 0.000124 -0.000090
# 4 0.000307 0.004920 0.002961 0.033622 -0.005562 -0.001245
# 5 0.002218 -0.000835 0.000124 -0.005562 0.030977 -0.000541
# 6 -0.001166 0.000038 -0.000090 -0.001245 -0.000541 0.034781
#
#
# Mechanical properties :
#
#
# Convention : Reuss Voigt Hill
#
# Bulk Modulus (GPa) = 56.89568 70.47378 63.68473
# Shear Modulus (GPa) = 31.80553 34.83894 33.32223
#
# Velocity S-wave (km/s) = 3.63922 3.80882 3.72499
# Velocity P-wave (km/s) = 6.43041 6.97770 6.70964
#
# Compressibility (1/GPa) = 0.01757603
#
# Stress axis : x y z
#
# Youngs Moduli (GPa) = 89.46185 106.65498 70.33539
#
# Poissons Ratio (x) = 0.25825 0.16620
# Poissons Ratio (y) = 0.21662 0.26822
# Poissons Ratio (z) = 0.21140 0.40672
#
# Static dielectric constant tensor:
#      x y z
#    x 2.379250 -0.161520 0.245940 
#    y -0.161520 1.979280 -0.068990 
#    z 0.245940 -0.068990 2.082560 
# 
# From -- ./inp_files/481590.got.cif
#   From: 2010.05.17/outbox.cif.g08.bks.cpg/sg2_241_cif.got.tgz:481590.got - 2010.06.03 11:33:40.
