data_PCOD9010167
_publ_section_title
;
Structure prediction by ZEFSAII (Michael W. Deem and Ramdas Pophale) SiO2 
 PCOD9010167
Probable space group: P -1
;
_chemical_formula_sum "Si O2"
_cell_formula_units_Z 16
_cell_length_a 13.072637
_cell_length_b 9.551619
_cell_length_c 19.202882
_cell_angle_alpha 52.839576
_cell_angle_beta 22.131427
_cell_angle_gamma 46.898558
_cell_volume 655.901258
_symmetry_space_group_name_H-M "P -1"
_symmetry_group_IT_number 2
_symmetry_cell_setting 'triclinic'
loop_
_space_group_symop_operation_xyz
x,y,z
-x,-y,-z
loop_
_atom_site_type_symbol
_atom_site_label
_atom_site_fract_x
_atom_site_fract_y
_atom_site_fract_z
Si Si1 0.816049 0.682473 0.837472
Si Si2 0.962275 0.920045 0.973858
Si Si3 0.143122 0.095924 0.694720
Si Si4 0.236351 0.477669 0.217800
Si Si5 0.694607 0.368241 0.738505
Si Si6 0.331457 0.348761 0.702860
Si Si7 0.305060 0.537895 0.798942
Si Si8 0.929579 0.040460 0.358927
O O1 0.830143 0.662619 0.750731
O O2 0.071912 0.498247 0.772187
O O3 0.847333 0.877144 0.776610
O O4 0.515849 0.692308 0.059759
O O5 0.220552 0.752887 0.816505
O O6 0.757909 0.806888 0.153177
O O7 0.932559 0.099345 0.891041
O O8 0.000000 0.000000 0.000000
O O9 0.045711 0.317497 0.669620
O O10 0.500000 0.000000 0.500000
O O11 0.046113 0.985032 0.730630
O O12 0.289490 0.461378 0.273073
O O13 0.500000 0.500000 0.000000
O O14 0.532719 0.419810 0.751122
O O15 0.995389 0.175291 0.597120
O O16 0.416552 0.472516 0.670031
O O17 0.610034 0.207082 0.526638
O O18 0.000000 0.500000 0.000000
#
# Coordination Sequence:
#
# PCOD9010167 Si02
#       8
#     2   2   2   2   2   2   2   2
#     4  11  19  39  65  93 125 171 216 258 312 375
#     4  11  22  38  66  92 122 166 212 254 313 378
#     4  11  23  40  65  94 127 161 211 265 311 374
#     4   9  21  37  61  91 127 163 202 265 317 368
#     4  10  21  40  62  89 134 166 211 263 316 372
#     4  11  23  41  65  94 131 166 213 260 314 374
#     4  10  21  40  64  88 127 170 210 255 315 382
#     4  11  24  38  64  98 127 166 217 267 311 366
#
# _framework density 24.393915
#
# number of rings (size 3 to 8) (size 9 to 14) (size 15 to 20)
#    0.000    1.500    2.500    3.750    3.500    1.500 
#    0.000    0.000    2.750    4.500    0.000    0.000 
#    0.000    0.000    0.000    0.000    0.000    0.000 
#
# Total GULP energy -89191.394011 kJ/mol
# GULP energy per Si atom -5574.462126 kJ/mol
# Density = 2.433839 g / cm^3
# Si number density = 24.393915 Si / 1000 Ang^3
#
#
#
# Elastic Constant Matrix: (Units=GPa)
#
#
# Indices 1 2 3 4 5 6 
#
# 1 181.6250 43.4541 18.0443 14.4107 18.7338 31.8077
# 2 43.4541 73.6920 22.7433 10.9770 0.0081 20.6889
# 3 18.0443 22.7433 55.1176 7.2547 7.5766 -4.6093
# 4 14.4107 10.9770 7.2547 48.0745 -0.8189 -1.8125
# 5 18.7338 0.0081 7.5766 -0.8189 25.7585 6.8225
# 6 31.8077 20.6889 -4.6093 -1.8125 6.8225 53.3216
#
#
#
# Elastic Compliance Matrix: (Units=1/GPa)
#
#
# Indices 1 2 3 4 5 6 
#
# 1 0.007390 -0.003227 -0.000472 -0.001585 -0.004579 -0.002665
# 2 -0.003227 0.020786 -0.008785 -0.002632 0.006927 -0.007875
# 3 -0.000472 -0.008785 0.023836 -0.001338 -0.008507 0.006794
# 4 -0.001585 -0.002632 -0.001338 0.022197 0.001618 0.002399
# 5 -0.004579 0.006927 -0.008507 0.001618 0.046446 -0.006579
# 6 -0.002665 -0.007875 0.006794 0.002399 -0.006579 0.024910
#
#
# Mechanical properties :
#
#
# Convention : Reuss Voigt Hill
#
# Bulk Modulus (GPa) = 36.97710 53.21312 45.09511
# Shear Modulus (GPa) = 27.84750 40.51046 34.17898
#
# Velocity S-wave (km/s) = 3.38239 4.07956 3.74722
# Velocity P-wave (km/s) = 5.51773 6.63716 6.10316
#
# Compressibility (1/GPa) = 0.02704377
#
# Stress axis : x y z
#
# Youngs Moduli (GPa) = 135.32522 48.10845 41.95277
#
# Poissons Ratio (x) = 0.15524 0.01982
# Poissons Ratio (y) = 0.43666 0.36856
# Poissons Ratio (z) = 0.06394 0.42263
#
# Static dielectric constant tensor:
#      x y z
#    x 2.013340 -0.049200 -0.093150 
#    y -0.049200 2.052980 0.008660 
#    z -0.093150 0.008660 1.960270 
# 
# From -- ./inp_files/566618.got.cif
#   From: 2010.05.17/outbox.cif.g08.bks.cpg/sg2_284_cif.got.tgz:566618.got - 2010.06.03 11:33:40.
