data_PCOD9010005
_publ_section_title
;
Structure prediction by ZEFSAII (Michael W. Deem and Ramdas Pophale) SiO2 
 PCOD9010005
Probable space group: P -1
;
_chemical_formula_sum "Si O2"
_cell_formula_units_Z 16
_cell_length_a 12.436346
_cell_length_b 6.539173
_cell_length_c 19.298576
_cell_angle_alpha 127.270843
_cell_angle_beta 49.550471
_cell_angle_gamma 96.491457
_cell_volume 842.842558
_symmetry_space_group_name_H-M "P -1"
_symmetry_group_IT_number 2
_symmetry_cell_setting 'triclinic'
loop_
_space_group_symop_operation_xyz
x,y,z
-x,-y,-z
loop_
_atom_site_type_symbol
_atom_site_label
_atom_site_fract_x
_atom_site_fract_y
_atom_site_fract_z
Si Si1 0.427963 0.605335 0.252848
Si Si2 0.509840 0.571971 0.369510
Si Si3 0.088577 0.685910 0.215920
Si Si4 0.742893 0.759263 0.371890
Si Si5 0.223682 0.346565 0.224457
Si Si6 0.618703 0.322728 0.976620
Si Si7 0.958829 0.343561 0.424304
Si Si8 0.355383 0.262964 0.435169
O O1 0.492930 0.505406 0.282628
O O2 0.278767 0.543548 0.287195
O O3 0.386249 0.941839 0.337051
O O4 0.544223 0.446000 0.107545
O O5 0.666862 0.611422 0.323095
O O6 0.501620 0.332509 0.374333
O O7 0.365383 0.890911 0.515041
O O8 0.196850 0.452160 0.178880
O O9 0.212261 0.673174 0.102965
O O10 0.927926 0.665636 0.261508
O O11 0.020567 0.006557 0.343875
O O12 0.709893 0.685467 0.448723
O O13 0.056796 0.373799 0.325105
O O14 0.346812 0.010046 0.112174
O O15 0.500000 0.500000 0.000000
O O16 0.776276 0.513118 0.515577
O O17 0.000000 0.500000 0.500000
#
# Coordination Sequence:
#
# PCOD9010005 Si02
#       8
#     2   2   2   2   2   2   2   2
#     4  11  24  38  60  90 118 162 204 241 303 351
#     4  10  22  39  62  87 124 155 199 256 290 360
#     4  11  22  39  60  88 121 161 196 246 295 359
#     4  10  21  40  61  90 119 162 200 238 312 353
#     4  11  23  38  60  87 122 160 196 246 299 361
#     4  11  25  41  61  89 119 164 205 243 294 358
#     4  11  22  32  55  91 127 152 189 241 304 361
#     4  11  21  36  61  91 121 155 194 249 299 358
#
# _framework density 18.983378999999999
#
# number of rings (size 3 to 8) (size 9 to 14) (size 15 to 20)
#    0.000    1.250    3.750    2.250    5.250    1.000 
#    0.000    0.625    0.000    1.500    0.000    0.000 
#    0.000    0.000    0.000    0.000    0.000    0.000 
#
# Total GULP energy -89313.916658 kJ/mol
# GULP energy per Si atom -5582.119791 kJ/mol
# Density = 1.894017 g / cm^3
# Si number density = 18.983379 Si / 1000 Ang^3
#
#
#
# Elastic Constant Matrix: (Units=GPa)
#
#
# Indices 1 2 3 4 5 6 
#
# 1 100.4320 24.4148 15.7720 -7.2075 -11.7596 26.0019
# 2 24.4148 97.5213 13.4566 0.9595 -7.0207 16.7458
# 3 15.7720 13.4566 44.3265 -10.5906 -1.4276 7.9107
# 4 -7.2075 0.9595 -10.5906 26.0503 1.6353 -6.6352
# 5 -11.7596 -7.0207 -1.4276 1.6353 22.5025 -5.7442
# 6 26.0019 16.7458 7.9107 -6.6352 -5.7442 27.8416
#
#
#
# Elastic Compliance Matrix: (Units=1/GPa)
#
#
# Indices 1 2 3 4 5 6 
#
# 1 0.013867 -0.000954 -0.002630 -0.000214 0.004028 -0.010850
# 2 -0.000954 0.012114 -0.003068 -0.003601 0.001815 -0.006008
# 3 -0.002630 -0.003068 0.027031 0.010147 -0.001688 -0.001309
# 4 -0.000214 -0.003601 0.010147 0.045212 -0.001329 0.009983
# 5 0.004028 0.001815 -0.001688 -0.001329 0.048455 0.005307
# 6 -0.010850 -0.006008 -0.001309 0.009983 0.005307 0.053510
#
#
# Mechanical properties :
#
#
# Convention : Reuss Voigt Hill
#
# Bulk Modulus (GPa) = 25.18327 38.84074 32.01201
# Shear Modulus (GPa) = 22.05289 27.85465 24.95377
#
# Velocity S-wave (km/s) = 3.41206 3.83471 3.62955
# Velocity P-wave (km/s) = 5.36821 6.33337 5.87065
#
# Compressibility (1/GPa) = 0.03970890
#
# Stress axis : x y z
#
# Youngs Moduli (GPa) = 72.11276 82.54945 36.99519
#
# Poissons Ratio (x) = 0.07872 0.09728
# Poissons Ratio (y) = 0.06877 0.11350
# Poissons Ratio (z) = 0.18963 0.25327
#
# Static dielectric constant tensor:
#      x y z
#    x 1.658710 0.018870 -0.026890 
#    y 0.018870 1.707330 -0.025320 
#    z -0.026890 -0.025320 1.655370 
# 
# From -- ./inp_files/66225.got.cif
#   From: 2010.05.17/outbox.cif.g08.bks.cpg/sg2_34_cif.got.tgz:66225.got - 2010.06.03 11:33:40.
