data_PCOD9010727
_publ_section_title
;
Structure prediction by ZEFSAII (Michael W. Deem and Ramdas Pophale) SiO2 
 PCOD9010727
Probable space group: P -1
;
_chemical_formula_sum "Si O2"
_cell_formula_units_Z 12
_cell_length_a 9.044527
_cell_length_b 8.694010
_cell_length_c 10.992785
_cell_angle_alpha 129.213384
_cell_angle_beta 109.971411
_cell_angle_gamma 48.351381
_cell_volume 495.815103
_symmetry_space_group_name_H-M "P -1"
_symmetry_group_IT_number 2
_symmetry_cell_setting 'triclinic'
loop_
_space_group_symop_operation_xyz
x,y,z
-x,-y,-z
loop_
_atom_site_type_symbol
_atom_site_label
_atom_site_fract_x
_atom_site_fract_y
_atom_site_fract_z
Si Si1 0.331043 0.788499 0.938990
Si Si2 0.359164 0.760974 0.663130
Si Si3 0.339046 0.412362 0.894003
Si Si4 0.092332 0.212020 0.650117
Si Si5 0.273147 0.262107 0.239031
Si Si6 0.674159 0.963967 0.609977
O O1 0.309808 0.725890 0.765708
O O2 0.244654 0.686938 0.953095
O O3 0.563737 0.642028 0.972623
O O4 0.238121 0.079571 0.072109
O O5 0.500000 0.500000 0.500000
O O6 0.498917 0.846426 0.763364
O O7 0.169174 0.978856 0.642074
O O8 0.203508 0.328383 0.785907
O O9 0.544255 0.223983 0.778237
O O10 0.864553 0.454317 0.704395
O O11 0.165454 0.105540 0.480726
O O12 0.240086 0.244846 0.364915
O O13 0.500000 0.000000 0.500000
#
# Coordination Sequence:
#
# PCOD9010727 Si02
#       6
#     2   2   2   2   2   2
#     4  10  21  40  64  90 123 160 202 248 303 364
#     4  12  25  42  63  87 125 164 202 253 305 359
#     4   9  19  38  67  90 117 163 204 245 302 359
#     4  11  22  38  66  92 123 157 205 252 304 357
#     4  11  23  39  64  93 122 161 203 250 305 357
#     4   9  16  36  62  89 119 158 197 245 294 353
#
# _framework density 24.202567999999999
#
# number of rings (size 3 to 8) (size 9 to 14) (size 15 to 20)
#    0.000    1.667    5.000    2.000    2.333    2.000 
#    0.000    0.000    0.000    0.000    0.000    0.000 
#    0.000    0.000    0.000    0.000    0.000    0.000 
#
# Total GULP energy -67051.121544 kJ/mol
# GULP energy per Si atom -5587.593462 kJ/mol
# Density = 2.414748 g / cm^3
# Si number density = 24.202568 Si / 1000 Ang^3
#
#
#
# Elastic Constant Matrix: (Units=GPa)
#
#
# Indices 1 2 3 4 5 6 
#
# 1 38.5280 12.8077 1.7731 -7.3985 6.9481 -1.6782
# 2 12.8077 153.5495 37.4828 0.4296 -14.3773 1.5550
# 3 1.7731 37.4828 78.1620 -3.4551 -4.0147 12.1847
# 4 -7.3985 0.4296 -3.4551 39.0137 16.7664 -4.6633
# 5 6.9481 -14.3773 -4.0147 16.7664 32.0723 0.2960
# 6 -1.6782 1.5550 12.1847 -4.6633 0.2960 27.5659
#
#
#
# Elastic Compliance Matrix: (Units=1/GPa)
#
#
# Indices 1 2 3 4 5 6 
#
# 1 0.033354 -0.004539 0.000466 0.014117 -0.016625 0.004647
# 2 -0.004539 0.008430 -0.003819 -0.004011 0.006379 0.000189
# 3 0.000466 -0.003819 0.015658 0.000834 -0.000228 -0.006534
# 4 0.014117 -0.004011 0.000834 0.040549 -0.026022 0.007856
# 5 -0.016625 0.006379 -0.000228 -0.026022 0.051273 -0.006224
# 6 0.004647 0.000189 -0.006534 0.007856 -0.006224 0.040833
#
#
# Mechanical properties :
#
#
# Convention : Reuss Voigt Hill
#
# Bulk Modulus (GPa) = 24.00493 41.59630 32.80061
# Shear Modulus (GPa) = 22.75126 34.27543 28.51334
#
# Velocity S-wave (km/s) = 3.06933 3.76731 3.43609
# Velocity P-wave (km/s) = 4.74351 6.01228 5.41518
#
# Compressibility (1/GPa) = 0.04165811
#
# Stress axis : x y z
#
# Youngs Moduli (GPa) = 29.98155 118.62463 63.86343
#
# Poissons Ratio (x) = 0.53843 -0.02974
# Poissons Ratio (y) = 0.13608 0.24388
# Poissons Ratio (z) = -0.01396 0.45300
#
# Static dielectric constant tensor:
#      x y z
#    x 1.952420 -0.031640 0.033500 
#    y -0.031640 2.180860 -0.143070 
#    z 0.033500 -0.143070 2.050190 
# 
# From -- ./inp_files/238551.got.cif
#   From: 2010.05.17/outbox.cif.g08.bks.cpg/sg2_120_cif.got.tgz:238551.got - 2010.06.03 11:33:40.
