data_PCOD9010657
_publ_section_title
;
Structure prediction by ZEFSAII (Michael W. Deem and Ramdas Pophale) SiO2 
 PCOD9010657
Probable space group: P -1
;
_chemical_formula_sum "Si O2"
_cell_formula_units_Z 14
_cell_length_a 9.193094
_cell_length_b 14.920651
_cell_length_c 15.433109
_cell_angle_alpha 37.978844
_cell_angle_beta 141.188183
_cell_angle_gamma 150.233303
_cell_volume 614.698519
_symmetry_space_group_name_H-M "P -1"
_symmetry_group_IT_number 2
_symmetry_cell_setting 'triclinic'
loop_
_space_group_symop_operation_xyz
x,y,z
-x,-y,-z
loop_
_atom_site_type_symbol
_atom_site_label
_atom_site_fract_x
_atom_site_fract_y
_atom_site_fract_z
Si Si1 0.519025 0.183383 0.378715
Si Si2 0.046703 0.097768 0.083393
Si Si3 0.940623 0.749701 0.202562
Si Si4 0.539805 0.510811 0.679920
Si Si5 0.055292 0.107173 0.356194
Si Si6 0.190261 0.599922 0.349400
Si Si7 0.540027 0.838141 0.176348
O O1 0.307834 0.179360 0.213220
O O2 0.352946 0.160704 0.407263
O O3 0.866324 0.382959 0.376837
O O4 0.500000 0.000000 0.500000
O O5 0.148266 0.245857 0.940461
O O6 0.022869 0.931730 0.150644
O O7 0.716885 0.997898 0.056281
O O8 0.683607 0.571396 0.278400
O O9 0.201625 0.738071 0.316898
O O10 0.869453 0.695447 0.730703
O O11 0.445033 0.587042 0.504080
O O12 0.475283 0.326841 0.750798
O O13 0.000000 0.000000 0.500000
O O14 0.781689 0.971872 0.263907
O O15 0.232772 0.685883 0.208376
#
# Coordination Sequence:
#
# PCOD9010657 Si02
#       7
#     2   2   2   2   2   2   2
#     4  11  24  38  60  95 120 153 202 255 300 355
#     4   9  22  43  62  82 123 164 198 245 308 361
#     4  10  21  40  64  85 117 164 207 246 295 363
#     4  11  22  39  62  90 126 158 202 247 308 359
#     4  11  22  37  59  89 122 164 193 241 312 358
#     4  12  22  36  62  93 121 153 202 257 297 351
#     4  10  23  40  59  91 124 160 196 252 309 356
#
# _framework density 22.775393000000001
#
# number of rings (size 3 to 8) (size 9 to 14) (size 15 to 20)
#    0.000    1.429    2.857    3.429    4.000    1.143 
#    0.000    0.000    0.000    2.571    0.000    0.000 
#    0.000    0.000    0.000    0.000    0.000    0.000 
#
# Total GULP energy -78005.602640 kJ/mol
# GULP energy per Si atom -5571.828760 kJ/mol
# Density = 2.272356 g / cm^3
# Si number density = 22.775393 Si / 1000 Ang^3
#
#
#
# Elastic Constant Matrix: (Units=GPa)
#
#
# Indices 1 2 3 4 5 6 
#
# 1 84.3436 13.7124 -4.2251 0.6138 -59.4095 21.0551
# 2 13.7124 65.8448 30.9701 5.6481 -4.9780 -4.1425
# 3 -4.2251 30.9701 34.2135 -14.2640 -67.7465 10.6294
# 4 0.6138 5.6481 -14.2640 32.7723 3.2178 -6.8770
# 5 -59.4095 -4.9780 -67.7465 3.2178 -4.0942 20.2919
# 6 21.0551 -4.1425 10.6294 -6.8770 20.2919 16.5705
#
#
#
# Elastic Compliance Matrix: (Units=1/GPa)
#
#
# Indices 1 2 3 4 5 6 
#
# 1 0.009257 0.002349 -0.009177 -0.004832 -0.003577 -0.002913
# 2 0.002349 0.018113 -0.005660 -0.007310 0.005998 -0.005205
# 3 -0.009177 -0.005660 0.014706 0.012035 -0.009204 0.017077
# 4 -0.004832 -0.007310 0.012035 0.040987 -0.002901 0.017155
# 5 -0.003577 0.005998 -0.009204 -0.002901 0.000515 0.010115
# 6 -0.002913 -0.005205 0.017077 0.017155 0.010115 0.046528
#
#
# Mechanical properties :
#
#
# Convention : Reuss Voigt Hill
#
# Bulk Modulus (GPa) = 58.47273 29.47963 43.97618
# Shear Modulus (GPa) = 31.09819 18.64602 24.87211
#
# Velocity S-wave (km/s) = 3.69918 2.86438 3.30822
# Velocity P-wave (km/s) = 6.63134 4.88992 5.82606
#
# Compressibility (1/GPa) = 0.01710199
#
# Stress axis : x y z
#
# Youngs Moduli (GPa) = 108.02372 55.20853 67.99869
#
# Poissons Ratio (x) = -0.12969 0.62400
# Poissons Ratio (y) = -0.25376 0.38486
# Poissons Ratio (z) = 0.99129 0.31247
#
# Static dielectric constant tensor:
#      x y z
#    x 1.887720 0.021280 0.028980 
#    y 0.021280 1.867170 0.007480 
#    z 0.028980 0.007480 1.887580 
# 
# From -- ./inp_files/171650.got.cif
#   From: 2010.05.17/outbox.cif.g08.bks.cpg/sg2_86_cif.got.tgz:171650.got - 2010.06.03 11:33:40.
