data_PCOD9010755
_publ_section_title
;
Structure prediction by ZEFSAII (Michael W. Deem and Ramdas Pophale) SiO2 
 PCOD9010755
Probable space group: P -1
;
_chemical_formula_sum "Si O2"
_cell_formula_units_Z 16
_cell_length_a 13.846181
_cell_length_b 13.316597
_cell_length_c 13.195967
_cell_angle_alpha 33.580757
_cell_angle_beta 38.736993
_cell_angle_gamma 58.919781
_cell_volume 776.847286
_symmetry_space_group_name_H-M "P -1"
_symmetry_group_IT_number 2
_symmetry_cell_setting 'triclinic'
loop_
_space_group_symop_operation_xyz
x,y,z
-x,-y,-z
loop_
_atom_site_type_symbol
_atom_site_label
_atom_site_fract_x
_atom_site_fract_y
_atom_site_fract_z
Si Si1 0.985460 0.887466 0.001251
Si Si2 0.568147 0.177179 0.874777
Si Si3 0.174853 0.836207 0.153173
Si Si4 0.136476 0.466912 0.706711
Si Si5 0.871188 0.590572 0.726251
Si Si6 0.020944 0.288686 0.153609
Si Si7 0.687104 0.152197 0.196631
Si Si8 0.771523 0.846128 0.740473
O O1 0.881088 0.653365 0.282192
O O2 0.174763 0.908362 0.806137
O O3 0.877663 0.978964 0.948766
O O4 0.000000 0.000000 0.000000
O O5 0.696779 0.155388 0.870416
O O6 0.682281 0.372946 0.557349
O O7 0.419361 0.205152 0.032938
O O8 0.500000 0.000000 0.000000
O O9 0.992718 0.662297 0.468931
O O10 0.259498 0.838335 0.973458
O O11 0.000864 0.565806 0.723665
O O12 0.082588 0.306318 0.973083
O O13 0.805215 0.750487 0.689662
O O14 0.726422 0.377049 0.007947
O O15 0.150804 0.249980 0.155445
O O16 0.859837 0.084561 0.468420
O O17 0.000000 0.500000 0.000000
O O18 0.500000 0.000000 0.500000
#
# Coordination Sequence:
#
# PCOD9010755 Si02
#       8
#     2   2   2   2   2   2   2   2
#     4   9  20  39  64  94 124 172 219 261 341 414
#     4  11  26  43  60  97 137 172 230 284 327 389
#     4  10  22  42  66  89 134 183 214 276 338 399
#     4  10  21  40  64  90 131 176 218 273 338 402
#     4  10  21  41  65  94 129 175 223 265 339 415
#     4  11  22  41  65  92 129 178 223 272 338 395
#     4  10  22  41  67 102 133 167 223 285 336 402
#     4  11  25  40  66  97 130 174 233 276 331 400
#
# _framework density 20.596069
#
# number of rings (size 3 to 8) (size 9 to 14) (size 15 to 20)
#    0.000    1.750    1.250    1.875    7.000    6.500 
#    4.500    1.250    0.000    0.000    0.000    0.000 
#    0.000    0.000    0.000    0.000    0.000    0.000 
#
# Total GULP energy -89138.369697 kJ/mol
# GULP energy per Si atom -5571.148106 kJ/mol
# Density = 2.054919 g / cm^3
# Si number density = 20.596069 Si / 1000 Ang^3
#
#
#
# Elastic Constant Matrix: (Units=GPa)
#
#
# Indices 1 2 3 4 5 6 
#
# 1 54.0811 23.9370 29.2055 5.0799 -0.2553 -2.8339
# 2 23.9370 127.8412 48.5075 -11.9095 -11.8785 1.6753
# 3 29.2055 48.5075 119.3651 4.7374 -21.1875 0.1876
# 4 5.0799 -11.9095 4.7374 29.7129 3.3487 3.8973
# 5 -0.2553 -11.8785 -21.1875 3.3487 38.0631 -2.6898
# 6 -2.8339 1.6753 0.1876 3.8973 -2.6898 29.5157
#
#
#
# Elastic Compliance Matrix: (Units=1/GPa)
#
#
# Indices 1 2 3 4 5 6 
#
# 1 0.022997 -0.003276 -0.004625 -0.004549 -0.002847 0.002765
# 2 -0.003276 0.010346 -0.003494 0.005388 0.000680 -0.001529
# 3 -0.004625 -0.003494 0.012117 -0.003299 0.005960 0.000656
# 4 -0.004549 0.005388 -0.003299 0.038376 -0.003997 -0.006153
# 5 -0.002847 0.000680 0.005960 -0.003997 0.030342 0.002943
# 6 0.002765 -0.001529 0.000656 -0.006153 0.002943 0.035309
#
#
# Mechanical properties :
#
#
# Convention : Reuss Voigt Hill
#
# Bulk Modulus (GPa) = 44.10783 56.06528 50.08656
# Shear Modulus (GPa) = 27.80351 32.76749 30.28550
#
# Velocity S-wave (km/s) = 3.67814 3.99301 3.83881
# Velocity P-wave (km/s) = 6.28494 6.96701 6.63475
#
# Compressibility (1/GPa) = 0.02267171
#
# Stress axis : x y z
#
# Youngs Moduli (GPa) = 43.48431 96.65217 82.52981
#
# Poissons Ratio (x) = 0.31660 0.38167
# Poissons Ratio (y) = 0.14244 0.28834
# Poissons Ratio (z) = 0.20110 0.33769
#
# Static dielectric constant tensor:
#      x y z
#    x 1.831410 0.050760 0.056590 
#    y 0.050760 1.804210 -0.030060 
#    z 0.056590 -0.030060 1.759580 
# 
# From -- ./inp_files/534096.got.cif
#   From: 2010.05.17/outbox.cif.g08.bks.cpg/sg2_268_cif.got.tgz:534096.got - 2010.06.03 11:33:40.
