data_PCOD9010169
_publ_section_title
;
Structure prediction by ZEFSAII (Michael W. Deem and Ramdas Pophale) SiO2 
 PCOD9010169
Probable space group: P -1
;
_chemical_formula_sum "Si O2"
_cell_formula_units_Z 16
_cell_length_a 11.775814
_cell_length_b 16.167201
_cell_length_c 22.282062
_cell_angle_alpha 159.429753
_cell_angle_beta 147.103467
_cell_angle_gamma 27.342489
_cell_volume 683.748894
_symmetry_space_group_name_H-M "P -1"
_symmetry_group_IT_number 2
_symmetry_cell_setting 'triclinic'
loop_
_space_group_symop_operation_xyz
x,y,z
-x,-y,-z
loop_
_atom_site_type_symbol
_atom_site_label
_atom_site_fract_x
_atom_site_fract_y
_atom_site_fract_z
Si Si1 0.252330 0.219228 0.399038
Si Si2 0.932885 0.115441 0.954741
Si Si3 0.367794 0.700087 0.315899
Si Si4 0.135746 0.556028 0.462720
Si Si5 0.679544 0.670843 0.869745
Si Si6 0.285089 0.544814 0.798817
Si Si7 0.854293 0.937940 0.204534
Si Si8 0.702381 0.676840 0.754715
O O1 0.488121 0.162182 0.501680
O O2 0.281226 0.295131 0.394947
O O3 0.000000 0.500000 0.500000
O O4 0.201901 0.973047 0.211653
O O5 0.734403 0.347016 0.069533
O O6 0.111687 0.828934 0.876438
O O7 0.111604 0.216039 0.082436
O O8 0.445480 0.438495 0.215622
O O9 0.458041 0.614116 0.229487
O O10 0.073769 0.862078 0.296095
O O11 0.153600 0.812691 0.666838
O O12 0.233611 0.483945 0.388946
O O13 0.858437 0.617661 0.379545
O O14 0.733415 0.526909 0.730734
O O15 0.500000 0.000000 0.000000
O O16 0.895119 0.679260 0.007380
O O17 0.585144 0.074405 0.207912
#
# Coordination Sequence:
#
# PCOD9010169 Si02
#       8
#     2   2   2   2   2   2   2   2
#     4  11  21  36  64  94 118 155 204 257 291 370
#     4   9  18  34  63  88 110 152 204 248 295 337
#     4  12  23  40  58  95 128 153 202 252 315 353
#     4  10  21  40  62  90 118 161 209 249 299 356
#     4  10  22  38  62  87 116 165 204 245 290 367
#     4   9  18  35  58  86 118 152 195 254 292 357
#     4  11  24  37  62  91 126 163 191 257 310 356
#     4  10  21  41  65  87 120 161 214 244 290 374
#
# _framework density 23.400403000000001
#
# number of rings (size 3 to 8) (size 9 to 14) (size 15 to 20)
#    0.000    1.750    2.500    4.500    1.750    0.500 
#    0.000    3.750    0.000    3.000    0.000    0.000 
#    0.000    0.000    0.000    0.000    0.000    0.000 
#
# Total GULP energy -89342.812958 kJ/mol
# GULP energy per Si atom -5583.925810 kJ/mol
# Density = 2.334714 g / cm^3
# Si number density = 23.400403 Si / 1000 Ang^3
#
#
#
# Elastic Constant Matrix: (Units=GPa)
#
#
# Indices 1 2 3 4 5 6 
#
# 1 122.1725 21.2663 33.7480 -6.5232 -9.7689 -21.2310
# 2 21.2663 64.8105 29.9546 -21.6917 -1.6331 -3.7908
# 3 33.7480 29.9546 111.8316 -31.2389 0.3521 -20.9545
# 4 -6.5232 -21.6917 -31.2389 28.9349 4.0755 3.3586
# 5 -9.7689 -1.6331 0.3521 4.0755 30.5380 -3.9096
# 6 -21.2310 -3.7908 -20.9545 3.3586 -3.9096 16.3066
#
#
#
# Elastic Compliance Matrix: (Units=1/GPa)
#
#
# Indices 1 2 3 4 5 6 
#
# 1 0.012178 -0.003782 -0.000577 -0.003508 0.006276 0.016462
# 2 -0.003782 0.022026 -0.001634 0.014934 -0.002727 -0.005633
# 3 -0.000577 -0.001634 0.017066 0.015052 -0.000218 0.017646
# 4 -0.003508 0.014934 0.015052 0.061983 -0.008323 0.003485
# 5 0.006276 -0.002727 -0.000218 -0.008323 0.038037 0.018090
# 6 0.016462 -0.005633 0.017646 0.003485 0.018090 0.107745
#
#
# Mechanical properties :
#
#
# Convention : Reuss Voigt Hill
#
# Bulk Modulus (GPa) = 25.45588 52.08361 38.76974
# Shear Modulus (GPa) = 17.59851 29.41228 23.50540
#
# Velocity S-wave (km/s) = 2.74535 3.54914 3.17280
# Velocity P-wave (km/s) = 4.57725 6.25309 5.47962
#
# Compressibility (1/GPa) = 0.03928366
#
# Stress axis : x y z
#
# Youngs Moduli (GPa) = 82.11357 45.40134 58.59775
#
# Poissons Ratio (x) = 0.17172 0.03381
# Poissons Ratio (y) = 0.31058 0.09573
# Poissons Ratio (z) = 0.04737 0.07417
#
# Static dielectric constant tensor:
#      x y z
#    x 1.922870 0.049820 -0.028110 
#    y 0.049820 1.958090 -0.013300 
#    z -0.028110 -0.013300 1.940840 
# 
# From -- ./inp_files/559164.got.cif
#   From: 2010.05.17/outbox.cif.g08.bks.cpg/sg2_280_cif.got.tgz:559164.got - 2010.06.03 11:33:40.
