data_PCOD9010140
_publ_section_title
;
Structure prediction by ZEFSAII (Michael W. Deem and Ramdas Pophale) SiO2 
 PCOD9010140
Probable space group: P -1
;
_chemical_formula_sum "Si O2"
_cell_formula_units_Z 14
_cell_length_a 7.143492
_cell_length_b 5.453933
_cell_length_c 16.979439
_cell_angle_alpha 76.212747
_cell_angle_beta 74.322940
_cell_angle_gamma 72.655798
_cell_volume 598.928068
_symmetry_space_group_name_H-M "P -1"
_symmetry_group_IT_number 2
_symmetry_cell_setting 'triclinic'
loop_
_space_group_symop_operation_xyz
x,y,z
-x,-y,-z
loop_
_atom_site_type_symbol
_atom_site_label
_atom_site_fract_x
_atom_site_fract_y
_atom_site_fract_z
Si Si1 0.875623 0.603957 0.084595
Si Si2 0.931885 0.562534 0.759145
Si Si3 0.130661 0.015783 0.382472
Si Si4 0.427039 0.524379 0.126021
Si Si5 0.363652 0.885120 0.965564
Si Si6 0.677859 0.591688 0.571477
Si Si7 0.759103 0.445036 0.399435
O O1 0.645142 0.573123 0.113262
O O2 0.981149 0.471899 0.160695
O O3 0.829074 0.916414 0.061719
O O4 0.000000 0.500000 0.000000
O O5 0.865734 0.861244 0.714595
O O6 0.738918 0.442491 0.790983
O O7 0.108564 0.440854 0.686587
O O8 0.261745 0.176932 0.405942
O O9 0.903216 0.158480 0.424432
O O10 0.195218 0.704899 0.400818
O O11 0.492594 0.225451 0.114613
O O12 0.325008 0.666670 0.046416
O O13 0.500000 0.000000 0.000000
O O14 0.711346 0.609034 0.472275
O O15 0.446893 0.590114 0.610016
#
# Coordination Sequence:
#
# PCOD9010140 Si02
#       7
#     2   2   2   2   2   2   2
#     4  11  23  41  63  91 128 172 226 275 338 402
#     4  10  24  41  58 102 126 171 227 279 342 409
#     4  10  25  43  72 102 142 182 230 285 351 412
#     4  10  21  40  62  88 124 169 214 281 339 394
#     4   9  19  38  65  84 117 167 220 265 336 402
#     4  11  22  48  74 100 144 187 225 292 343 420
#     4   9  24  41  70 105 133 181 240 275 353 421
#
# _framework density 23.375094000000001
#
# number of rings (size 3 to 8) (size 9 to 14) (size 15 to 20)
#    0.857    1.143    0.000    3.429    2.000    6.857 
#    7.714    0.000    0.000    0.000    0.000    0.000 
#    0.000    0.000    0.000    0.000    0.000    0.000 
#
# Total GULP energy -78065.203048 kJ/mol
# GULP energy per Si atom -5576.085932 kJ/mol
# Density = 2.332189 g / cm^3
# Si number density = 23.375094 Si / 1000 Ang^3
#
#
#
# Elastic Constant Matrix: (Units=GPa)
#
#
# Indices 1 2 3 4 5 6 
#
# 1 122.8945 14.3331 49.3965 5.0017 -15.5925 -1.6728
# 2 14.3331 48.0122 17.9542 6.1850 4.1110 -1.2132
# 3 49.3965 17.9542 143.5069 0.5831 -22.0722 -2.6877
# 4 5.0017 6.1850 0.5831 19.8039 -10.2049 -1.4185
# 5 -15.5925 4.1110 -22.0722 -10.2049 49.0269 4.0339
# 6 -1.6728 -1.2132 -2.6877 -1.4185 4.0339 25.3360
#
#
#
# Elastic Compliance Matrix: (Units=1/GPa)
#
#
# Indices 1 2 3 4 5 6 
#
# 1 0.009765 -0.001898 -0.002843 -0.000862 0.001812 -0.000085
# 2 -0.001898 0.024549 -0.003340 -0.010308 -0.006405 0.001138
# 3 -0.002843 -0.003340 0.008995 0.003658 0.004175 0.000147
# 4 -0.000862 -0.010308 0.003658 0.061612 0.014987 0.000901
# 5 0.001812 -0.006405 0.004175 0.014987 0.026770 -0.003167
# 6 -0.000085 0.001138 0.000147 0.000901 -0.003167 0.040089
#
#
# Mechanical properties :
#
#
# Convention : Reuss Voigt Hill
#
# Bulk Modulus (GPa) = 36.83757 53.08681 44.96219
# Shear Modulus (GPa) = 25.38195 34.34867 29.86531
#
# Velocity S-wave (km/s) = 3.29881 3.83751 3.57831
# Velocity P-wave (km/s) = 5.50482 6.51118 6.02903
#
# Compressibility (1/GPa) = 0.02714620
#
# Stress axis : x y z
#
# Youngs Moduli (GPa) = 102.40558 40.73522 111.17624
#
# Poissons Ratio (x) = 0.07733 0.31608
# Poissons Ratio (y) = 0.19440 0.37131
# Poissons Ratio (z) = 0.29114 0.13605
#
# Static dielectric constant tensor:
#      x y z
#    x 1.974160 0.064320 -0.068450 
#    y 0.064320 1.994710 -0.063120 
#    z -0.068450 -0.063120 1.953650 
# 
# From -- ./inp_files/553333.got.cif
#   From: 2010.05.17/outbox.cif.g08.bks.cpg/sg2_277_cif.got.tgz:553333.got - 2010.06.03 11:33:40.
