data_PCOD9010734
_publ_section_title
;
Structure prediction by ZEFSAII (Michael W. Deem and Ramdas Pophale) SiO2 
 PCOD9010734
Probable space group: P -1
;
_chemical_formula_sum "Si O2"
_cell_formula_units_Z 16
_cell_length_a 11.371716
_cell_length_b 18.305833
_cell_length_c 14.763687
_cell_angle_alpha 20.113491
_cell_angle_beta 130.413016
_cell_angle_gamma 129.440437
_cell_volume 800.546843
_symmetry_space_group_name_H-M "P -1"
_symmetry_group_IT_number 2
_symmetry_cell_setting 'triclinic'
loop_
_space_group_symop_operation_xyz
x,y,z
-x,-y,-z
loop_
_atom_site_type_symbol
_atom_site_label
_atom_site_fract_x
_atom_site_fract_y
_atom_site_fract_z
Si Si1 0.477587 0.772116 0.366489
Si Si2 0.489148 0.897878 0.414856
Si Si3 0.169188 0.185047 0.276648
Si Si4 0.398460 0.650170 0.001297
Si Si5 0.880888 0.372196 0.972848
Si Si6 0.984946 0.143928 0.558942
Si Si7 0.277544 0.634754 0.753384
Si Si8 0.255917 0.879896 0.978954
O O1 0.419713 0.887997 0.291709
O O2 0.522997 0.548020 0.687523
O O3 0.352243 0.755710 0.243366
O O4 0.626539 0.923728 0.228640
O O5 0.670838 0.856340 0.547845
O O6 0.402553 0.720978 0.642242
O O7 0.491931 0.131176 0.186846
O O8 0.105925 0.985054 0.417625
O O9 0.205060 0.391059 0.989020
O O10 0.037666 0.254072 0.198593
O O11 0.244473 0.661111 0.972288
O O12 0.351140 0.632225 0.893712
O O13 0.806169 0.269522 0.962043
O O14 0.932790 0.623872 0.698093
O O15 0.857035 0.205799 0.494690
O O16 0.115304 0.989020 0.828272
#
# Coordination Sequence:
#
# PCOD9010734 Si02
#       8
#     2   2   2   2   2   2   2   2
#     4  11  24  39  64  90 123 165 203 254 305 359
#     4  12  24  41  59  94 128 164 203 248 306 366
#     4  10  22  38  62  89 127 162 195 253 307 366
#     4  12  23  37  61  95 125 161 196 249 309 369
#     4  10  22  38  61  94 123 157 203 250 310 362
#     4  10  21  40  64  90 124 164 198 253 310 360
#     4  11  24  39  62  92 127 163 205 247 302 368
#     4  10  22  43  62  89 124 160 207 255 304 359
#
# _framework density 19.986338
#
# number of rings (size 3 to 8) (size 9 to 14) (size 15 to 20)
#    0.000    1.250    5.000    0.750    0.000    5.000 
#    0.000    0.625    0.000    7.500    0.000    0.000 
#    0.000    0.000    0.000    0.000    0.000    0.000 
#
# Total GULP energy -89427.211237 kJ/mol
# GULP energy per Si atom -5589.200702 kJ/mol
# Density = 1.994085 g / cm^3
# Si number density = 19.986338 Si / 1000 Ang^3
#
#
#
# Elastic Constant Matrix: (Units=GPa)
#
#
# Indices 1 2 3 4 5 6 
#
# 1 55.3541 31.8064 11.7511 16.8296 0.3438 5.8736
# 2 31.8064 92.7564 42.3246 -2.5627 -2.0210 -0.3543
# 3 11.7511 42.3246 84.5340 -6.1800 6.2227 8.0457
# 4 16.8296 -2.5627 -6.1800 37.5065 -1.2450 -0.7964
# 5 0.3438 -2.0210 6.2227 -1.2450 24.7080 -3.0298
# 6 5.8736 -0.3543 8.0457 -0.7964 -3.0298 13.2605
#
#
#
# Elastic Compliance Matrix: (Units=1/GPa)
#
#
# Indices 1 2 3 4 5 6 
#
# 1 0.031188 -0.012666 0.003017 -0.014919 -0.005197 -0.018067
# 2 -0.012666 0.019794 -0.009465 0.005970 0.006153 0.013646
# 3 0.003017 -0.009465 0.018046 0.000438 -0.007072 -0.014128
# 4 -0.014919 0.005970 0.000438 0.034149 0.003452 0.009341
# 5 -0.005197 0.006153 -0.007072 0.003452 0.045121 0.017274
# 6 -0.018067 0.013646 -0.014128 0.009341 0.017274 0.096859
#
#
# Mechanical properties :
#
#
# Convention : Reuss Voigt Hill
#
# Bulk Modulus (GPa) = 32.46586 44.93431 38.70009
# Shear Modulus (GPa) = 17.02695 24.87916 20.95305
#
# Velocity S-wave (km/s) = 2.92195 3.53201 3.24137
# Velocity P-wave (km/s) = 5.25956 6.25818 5.78048
#
# Compressibility (1/GPa) = 0.03080159
#
# Stress axis : x y z
#
# Youngs Moduli (GPa) = 32.06385 50.52011 55.41257
#
# Poissons Ratio (x) = 0.63987 -0.16721
# Poissons Ratio (y) = 0.40611 0.52449
# Poissons Ratio (z) = -0.09675 0.47818
#
# Static dielectric constant tensor:
#      x y z
#    x 1.714650 0.024600 0.032320 
#    y 0.024600 1.696820 -0.026500 
#    z 0.032320 -0.026500 1.726540 
# 
# From -- ./inp_files/436517.got.cif
#   From: 2010.05.17/outbox.cif.g08.bks.cpg/sg2_219_cif.got.tgz:436517.got - 2010.06.03 11:33:40.
