data_PCOD9010797
_publ_section_title
;
Structure prediction by ZEFSAII (Michael W. Deem and Ramdas Pophale) SiO2 
 PCOD9010797
Probable space group: P -1
;
_chemical_formula_sum "Si O2"
_cell_formula_units_Z 16
_cell_length_a 11.357686
_cell_length_b 23.836622
_cell_length_c 9.077977
_cell_angle_alpha 141.684371
_cell_angle_beta 133.892912
_cell_angle_gamma 27.713228
_cell_volume 708.602163
_symmetry_space_group_name_H-M "P -1"
_symmetry_group_IT_number 2
_symmetry_cell_setting 'triclinic'
loop_
_space_group_symop_operation_xyz
x,y,z
-x,-y,-z
loop_
_atom_site_type_symbol
_atom_site_label
_atom_site_fract_x
_atom_site_fract_y
_atom_site_fract_z
Si Si1 0.870092 0.063696 0.179287
Si Si2 0.942228 0.460210 0.105068
Si Si3 0.557420 0.869093 0.129793
Si Si4 0.337363 0.665665 0.381356
Si Si5 0.348934 0.965728 0.483281
Si Si6 0.830159 0.380113 0.105174
Si Si7 0.778906 0.402931 0.603683
Si Si8 0.160351 0.285299 0.442896
O O1 0.662545 0.230873 0.362849
O O2 0.694787 0.049484 0.015091
O O3 0.100501 0.007234 0.359057
O O4 0.000000 0.000000 0.000000
O O5 0.810921 0.465655 0.139971
O O6 0.924341 0.574220 0.342132
O O7 0.810587 0.483829 0.886857
O O8 0.222191 0.299325 0.024696
O O9 0.464973 0.909207 0.302265
O O10 0.671672 0.916868 0.277926
O O11 0.607063 0.501253 0.274097
O O12 0.171085 0.690624 0.416924
O O13 0.226118 0.687889 0.170818
O O14 0.552359 0.845146 0.528405
O O15 0.087914 0.275315 0.202007
O O16 0.500000 0.500000 0.500000
O O17 0.989238 0.309608 0.468973
#
# Coordination Sequence:
#
# PCOD9010797 Si02
#       8
#     2   2   2   2   2   2   2   2
#     4  10  22  38  66  93 125 176 218 268 326 396
#     4  11  23  41  64  95 131 172 221 270 327 396
#     4  10  21  40  64  92 130 172 215 270 333 394
#     4  10  21  41  63  97 129 170 226 261 328 405
#     4  10  22  39  60  96 134 163 218 275 329 390
#     4  10  22  40  65  91 135 179 209 267 334 400
#     4  11  22  35  62  96 132 164 210 285 335 375
#     4  12  23  39  62  98 131 166 218 277 333 380
#
# _framework density 22.579666
#
# number of rings (size 3 to 8) (size 9 to 14) (size 15 to 20)
#    0.000    1.500    2.500    3.000    3.500    1.000 
#    0.000    2.500    0.000    2.250    0.000    0.000 
#    0.000    0.000    0.000    0.000    0.000    0.000 
#
# Total GULP energy -89329.479835 kJ/mol
# GULP energy per Si atom -5583.092490 kJ/mol
# Density = 2.252827 g / cm^3
# Si number density = 22.579666 Si / 1000 Ang^3
#
#
#
# Elastic Constant Matrix: (Units=GPa)
#
#
# Indices 1 2 3 4 5 6 
#
# 1 55.8909 26.2132 18.1887 -9.8653 1.0397 -17.0583
# 2 26.2132 123.2205 56.7508 -27.8385 19.8399 -27.5371
# 3 18.1887 56.7508 104.5905 -16.7594 6.5413 -8.5474
# 4 -9.8653 -27.8385 -16.7594 42.0924 -10.2031 7.7333
# 5 1.0397 19.8399 6.5413 -10.2031 28.4795 -13.6898
# 6 -17.0583 -27.5371 -8.5474 7.7333 -13.6898 32.3583
#
#
#
# Elastic Compliance Matrix: (Units=1/GPa)
#
#
# Indices 1 2 3 4 5 6 
#
# 1 0.023876 -0.001756 -0.002127 0.003172 0.008378 0.013317
# 2 -0.001756 0.014469 -0.006000 0.004589 -0.003526 0.007215
# 3 -0.002127 -0.006000 0.013148 0.001387 0.000315 -0.002952
# 4 0.003172 0.004589 0.001387 0.029627 0.008080 0.002281
# 5 0.008378 -0.003526 0.000315 0.008080 0.050058 0.020747
# 6 0.013317 0.007215 -0.002952 0.002281 0.020747 0.051516
#
#
# Mechanical properties :
#
#
# Convention : Reuss Voigt Hill
#
# Bulk Modulus (GPa) = 31.51860 54.00080 42.75970
# Shear Modulus (GPa) = 23.47017 32.75599 28.11308
#
# Velocity S-wave (km/s) = 3.22753 3.81292 3.53237
# Velocity P-wave (km/s) = 5.28000 6.58423 5.96785
#
# Compressibility (1/GPa) = 0.03172729
#
# Stress axis : x y z
#
# Youngs Moduli (GPa) = 41.88281 69.11200 76.05758
#
# Poissons Ratio (x) = 0.12136 0.16176
# Poissons Ratio (y) = 0.07355 0.45636
# Poissons Ratio (z) = 0.08907 0.41469
#
# Static dielectric constant tensor:
#      x y z
#    x 1.857470 -0.055180 0.008250 
#    y -0.055180 1.866650 -0.016710 
#    z 0.008250 -0.016710 1.893650 
# 
# From -- ./inp_files/283445.got.cif
#   From: 2010.05.17/outbox.cif.g08.bks.cpg/sg2_142_cif.got.tgz:283445.got - 2010.06.03 11:33:40.
