data_PCOD9010548
_publ_section_title
;
Structure prediction by ZEFSAII (Michael W. Deem and Ramdas Pophale) SiO2 
 PCOD9010548
Probable space group: P -1
;
_chemical_formula_sum "Si O2"
_cell_formula_units_Z 10
_cell_length_a 9.038178
_cell_length_b 11.232835
_cell_length_c 11.985218
_cell_angle_alpha 45.821279
_cell_angle_beta 35.921662
_cell_angle_gamma 40.188139
_cell_volume 450.708900
_symmetry_space_group_name_H-M "P -1"
_symmetry_group_IT_number 2
_symmetry_cell_setting 'triclinic'
loop_
_space_group_symop_operation_xyz
x,y,z
-x,-y,-z
loop_
_atom_site_type_symbol
_atom_site_label
_atom_site_fract_x
_atom_site_fract_y
_atom_site_fract_z
Si Si1 0.333159 0.692454 0.545775
Si Si2 0.768254 0.296694 0.969678
Si Si3 0.936171 0.953890 0.244518
Si Si4 0.760420 0.987681 0.774605
Si Si5 0.218517 0.333027 0.553146
O O1 0.500000 0.500000 0.500000
O O2 0.346079 0.862003 0.358550
O O3 0.506760 0.657904 0.577693
O O4 0.992971 0.781325 0.721613
O O5 0.793464 0.160362 0.143292
O O6 0.500000 0.500000 0.000000
O O7 0.799710 0.176814 0.915588
O O8 0.044860 0.329395 0.771967
O O9 0.744666 0.850485 0.414303
O O10 0.053383 0.952927 0.295238
O O11 0.500000 0.000000 0.000000
O O12 0.000000 0.500000 0.500000
#
# Coordination Sequence:
#
# PCOD9010548 Si02
#       5
#     2   2   2   2   2
#     4  11  26  45  63 102 136 171 226 272 326 403
#     4   9  20  37  62  94 123 161 215 265 322 386
#     4   9  21  40  62  95 124 164 221 263 321 386
#     4  11  25  44  70  93 134 182 217 269 338 391
#     4  10  21  40  63  94 129 164 214 273 325 379
#
# _framework density 22.187270000000002
#
# number of rings (size 3 to 8) (size 9 to 14) (size 15 to 20)
#    1.200    0.800    0.000    2.400    2.800    3.200 
#    3.600    0.000    0.000    0.000    0.000    0.000 
#    0.000    0.000    0.000    0.000    0.000    0.000 
#
# Total GULP energy -55766.850969 kJ/mol
# GULP energy per Si atom -5576.685097 kJ/mol
# Density = 2.213677 g / cm^3
# Si number density = 22.187270 Si / 1000 Ang^3
#
#
#
# Elastic Constant Matrix: (Units=GPa)
#
#
# Indices 1 2 3 4 5 6 
#
# 1 98.0007 53.6656 3.1986 4.9966 13.8433 -5.2526
# 2 53.6656 206.5422 56.9111 19.7924 1.6395 -16.7250
# 3 3.1986 56.9111 90.5037 15.7756 1.7136 -2.8653
# 4 4.9966 19.7924 15.7756 43.0230 -4.3835 9.2127
# 5 13.8433 1.6395 1.7136 -4.3835 27.7354 -0.1252
# 6 -5.2526 -16.7250 -2.8653 9.2127 -0.1252 31.7900
#
#
#
# Elastic Compliance Matrix: (Units=1/GPa)
#
#
# Indices 1 2 3 4 5 6 
#
# 1 0.013314 -0.003848 0.002366 -0.001507 -0.006799 0.000799
# 2 -0.003848 0.007444 -0.004097 -0.002085 0.001420 0.003521
# 3 0.002366 -0.004097 0.014314 -0.004036 -0.002458 0.000685
# 4 -0.001507 -0.002085 -0.004036 0.028561 0.005594 -0.009964
# 5 -0.006799 0.001420 -0.002458 0.005594 0.040391 -0.002060
# 6 0.000799 0.003521 0.000685 -0.009964 -0.002060 0.036382
#
#
# Mechanical properties :
#
#
# Convention : Reuss Voigt Hill
#
# Bulk Modulus (GPa) = 41.81770 69.17746 55.49758
# Shear Modulus (GPa) = 31.34099 39.26111 35.30105
#
# Velocity S-wave (km/s) = 3.76249 4.21115 3.99312
# Velocity P-wave (km/s) = 6.14521 7.40889 6.80644
#
# Compressibility (1/GPa) = 0.02391332
#
# Stress axis : x y z
#
# Youngs Moduli (GPa) = 75.10818 134.33573 69.86325
#
# Poissons Ratio (x) = 0.51696 -0.16530
# Poissons Ratio (y) = 0.28904 0.28623
# Poissons Ratio (z) = -0.17771 0.55038
#
# Static dielectric constant tensor:
#      x y z
#    x 1.802010 0.012810 -0.008420 
#    y 0.012810 1.780600 0.090740 
#    z -0.008420 0.090740 1.899550 
# 
# From -- ./inp_files/361590.got.cif
#   From: 2010.05.17/outbox.cif.g08.bks.cpg/sg2_181_cif.got.tgz:361590.got - 2010.06.03 11:33:40.
