data_PCOD9010770
_publ_section_title
;
Structure prediction by ZEFSAII (Michael W. Deem and Ramdas Pophale) SiO2 
 PCOD9010770
Probable space group: P -1
;
_chemical_formula_sum "Si O2"
_cell_formula_units_Z 15
_cell_length_a 17.818830
_cell_length_b 17.699398
_cell_length_c 8.977272
_cell_angle_alpha 113.337718
_cell_angle_beta 102.777083
_cell_angle_gamma 17.299309
_cell_volume 632.310329
_symmetry_space_group_name_H-M "P -1"
_symmetry_group_IT_number 2
_symmetry_cell_setting 'triclinic'
loop_
_space_group_symop_operation_xyz
x,y,z
-x,-y,-z
loop_
_atom_site_type_symbol
_atom_site_label
_atom_site_fract_x
_atom_site_fract_y
_atom_site_fract_z
Si Si1 0.637848 0.168972 0.073477
Si Si2 0.779860 0.700096 0.266912
Si Si3 0.643932 0.706598 0.965870
Si Si4 0.566536 0.813740 0.682858
Si Si5 0.000000 0.500000 0.500000
Si Si6 0.749218 0.023098 0.337097
Si Si7 0.180800 0.872827 0.091132
Si Si8 0.015111 0.894082 0.491886
O O1 0.583484 0.132683 0.966539
O O2 0.817092 0.976226 0.158046
O O3 0.316487 0.540554 0.279449
O O4 0.760318 0.104184 0.954463
O O5 0.050628 0.415892 0.282609
O O6 0.500000 0.000000 0.500000
O O7 0.725604 0.835376 0.245289
O O8 0.708693 0.697704 0.128012
O O9 0.551562 0.842921 0.875479
O O10 0.958802 0.333538 0.767082
O O11 0.529670 0.753604 0.598526
O O12 0.860697 0.553107 0.533922
O O13 0.740727 0.115735 0.498538
O O14 0.981512 0.098970 0.325534
O O15 0.500000 0.500000 0.000000
O O16 0.000000 0.000000 0.000000
O O17 0.000000 0.000000 0.500000
#
# Coordination Sequence:
#
# PCOD9010770 Si02
#       8
#     2   2   2   2   1   2   2   2
#     4  10  24  45  70 101 140 184 235 295 365 427
#     4  10  22  39  63  91 128 170 225 281 343 416
#     4  10  22  42  66  96 131 178 231 293 356 428
#     4  10  21  40  64  91 128 171 230 281 350 415
#     4  10  22  36  58  92 128 168 218 278 344 410
#     4  10  23  41  66  98 133 179 226 292 359 428
#     4  12  27  44  73 110 144 189 243 298 365 440
#     4  11  23  44  74 100 141 182 235 294 360 433
#
# _framework density 23.722529999999999
#
# number of rings (size 3 to 8) (size 9 to 14) (size 15 to 20)
#    0.000    1.600    1.333    2.000    3.733    9.600 
#    0.000   10.667    0.000    0.000    0.000    0.000 
#    0.000    0.000    0.000    0.000    0.000    0.000 
#
# Total GULP energy -83568.330750 kJ/mol
# GULP energy per Si atom -5571.222050 kJ/mol
# Density = 2.366854 g / cm^3
# Si number density = 23.722530 Si / 1000 Ang^3
#
#
#
# Elastic Constant Matrix: (Units=GPa)
#
#
# Indices 1 2 3 4 5 6 
#
# 1 223.4901 51.7322 96.7085 -45.7929 -10.7391 -2.2380
# 2 51.7322 83.7237 46.9050 -44.0708 1.9911 6.1534
# 3 96.7085 46.9050 119.3161 -38.6861 1.1624 -4.4634
# 4 -45.7929 -44.0708 -38.6861 51.7374 -4.0593 1.6845
# 5 -10.7391 1.9911 1.1624 -4.0593 52.9762 -13.3635
# 6 -2.2380 6.1534 -4.4634 1.6845 -13.3635 39.2306
#
#
#
# Elastic Compliance Matrix: (Units=1/GPa)
#
#
# Indices 1 2 3 4 5 6 
#
# 1 0.007341 -0.000554 -0.004930 0.002475 0.001932 0.000497
# 2 -0.000554 0.023679 -0.003475 0.017179 -0.000919 -0.005192
# 3 -0.004930 -0.003475 0.015055 0.003841 -0.000490 0.001645
# 4 0.002475 0.017179 0.003841 0.039282 0.001994 -0.003124
# 5 0.001932 -0.000919 -0.000490 0.001994 0.021327 0.007378
# 6 0.000497 -0.005192 0.001645 -0.003124 0.007378 0.029167
#
#
# Mechanical properties :
#
#
# Convention : Reuss Voigt Hill
#
# Bulk Modulus (GPa) = 35.51536 90.80237 63.15886
# Shear Modulus (GPa) = 30.64557 44.20113 37.42335
#
# Velocity S-wave (km/s) = 3.59811 4.32123 3.97614
# Velocity P-wave (km/s) = 5.68027 7.95344 6.91096
#
# Compressibility (1/GPa) = 0.02815683
#
# Stress axis : x y z
#
# Youngs Moduli (GPa) = 136.22331 42.23140 66.42267
#
# Poissons Ratio (x) = 0.02338 0.32748
# Poissons Ratio (y) = 0.07540 0.23085
# Poissons Ratio (z) = 0.67161 0.14677
#
# Static dielectric constant tensor:
#      x y z
#    x 1.887860 -0.065480 0.014060 
#    y -0.065480 1.835730 0.029880 
#    z 0.014060 0.029880 1.860510 
# 
# From -- ./inp_files/336297.got.cif
#   From: 2010.05.17/outbox.cif.g08.bks.cpg/sg2_169_cif.got.tgz:336297.got - 2010.06.03 11:33:40.
