data_PCOD9010695
_publ_section_title
;
Structure prediction by ZEFSAII (Michael W. Deem and Ramdas Pophale) SiO2 
 PCOD9010695
Probable space group: P -1
;
_chemical_formula_sum "Si O2"
_cell_formula_units_Z 12
_cell_length_a 5.124367
_cell_length_b 15.313697
_cell_length_c 14.948573
_cell_angle_alpha 152.243598
_cell_angle_beta 72.357780
_cell_angle_gamma 116.864962
_cell_volume 473.929287
_symmetry_space_group_name_H-M "P -1"
_symmetry_group_IT_number 2
_symmetry_cell_setting 'triclinic'
loop_
_space_group_symop_operation_xyz
x,y,z
-x,-y,-z
loop_
_atom_site_type_symbol
_atom_site_label
_atom_site_fract_x
_atom_site_fract_y
_atom_site_fract_z
Si Si1 0.797150 0.733602 0.374219
Si Si2 0.229436 0.737576 0.751105
Si Si3 0.678048 0.828437 0.277349
Si Si4 0.802038 0.299619 0.938363
Si Si5 0.608257 0.445184 0.580197
Si Si6 0.559280 0.875864 0.011254
O O1 0.651158 0.775543 0.337028
O O2 0.578788 0.692241 0.444057
O O3 0.844619 0.526768 0.166630
O O4 0.107539 0.930582 0.535812
O O5 0.468272 0.677849 0.616809
O O6 0.311303 0.855485 0.943746
O O7 0.967988 0.519747 0.610260
O O8 0.184224 0.900807 0.835954
O O9 0.373673 0.760484 0.191884
O O10 0.883382 0.718975 0.116218
O O11 0.578814 0.149504 0.899463
O O12 0.603476 0.669045 0.796320
#
# Coordination Sequence:
#
# PCOD9010695 Si02
#       6
#     2   2   2   2   2   2
#     4  10  24  44  71  98 138 178 226 281 340 403
#     4  10  21  40  64  88 132 165 223 269 330 394
#     4  11  25  47  68 105 136 179 227 281 337 406
#     4  11  25  44  72 102 137 178 227 279 340 404
#     4  10  21  41  60  97 122 174 214 275 328 397
#     4  10  22  39  63  94 126 173 214 273 330 398
#
# _framework density 25.320233999999999
#
# number of rings (size 3 to 8) (size 9 to 14) (size 15 to 20)
#    0.000    1.667    0.000    3.000    4.667    4.000 
#   21.000    0.000    0.000    0.000    0.000    0.000 
#    0.000    0.000    0.000    0.000    0.000    0.000 
#
# Total GULP energy -67098.341947 kJ/mol
# GULP energy per Si atom -5591.528496 kJ/mol
# Density = 2.526260 g / cm^3
# Si number density = 25.320234 Si / 1000 Ang^3
#
#
#
# Elastic Constant Matrix: (Units=GPa)
#
#
# Indices 1 2 3 4 5 6 
#
# 1 35.4324 25.2905 14.5580 -4.7190 -8.1541 8.7570
# 2 25.2905 150.8004 46.0262 0.8231 -20.5685 14.6487
# 3 14.5580 46.0262 136.0899 16.3457 -16.9543 4.7931
# 4 -4.7190 0.8231 16.3457 45.8707 1.9679 -3.6550
# 5 -8.1541 -20.5685 -16.9543 1.9679 36.0762 -0.3761
# 6 8.7570 14.6487 4.7931 -3.6550 -0.3761 18.4532
#
#
#
# Elastic Compliance Matrix: (Units=1/GPa)
#
#
# Indices 1 2 3 4 5 6 
#
# 1 0.036418 -0.003558 -0.002003 0.003261 0.004946 -0.013191
# 2 -0.003558 0.008727 -0.001963 -0.000338 0.003218 -0.004731
# 3 -0.002003 -0.001963 0.009025 -0.003548 0.002858 -0.000480
# 4 0.003261 -0.000338 -0.003548 0.023852 -0.002379 0.004318
# 5 0.004946 0.003218 0.002858 -0.002379 0.032088 -0.005461
# 6 -0.013191 -0.004731 -0.000480 0.004318 -0.005461 0.065075
#
#
# Mechanical properties :
#
#
# Convention : Reuss Voigt Hill
#
# Bulk Modulus (GPa) = 25.56079 54.89688 40.22883
# Shear Modulus (GPa) = 24.59714 35.84322 30.22018
#
# Velocity S-wave (km/s) = 3.12018 3.76652 3.45848
# Velocity P-wave (km/s) = 4.80600 6.37524 5.64541
#
# Compressibility (1/GPa) = 0.03912243
#
# Stress axis : x y z
#
# Youngs Moduli (GPa) = 27.45890 114.58053 110.79916
#
# Poissons Ratio (x) = 0.40768 0.22197
# Poissons Ratio (y) = 0.09770 0.21748
# Poissons Ratio (z) = 0.05501 0.22490
#
# Static dielectric constant tensor:
#      x y z
#    x 2.084940 0.006400 0.023440 
#    y 0.006400 1.941480 0.038810 
#    z 0.023440 0.038810 2.130630 
# 
# From -- ./inp_files/29125.got.cif
#   From: 2010.05.17/outbox.cif.g08.bks.cpg/sg2_15_cif.got.tgz:29125.got - 2010.06.03 11:33:40.
