data_PCOD9010538
_publ_section_title
;
Structure prediction by ZEFSAII (Michael W. Deem and Ramdas Pophale) SiO2 
 PCOD9010538
Probable space group: P -1
;
_chemical_formula_sum "Si O2"
_cell_formula_units_Z 16
_cell_length_a 10.067843
_cell_length_b 11.869433
_cell_length_c 7.822726
_cell_angle_alpha 99.465577
_cell_angle_beta 95.341478
_cell_angle_gamma 135.727879
_cell_volume 612.756631
_symmetry_space_group_name_H-M "P -1"
_symmetry_group_IT_number 2
_symmetry_cell_setting 'triclinic'
loop_
_space_group_symop_operation_xyz
x,y,z
-x,-y,-z
loop_
_atom_site_type_symbol
_atom_site_label
_atom_site_fract_x
_atom_site_fract_y
_atom_site_fract_z
Si Si1 0.351894 0.046316 0.561708
Si Si2 0.534035 0.099993 0.269608
Si Si3 0.938073 0.026117 0.248079
Si Si4 0.958014 0.714254 0.240911
Si Si5 0.543658 0.512652 0.211639
Si Si6 0.290285 0.137986 0.161472
Si Si7 0.063754 0.554186 0.717288
Si Si8 0.854593 0.635139 0.818795
O O1 0.452980 0.022344 0.701291
O O2 0.231286 0.067238 0.651949
O O3 0.170971 0.867146 0.393871
O O4 0.515796 0.163157 0.460428
O O5 0.354383 0.047147 0.137548
O O6 0.725865 0.247739 0.217376
O O7 0.136185 0.072255 0.279421
O O8 0.026499 0.208299 0.260381
O O9 0.819069 0.906527 0.039436
O O10 0.781047 0.672131 0.302955
O O11 0.914310 0.552903 0.219260
O O12 0.926134 0.718092 0.037542
O O13 0.474086 0.343717 0.230342
O O14 0.381055 0.493509 0.268002
O O15 0.500000 0.500000 0.000000
O O16 0.000000 0.500000 0.500000
O O17 0.908369 0.538474 0.783100
#
# Coordination Sequence:
#
# PCOD9010538 Si02
#       8
#     2   2   2   2   2   2   2   2
#     4  11  24  43  61  93 129 166 203 258 308 366
#     4  11  23  42  59  92 126 163 210 249 308 365
#     4  10  21  42  64  89 126 164 204 258 312 358
#     4  11  21  41  66  91 126 162 207 256 311 369
#     4   9  20  39  62  92 121 155 208 253 308 364
#     4  10  21  40  66  90 122 162 210 258 301 374
#     4  12  22  42  62  90 130 165 202 261 306 368
#     4  10  21  40  63  94 122 161 211 253 310 368
#
# _framework density 26.111509000000002
#
# number of rings (size 3 to 8) (size 9 to 14) (size 15 to 20)
#    0.000    1.500    3.750    1.125    0.000    2.000 
#   11.250    1.875    0.000    0.000    0.000    0.000 
#    0.000    0.000    0.000    0.000    0.000    0.000 
#
# Total GULP energy -89496.462303 kJ/mol
# GULP energy per Si atom -5593.528894 kJ/mol
# Density = 2.605208 g / cm^3
# Si number density = 26.111509 Si / 1000 Ang^3
#
#
#
# Elastic Constant Matrix: (Units=GPa)
#
#
# Indices 1 2 3 4 5 6 
#
# 1 172.4552 38.4245 22.5187 4.3219 -3.4395 14.7242
# 2 38.4245 57.2948 5.2241 -15.3304 6.3058 2.1905
# 3 22.5187 5.2241 71.1536 -15.5880 -3.3603 -3.8690
# 4 4.3219 -15.3304 -15.5880 21.7025 -0.8650 8.1465
# 5 -3.4395 6.3058 -3.3603 -0.8650 43.6664 -7.4318
# 6 14.7242 2.1905 -3.8690 8.1465 -7.4318 38.7263
#
#
#
# Elastic Compliance Matrix: (Units=1/GPa)
#
#
# Indices 1 2 3 4 5 6 
#
# 1 0.008532 -0.008154 -0.004327 -0.010204 0.001171 -0.000844
# 2 -0.008154 0.031096 0.006332 0.029918 -0.004950 -0.005270
# 3 -0.004327 0.006332 0.019197 0.019439 0.000472 -0.000794
# 4 -0.010204 0.029918 0.019439 0.088814 -0.004493 -0.015416
# 5 0.001171 -0.004950 0.000472 -0.004493 0.024599 0.005548
# 6 -0.000844 -0.005270 -0.000794 -0.015416 0.005548 0.030669
#
#
# Mechanical properties :
#
#
# Convention : Reuss Voigt Hill
#
# Bulk Modulus (GPa) = 21.49387 48.13758 34.81573
# Shear Modulus (GPa) = 21.67183 36.46810 29.06996
#
# Velocity S-wave (km/s) = 2.88405 3.74120 3.34024
# Velocity P-wave (km/s) = 4.39770 6.09406 5.31401
#
# Compressibility (1/GPa) = 0.04652489
#
# Stress axis : x y z
#
# Youngs Moduli (GPa) = 117.21259 32.15833 52.09275
#
# Poissons Ratio (x) = 0.26221 0.22542
# Poissons Ratio (y) = 0.95573 -0.32983
# Poissons Ratio (z) = 0.50722 -0.20361
#
# Static dielectric constant tensor:
#      x y z
#    x 2.043300 0.056370 0.008460 
#    y 0.056370 2.167230 0.007290 
#    z 0.008460 0.007290 2.066430 
# 
# From -- ./inp_files/188581.got.cif
#   From: 2010.05.17/outbox.cif.g08.bks.cpg/sg2_95_cif.got.tgz:188581.got - 2010.06.03 11:33:40.
