data_PCOD9010035
_publ_section_title
;
Structure prediction by ZEFSAII (Michael W. Deem and Ramdas Pophale) SiO2 
 PCOD9010035
Probable space group: P -1
;
_chemical_formula_sum "Si O2"
_cell_formula_units_Z 16
_cell_length_a 22.047236
_cell_length_b 6.125083
_cell_length_c 12.667895
_cell_angle_alpha 119.597421
_cell_angle_beta 137.002812
_cell_angle_gamma 41.262743
_cell_volume 763.443336
_symmetry_space_group_name_H-M "P -1"
_symmetry_group_IT_number 2
_symmetry_cell_setting 'triclinic'
loop_
_space_group_symop_operation_xyz
x,y,z
-x,-y,-z
loop_
_atom_site_type_symbol
_atom_site_label
_atom_site_fract_x
_atom_site_fract_y
_atom_site_fract_z
Si Si1 0.901217 0.280010 0.678544
Si Si2 0.201610 0.099993 0.182360
Si Si3 0.069933 0.077624 0.176631
Si Si4 0.439741 0.842550 0.870349
Si Si5 0.115183 0.126434 0.854418
Si Si6 0.666215 0.236837 0.107061
Si Si7 0.336984 0.247981 0.639543
Si Si8 0.549998 0.126659 0.513605
O O1 0.896264 0.510879 0.816207
O O2 0.793592 0.531855 0.523363
O O3 0.025678 0.057745 0.724224
O O4 0.887390 0.071696 0.687616
O O5 0.183475 0.942235 0.218336
O O6 0.323636 0.020765 0.314921
O O7 0.176952 0.016922 0.020869
O O8 0.973882 0.473572 0.167402
O O9 0.000000 0.000000 0.000000
O O10 0.349100 0.962802 0.879034
O O11 0.373564 0.969768 0.705237
O O12 0.551208 0.450418 0.935212
O O13 0.500000 0.000000 0.000000
O O14 0.214309 0.964575 0.853916
O O15 0.657684 0.497671 0.233039
O O16 0.426097 0.060927 0.610890
O O17 0.500000 0.500000 0.500000
O O18 0.500000 0.000000 0.500000
#
# Coordination Sequence:
#
# PCOD9010035 Si02
#       8
#     2   2   2   2   2   2   2   2
#     4  10  21  40  61  92 128 169 213 273 346 402
#     4  10  22  38  62  93 134 170 219 284 342 398
#     4  11  19  37  64  91 129 173 216 278 345 402
#     4   9  21  44  64  89 122 175 217 270 340 396
#     4  11  22  37  62  97 122 166 227 275 330 415
#     4  10  23  40  66  92 128 167 222 276 337 406
#     4  10  24  43  66  88 137 170 213 275 348 403
#     4  11  28  44  69 104 137 181 232 283 345 415
#
# _framework density 20.957678999999999
#
# number of rings (size 3 to 8) (size 9 to 14) (size 15 to 20)
#    0.000    1.750    2.500    0.750    7.000    6.500 
#    0.000    1.250    0.000    0.000    0.000    0.000 
#    0.000    0.000    0.000    0.000    0.000    0.000 
#
# Total GULP energy -89106.138347 kJ/mol
# GULP energy per Si atom -5569.133647 kJ/mol
# Density = 2.090998 g / cm^3
# Si number density = 20.957679 Si / 1000 Ang^3
#
#
#
# Elastic Constant Matrix: (Units=GPa)
#
#
# Indices 1 2 3 4 5 6 
#
# 1 233.1519 56.2969 69.2491 -24.3756 -3.6477 -7.5161
# 2 56.2969 52.3472 24.4314 -1.6899 -9.4863 -8.2110
# 3 69.2491 24.4314 93.9841 -18.5814 -10.5999 2.0733
# 4 -24.3756 -1.6899 -18.5814 25.9817 8.0307 -4.9686
# 5 -3.6477 -9.4863 -10.5999 8.0307 36.4235 -5.4769
# 6 -7.5161 -8.2110 2.0733 -4.9686 -5.4769 30.7332
#
#
#
# Elastic Compliance Matrix: (Units=1/GPa)
#
#
# Indices 1 2 3 4 5 6 
#
# 1 0.007332 -0.006814 -0.002918 0.005372 -0.002998 0.000504
# 2 -0.006814 0.030678 -0.003773 -0.008583 0.009159 0.007029
# 3 -0.002918 -0.003773 0.015411 0.007356 0.001389 -0.001325
# 4 0.005372 -0.008583 0.007356 0.052412 -0.010337 0.005156
# 5 -0.002998 0.009159 0.001389 -0.010337 0.033103 0.005848
# 6 0.000504 0.007029 -0.001325 0.005156 0.005848 0.036504
#
#
# Mechanical properties :
#
#
# Convention : Reuss Voigt Hill
#
# Bulk Modulus (GPa) = 37.86413 75.49311 56.67862
# Shear Modulus (GPa) = 23.66826 33.92808 28.79817
#
# Velocity S-wave (km/s) = 3.36420 4.02790 3.71092
# Velocity P-wave (km/s) = 5.76166 7.59815 6.74272
#
# Compressibility (1/GPa) = 0.02641022
#
# Stress axis : x y z
#
# Youngs Moduli (GPa) = 136.38634 32.59706 64.88750
#
# Poissons Ratio (x) = 0.22213 0.18936
# Poissons Ratio (y) = 0.92937 0.24481
# Poissons Ratio (z) = 0.39802 0.12298
#
# Static dielectric constant tensor:
#      x y z
#    x 1.938620 0.153230 -0.058380 
#    y 0.153230 1.893820 -0.080750 
#    z -0.058380 -0.080750 1.845980 
# 
# From -- ./inp_files/101593.got.cif
#   From: 2010.05.17/outbox.cif.g08.bks.cpg/sg2_51_cif.got.tgz:101593.got - 2010.06.03 11:33:40.
