data_PCOD9010260
_publ_section_title
;
Structure prediction by ZEFSAII (Michael W. Deem and Ramdas Pophale) SiO2 
 PCOD9010260
Probable space group: P -1
;
_chemical_formula_sum "Si O2"
_cell_formula_units_Z 16
_cell_length_a 13.768970
_cell_length_b 20.353139
_cell_length_c 9.378206
_cell_angle_alpha 49.956120
_cell_angle_beta 52.473547
_cell_angle_gamma 22.569262
_cell_volume 771.193945
_symmetry_space_group_name_H-M "P -1"
_symmetry_group_IT_number 2
_symmetry_cell_setting 'triclinic'
loop_
_space_group_symop_operation_xyz
x,y,z
-x,-y,-z
loop_
_atom_site_type_symbol
_atom_site_label
_atom_site_fract_x
_atom_site_fract_y
_atom_site_fract_z
Si Si1 0.506857 0.134994 0.265611
Si Si2 0.410574 0.471380 0.535608
Si Si3 0.823743 0.812019 0.633609
Si Si4 0.714244 0.005117 0.684476
Si Si5 0.682510 0.453005 0.817440
Si Si6 0.721471 0.631630 0.589304
Si Si7 0.132156 0.058625 0.036031
Si Si8 0.066196 0.929842 0.379598
O O1 0.294859 0.203544 0.292211
O O2 0.383332 0.274755 0.294118
O O3 0.704847 0.954483 0.430318
O O4 0.652344 0.086282 0.071047
O O5 0.500000 0.500000 0.500000
O O6 0.401243 0.497554 0.340182
O O7 0.635719 0.264483 0.640516
O O8 0.127126 0.620760 0.625887
O O9 0.722765 0.905006 0.749211
O O10 0.458983 0.211930 0.584722
O O11 0.775619 0.976024 0.837178
O O12 0.926436 0.924848 0.509962
O O13 0.697061 0.544016 0.720561
O O14 0.500000 0.500000 0.000000
O O15 0.958594 0.242788 0.883382
O O16 0.000000 0.500000 0.500000
O O17 0.977618 0.063475 0.176286
O O18 0.000000 0.000000 0.500000
#
# Coordination Sequence:
#
# PCOD9010260 Si02
#       8
#     2   2   2   2   2   2   2   2
#     4  10  23  43  68  97 131 174 226 283 331 396
#     4  12  23  41  68  99 130 181 228 269 332 413
#     4  10  21  42  67  94 130 178 227 268 339 412
#     4  10  21  42  67  94 135 180 217 270 349 410
#     4  12  25  43  66 101 137 171 228 286 332 399
#     4  11  25  47  72  94 133 188 228 270 348 417
#     4  11  23  41  66 101 133 172 225 283 339 387
#     4  10  21  40  62  93 137 176 212 264 344 406
#
# _framework density 20.747050000000002
#
# number of rings (size 3 to 8) (size 9 to 14) (size 15 to 20)
#    0.000    1.250    2.500    4.500    3.500    1.500 
#    0.000    3.750    0.000    0.000    0.000    0.000 
#    0.000    0.000    0.000    0.000    0.000    0.000 
#
# Total GULP energy -89352.741357 kJ/mol
# GULP energy per Si atom -5584.546335 kJ/mol
# Density = 2.069983 g / cm^3
# Si number density = 20.747050 Si / 1000 Ang^3
#
#
#
# Elastic Constant Matrix: (Units=GPa)
#
#
# Indices 1 2 3 4 5 6 
#
# 1 131.6555 39.3911 40.5715 5.4679 -0.6496 18.5794
# 2 39.3911 123.0716 21.5703 0.9327 -9.5001 2.6128
# 3 40.5715 21.5703 67.8423 12.3541 0.4972 16.3558
# 4 5.4679 0.9327 12.3541 32.5621 0.6540 -0.0268
# 5 -0.6496 -9.5001 0.4972 0.6540 21.9233 2.0681
# 6 18.5794 2.6128 16.3558 -0.0268 2.0681 41.2372
#
#
#
# Elastic Compliance Matrix: (Units=1/GPa)
#
#
# Indices 1 2 3 4 5 6 
#
# 1 0.010106 -0.002389 -0.004704 0.000162 -0.000396 -0.002516
# 2 -0.002389 0.009525 -0.002040 0.000823 0.003976 0.001083
# 3 -0.004704 -0.002040 0.020953 -0.007092 -0.000718 -0.006030
# 4 0.000162 0.000823 -0.007092 0.033367 -0.000732 0.002746
# 5 -0.000396 0.003976 -0.000718 -0.000732 0.047568 -0.002175
# 6 -0.002516 0.001083 -0.006030 0.002746 -0.002175 0.027818
#
#
# Mechanical properties :
#
#
# Convention : Reuss Voigt Hill
#
# Bulk Modulus (GPa) = 44.80775 58.40389 51.60582
# Shear Modulus (GPa) = 28.56444 33.88028 31.22236
#
# Velocity S-wave (km/s) = 3.71454 4.04544 3.88352
# Velocity P-wave (km/s) = 6.32781 7.07336 6.71095
#
# Compressibility (1/GPa) = 0.02231757
#
# Stress axis : x y z
#
# Youngs Moduli (GPa) = 98.94743 104.98520 47.72690
#
# Poissons Ratio (x) = 0.25077 0.22453
# Poissons Ratio (y) = 0.23635 0.09737
# Poissons Ratio (z) = 0.46549 0.21419
#
# Static dielectric constant tensor:
#      x y z
#    x 1.889630 0.051370 -0.121200 
#    y 0.051370 1.799020 -0.040330 
#    z -0.121200 -0.040330 1.798890 
# 
# From -- ./inp_files/319245.got.cif
#   From: 2010.05.17/outbox.cif.g08.bks.cpg/sg2_160_cif.got.tgz:319245.got - 2010.06.03 11:33:40.
