data_PCOD9010670
_publ_section_title
;
Structure prediction by ZEFSAII (Michael W. Deem and Ramdas Pophale) SiO2 
 PCOD9010670
Probable space group: P -1
;
_chemical_formula_sum "Si O2"
_cell_formula_units_Z 12
_cell_length_a 9.545449
_cell_length_b 15.510738
_cell_length_c 12.071506
_cell_angle_alpha 29.114548
_cell_angle_beta 90.254265
_cell_angle_gamma 70.463254
_cell_volume 625.019102
_symmetry_space_group_name_H-M "P -1"
_symmetry_group_IT_number 2
_symmetry_cell_setting 'triclinic'
loop_
_space_group_symop_operation_xyz
x,y,z
-x,-y,-z
loop_
_atom_site_type_symbol
_atom_site_label
_atom_site_fract_x
_atom_site_fract_y
_atom_site_fract_z
Si Si1 0.693654 0.416949 0.278718
Si Si2 0.659621 0.520762 0.760141
Si Si3 0.899611 0.903058 0.767591
Si Si4 0.105690 0.473202 0.687775
Si Si5 0.708043 0.731433 0.321184
Si Si6 0.505268 0.184070 0.353336
O O1 0.491756 0.506977 0.217824
O O2 0.788465 0.481190 0.284105
O O3 0.842787 0.124222 0.590786
O O4 0.630558 0.563494 0.998992
O O5 0.678961 0.594955 0.557948
O O6 0.570258 0.734651 0.611451
O O7 0.879056 0.279391 0.067189
O O8 0.731289 0.043026 0.517177
O O9 0.878087 0.738877 0.021784
O O10 0.203913 0.395087 0.655512
O O11 0.874344 0.706767 0.407157
O O12 0.500000 0.000000 0.000000
O O13 0.500000 0.000000 0.500000
#
# Coordination Sequence:
#
# PCOD9010670 Si02
#       6
#     2   2   2   2   2   2
#     4  11  23  39  63  90 122 162 197 249 301 350
#     4  10  23  40  61  92 122 159 203 247 298 355
#     4  10  21  42  60  91 127 156 201 245 295 362
#     4  10  22  41  62  89 122 160 198 246 304 349
#     4  10  21  40  64  87 121 159 200 250 297 357
#     4  11  22  39  63  89 124 161 197 249 300 355
#
# _framework density 19.199413
#
# number of rings (size 3 to 8) (size 9 to 14) (size 15 to 20)
#    0.000    1.667    1.667    4.000    0.000    5.333 
#    3.000   11.667    0.000    0.000    0.000    0.000 
#    0.000    0.000    0.000    0.000    0.000    0.000 
#
# Total GULP energy -66957.184305 kJ/mol
# GULP energy per Si atom -5579.765359 kJ/mol
# Density = 1.915571 g / cm^3
# Si number density = 19.199413 Si / 1000 Ang^3
#
#
#
# Elastic Constant Matrix: (Units=GPa)
#
#
# Indices 1 2 3 4 5 6 
#
# 1 105.5450 51.8116 63.4381 -11.3134 3.4197 4.3291
# 2 51.8116 50.6993 41.8193 5.7569 -1.6096 4.6306
# 3 63.4381 41.8193 99.5223 -17.7753 23.7306 12.2670
# 4 -11.3134 5.7569 -17.7753 26.7744 -3.1797 7.0386
# 5 3.4197 -1.6096 23.7306 -3.1797 41.8811 -4.0397
# 6 4.3291 4.6306 12.2670 7.0386 -4.0397 29.7350
#
#
#
# Elastic Compliance Matrix: (Units=1/GPa)
#
#
# Indices 1 2 3 4 5 6 
#
# 1 0.024821 -0.025351 -0.001865 0.015274 -0.001040 -0.002653
# 2 -0.025351 0.079308 -0.034918 -0.053911 0.022896 0.021617
# 3 -0.001865 -0.034918 0.041168 0.037352 -0.023935 -0.023368
# 4 0.015274 -0.053911 0.037352 0.086237 -0.021072 -0.032514
# 5 -0.001040 0.022896 -0.023935 -0.021072 0.038412 0.016667
# 6 -0.002653 0.021617 -0.023368 -0.032514 0.016667 0.050251
#
#
# Mechanical properties :
#
#
# Convention : Reuss Voigt Hill
#
# Bulk Modulus (GPa) = 47.55855 63.32272 55.44063
# Shear Modulus (GPa) = 11.07477 26.25793 18.66635
#
# Velocity S-wave (km/s) = 2.40433 3.70218 3.12145
# Velocity P-wave (km/s) = 5.70371 7.16436 6.47535
#
# Compressibility (1/GPa) = 0.02102672
#
# Stress axis : x y z
#
# Youngs Moduli (GPa) = 40.28923 12.60904 24.29044
#
# Poissons Ratio (x) = 0.31966 0.04531
# Poissons Ratio (y) = 1.02139 0.84818
# Poissons Ratio (z) = 0.07516 0.44029
#
# Static dielectric constant tensor:
#      x y z
#    x 1.677200 -0.034390 -0.016600 
#    y -0.034390 1.691400 0.044840 
#    z -0.016600 0.044840 1.737340 
# 
# From -- ./inp_files/201140.got.cif
#   From: 2010.05.17/outbox.cif.g08.bks.cpg/sg2_101_cif.got.tgz:201140.got - 2010.06.03 11:33:40.
