data_PCOD9010077
_publ_section_title
;
Structure prediction by ZEFSAII (Michael W. Deem and Ramdas Pophale) SiO2 
 PCOD9010077
Probable space group: P -1
;
_chemical_formula_sum "Si O2"
_cell_formula_units_Z 16
_cell_length_a 9.039955
_cell_length_b 24.638113
_cell_length_c 8.454235
_cell_angle_alpha 125.711013
_cell_angle_beta 62.032499
_cell_angle_gamma 152.630076
_cell_volume 696.723902
_symmetry_space_group_name_H-M "P -1"
_symmetry_group_IT_number 2
_symmetry_cell_setting 'triclinic'
loop_
_space_group_symop_operation_xyz
x,y,z
-x,-y,-z
loop_
_atom_site_type_symbol
_atom_site_label
_atom_site_fract_x
_atom_site_fract_y
_atom_site_fract_z
Si Si1 0.177907 0.465497 0.724926
Si Si2 0.362705 0.908684 0.054586
Si Si3 0.692756 0.369532 0.242611
Si Si4 0.695580 0.999089 0.353160
Si Si5 0.212650 0.207712 0.685026
Si Si6 0.818951 0.630495 0.740243
Si Si7 0.364589 0.555747 0.326156
Si Si8 0.547741 0.228025 0.809621
O O1 0.100972 0.511804 0.774856
O O2 0.562981 0.602029 0.792323
O O3 0.134431 0.396095 0.488805
O O4 0.933122 0.363963 0.813258
O O5 0.638519 0.980079 0.161268
O O6 0.091152 0.862464 0.194518
O O7 0.158519 0.774636 0.872528
O O8 0.500000 0.000000 0.000000
O O9 0.528708 0.364107 0.438547
O O10 0.973319 0.427220 0.294810
O O11 0.484434 0.248849 0.035882
O O12 0.542784 0.879744 0.301588
O O13 0.500000 0.000000 0.500000
O O14 0.053016 0.123795 0.461594
O O15 0.450949 0.348808 0.750092
O O16 0.375564 0.207082 0.712995
O O17 0.604873 0.511160 0.762725
#
# Coordination Sequence:
#
# PCOD9010077 Si02
#       8
#     2   2   2   2   2   2   2   2
#     4  10  22  37  67 101 138 172 220 286 339 408
#     4  11  26  47  71  97 138 183 237 282 330 415
#     4  10  21  40  62 100 136 176 213 283 346 404
#     4  10  26  46  64  97 133 185 231 282 336 399
#     4  11  25  44  70 100 138 184 225 287 343 400
#     4  10  23  39  65 103 132 182 223 278 351 394
#     4  10  22  41  65  99 143 170 222 283 345 408
#     4  12  23  42  71 101 138 180 230 279 345 414
#
# _framework density 22.964618999999999
#
# number of rings (size 3 to 8) (size 9 to 14) (size 15 to 20)
#    0.000    1.500    1.250    2.250    8.750    3.500 
#    0.000    1.250    0.000    0.000    0.000    0.000 
#    0.000    0.000    0.000    0.000    0.000    0.000 
#
# Total GULP energy -89336.160336 kJ/mol
# GULP energy per Si atom -5583.510021 kJ/mol
# Density = 2.291235 g / cm^3
# Si number density = 22.964619 Si / 1000 Ang^3
#
#
#
# Elastic Constant Matrix: (Units=GPa)
#
#
# Indices 1 2 3 4 5 6 
#
# 1 100.0601 28.4352 39.0718 4.0814 13.1489 -13.6350
# 2 28.4352 91.4779 32.6084 4.2418 -1.0349 -30.7382
# 3 39.0718 32.6084 104.9392 23.7707 19.2224 -5.9055
# 4 4.0814 4.2418 23.7707 24.6938 1.7184 4.5422
# 5 13.1489 -1.0349 19.2224 1.7184 36.4339 6.9605
# 6 -13.6350 -30.7382 -5.9055 4.5422 6.9605 38.3527
#
#
#
# Elastic Compliance Matrix: (Units=1/GPa)
#
#
# Indices 1 2 3 4 5 6 
#
# 1 0.012736 -0.001714 -0.003779 0.001506 -0.003294 0.002992
# 2 -0.001714 0.017104 -0.003811 -0.001346 0.000785 0.012529
# 3 -0.003779 -0.003811 0.016816 -0.014635 -0.007160 0.001225
# 4 0.001506 -0.001346 -0.014635 0.056066 0.006525 -0.010621
# 5 -0.003294 0.000785 -0.007160 0.006525 0.033760 -0.008545
# 6 0.002992 0.012529 0.001225 -0.010621 -0.008545 0.040176
#
#
# Mechanical properties :
#
#
# Convention : Reuss Voigt Hill
#
# Bulk Modulus (GPa) = 35.65062 55.18977 45.42020
# Shear Modulus (GPa) = 24.43628 32.98686 28.71157
#
# Velocity S-wave (km/s) = 3.26557 3.79413 3.53973
# Velocity P-wave (km/s) = 5.45678 6.57864 6.04380
#
# Compressibility (1/GPa) = 0.02805000
#
# Stress axis : x y z
#
# Youngs Moduli (GPa) = 78.51999 58.46626 59.46727
#
# Poissons Ratio (x) = 0.10018 0.22471
# Poissons Ratio (y) = 0.13454 0.22660
# Poissons Ratio (z) = 0.29670 0.22279
#
# Static dielectric constant tensor:
#      x y z
#    x 1.832570 -0.002940 0.049580 
#    y -0.002940 1.805960 -0.003880 
#    z 0.049580 -0.003880 1.954150 
# 
# From -- ./inp_files/226461.got.cif
#   From: 2010.05.17/outbox.cif.g08.bks.cpg/sg2_114_cif.got.tgz:226461.got - 2010.06.03 11:33:40.
