data_PCOD9010096
_publ_section_title
;
Structure prediction by ZEFSAII (Michael W. Deem and Ramdas Pophale) SiO2 
 PCOD9010096
Probable space group: P -1
;
_chemical_formula_sum "Si O2"
_cell_formula_units_Z 14
_cell_length_a 8.130656
_cell_length_b 10.440352
_cell_length_c 9.139519
_cell_angle_alpha 104.021297
_cell_angle_beta 109.343952
_cell_angle_gamma 100.860806
_cell_volume 678.939838
_symmetry_space_group_name_H-M "P -1"
_symmetry_group_IT_number 2
_symmetry_cell_setting 'triclinic'
loop_
_space_group_symop_operation_xyz
x,y,z
-x,-y,-z
loop_
_atom_site_type_symbol
_atom_site_label
_atom_site_fract_x
_atom_site_fract_y
_atom_site_fract_z
Si Si1 0.018645 0.598022 0.397120
Si Si2 0.391757 0.032611 0.119446
Si Si3 0.399619 0.794125 0.511989
Si Si4 0.813359 0.510275 0.018221
Si Si5 0.928488 0.115344 0.578362
Si Si6 0.203721 0.193469 0.919411
Si Si7 0.524559 0.218774 0.788663
O O1 0.232370 0.650571 0.425423
O O2 0.992816 0.747714 0.459724
O O3 0.000000 0.500000 0.500000
O O4 0.871873 0.532215 0.211637
O O5 0.369691 0.893079 0.166679
O O6 0.499494 0.158824 0.292531
O O7 0.500000 0.000000 0.000000
O O8 0.231939 0.087320 0.019579
O O9 0.285548 0.905225 0.489473
O O10 0.511782 0.789775 0.398143
O O11 0.765441 0.646736 0.984655
O O12 0.653778 0.371306 0.905796
O O13 0.000000 0.500000 0.000000
O O14 0.007217 0.147570 0.772647
O O15 0.000000 0.000000 0.500000
O O16 0.346504 0.192044 0.830106
#
# Coordination Sequence:
#
# PCOD9010096 Si02
#       7
#     2   2   2   2   2   2   2
#     4   9  21  35  62  84 113 157 206 237 292 352
#     4  10  22  37  61  91 123 156 198 249 301 352
#     4  10  21  40  62  85 122 160 202 243 302 360
#     4  11  21  43  61  87 124 161 200 246 306 359
#     4   9  18  36  59  82 118 154 199 241 292 351
#     4  10  22  38  60  94 118 156 202 248 303 351
#     4  11  21  38  63  87 121 165 194 250 303 361
#
# _framework density 20.620384000000001
#
# number of rings (size 3 to 8) (size 9 to 14) (size 15 to 20)
#    0.857    1.143    1.429    2.571    4.000    0.000 
#    0.000    7.857    0.000    0.000    0.000    0.000 
#    0.000    0.000    0.000    0.000    0.000    0.000 
#
# Total GULP energy -77977.631786 kJ/mol
# GULP energy per Si atom -5569.830842 kJ/mol
# Density = 2.057345 g / cm^3
# Si number density = 20.620384 Si / 1000 Ang^3
#
#
#
# Elastic Constant Matrix: (Units=GPa)
#
#
# Indices 1 2 3 4 5 6 
#
# 1 60.3291 4.1680 -0.7257 -5.1226 -9.6623 -7.6444
# 2 4.1680 91.4028 31.5412 -8.7812 -2.1296 -19.5522
# 3 -0.7257 31.5412 68.0138 3.2330 -2.1341 -2.8887
# 4 -5.1226 -8.7812 3.2330 34.4930 -4.4741 11.0873
# 5 -9.6623 -2.1296 -2.1341 -4.4741 30.3992 -2.0066
# 6 -7.6444 -19.5522 -2.8887 11.0873 -2.0066 23.4617
#
#
#
# Elastic Compliance Matrix: (Units=1/GPa)
#
#
# Indices 1 2 3 4 5 6 
#
# 1 0.018557 0.000777 0.000240 0.001709 0.006649 0.006484
# 2 0.000777 0.016112 -0.006928 0.001102 0.001875 0.012467
# 3 0.000240 -0.006928 0.017961 -0.002664 0.000315 -0.002198
# 4 0.001709 0.001102 -0.002664 0.035231 0.004622 -0.015106
# 5 0.006649 0.001875 0.000315 0.004622 0.036151 0.004675
# 6 0.006484 0.012467 -0.002198 -0.015106 0.004675 0.062393
#
#
# Mechanical properties :
#
#
# Convention : Reuss Voigt Hill
#
# Bulk Modulus (GPa) = 24.50401 32.19029 28.34715
# Shear Modulus (GPa) = 23.60396 29.98825 26.79611
#
# Velocity S-wave (km/s) = 3.38700 3.81767 3.60876
# Velocity P-wave (km/s) = 5.21583 5.92263 5.58043
#
# Compressibility (1/GPa) = 0.04080964
#
# Stress axis : x y z
#
# Youngs Moduli (GPa) = 53.88898 62.06484 55.67494
#
# Poissons Ratio (x) = -0.04823 -0.01339
# Poissons Ratio (y) = -0.04187 0.38570
# Poissons Ratio (z) = -0.01296 0.42997
#
# Static dielectric constant tensor:
#      x y z
#    x 1.760030 0.006030 0.012740 
#    y 0.006030 1.749340 0.044460 
#    z 0.012740 0.044460 1.757460 
# 
# From -- ./inp_files/165208.got.cif
#   From: 2010.05.17/outbox.cif.g08.bks.cpg/sg2_83_cif.got.tgz:165208.got - 2010.06.03 11:33:40.
