data_PCOD9010740
_publ_section_title
;
Structure prediction by ZEFSAII (Michael W. Deem and Ramdas Pophale) SiO2 
 PCOD9010740
Probable space group: P -1
;
_chemical_formula_sum "Si O2"
_cell_formula_units_Z 14
_cell_length_a 24.657638
_cell_length_b 11.005238
_cell_length_c 13.834917
_cell_angle_alpha 138.046440
_cell_angle_beta 21.074405
_cell_angle_gamma 149.037493
_cell_volume 661.387649
_symmetry_space_group_name_H-M "P -1"
_symmetry_group_IT_number 2
_symmetry_cell_setting 'triclinic'
loop_
_space_group_symop_operation_xyz
x,y,z
-x,-y,-z
loop_
_atom_site_type_symbol
_atom_site_label
_atom_site_fract_x
_atom_site_fract_y
_atom_site_fract_z
Si Si1 0.218446 0.075545 0.693307
Si Si2 0.055286 0.256776 0.367588
Si Si3 0.242366 0.259768 0.384984
Si Si4 0.081274 0.688160 0.064062
Si Si5 0.354991 0.495342 0.833596
Si Si6 0.335744 0.218231 0.994578
Si Si7 0.931572 0.515209 0.834519
O O1 0.317465 0.251549 0.727377
O O2 0.403710 0.260338 0.418527
O O3 0.140843 0.806242 0.663843
O O4 0.000000 0.000000 0.000000
O O5 0.970513 0.372653 0.619246
O O6 0.211287 0.420816 0.118658
O O7 0.181088 0.246373 0.231658
O O8 0.868717 0.962765 0.485088
O O9 0.440941 0.525015 0.250357
O O10 0.091064 0.296739 0.624247
O O11 0.307951 0.193715 0.142943
O O12 0.113057 0.588671 0.045139
O O13 0.000000 0.500000 0.000000
O O14 0.280887 0.981689 0.896912
O O15 0.252221 0.521381 0.930470
#
# Coordination Sequence:
#
# PCOD9010740 Si02
#       7
#     2   2   2   2   2   2   2
#     4   9  22  43  60  86 125 164 208 259 312 375
#     4  11  21  39  64  95 126 163 213 261 311 376
#     4  10  21  41  64  88 129 168 210 263 314 369
#     4  11  23  40  62  94 130 164 211 263 317 375
#     4  10  23  41  64  90 121 170 211 254 324 377
#     4  10  21  40  64  90 125 173 210 258 316 371
#     4  11  22  39  62  92 131 161 209 266 309 374
#
# _framework density 21.167615999999999
#
# number of rings (size 3 to 8) (size 9 to 14) (size 15 to 20)
#    0.000    1.714    2.857    1.286    4.000    5.714 
#    5.143    0.000    0.000    0.000    0.000    0.000 
#    0.000    0.000    0.000    0.000    0.000    0.000 
#
# Total GULP energy -78077.518798 kJ/mol
# GULP energy per Si atom -5576.965628 kJ/mol
# Density = 2.111944 g / cm^3
# Si number density = 21.167616 Si / 1000 Ang^3
#
#
#
# Elastic Constant Matrix: (Units=GPa)
#
#
# Indices 1 2 3 4 5 6 
#
# 1 32.1093 61.6566 51.1259 1.2528 24.8605 16.5085
# 2 61.6566 147.0699 40.4601 -24.7362 -20.0628 -5.8497
# 3 51.1259 40.4601 70.9494 -24.2742 -4.2136 -9.8348
# 4 1.2528 -24.7362 -24.2742 32.8397 12.4135 -0.5022
# 5 24.8605 -20.0628 -4.2136 12.4135 8.8887 -8.2126
# 6 16.5085 -5.8497 -9.8348 -0.5022 -8.2126 14.5830
#
#
#
# Elastic Compliance Matrix: (Units=1/GPa)
#
#
# Indices 1 2 3 4 5 6 
#
# 1 0.001321 0.002805 -0.002518 -0.010285 0.028288 0.013508
# 2 0.002805 0.006998 -0.006654 0.001293 -0.003032 -0.006519
# 3 -0.002518 -0.006654 0.027353 0.029318 -0.037130 -0.001272
# 4 -0.010285 0.001293 0.029318 0.074688 -0.055964 0.002989
# 5 0.028288 -0.003032 -0.037130 -0.055964 0.065608 -0.023259
# 6 0.013508 -0.006519 -0.001272 0.002989 -0.023259 0.036813
#
#
# Mechanical properties :
#
#
# Convention : Reuss Voigt Hill
#
# Bulk Modulus (GPa) = 43.59397 61.84600 52.71999
# Shear Modulus (GPa) = 21.44442 17.72134 19.58288
#
# Velocity S-wave (km/s) = 3.18634 2.89656 3.04490
# Velocity P-wave (km/s) = 5.84606 6.36141 6.10917
#
# Compressibility (1/GPa) = 0.02293895
#
# Stress axis : x y z
#
# Youngs Moduli (GPa) = 757.01667 142.88934 36.55912
#
# Poissons Ratio (x) = -0.40085 0.09206
# Poissons Ratio (y) = -2.12365 0.24326
# Poissons Ratio (z) = 1.90619 0.95078
#
# Static dielectric constant tensor:
#      x y z
#    x 1.780280 0.022480 0.007350 
#    y 0.022480 1.809290 -0.039000 
#    z 0.007350 -0.039000 1.795040 
# 
# From -- ./inp_files/543967.got.cif
#   From: 2010.05.17/outbox.cif.g08.bks.cpg/sg2_272_cif.got.tgz:543967.got - 2010.06.03 11:33:40.
