data_PCOD9010613
_publ_section_title
;
Structure prediction by ZEFSAII (Michael W. Deem and Ramdas Pophale) SiO2 
 PCOD9010613
Probable space group: P -1
;
_chemical_formula_sum "Si O2"
_cell_formula_units_Z 14
_cell_length_a 16.109270
_cell_length_b 5.866884
_cell_length_c 15.083002
_cell_angle_alpha 128.352046
_cell_angle_beta 36.541396
_cell_angle_gamma 134.372183
_cell_volume 600.913956
_symmetry_space_group_name_H-M "P -1"
_symmetry_group_IT_number 2
_symmetry_cell_setting 'triclinic'
loop_
_space_group_symop_operation_xyz
x,y,z
-x,-y,-z
loop_
_atom_site_type_symbol
_atom_site_label
_atom_site_fract_x
_atom_site_fract_y
_atom_site_fract_z
Si Si1 0.886194 0.742869 0.605353
Si Si2 0.359357 0.677022 0.576933
Si Si3 0.967078 0.246584 0.329785
Si Si4 0.266212 0.835839 0.167415
Si Si5 0.506035 0.164216 0.900079
Si Si6 0.146210 0.020893 0.820375
Si Si7 0.444089 0.654170 0.701451
O O1 0.863458 0.404938 0.502159
O O2 0.957804 0.823076 0.662492
O O3 0.742635 0.825570 0.745374
O O4 0.000000 0.000000 0.500000
O O5 0.396765 0.649378 0.639677
O O6 0.399646 0.398711 0.431267
O O7 0.500000 0.000000 0.500000
O O8 0.205211 0.735387 0.711711
O O9 0.102865 0.532154 0.226792
O O10 0.889231 0.985352 0.257063
O O11 0.328266 0.786744 0.196199
O O12 0.386826 0.881065 0.997703
O O13 0.468279 0.000052 0.798959
O O14 0.500000 0.500000 0.000000
O O15 0.296063 0.350273 0.795101
O O16 0.000000 0.000000 0.000000
#
# Coordination Sequence:
#
# PCOD9010613 Si02
#       7
#     2   2   2   2   2   2   2
#     4   9  20  39  61  91 130 172 209 268 321 403
#     4   9  22  45  64  96 132 180 224 273 328 403
#     4  10  21  40  63  97 133 167 218 266 337 397
#     4  10  22  40  61  94 128 171 213 272 331 387
#     4  11  24  40  64  94 128 175 224 277 326 388
#     4  11  24  41  70 105 135 177 218 281 342 409
#     4  10  23  45  67  96 134 180 227 272 337 399
#
# _framework density 23.297843
#
# number of rings (size 3 to 8) (size 9 to 14) (size 15 to 20)
#    0.000    2.000    0.000    1.714    2.000    9.714 
#   25.714    0.000    0.000    0.000    0.000    0.000 
#    0.000    0.000    0.000    0.000    0.000    0.000 
#
# Total GULP energy -78043.817269 kJ/mol
# GULP energy per Si atom -5574.558376 kJ/mol
# Density = 2.324482 g / cm^3
# Si number density = 23.297843 Si / 1000 Ang^3
#
#
#
# Elastic Constant Matrix: (Units=GPa)
#
#
# Indices 1 2 3 4 5 6 
#
# 1 92.5116 25.6377 58.7775 20.5730 -3.3340 -2.0752
# 2 25.6377 91.7645 43.1096 13.0188 3.6970 6.1502
# 3 58.7775 43.1096 113.5214 6.9697 -7.2645 10.9977
# 4 20.5730 13.0188 6.9697 45.0772 -0.1959 7.9042
# 5 -3.3340 3.6970 -7.2645 -0.1959 39.9835 8.0234
# 6 -2.0752 6.1502 10.9977 7.9042 8.0234 32.6213
#
#
#
# Elastic Compliance Matrix: (Units=1/GPa)
#
#
# Indices 1 2 3 4 5 6 
#
# 1 0.019351 0.000294 -0.010417 -0.008578 -0.001795 0.007207
# 2 0.000294 0.013912 -0.005441 -0.003435 -0.002398 0.000652
# 3 -0.010417 -0.005441 0.016971 0.005059 0.004275 -0.007636
# 4 -0.008578 -0.003435 0.005059 0.027892 0.002458 -0.008966
# 5 -0.001795 -0.002398 0.004275 0.002458 0.027573 -0.008480
# 6 0.007207 0.000652 -0.007636 -0.008966 -0.008480 0.037823
#
#
# Mechanical properties :
#
#
# Convention : Reuss Voigt Hill
#
# Bulk Modulus (GPa) = 52.34098 61.42747 56.88423
# Shear Modulus (GPa) = 27.62133 34.88790 31.25461
#
# Velocity S-wave (km/s) = 3.44695 3.87392 3.66666
# Velocity P-wave (km/s) = 6.19328 6.81418 6.51114
#
# Compressibility (1/GPa) = 0.01910549
#
# Stress axis : x y z
#
# Youngs Moduli (GPa) = 51.67610 71.88209 58.92238
#
# Poissons Ratio (x) = -0.02111 0.61382
# Poissons Ratio (y) = -0.01517 0.32058
# Poissons Ratio (z) = 0.53833 0.39109
#
# Static dielectric constant tensor:
#      x y z
#    x 1.878930 -0.000940 -0.031420 
#    y -0.000940 1.979890 -0.014280 
#    z -0.031420 -0.014280 2.030660 
# 
# From -- ./inp_files/365273.got.cif
#   From: 2010.05.17/outbox.cif.g08.bks.cpg/sg2_183_cif.got.tgz:365273.got - 2010.06.03 11:33:40.
