data_PCOD9010625
_publ_section_title
;
Structure prediction by ZEFSAII (Michael W. Deem and Ramdas Pophale) SiO2 
 PCOD9010625
Probable space group: P -1
;
_chemical_formula_sum "Si O2"
_cell_formula_units_Z 16
_cell_length_a 15.958877
_cell_length_b 5.621341
_cell_length_c 11.905326
_cell_angle_alpha 51.703807
_cell_angle_beta 53.370200
_cell_angle_gamma 59.462977
_cell_volume 656.241451
_symmetry_space_group_name_H-M "P -1"
_symmetry_group_IT_number 2
_symmetry_cell_setting 'triclinic'
loop_
_space_group_symop_operation_xyz
x,y,z
-x,-y,-z
loop_
_atom_site_type_symbol
_atom_site_label
_atom_site_fract_x
_atom_site_fract_y
_atom_site_fract_z
Si Si1 0.356555 0.254848 0.132742
Si Si2 0.097467 0.041179 0.068623
Si Si3 0.534589 0.683605 0.190289
Si Si4 0.225537 0.777274 0.470269
Si Si5 0.344697 0.395042 0.330338
Si Si6 0.661367 0.281001 0.392613
Si Si7 0.004195 0.139334 0.582114
Si Si8 0.857609 0.326418 0.082877
O O1 0.334334 0.499939 0.178426
O O2 0.473247 0.042526 0.136044
O O3 0.271242 0.045916 0.291223
O O4 0.370747 0.349719 0.967247
O O5 0.978331 0.182264 0.072065
O O6 0.159327 0.318223 0.960919
O O7 0.078587 0.935885 0.240275
O O8 0.142954 0.768496 0.021647
O O9 0.442939 0.522000 0.263160
O O10 0.576112 0.525272 0.319545
O O11 0.229684 0.533333 0.439445
O O12 0.304247 0.589021 0.555958
O O13 0.122226 0.936843 0.573954
O O14 0.369229 0.032279 0.446918
O O15 0.764350 0.193418 0.254779
O O16 0.000000 0.500000 0.500000
O O17 0.000000 0.000000 0.500000
#
# Coordination Sequence:
#
# PCOD9010625 Si02
#       8
#     2   2   2   2   2   2   2   2
#     4   9  21  41  65  90 138 173 221 274 339 416
#     4  10  22  43  65  95 132 170 228 267 347 391
#     4  10  21  40  63  98 130 179 219 280 340 405
#     4  10  24  43  64  94 130 176 223 281 343 405
#     4  10  22  39  66  94 132 176 221 282 339 407
#     4  11  23  38  67  95 135 170 235 280 337 405
#     4  12  27  44  72 100 137 181 228 283 341 418
#     4  10  22  40  68  94 130 177 212 288 329 399
#
# _framework density 24.381271999999999
#
# number of rings (size 3 to 8) (size 9 to 14) (size 15 to 20)
#    0.000    1.750    1.250    1.500    5.250    8.500 
#    0.000    0.000    0.000    0.000    0.000    0.000 
#    0.000    0.000    0.000    0.000    0.000    0.000 
#
# Total GULP energy -89260.208755 kJ/mol
# GULP energy per Si atom -5578.763047 kJ/mol
# Density = 2.432578 g / cm^3
# Si number density = 24.381272 Si / 1000 Ang^3
#
#
#
# Elastic Constant Matrix: (Units=GPa)
#
#
# Indices 1 2 3 4 5 6 
#
# 1 54.1282 26.1167 15.9221 4.1434 13.7735 14.7799
# 2 26.1167 91.3176 17.6565 21.0159 11.3085 13.9457
# 3 15.9221 17.6565 123.9337 22.2371 13.8201 18.4209
# 4 4.1434 21.0159 22.2371 39.3064 4.1642 5.9376
# 5 13.7735 11.3085 13.8201 4.1642 37.1447 9.4984
# 6 14.7799 13.9457 18.4209 5.9376 9.4984 35.5921
#
#
#
# Elastic Compliance Matrix: (Units=1/GPa)
#
#
# Indices 1 2 3 4 5 6 
#
# 1 0.024545 -0.005761 -0.001275 0.002749 -0.005585 -0.006243
# 2 -0.005761 0.014584 0.000339 -0.006955 -0.001130 -0.002036
# 3 -0.001275 0.000339 0.009763 -0.004867 -0.001861 -0.003347
# 4 0.002749 -0.006955 -0.004867 0.031831 -0.000376 -0.001107
# 5 -0.005585 -0.001130 -0.001861 -0.000376 0.031234 -0.004548
# 6 -0.006243 -0.002036 -0.003347 -0.001107 -0.004548 0.034617
#
#
# Mechanical properties :
#
#
# Convention : Reuss Voigt Hill
#
# Bulk Modulus (GPa) = 28.17085 43.19667 35.68376
# Shear Modulus (GPa) = 29.10358 36.38760 32.74559
#
# Velocity S-wave (km/s) = 3.45872 3.86740 3.66876
# Velocity P-wave (km/s) = 5.24688 6.13987 5.71086
#
# Compressibility (1/GPa) = 0.03549768
#
# Stress axis : x y z
#
# Youngs Moduli (GPa) = 40.74191 68.56703 102.43032
#
# Poissons Ratio (x) = 0.39500 0.13061
# Poissons Ratio (y) = 0.23470 -0.03470
# Poissons Ratio (z) = 0.05195 -0.02323
#
# Static dielectric constant tensor:
#      x y z
#    x 2.081970 -0.012090 -0.011120 
#    y -0.012090 2.084050 0.014650 
#    z -0.011120 0.014650 1.931870 
# 
# From -- ./inp_files/98021.got.cif
#   From: 2010.05.17/outbox.cif.g08.bks.cpg/sg2_50_cif.got.tgz:98021.got - 2010.06.03 11:33:40.
