data_PCOD9010784
_publ_section_title
;
Structure prediction by ZEFSAII (Michael W. Deem and Ramdas Pophale) SiO2 
 PCOD9010784
Probable space group: P -1
;
_chemical_formula_sum "Si O2"
_cell_formula_units_Z 16
_cell_length_a 16.380975
_cell_length_b 7.144425
_cell_length_c 9.627274
_cell_angle_alpha 49.483030
_cell_angle_beta 120.092916
_cell_angle_gamma 102.454799
_cell_volume 730.634901
_symmetry_space_group_name_H-M "P -1"
_symmetry_group_IT_number 2
_symmetry_cell_setting 'triclinic'
loop_
_space_group_symop_operation_xyz
x,y,z
-x,-y,-z
loop_
_atom_site_type_symbol
_atom_site_label
_atom_site_fract_x
_atom_site_fract_y
_atom_site_fract_z
Si Si1 0.228041 0.023758 0.393445
Si Si2 0.427343 0.140812 0.534765
Si Si3 0.403329 0.193392 0.797803
Si Si4 0.105039 0.847532 0.132143
Si Si5 0.120927 0.832773 0.827751
Si Si6 0.301193 0.753705 0.861132
Si Si7 0.503164 0.392890 0.229422
Si Si8 0.080312 0.291950 0.356190
O O1 0.323791 0.130757 0.385756
O O2 0.180331 0.929718 0.263348
O O3 0.262890 0.816209 0.642756
O O4 0.148827 0.209439 0.322862
O O5 0.475238 0.849622 0.732497
O O6 0.407096 0.268021 0.603930
O O7 0.493736 0.272939 0.430574
O O8 0.414476 0.435737 0.779209
O O9 0.322481 0.018289 0.818014
O O10 0.500000 0.000000 0.000000
O O11 0.099996 0.558046 0.292479
O O12 0.129590 0.880964 0.975170
O O13 0.000000 0.000000 0.000000
O O14 0.217452 0.678391 0.919786
O O15 0.028842 0.701121 0.787965
O O16 0.100770 0.085631 0.595298
O O17 0.399941 0.561677 0.036943
#
# Coordination Sequence:
#
# PCOD9010784 Si02
#       8
#     2   2   2   2   2   2   2   2
#     4  10  23  43  61  97 130 169 216 261 322 382
#     4  10  22  38  61  95 127 162 212 263 316 377
#     4   9  19  38  62  82 119 164 207 253 316 368
#     4  12  25  42  69 100 128 176 216 263 329 384
#     4  10  22  44  68  95 130 173 216 264 329 380
#     4   9  21  41  66  92 126 173 213 261 323 379
#     4  10  21  40  64  92 124 167 209 266 315 377
#     4  10  23  45  67  92 136 169 212 275 317 386
#
# _framework density 21.898764
#
# number of rings (size 3 to 8) (size 9 to 14) (size 15 to 20)
#    0.000    2.000    1.250    0.750    1.750    8.000 
#   11.250    1.250    0.000    0.000    0.000    0.000 
#    0.000    0.000    0.000    0.000    0.000    0.000 
#
# Total GULP energy -89394.576604 kJ/mol
# GULP energy per Si atom -5587.161038 kJ/mol
# Density = 2.184892 g / cm^3
# Si number density = 21.898764 Si / 1000 Ang^3
#
#
#
# Elastic Constant Matrix: (Units=GPa)
#
#
# Indices 1 2 3 4 5 6 
#
# 1 96.8452 24.5117 17.6799 3.3393 14.7480 6.4819
# 2 24.5117 103.8768 45.4441 6.7984 14.3682 14.5762
# 3 17.6799 45.4441 80.9110 11.5909 11.2895 5.8865
# 4 3.3393 6.7984 11.5909 37.0558 6.2225 6.1939
# 5 14.7480 14.3682 11.2895 6.2225 29.7925 1.9580
# 6 6.4819 14.5762 5.8865 6.1939 1.9580 24.0701
#
#
#
# Elastic Compliance Matrix: (Units=1/GPa)
#
#
# Indices 1 2 3 4 5 6 
#
# 1 0.011698 -0.001437 -0.001051 0.000631 -0.004713 -0.001802
# 2 -0.001437 0.014332 -0.006972 0.001366 -0.003406 -0.006662
# 3 -0.001051 -0.006972 0.017230 -0.003937 -0.001920 0.001460
# 4 0.000631 0.001366 -0.003937 0.030020 -0.005267 -0.007331
# 5 -0.004713 -0.003406 -0.001920 -0.005267 0.039240 0.001965
# 6 -0.001802 -0.006662 0.001460 -0.007331 0.001965 0.047434
#
#
# Mechanical properties :
#
#
# Convention : Reuss Voigt Hill
#
# Bulk Modulus (GPa) = 41.08186 50.76717 45.92451
# Shear Modulus (GPa) = 26.73973 31.11684 28.92828
#
# Velocity S-wave (km/s) = 3.49816 3.77363 3.63850
# Velocity P-wave (km/s) = 5.92594 6.49769 6.21839
#
# Compressibility (1/GPa) = 0.02434164
#
# Stress axis : x y z
#
# Youngs Moduli (GPa) = 85.48577 69.77183 58.03760
#
# Poissons Ratio (x) = 0.10029 0.06097
# Poissons Ratio (y) = 0.12287 0.40461
# Poissons Ratio (z) = 0.08980 0.48642
#
# Static dielectric constant tensor:
#      x y z
#    x 1.794880 -0.002580 0.002020 
#    y -0.002580 1.790630 -0.021060 
#    z 0.002020 -0.021060 1.837110 
# 
# From -- ./inp_files/323353.got.cif
#   From: 2010.05.17/outbox.cif.g08.bks.cpg/sg2_162_cif.got.tgz:323353.got - 2010.06.03 11:33:40.
