data_PCOD9010747
_publ_section_title
;
Structure prediction by ZEFSAII (Michael W. Deem and Ramdas Pophale) SiO2 
 PCOD9010747
Probable space group: P -1
;
_chemical_formula_sum "Si O2"
_cell_formula_units_Z 14
_cell_length_a 9.894625
_cell_length_b 7.703409
_cell_length_c 14.373694
_cell_angle_alpha 123.646726
_cell_angle_beta 52.240694
_cell_angle_gamma 83.279807
_cell_volume 519.615942
_symmetry_space_group_name_H-M "P -1"
_symmetry_group_IT_number 2
_symmetry_cell_setting 'triclinic'
loop_
_space_group_symop_operation_xyz
x,y,z
-x,-y,-z
loop_
_atom_site_type_symbol
_atom_site_label
_atom_site_fract_x
_atom_site_fract_y
_atom_site_fract_z
Si Si1 0.706082 0.049274 0.612727
Si Si2 0.063417 0.983691 0.190810
Si Si3 0.403338 0.392805 0.185841
Si Si4 0.235635 0.374293 0.436499
Si Si5 0.616789 0.119231 0.359527
Si Si6 0.216367 0.333517 0.703309
Si Si7 0.744562 0.569657 0.949073
O O1 0.731662 0.270069 0.647892
O O2 0.859863 0.768703 0.531195
O O3 0.727021 0.899733 0.464701
O O4 0.464818 0.246521 0.833769
O O5 0.959346 0.285999 0.362354
O O6 0.843663 0.075858 0.251691
O O7 0.125134 0.759353 0.177388
O O8 0.314123 0.805285 0.982256
O O9 0.328484 0.303702 0.272634
O O10 0.352456 0.360481 0.093180
O O11 0.461863 0.238615 0.367435
O O12 0.406905 0.343045 0.592175
O O13 0.731300 0.807690 0.260213
O O14 0.935932 0.593497 0.887704
#
# Coordination Sequence:
#
# PCOD9010747 Si02
#       7
#     2   2   2   2   2   2   2
#     4  10  22  41  63  93 125 163 213 255 309 374
#     4  10  21  40  64  90 127 168 207 259 315 371
#     4  11  24  43  64  91 131 169 206 260 316 370
#     4  11  24  40  64  98 126 165 214 254 314 379
#     4   9  19  39  63  92 127 162 208 257 312 377
#     4   9  19  39  66  91 124 166 206 261 314 364
#     4  10  22  42  65  91 127 169 211 257 315 375
#
# _framework density 26.942976999999999
#
# number of rings (size 3 to 8) (size 9 to 14) (size 15 to 20)
#    0.000    2.000    0.000    3.857    0.000    6.857 
#    0.000   49.286    0.000    0.000    0.000    0.000 
#    0.000    0.000    0.000    0.000    0.000    0.000 
#
# Total GULP energy -78305.054340 kJ/mol
# GULP energy per Si atom -5593.218167 kJ/mol
# Density = 2.688165 g / cm^3
# Si number density = 26.942977 Si / 1000 Ang^3
#
#
#
# Elastic Constant Matrix: (Units=GPa)
#
#
# Indices 1 2 3 4 5 6 
#
# 1 104.4130 60.0316 32.2244 -1.0294 -25.7896 -17.9118
# 2 60.0316 145.2616 40.5738 8.6435 7.4437 -20.2077
# 3 32.2244 40.5738 103.7837 9.3695 -1.0843 0.2367
# 4 -1.0294 8.6435 9.3695 40.0063 5.7934 9.1141
# 5 -25.7896 7.4437 -1.0843 5.7934 51.0032 2.8397
# 6 -17.9118 -20.2077 0.2367 9.1141 2.8397 45.6537
#
#
#
# Elastic Compliance Matrix: (Units=1/GPa)
#
#
# Indices 1 2 3 4 5 6 
#
# 1 0.016810 -0.006227 -0.002730 0.000363 0.009131 0.003213
# 2 -0.006227 0.010856 -0.002186 -0.002009 -0.004722 0.003068
# 3 -0.002730 -0.002186 0.011501 -0.001830 -0.000514 -0.001701
# 4 0.000363 -0.002009 -0.001830 0.027599 -0.002357 -0.006100
# 5 0.009131 -0.004722 -0.000514 -0.002357 0.025147 0.000401
# 6 0.003213 0.003068 -0.001701 -0.006100 0.000401 0.025724
#
#
# Mechanical properties :
#
#
# Convention : Reuss Voigt Hill
#
# Bulk Modulus (GPa) = 59.23280 68.79086 64.01183
# Shear Modulus (GPa) = 34.35224 42.04121 38.19672
#
# Velocity S-wave (km/s) = 3.57458 3.95445 3.76930
# Velocity P-wave (km/s) = 6.25053 6.81452 6.53861
#
# Compressibility (1/GPa) = 0.01688254
#
# Stress axis : x y z
#
# Youngs Moduli (GPa) = 59.48857 92.11082 86.94763
#
# Poissons Ratio (x) = 0.57358 0.23734
# Poissons Ratio (y) = 0.37044 0.19005
# Poissons Ratio (z) = 0.16238 0.20133
#
# Static dielectric constant tensor:
#      x y z
#    x 2.226220 0.043020 -0.070840 
#    y 0.043020 2.112470 0.033130 
#    z -0.070840 0.033130 2.166500 
# 
# From -- ./inp_files/515894.got.cif
#   From: 2010.05.17/outbox.cif.g08.bks.cpg/sg2_258_cif.got.tgz:515894.got - 2010.06.03 11:33:40.
