data_PCOD9010254
_publ_section_title
;
Structure prediction by ZEFSAII (Michael W. Deem and Ramdas Pophale) SiO2 
 PCOD9010254
Probable space group: P -1
;
_chemical_formula_sum "Si O2"
_cell_formula_units_Z 16
_cell_length_a 13.226265
_cell_length_b 8.592153
_cell_length_c 15.840538
_cell_angle_alpha 137.617347
_cell_angle_beta 145.453522
_cell_angle_gamma 65.108643
_cell_volume 599.635149
_symmetry_space_group_name_H-M "P -1"
_symmetry_group_IT_number 2
_symmetry_cell_setting 'triclinic'
loop_
_space_group_symop_operation_xyz
x,y,z
-x,-y,-z
loop_
_atom_site_type_symbol
_atom_site_label
_atom_site_fract_x
_atom_site_fract_y
_atom_site_fract_z
Si Si1 0.495200 0.945135 0.873871
Si Si2 0.518099 0.152593 0.463564
Si Si3 0.777366 0.795235 0.225663
Si Si4 0.909371 0.900397 0.796563
Si Si5 0.284661 0.562872 0.111151
Si Si6 0.224142 0.460659 0.567408
Si Si7 0.874374 0.550868 0.772525
Si Si8 0.184034 0.563705 0.762307
O O1 0.354134 0.060758 0.787235
O O2 0.401542 0.632245 0.690861
O O3 0.709141 0.118975 0.045152
O O4 0.500000 0.000000 0.000000
O O5 0.295280 0.124242 0.312213
O O6 0.656331 0.341286 0.712096
O O7 0.651578 0.304636 0.534721
O O8 0.457680 0.843202 0.300860
O O9 0.743253 0.535876 0.149056
O O10 0.734757 0.690130 0.056722
O O11 0.000000 0.000000 0.500000
O O12 0.867208 0.836848 0.644538
O O13 0.937887 0.671028 0.769973
O O14 0.095490 0.186873 0.054406
O O15 0.054296 0.508686 0.915892
O O16 0.269202 0.487775 0.707050
O O17 0.054861 0.553304 0.470265
#
# Coordination Sequence:
#
# PCOD9010254 Si02
#       8
#     2   2   2   2   2   2   2   2
#     4  10  23  41  62  88 127 166 214 260 309 377
#     4  10  22  43  66  93 123 164 212 263 317 373
#     4  12  24  43  65  96 133 172 212 264 317 379
#     4  10  22  37  66  94 124 162 210 263 315 378
#     4  10  24  42  64  91 130 163 209 264 313 375
#     4  10  21  40  62  93 132 169 206 265 318 376
#     4  10  21  41  63  95 125 159 210 263 323 372
#     4  10  22  40  61  89 132 167 216 254 312 382
#
# _framework density 26.682891000000001
#
# number of rings (size 3 to 8) (size 9 to 14) (size 15 to 20)
#    0.000    1.750    1.250    1.875    3.500    3.000 
#    2.250    0.000    0.000    0.000    0.000    0.000 
#    0.000    0.000    0.000    0.000    0.000    0.000 
#
# Total GULP energy -89292.084246 kJ/mol
# GULP energy per Si atom -5580.755265 kJ/mol
# Density = 2.662216 g / cm^3
# Si number density = 26.682891 Si / 1000 Ang^3
#
#
#
# Elastic Constant Matrix: (Units=GPa)
#
#
# Indices 1 2 3 4 5 6 
#
# 1 46.8161 14.9817 19.6388 11.5779 0.8214 -2.2192
# 2 14.9817 46.8171 3.4351 -16.3036 8.5942 6.3747
# 3 19.6388 3.4351 113.5667 2.9593 -10.1332 2.6439
# 4 11.5779 -16.3036 2.9593 41.6634 -1.3938 14.9838
# 5 0.8214 8.5942 -10.1332 -1.3938 55.7008 5.1411
# 6 -2.2192 6.3747 2.6439 14.9838 5.1411 38.7885
#
#
#
# Elastic Compliance Matrix: (Units=1/GPa)
#
#
# Indices 1 2 3 4 5 6 
#
# 1 0.037550 -0.022167 -0.005569 -0.024329 -0.000195 0.015595
# 2 -0.022167 0.041608 0.001971 0.029036 -0.003252 -0.019026
# 3 -0.005569 0.001971 0.009868 0.002605 0.001876 -0.002570
# 4 -0.024329 0.029036 0.002605 0.051360 0.000055 -0.026189
# 5 -0.000195 -0.003252 0.001876 0.000055 0.018998 -0.002144
# 6 0.015595 -0.019026 -0.002570 -0.026189 -0.002144 0.040376
#
#
# Mechanical properties :
#
#
# Convention : Reuss Voigt Hill
#
# Bulk Modulus (GPa) = 26.67083 31.47899 29.07491
# Shear Modulus (GPa) = 18.95454 38.50682 28.73068
#
# Velocity S-wave (km/s) = 2.66816 3.80297 3.28494
# Velocity P-wave (km/s) = 4.41693 5.57732 5.03069
#
# Compressibility (1/GPa) = 0.03749415
#
# Stress axis : x y z
#
# Youngs Moduli (GPa) = 26.63148 24.03402 101.33580
#
# Poissons Ratio (x) = 0.53277 0.56437
# Poissons Ratio (y) = 0.59035 -0.19973
# Poissons Ratio (z) = 0.14832 -0.04737
#
# Static dielectric constant tensor:
#      x y z
#    x 2.118610 -0.003920 -0.004220 
#    y -0.003920 2.130740 0.058690 
#    z -0.004220 0.058690 2.288890 
# 
# From -- ./inp_files/530164.got.cif
#   From: 2010.05.17/outbox.cif.g08.bks.cpg/sg2_266_cif.got.tgz:530164.got - 2010.06.03 11:33:40.
