data_PCOD9010557
_publ_section_title
;
Structure prediction by ZEFSAII (Michael W. Deem and Ramdas Pophale) SiO2 
 PCOD9010557
Probable space group: P -1
;
_chemical_formula_sum "Si O2"
_cell_formula_units_Z 16
_cell_length_a 10.718570
_cell_length_b 19.639170
_cell_length_c 16.781573
_cell_angle_alpha 159.329205
_cell_angle_beta 138.047271
_cell_angle_gamma 34.422578
_cell_volume 697.896920
_symmetry_space_group_name_H-M "P -1"
_symmetry_group_IT_number 2
_symmetry_cell_setting 'triclinic'
loop_
_space_group_symop_operation_xyz
x,y,z
-x,-y,-z
loop_
_atom_site_type_symbol
_atom_site_label
_atom_site_fract_x
_atom_site_fract_y
_atom_site_fract_z
Si Si1 0.369594 0.220643 0.237901
Si Si2 0.590873 0.481429 0.612344
Si Si3 0.567509 0.042966 0.867042
Si Si4 0.449263 0.597014 0.950924
Si Si5 0.512412 0.190285 0.637063
Si Si6 0.992577 0.363803 0.585881
Si Si7 0.238053 0.279179 0.850010
Si Si8 0.889955 0.024163 0.890353
O O1 0.532182 0.308802 0.432313
O O2 0.150057 0.416058 0.300052
O O3 0.329839 0.138661 0.212949
O O4 0.500000 0.000000 0.000000
O O5 0.500000 0.500000 0.500000
O O6 0.842425 0.419010 0.654047
O O7 0.455359 0.726481 0.858946
O O8 0.326032 0.136332 0.818967
O O9 0.710036 0.965967 0.769909
O O10 0.511394 0.354555 0.748199
O O11 0.411036 0.752282 0.181135
O O12 0.629619 0.604573 0.990692
O O13 0.228946 0.728123 0.935233
O O14 0.250182 0.280536 0.625324
O O15 0.684141 0.926191 0.402557
O O16 0.976396 0.162741 0.317294
O O17 0.000000 0.500000 0.000000
O O18 0.000000 0.000000 0.000000
#
# Coordination Sequence:
#
# PCOD9010557 Si02
#       8
#     2   2   2   2   2   2   2   2
#     4  11  23  40  65  96 141 181 230 280 337 419
#     4  10  21  40  63  94 134 176 231 270 335 406
#     4  11  23  43  62 100 133 178 224 279 347 409
#     4  10  25  46  74 100 140 181 236 298 332 420
#     4  11  24  48  72 107 134 179 251 279 350 414
#     4  11  23  40  70 100 135 185 220 290 338 406
#     4  11  26  46  71  95 141 180 227 294 353 412
#     4  11  24  41  66 102 141 176 219 282 356 404
#
# _framework density 22.926022
#
# number of rings (size 3 to 8) (size 9 to 14) (size 15 to 20)
#    0.000    1.250    5.000    1.875    3.500    4.000 
#    0.000    1.250    0.000    0.000    0.000    0.000 
#    0.000    0.000    0.000    0.000    0.000    0.000 
#
# Total GULP energy -89247.513589 kJ/mol
# GULP energy per Si atom -5577.969599 kJ/mol
# Density = 2.287384 g / cm^3
# Si number density = 22.926022 Si / 1000 Ang^3
#
#
#
# Elastic Constant Matrix: (Units=GPa)
#
#
# Indices 1 2 3 4 5 6 
#
# 1 89.0089 25.5065 32.8011 17.5359 5.8139 0.7023
# 2 25.5065 117.0795 27.0970 18.7309 -3.0109 8.5942
# 3 32.8011 27.0970 93.2459 14.7526 3.3140 -9.4786
# 4 17.5359 18.7309 14.7526 34.2075 2.0508 -0.3323
# 5 5.8139 -3.0109 3.3140 2.0508 35.6216 10.8388
# 6 0.7023 8.5942 -9.4786 -0.3323 10.8388 40.1581
#
#
#
# Elastic Compliance Matrix: (Units=1/GPa)
#
#
# Indices 1 2 3 4 5 6 
#
# 1 0.014079 -0.001456 -0.003768 -0.004698 -0.001675 -0.000411
# 2 -0.001456 0.010374 -0.002295 -0.004135 0.002625 -0.003479
# 3 -0.003768 -0.002295 0.013624 -0.002525 -0.002008 0.004294
# 4 -0.004698 -0.004135 -0.002525 0.035109 -0.001711 0.001123
# 5 -0.001675 0.002625 -0.002008 -0.001711 0.031773 -0.009596
# 6 -0.000411 -0.003479 0.004294 0.001123 -0.009596 0.029266
#
#
# Mechanical properties :
#
#
# Convention : Reuss Voigt Hill
#
# Bulk Modulus (GPa) = 43.40651 52.23816 47.82233
# Shear Modulus (GPa) = 31.85843 36.25941 34.05892
#
# Velocity S-wave (km/s) = 3.73180 3.98123 3.85853
# Velocity P-wave (km/s) = 6.12722 6.63088 6.38402
#
# Compressibility (1/GPa) = 0.02303802
#
# Stress axis : x y z
#
# Youngs Moduli (GPa) = 71.02718 96.39376 73.39901
#
# Poissons Ratio (x) = 0.14038 0.27659
# Poissons Ratio (y) = 0.10344 0.16846
# Poissons Ratio (z) = 0.26765 0.22123
#
# Static dielectric constant tensor:
#      x y z
#    x 1.913920 -0.118770 0.047540 
#    y -0.118770 2.081640 -0.041460 
#    z 0.047540 -0.041460 1.849980 
# 
# From -- ./inp_files/570800.got.cif
#   From: 2010.05.17/outbox.cif.g08.bks.cpg/sg2_286_cif.got.tgz:570800.got - 2010.06.03 11:33:40.
