data_PCOD9010989
_publ_section_title
;
Structure prediction by ZEFSAII (Michael W. Deem and Ramdas Pophale) SiO2 
 PCOD9010989
Probable space group: P -1
;
_chemical_formula_sum "Si O2"
_cell_formula_units_Z 16
_cell_length_a 8.145097
_cell_length_b 13.510608
_cell_length_c 13.434083
_cell_angle_alpha 32.331435
_cell_angle_beta 111.612840
_cell_angle_gamma 122.512422
_cell_volume 654.550895
_symmetry_space_group_name_H-M "P -1"
_symmetry_group_IT_number 2
_symmetry_cell_setting 'triclinic'
loop_
_space_group_symop_operation_xyz
x,y,z
-x,-y,-z
loop_
_atom_site_type_symbol
_atom_site_label
_atom_site_fract_x
_atom_site_fract_y
_atom_site_fract_z
Si Si1 0.189647 0.375981 0.556845
Si Si2 0.693429 0.886517 0.058513
Si Si3 0.535000 0.069052 0.332983
Si Si4 0.334783 0.624629 0.570776
Si Si5 0.041592 0.812678 0.629842
Si Si6 0.334740 0.535279 0.233262
Si Si7 0.032510 0.243053 0.913445
Si Si8 0.144233 0.008504 0.268840
O O1 0.308557 0.249670 0.729167
O O2 0.238492 0.548292 0.505782
O O3 0.256308 0.468179 0.384988
O O4 0.964311 0.190242 0.660832
O O5 0.472032 0.784473 0.052785
O O6 0.831040 0.835464 0.055115
O O7 0.815552 0.122821 0.919795
O O8 0.442374 0.862426 0.420966
O O9 0.500000 0.000000 0.500000
O O10 0.769669 0.189402 0.273008
O O11 0.380593 0.156349 0.195923
O O12 0.508483 0.553775 0.678653
O O13 0.154079 0.488209 0.721548
O O14 0.851484 0.588448 0.774073
O O15 0.097522 0.892187 0.461543
O O16 0.000000 0.000000 0.500000
O O17 0.038651 0.152723 0.099448
#
# Coordination Sequence:
#
# PCOD9010989 Si02
#       8
#     2   2   2   2   2   2   2   2
#     4   8  15  26  46  80 103 121 158 208 255 287
#     4   8  13  24  45  72 105 121 154 198 251 291
#     4  10  21  34  48  73 102 134 166 207 249 279
#     4  10  17  29  52  77 102 129 166 199 245 302
#     4  10  18  32  50  70  96 132 177 206 235 280
#     4   9  15  26  49  76 100 122 164 217 238 281
#     4   8  15  28  47  76 100 129 157 199 247 303
#     4   9  18  32  50  76 104 125 158 212 256 289
#
# _framework density 24.444240000000001
#
# number of rings (size 3 to 8) (size 9 to 14) (size 15 to 20)
#    0.000    3.250    1.250    2.250    0.000    0.500 
#    0.000    2.500    0.000    3.000   13.000   21.875 
#    0.000    0.000    0.000    0.000    0.000    0.000 
#
# Total GULP energy -89214.395224 kJ/mol
# GULP energy per Si atom -5575.899701 kJ/mol
# Density = 2.438860 g / cm^3
# Si number density = 24.444240 Si / 1000 Ang^3
#
#
#
# Elastic Constant Matrix: (Units=GPa)
#
#
# Indices 1 2 3 4 5 6 
#
# 1 60.6309 48.3655 7.7505 -18.1350 -6.2789 28.3891
# 2 48.3655 168.7975 26.4835 -29.5473 -11.6887 52.1657
# 3 7.7505 26.4835 66.7639 -11.5258 -4.5671 12.7032
# 4 -18.1350 -29.5473 -11.5258 22.0473 10.0122 -19.4767
# 5 -6.2789 -11.6887 -4.5671 10.0122 19.4168 -8.7895
# 6 28.3891 52.1657 12.7032 -19.4767 -8.7895 49.7610
#
#
#
# Elastic Compliance Matrix: (Units=1/GPa)
#
#
# Indices 1 2 3 4 5 6 
#
# 1 0.025834 -0.003471 0.001697 0.012541 -0.003045 -0.007163
# 2 -0.003471 0.009828 -0.001612 0.004067 -0.000590 -0.006424
# 3 0.001697 -0.001612 0.016841 0.007818 -0.000789 -0.000658
# 4 0.012541 0.004067 0.007818 0.096634 -0.033082 0.018566
# 5 -0.003045 -0.000590 -0.000789 -0.033082 0.067748 0.001575
# 6 -0.007163 -0.006424 -0.000658 0.018566 0.001575 0.038630
#
#
# Mechanical properties :
#
#
# Convention : Reuss Voigt Hill
#
# Bulk Modulus (GPa) = 21.86571 51.26571 36.56571
# Shear Modulus (GPa) = 18.01611 32.48455 25.25033
#
# Velocity S-wave (km/s) = 2.71777 3.64940 3.21748
# Velocity P-wave (km/s) = 4.33739 6.22700 5.36602
#
# Compressibility (1/GPa) = 0.04573371
#
# Stress axis : x y z
#
# Youngs Moduli (GPa) = 38.70805 101.75251 59.37831
#
# Poissons Ratio (x) = 0.35314 -0.10078
# Poissons Ratio (y) = 0.13434 0.09569
# Poissons Ratio (z) = -0.06570 0.16398
#
# Static dielectric constant tensor:
#      x y z
#    x 2.057450 0.020030 -0.014380 
#    y 0.020030 1.966580 0.016480 
#    z -0.014380 0.016480 2.011550 
# 
# From -- ./inp_files/311063.got.cif
#   From: 2010.05.17/outbox.cif.g08.bks.cpg/sg2_156_cif.got.tgz:311063.got - 2010.06.03 11:33:40.
