data_PCOD9010579
_publ_section_title
;
Structure prediction by ZEFSAII (Michael W. Deem and Ramdas Pophale) SiO2 
 PCOD9010579
Probable space group: P -1
;
_chemical_formula_sum "Si O2"
_cell_formula_units_Z 16
_cell_length_a 16.337811
_cell_length_b 17.030016
_cell_length_c 6.357070
_cell_angle_alpha 80.476933
_cell_angle_beta 67.283101
_cell_angle_gamma 25.845233
_cell_volume 634.141127
_symmetry_space_group_name_H-M "P -1"
_symmetry_group_IT_number 2
_symmetry_cell_setting 'triclinic'
loop_
_space_group_symop_operation_xyz
x,y,z
-x,-y,-z
loop_
_atom_site_type_symbol
_atom_site_label
_atom_site_fract_x
_atom_site_fract_y
_atom_site_fract_z
Si Si1 0.127003 0.085085 0.546208
Si Si2 0.622358 0.044135 0.027797
Si Si3 0.322046 0.599199 0.385618
Si Si4 0.966053 0.393504 0.093076
Si Si5 0.922775 0.187948 0.056385
Si Si6 0.182304 0.851059 0.191000
Si Si7 0.836493 0.630588 0.799054
Si Si8 0.487741 0.294279 0.374800
O O1 0.984236 0.214816 0.847055
O O2 0.327333 0.866816 0.549678
O O3 0.264636 0.027717 0.278157
O O4 0.922943 0.223859 0.541080
O O5 0.415863 0.156938 0.129884
O O6 0.526414 0.196721 0.195619
O O7 0.821192 0.838612 0.050118
O O8 0.375049 0.642429 0.217839
O O9 0.477591 0.395238 0.267831
O O10 0.280572 0.636031 0.659395
O O11 0.080056 0.368819 0.131685
O O12 0.758689 0.522694 0.363072
O O13 0.865128 0.522368 0.936065
O O14 0.126573 0.983545 0.086551
O O15 0.876649 0.159880 0.937526
O O16 0.000000 0.000000 0.500000
O O17 0.000000 0.500000 0.500000
#
# Coordination Sequence:
#
# PCOD9010579 Si02
#       8
#     2   2   2   2   2   2   2   2
#     4  11  23  38  62  95 131 172 215 268 322 383
#     4  12  25  43  67  96 131 174 217 271 331 389
#     4  10  21  40  63  95 134 176 216 272 329 377
#     4  11  25  45  67  96 129 167 220 269 327 394
#     4   9  18  37  65  96 132 174 219 268 326 383
#     4   8  16  34  66  98 129 175 218 267 329 377
#     4  11  24  47  69  95 127 168 217 273 329 393
#     4  12  25  41  64  97 131 173 224 263 326 398
#
# _framework density 25.230975999999998
#
# number of rings (size 3 to 8) (size 9 to 14) (size 15 to 20)
#    0.000    1.500    3.750    1.125    0.000    4.500 
#    0.000    0.625    0.000   26.250    0.000    0.000 
#    0.000    0.000    0.000    0.000    0.000    0.000 
#
# Total GULP energy -89260.123857 kJ/mol
# GULP energy per Si atom -5578.757741 kJ/mol
# Density = 2.517355 g / cm^3
# Si number density = 25.230976 Si / 1000 Ang^3
#
#
#
# Elastic Constant Matrix: (Units=GPa)
#
#
# Indices 1 2 3 4 5 6 
#
# 1 72.3051 39.0717 25.4985 -6.7207 -5.1804 -17.8936
# 2 39.0717 112.6695 14.9958 5.9922 13.1590 -17.2907
# 3 25.4985 14.9958 105.7889 -6.3031 2.6508 1.9897
# 4 -6.7207 5.9922 -6.3031 38.5919 -2.6092 -6.0142
# 5 -5.1804 13.1590 2.6508 -2.6092 47.1605 8.4969
# 6 -17.8936 -17.2907 1.9897 -6.0142 8.4969 51.7854
#
#
#
# Elastic Compliance Matrix: (Units=1/GPa)
#
#
# Indices 1 2 3 4 5 6 
#
# 1 0.020795 -0.006600 -0.003965 0.005046 0.003707 0.005112
# 2 -0.006600 0.012253 -0.000253 -0.003063 -0.004702 0.002236
# 3 -0.003965 -0.000253 0.010537 0.000768 -0.000614 -0.001669
# 4 0.005046 -0.003063 0.000768 0.028104 0.002275 0.003582
# 5 0.003707 -0.004702 -0.000614 0.002275 0.023787 -0.003904
# 6 0.005112 0.002236 -0.001669 0.003582 -0.003904 0.022944
#
#
# Mechanical properties :
#
#
# Convention : Reuss Voigt Hill
#
# Bulk Modulus (GPa) = 45.56079 49.98839 47.77459
# Shear Modulus (GPa) = 33.92762 41.58739 37.75750
#
# Velocity S-wave (km/s) = 3.67097 4.06429 3.87263
# Velocity P-wave (km/s) = 6.00539 6.47147 6.24278
#
# Compressibility (1/GPa) = 0.02194870
#
# Stress axis : x y z
#
# Youngs Moduli (GPa) = 48.08899 81.61083 94.90507
#
# Poissons Ratio (x) = 0.53866 0.37630
# Poissons Ratio (y) = 0.31741 0.02399
# Poissons Ratio (z) = 0.19067 0.02063
#
# Static dielectric constant tensor:
#      x y z
#    x 2.041210 0.051590 -0.055520 
#    y 0.051590 2.051050 -0.009610 
#    z -0.055520 -0.009610 2.208920 
# 
# From -- ./inp_files/120394.got.cif
#   From: 2010.05.17/outbox.cif.g08.bks.cpg/sg2_61_cif.got.tgz:120394.got - 2010.06.03 11:33:40.
