data_PCOD9010330
_publ_section_title
;
Structure prediction by ZEFSAII (Michael W. Deem and Ramdas Pophale) SiO2 
 PCOD9010330
Probable space group: P -1
;
_chemical_formula_sum "Si O2"
_cell_formula_units_Z 14
_cell_length_a 16.338114
_cell_length_b 14.851890
_cell_length_c 7.384952
_cell_angle_alpha 37.341280
_cell_angle_beta 144.430149
_cell_angle_gamma 143.591400
_cell_volume 565.227028
_symmetry_space_group_name_H-M "P -1"
_symmetry_group_IT_number 2
_symmetry_cell_setting 'triclinic'
loop_
_space_group_symop_operation_xyz
x,y,z
-x,-y,-z
loop_
_atom_site_type_symbol
_atom_site_label
_atom_site_fract_x
_atom_site_fract_y
_atom_site_fract_z
Si Si1 0.055447 0.245028 0.132825
Si Si2 0.836219 0.239083 0.176902
Si Si3 0.211159 0.709134 0.602421
Si Si4 0.228472 0.054883 0.674352
Si Si5 0.691383 0.385911 0.410960
Si Si6 0.818010 0.702834 0.342197
Si Si7 0.362398 0.100337 0.208424
O O1 0.152350 0.175722 0.293995
O O2 0.168200 0.337952 0.355563
O O3 0.913050 0.091304 0.229864
O O4 0.961410 0.321307 0.728918
O O5 0.789161 0.307469 0.158286
O O6 0.009966 0.255080 0.491275
O O7 0.734492 0.044330 0.256895
O O8 0.819622 0.343212 0.812591
O O9 0.270219 0.606187 0.744924
O O10 0.318619 0.907807 0.450644
O O11 0.362588 0.136362 0.935341
O O12 0.698756 0.547760 0.259860
O O13 0.525331 0.225156 0.390173
O O14 0.770384 0.852770 0.022486
#
# Coordination Sequence:
#
# PCOD9010330 Si02
#       7
#     2   2   2   2   2   2   2
#     4   8  15  32  56  82 110 145 191 237 278 331
#     4  11  22  36  64  90 117 150 198 245 295 339
#     4  11  22  36  64  90 117 150 198 245 295 339
#     4   8  15  32  56  82 110 145 191 237 278 331
#     4  12  23  40  59  86 126 156 188 242 293 354
#     4  10  21  40  63  85 116 160 197 235 294 350
#     4  10  21  40  63  85 116 160 197 235 294 350
#
# _framework density 24.768806999999999
#
# number of rings (size 3 to 8) (size 9 to 14) (size 15 to 20)
#    0.000    2.000    4.286    3.857    0.000    3.429 
#    0.000    0.000    0.000    1.714    0.000    0.000 
#    0.000    0.000    0.000    0.000    0.000    0.000 
#
# Total GULP energy -78250.358507 kJ/mol
# GULP energy per Si atom -5589.311322 kJ/mol
# Density = 2.471243 g / cm^3
# Si number density = 24.768807 Si / 1000 Ang^3
#
#
#
# Elastic Constant Matrix: (Units=GPa)
#
#
# Indices 1 2 3 4 5 6 
#
# 1 56.9917 25.4210 6.2928 11.9881 -1.4465 -32.9916
# 2 25.4210 132.1059 22.8018 5.0963 1.8508 -26.0486
# 3 6.2928 22.8018 45.6458 1.6603 12.8827 -5.8378
# 4 11.9881 5.0963 1.6603 28.4115 -6.8117 5.0568
# 5 -1.4465 1.8508 12.8827 -6.8117 22.1595 7.1995
# 6 -32.9916 -26.0486 -5.8378 5.0568 7.1995 48.1309
#
#
#
# Elastic Compliance Matrix: (Units=1/GPa)
#
#
# Indices 1 2 3 4 5 6 
#
# 1 0.045447 -0.000796 0.006706 -0.031782 -0.023088 0.038327
# 2 -0.000796 0.009314 -0.003700 -0.002074 -0.000738 0.004375
# 3 0.006706 -0.003700 0.031872 -0.012131 -0.025252 0.011512
# 4 -0.031782 -0.002074 -0.012131 0.065134 0.037121 -0.036775
# 5 -0.023088 -0.000738 -0.025252 0.037121 0.081255 -0.035342
# 6 0.038327 0.004375 0.011512 -0.036775 -0.035342 0.059963
#
#
# Mechanical properties :
#
#
# Convention : Reuss Voigt Hill
#
# Bulk Modulus (GPa) = 10.98249 38.19719 24.58984
# Shear Modulus (GPa) = 15.67808 31.75557 23.71683
#
# Velocity S-wave (km/s) = 2.51863 3.58450 3.09775
# Velocity P-wave (km/s) = 3.59189 5.70846 4.76907
#
# Compressibility (1/GPa) = 0.09105404
#
# Stress axis : x y z
#
# Youngs Moduli (GPa) = 22.00345 107.35963 31.37557
#
# Poissons Ratio (x) = 0.08546 -0.21041
# Poissons Ratio (y) = 0.01751 0.11609
# Poissons Ratio (z) = -0.14756 0.39723
#
# Static dielectric constant tensor:
#      x y z
#    x 1.993320 0.016090 -0.022360 
#    y 0.016090 2.040930 0.000290 
#    z -0.022360 0.000290 1.949100 
# 
# From -- ./inp_files/347147.got.cif
#   From: 2010.05.17/outbox.cif.g08.bks.cpg/sg2_174_cif.got.tgz:347147.got - 2010.06.03 11:33:40.
