data_PCOD9010961
_publ_section_title
;
Structure prediction by ZEFSAII (Michael W. Deem and Ramdas Pophale) SiO2 
 PCOD9010961
Probable space group: P -1
;
_chemical_formula_sum "Si O2"
_cell_formula_units_Z 14
_cell_length_a 11.717557
_cell_length_b 10.555111
_cell_length_c 12.720610
_cell_angle_alpha 138.802578
_cell_angle_beta 33.759286
_cell_angle_gamma 135.575059
_cell_volume 558.725366
_symmetry_space_group_name_H-M "P -1"
_symmetry_group_IT_number 2
_symmetry_cell_setting 'triclinic'
loop_
_space_group_symop_operation_xyz
x,y,z
-x,-y,-z
loop_
_atom_site_type_symbol
_atom_site_label
_atom_site_fract_x
_atom_site_fract_y
_atom_site_fract_z
Si Si1 0.657109 0.509096 0.596841
Si Si2 0.016030 0.772604 0.340355
Si Si3 0.161384 0.179370 0.925688
Si Si4 0.241279 0.251038 0.125561
Si Si5 0.608618 0.089403 0.720449
Si Si6 0.743244 0.169286 0.449418
Si Si7 0.784875 0.707668 0.271673
O O1 0.649146 0.607961 0.778030
O O2 0.725103 0.309410 0.453749
O O3 0.430436 0.461930 0.684240
O O4 0.838580 0.644140 0.472209
O O5 0.248460 0.794009 0.222805
O O6 0.955040 0.692582 0.220240
O O7 0.000000 0.000000 0.500000
O O8 0.107874 0.265693 0.910299
O O9 0.325053 0.058473 0.679531
O O10 0.244616 0.325570 0.048751
O O11 0.000000 0.000000 0.000000
O O12 0.992350 0.196877 0.308081
O O13 0.362268 0.072493 0.921555
O O14 0.653099 0.215355 0.657957
O O15 0.688861 0.893149 0.504306
#
# Coordination Sequence:
#
# PCOD9010961 Si02
#       7
#     2   2   2   2   2   2   2
#     4  12  23  40  67 100 132 165 216 276 329 372
#     4  10  23  44  68  86 130 183 218 260 322 393
#     4   9  20  39  66  94 131 169 210 260 327 384
#     4  11  22  37  65 102 130 161 212 270 324 386
#     4  10  21  42  68  95 128 178 213 256 330 392
#     4  10  21  40  64  97 135 166 210 269 326 386
#     4  10  22  42  68  94 129 178 217 261 321 390
#
# _framework density 25.057032
#
# number of rings (size 3 to 8) (size 9 to 14) (size 15 to 20)
#    0.000    1.714    1.429    2.571    2.000    4.571 
#    2.571    3.571    6.286    0.000    0.000    0.000 
#    0.000    0.000    0.000    0.000    0.000    0.000 
#
# Total GULP energy -78122.347784 kJ/mol
# GULP energy per Si atom -5580.167699 kJ/mol
# Density = 2.500000 g / cm^3
# Si number density = 25.057032 Si / 1000 Ang^3
#
#
#
# Elastic Constant Matrix: (Units=GPa)
#
#
# Indices 1 2 3 4 5 6 
#
# 1 194.3986 30.4112 34.1674 -0.5680 36.1139 33.4873
# 2 30.4112 78.8243 5.0378 -6.9279 10.7005 0.3250
# 3 34.1674 5.0378 60.6846 -0.6030 16.4730 9.9644
# 4 -0.5680 -6.9279 -0.6030 30.9047 15.4663 5.5609
# 5 36.1139 10.7005 16.4730 15.4663 50.9461 0.8382
# 6 33.4873 0.3250 9.9644 5.5609 0.8382 41.9433
#
#
#
# Elastic Compliance Matrix: (Units=1/GPa)
#
#
# Indices 1 2 3 4 5 6 
#
# 1 0.007857 -0.001809 -0.001679 0.003657 -0.005654 -0.006232
# 2 -0.001809 0.014214 0.000705 0.004751 -0.003383 0.000605
# 3 -0.001679 0.000705 0.019863 0.004562 -0.006702 -0.003855
# 4 0.003657 0.004751 0.004562 0.044522 -0.018424 -0.009575
# 5 -0.005654 -0.003383 -0.006702 -0.018424 0.031977 0.007936
# 6 -0.006232 0.000605 -0.003855 -0.009575 0.007936 0.030839
#
#
# Mechanical properties :
#
#
# Convention : Reuss Voigt Hill
#
# Bulk Modulus (GPa) = 27.49743 52.57115 40.03429
# Shear Modulus (GPa) = 29.94723 42.37823 36.16273
#
# Velocity S-wave (km/s) = 3.46086 4.11697 3.80309
# Velocity P-wave (km/s) = 5.19306 6.60495 5.94110
#
# Compressibility (1/GPa) = 0.03636704
#
# Stress axis : x y z
#
# Youngs Moduli (GPa) = 127.27879 70.35434 50.34483
#
# Poissons Ratio (x) = 0.12729 0.08453
# Poissons Ratio (y) = 0.23028 -0.03549
# Poissons Ratio (z) = 0.21370 -0.04960
#
# Static dielectric constant tensor:
#      x y z
#    x 2.071150 0.047370 -0.039400 
#    y 0.047370 2.072200 0.037070 
#    z -0.039400 0.037070 2.033660 
# 
# From -- ./inp_files/424192.got.cif
#   From: 2010.05.17/outbox.cif.g08.bks.cpg/sg2_213_cif.got.tgz:424192.got - 2010.06.03 11:33:40.
