data_PCOD9010554
_publ_section_title
;
Structure prediction by ZEFSAII (Michael W. Deem and Ramdas Pophale) SiO2 
 PCOD9010554
Probable space group: P -1
;
_chemical_formula_sum "Si O2"
_cell_formula_units_Z 14
_cell_length_a 7.780797
_cell_length_b 17.445593
_cell_length_c 6.541318
_cell_angle_alpha 54.976562
_cell_angle_beta 114.786614
_cell_angle_gamma 128.778953
_cell_volume 564.359928
_symmetry_space_group_name_H-M "P -1"
_symmetry_group_IT_number 2
_symmetry_cell_setting 'triclinic'
loop_
_space_group_symop_operation_xyz
x,y,z
-x,-y,-z
loop_
_atom_site_type_symbol
_atom_site_label
_atom_site_fract_x
_atom_site_fract_y
_atom_site_fract_z
Si Si1 0.756026 0.826444 0.724992
Si Si2 0.578471 0.965406 0.895099
Si Si3 0.521174 0.251024 0.658227
Si Si4 0.176723 0.937199 0.490337
Si Si5 0.248382 0.477084 0.193561
Si Si6 0.309559 0.341390 0.713492
Si Si7 0.052311 0.583015 0.213574
O O1 0.525802 0.754947 0.596305
O O2 0.947606 0.856118 0.608614
O O3 0.774832 0.939975 0.626549
O O4 0.777937 0.760020 0.022654
O O5 0.370193 0.922966 0.704193
O O6 0.791260 0.061335 0.739005
O O7 0.616794 0.870707 0.133489
O O8 0.500000 0.000000 0.000000
O O9 0.435792 0.320729 0.623548
O O10 0.773201 0.300817 0.779330
O O11 0.158940 0.375871 0.462781
O O12 0.512724 0.551866 0.233087
O O13 0.172814 0.556805 0.130584
O O14 0.160343 0.435528 0.986611
O O15 0.000000 0.500000 0.500000
#
# Coordination Sequence:
#
# PCOD9010554 Si02
#       7
#     2   2   2   2   2   2   2
#     4  11  22  41  63  97 129 174 222 274 328 396
#     4  11  22  43  63  93 131 176 219 280 330 391
#     4  11  23  37  65  93 126 175 219 268 334 389
#     4  10  24  40  64  91 130 173 226 272 332 387
#     4   9  21  40  64  92 130 172 212 272 329 393
#     4  10  21  40  63  94 132 170 221 271 329 396
#     4  10  21  40  63  94 130 166 217 271 329 394
#
# _framework density 24.806864000000001
#
# number of rings (size 3 to 8) (size 9 to 14) (size 15 to 20)
#    0.000    1.714    2.857    0.857    0.000    5.143 
#    0.000    5.714    0.000    0.000    0.000    0.000 
#    0.000    0.000    0.000    0.000    0.000    0.000 
#
# Total GULP energy -78264.472041 kJ/mol
# GULP energy per Si atom -5590.319432 kJ/mol
# Density = 2.475040 g / cm^3
# Si number density = 24.806864 Si / 1000 Ang^3
#
#
#
# Elastic Constant Matrix: (Units=GPa)
#
#
# Indices 1 2 3 4 5 6 
#
# 1 53.2953 1.1400 7.1801 5.4394 -11.1979 -8.8134
# 2 1.1400 70.6877 43.7130 16.8927 0.2935 3.8097
# 3 7.1801 43.7130 147.8102 7.3851 2.4561 14.5768
# 4 5.4394 16.8927 7.3851 42.2958 -1.6266 8.2912
# 5 -11.1979 0.2935 2.4561 -1.6266 39.5641 1.3242
# 6 -8.8134 3.8097 14.5768 8.2912 1.3242 22.1978
#
#
#
# Elastic Compliance Matrix: (Units=1/GPa)
#
#
# Indices 1 2 3 4 5 6 
#
# 1 0.022922 0.001917 -0.002715 -0.005403 0.006011 0.012214
# 2 0.001917 0.019361 -0.005846 -0.007762 0.000304 0.004158
# 3 -0.002715 -0.005846 0.009209 0.002404 -0.000965 -0.006962
# 4 -0.005403 -0.007762 0.002404 0.029661 0.000050 -0.013473
# 5 0.006011 0.000304 -0.000965 0.000050 0.026992 0.001339
# 6 0.012214 0.004158 -0.006962 -0.013473 0.001339 0.058710
#
#
# Mechanical properties :
#
#
# Convention : Reuss Voigt Hill
#
# Bulk Modulus (GPa) = 26.17538 41.76217 33.96877
# Shear Modulus (GPa) = 25.92331 35.46224 30.69277
#
# Velocity S-wave (km/s) = 3.23616 3.78502 3.52130
# Velocity P-wave (km/s) = 4.95361 5.99777 5.50052
#
# Compressibility (1/GPa) = 0.03820384
#
# Stress axis : x y z
#
# Youngs Moduli (GPa) = 43.62534 51.65154 108.59252
#
# Poissons Ratio (x) = -0.09902 0.29482
# Poissons Ratio (y) = -0.08363 0.63484
# Poissons Ratio (z) = 0.11844 0.30196
#
# Static dielectric constant tensor:
#      x y z
#    x 2.791320 -0.075530 0.650700 
#    y -0.075530 2.029020 -0.069810 
#    z 0.650700 -0.069810 2.520890 
# 
# From -- ./inp_files/46796.got.cif
#   From: 2010.05.17/outbox.cif.g08.bks.cpg/sg2_24_cif.got.tgz:46796.got - 2010.06.03 11:33:40.
