data_PCOD9010116
_publ_section_title
;
Structure prediction by ZEFSAII (Michael W. Deem and Ramdas Pophale) SiO2 
 PCOD9010116
Probable space group: P -1
;
_chemical_formula_sum "Si O2"
_cell_formula_units_Z 16
_cell_length_a 8.016464
_cell_length_b 14.860932
_cell_length_c 9.137832
_cell_angle_alpha 68.126854
_cell_angle_beta 48.189993
_cell_angle_gamma 94.610593
_cell_volume 662.510433
_symmetry_space_group_name_H-M "P -1"
_symmetry_group_IT_number 2
_symmetry_cell_setting 'triclinic'
loop_
_space_group_symop_operation_xyz
x,y,z
-x,-y,-z
loop_
_atom_site_type_symbol
_atom_site_label
_atom_site_fract_x
_atom_site_fract_y
_atom_site_fract_z
Si Si1 0.138700 0.352608 0.742518
Si Si2 0.422065 0.919007 0.458138
Si Si3 0.161040 0.995340 0.050858
Si Si4 0.110630 0.114220 0.277118
Si Si5 0.128563 0.631812 0.374088
Si Si6 0.546838 0.581410 0.218851
Si Si7 0.716637 0.670632 0.767176
Si Si8 0.309012 0.221219 0.543842
O O1 0.353110 0.465101 0.473783
O O2 0.189986 0.373885 0.871757
O O3 0.221053 0.260707 0.713563
O O4 0.890907 0.323246 0.804492
O O5 0.127754 0.870945 0.641534
O O6 0.505585 0.827328 0.498667
O O7 0.500000 0.000000 0.500000
O O8 0.577796 0.987177 0.183257
O O9 0.958846 0.876525 0.303301
O O10 0.220705 0.087099 0.082958
O O11 0.000000 0.000000 0.000000
O O12 0.254043 0.220298 0.230499
O O13 0.000000 0.000000 0.500000
O O14 0.396670 0.653885 0.272400
O O15 0.000000 0.500000 0.500000
O O16 0.963830 0.665163 0.559897
O O17 0.592498 0.579266 0.020749
O O18 0.577161 0.678596 0.697531
#
# Coordination Sequence:
#
# PCOD9010116 Si02
#       8
#     2   2   2   2   2   2   2   2
#     4   9  21  41  66  93 128 166 215 266 318 391
#     4  11  22  40  66  88 124 171 213 255 323 379
#     4  10  21  40  62  86 125 165 207 261 311 373
#     4  12  24  43  60  96 134 161 217 270 305 388
#     4   9  21  43  64  91 128 164 213 264 320 385
#     4  10  22  43  66  92 130 167 210 272 329 370
#     4  11  24  41  64  95 127 166 216 267 319 384
#     4  10  21  42  61  91 126 165 214 259 318 383
#
# _framework density 24.150563999999999
#
# number of rings (size 3 to 8) (size 9 to 14) (size 15 to 20)
#    0.000    1.750    3.750    0.000    5.250    5.000 
#   11.250    5.625    0.000    0.000    0.000    0.000 
#    0.000    0.000    0.000    0.000    0.000    0.000 
#
# Total GULP energy -89227.173941 kJ/mol
# GULP energy per Si atom -5576.698371 kJ/mol
# Density = 2.409560 g / cm^3
# Si number density = 24.150564 Si / 1000 Ang^3
#
#
#
# Elastic Constant Matrix: (Units=GPa)
#
#
# Indices 1 2 3 4 5 6 
#
# 1 65.9505 13.0536 5.5146 1.5213 18.9656 -9.2038
# 2 13.0536 107.8862 17.0234 10.3735 11.8490 -11.4652
# 3 5.5146 17.0234 98.6828 8.4604 18.2037 -3.3150
# 4 1.5213 10.3735 8.4604 38.9238 -4.0805 5.5434
# 5 18.9656 11.8490 18.2037 -4.0805 28.0223 3.7214
# 6 -9.2038 -11.4652 -3.3150 5.5434 3.7214 39.3208
#
#
#
# Elastic Compliance Matrix: (Units=1/GPa)
#
#
# Indices 1 2 3 4 5 6 
#
# 1 0.021176 0.000194 0.002701 -0.004409 -0.017813 0.007548
# 2 0.000194 0.010749 -0.000349 -0.003987 -0.005594 0.004242
# 3 0.002701 -0.000349 0.012530 -0.004336 -0.010880 0.003228
# 4 -0.004409 -0.003987 -0.004336 0.030379 0.012982 -0.008072
# 5 -0.017813 -0.005594 -0.010880 0.012982 0.060967 -0.014318
# 6 0.007548 0.004242 0.003228 -0.008072 -0.014318 0.031201
#
#
# Mechanical properties :
#
#
# Convention : Reuss Voigt Hill
#
# Bulk Modulus (GPa) = 20.18287 38.18915 29.18601
# Shear Modulus (GPa) = 28.02285 37.04858 32.53572
#
# Velocity S-wave (km/s) = 3.41007 3.92097 3.67441
# Velocity P-wave (km/s) = 4.88672 6.02876 5.48753
#
# Compressibility (1/GPa) = 0.04954697
#
# Stress axis : x y z
#
# Youngs Moduli (GPa) = 47.22243 93.03121 79.80892
#
# Poissons Ratio (x) = -0.01806 -0.21553
# Poissons Ratio (y) = -0.00917 0.02785
# Poissons Ratio (z) = -0.12753 0.03247
#
# Static dielectric constant tensor:
#      x y z
#    x 2.048210 0.152130 -0.049030 
#    y 0.152130 2.108660 -0.116920 
#    z -0.049030 -0.116920 2.042020 
# 
# From -- ./inp_files/200640.got.cif
#   From: 2010.05.17/outbox.cif.g08.bks.cpg/sg2_101_cif.got.tgz:200640.got - 2010.06.03 11:33:40.
