data_PCOD9010056
_publ_section_title
;
Structure prediction by ZEFSAII (Michael W. Deem and Ramdas Pophale) SiO2 
 PCOD9010056
Probable space group: P -1
;
_chemical_formula_sum "Si O2"
_cell_formula_units_Z 16
_cell_length_a 16.118796
_cell_length_b 8.244305
_cell_length_c 11.677341
_cell_angle_alpha 92.396774
_cell_angle_beta 141.438468
_cell_angle_gamma 107.056395
_cell_volume 823.478736
_symmetry_space_group_name_H-M "P -1"
_symmetry_group_IT_number 2
_symmetry_cell_setting 'triclinic'
loop_
_space_group_symop_operation_xyz
x,y,z
-x,-y,-z
loop_
_atom_site_type_symbol
_atom_site_label
_atom_site_fract_x
_atom_site_fract_y
_atom_site_fract_z
Si Si1 0.529855 0.663548 0.122832
Si Si2 0.837694 0.518564 0.757813
Si Si3 0.937014 0.338743 0.662092
Si Si4 0.398226 0.787481 0.333133
Si Si5 0.354805 0.279830 0.495917
Si Si6 0.747927 0.301542 0.074998
Si Si7 0.318421 0.943484 0.801819
Si Si8 0.938246 0.117009 0.863557
O O1 0.594970 0.661976 0.317576
O O2 0.657539 0.857245 0.203923
O O3 0.500000 0.500000 0.000000
O O4 0.368903 0.655309 0.979103
O O5 0.873737 0.437094 0.682492
O O6 0.740180 0.348189 0.735741
O O7 0.731930 0.611551 0.628875
O O8 0.998273 0.694191 0.986335
O O9 0.795946 0.207887 0.420082
O O10 0.985665 0.213619 0.790248
O O11 0.087964 0.506468 0.765507
O O12 0.499584 0.688241 0.420313
O O13 0.500000 0.000000 0.500000
O O14 0.331150 0.787005 0.135188
O O15 0.239256 0.050627 0.353183
O O16 0.754255 0.145903 0.156283
O O17 0.500000 0.000000 0.000000
O O18 0.000000 0.000000 0.000000
#
# Coordination Sequence:
#
# PCOD9010056 Si02
#       8
#     2   2   2   2   2   2   2   2
#     4  10  22  42  67  88 127 169 217 268 321 379
#     4  11  24  37  66  94 127 171 210 260 334 388
#     4  12  22  42  68  93 131 169 215 270 326 388
#     4  11  23  38  64  94 131 169 216 265 320 385
#     4  10  22  40  61  94 127 167 214 270 318 380
#     4  10  24  41  63  96 128 167 216 268 318 386
#     4  10  23  42  65  92 124 168 219 268 315 383
#     4  10  21  40  61  94 129 165 206 263 324 383
#
# _framework density 19.429766000000001
#
# number of rings (size 3 to 8) (size 9 to 14) (size 15 to 20)
#    0.000    1.500    2.500    1.875    8.750    0.000 
#    0.000    3.125    0.000    0.000    0.000    0.000 
#    0.000    0.000    0.000    0.000    0.000    0.000 
#
# Total GULP energy -89156.339813 kJ/mol
# GULP energy per Si atom -5572.271238 kJ/mol
# Density = 1.938554 g / cm^3
# Si number density = 19.429766 Si / 1000 Ang^3
#
#
#
# Elastic Constant Matrix: (Units=GPa)
#
#
# Indices 1 2 3 4 5 6 
#
# 1 107.8857 79.5295 65.7722 6.9539 -5.8200 19.1484
# 2 79.5295 117.5829 59.2917 13.4807 -5.7773 19.2224
# 3 65.7722 59.2917 146.3233 29.5297 -12.0239 -3.7037
# 4 6.9539 13.4807 29.5297 41.1050 -8.6539 1.9800
# 5 -5.8200 -5.7773 -12.0239 -8.6539 24.7196 3.7201
# 6 19.1484 19.2224 -3.7037 1.9800 3.7201 29.9881
#
#
#
# Elastic Compliance Matrix: (Units=1/GPa)
#
#
# Indices 1 2 3 4 5 6 
#
# 1 0.023269 -0.011151 -0.007131 0.005898 0.002874 -0.009337
# 2 -0.011151 0.018053 -0.001905 -0.002330 0.000544 -0.004601
# 3 -0.007131 -0.001905 0.012540 -0.007517 0.000170 0.007798
# 4 0.005898 -0.002330 -0.007517 0.031758 0.009276 -0.006449
# 5 0.002874 0.000544 0.000170 0.009276 0.045861 -0.008464
# 6 -0.009337 -0.004601 0.007798 -0.006449 -0.008464 0.044697
#
#
# Mechanical properties :
#
#
# Convention : Reuss Voigt Hill
#
# Bulk Modulus (GPa) = 74.13914 86.77540 80.45727
# Shear Modulus (GPa) = 22.61955 30.30912 26.46434
#
# Velocity S-wave (km/s) = 3.41570 3.95388 3.69460
# Velocity P-wave (km/s) = 7.33460 8.09952 7.72653
#
# Compressibility (1/GPa) = 0.01348815
#
# Stress axis : x y z
#
# Youngs Moduli (GPa) = 42.97612 55.39207 79.74517
#
# Poissons Ratio (x) = 0.61767 0.56869
# Poissons Ratio (y) = 0.47922 0.15188
# Poissons Ratio (z) = 0.30648 0.10550
#
# Static dielectric constant tensor:
#      x y z
#    x 1.666630 -0.004490 0.035100 
#    y -0.004490 1.726070 -0.061080 
#    z 0.035100 -0.061080 1.725060 
# 
# From -- ./inp_files/205603.got.cif
#   From: 2010.05.17/outbox.cif.g08.bks.cpg/sg2_103_cif.got.tgz:205603.got - 2010.06.03 11:33:40.
