data_PCOD9010535
_publ_section_title
;
Structure prediction by ZEFSAII (Michael W. Deem and Ramdas Pophale) SiO2 
 PCOD9010535
Probable space group: P -1
;
_chemical_formula_sum "Si O2"
_cell_formula_units_Z 14
_cell_length_a 5.411266
_cell_length_b 16.152315
_cell_length_c 21.551053
_cell_angle_alpha 25.337843
_cell_angle_beta 53.126676
_cell_angle_gamma 65.492298
_cell_volume 598.470980
_symmetry_space_group_name_H-M "P -1"
_symmetry_group_IT_number 2
_symmetry_cell_setting 'triclinic'
loop_
_space_group_symop_operation_xyz
x,y,z
-x,-y,-z
loop_
_atom_site_type_symbol
_atom_site_label
_atom_site_fract_x
_atom_site_fract_y
_atom_site_fract_z
Si Si1 0.394378 0.859177 0.930563
Si Si2 0.785564 0.784716 0.812283
Si Si3 0.466425 0.066225 0.370773
Si Si4 0.333159 0.251187 0.705014
Si Si5 0.746807 0.335259 0.697262
Si Si6 0.223615 0.655960 0.761193
Si Si7 0.650877 0.665427 0.131342
O O1 0.535115 0.752319 0.928139
O O2 0.480395 0.106870 0.741319
O O3 0.540837 0.818231 0.001049
O O4 0.997474 0.762514 0.049752
O O5 0.660232 0.897973 0.700624
O O6 0.150242 0.919724 0.694868
O O7 0.878560 0.601923 0.888173
O O8 0.496319 0.247428 0.293546
O O9 0.248976 0.849749 0.582006
O O10 0.500000 0.500000 0.500000
O O11 0.422476 0.220625 0.782657
O O12 0.948596 0.197203 0.784292
O O13 0.635647 0.431743 0.708391
O O14 0.000000 0.500000 0.500000
O O15 0.288598 0.490141 0.821767
#
# Coordination Sequence:
#
# PCOD9010535 Si02
#       7
#     2   2   2   2   2   2   2
#     4  12  27  42  63 101 132 175 219 263 334 404
#     4  10  21  40  63  93 134 174 212 269 313 389
#     4   9  20  38  63  92 123 176 221 272 311 367
#     4  10  23  45  69  94 124 165 220 274 327 387
#     4  10  23  45  69  98 121 170 216 276 330 392
#     4   9  23  39  65  94 135 171 217 268 328 371
#     4  12  27  41  65  98 135 173 216 270 331 401
#
# _framework density 23.392945000000001
#
# number of rings (size 3 to 8) (size 9 to 14) (size 15 to 20)
#    0.857    0.857    0.000    3.000    2.000    9.143 
#    0.000    0.000    0.000    0.000    0.000    0.000 
#    0.000    0.000    0.000    0.000    0.000    0.000 
#
# Total GULP energy -78112.729510 kJ/mol
# GULP energy per Si atom -5579.480679 kJ/mol
# Density = 2.333970 g / cm^3
# Si number density = 23.392945 Si / 1000 Ang^3
#
#
#
# Elastic Constant Matrix: (Units=GPa)
#
#
# Indices 1 2 3 4 5 6 
#
# 1 197.7498 27.7533 18.6096 16.8216 12.6136 -7.0346
# 2 27.7533 167.2806 50.2991 7.0611 7.7520 -20.8333
# 3 18.6096 50.2991 59.1032 10.8572 3.9012 -12.2331
# 4 16.8216 7.0611 10.8572 42.2569 2.2730 -0.4141
# 5 12.6136 7.7520 3.9012 2.2730 18.6718 7.0363
# 6 -7.0346 -20.8333 -12.2331 -0.4141 7.0363 21.8848
#
#
#
# Elastic Compliance Matrix: (Units=1/GPa)
#
#
# Indices 1 2 3 4 5 6 
#
# 1 0.005667 -0.000176 -0.000408 -0.001851 -0.004516 0.002843
# 2 -0.000176 0.008787 -0.005805 0.000420 -0.004868 0.006637
# 3 -0.000408 -0.005805 0.025444 -0.004984 -0.005935 0.010379
# 4 -0.001851 0.000420 -0.004984 0.025591 -0.000065 -0.002476
# 5 -0.004516 -0.004868 -0.005935 -0.000065 0.072164 -0.032607
# 6 0.002843 0.006637 0.010379 -0.002476 -0.032607 0.069164
#
#
# Mechanical properties :
#
#
# Convention : Reuss Voigt Hill
#
# Bulk Modulus (GPa) = 36.87357 68.60639 52.73998
# Shear Modulus (GPa) = 21.86900 38.39413 30.13156
#
# Velocity S-wave (km/s) = 3.06086 4.05565 3.59285
# Velocity P-wave (km/s) = 5.31871 7.16398 6.30917
#
# Compressibility (1/GPa) = 0.02711970
#
# Stress axis : x y z
#
# Youngs Moduli (GPa) = 176.47307 113.80383 39.30226
#
# Poissons Ratio (x) = 0.02004 0.01603
# Poissons Ratio (y) = 0.03107 0.22814
# Poissons Ratio (z) = 0.07200 0.66061
#
# Static dielectric constant tensor:
#      x y z
#    x 1.919340 -0.010310 -0.017040 
#    y -0.010310 1.896060 -0.004130 
#    z -0.017040 -0.004130 1.892250 
# 
# From -- ./inp_files/583586.got.cif
#   From: 2010.05.17/outbox.cif.g08.bks.cpg/sg2_292_cif.got.tgz:583586.got - 2010.06.03 11:33:40.
