data_PCOD9010846
_publ_section_title
;
Structure prediction by ZEFSAII (Michael W. Deem and Ramdas Pophale) SiO2 
 PCOD9010846
Probable space group: P -1
;
_chemical_formula_sum "Si O2"
_cell_formula_units_Z 15
_cell_length_a 4.964316
_cell_length_b 7.735765
_cell_length_c 14.632619
_cell_angle_alpha 96.094887
_cell_angle_beta 70.858126
_cell_angle_gamma 87.807783
_cell_volume 526.263668
_symmetry_space_group_name_H-M "P -1"
_symmetry_group_IT_number 2
_symmetry_cell_setting 'triclinic'
loop_
_space_group_symop_operation_xyz
x,y,z
-x,-y,-z
loop_
_atom_site_type_symbol
_atom_site_label
_atom_site_fract_x
_atom_site_fract_y
_atom_site_fract_z
Si Si1 0.500000 0.500000 0.000000
Si Si2 0.311867 0.869349 0.102843
Si Si3 0.351758 0.793702 0.341997
Si Si4 0.752778 0.688282 0.454869
Si Si5 0.624317 0.516139 0.817639
Si Si6 0.825484 0.035543 0.263826
Si Si7 0.254822 0.830089 0.915910
Si Si8 0.934887 0.687844 0.633707
O O1 0.464833 0.298501 0.946478
O O2 0.790906 0.493217 0.893512
O O3 0.484546 0.041491 0.101323
O O4 0.119856 0.874562 0.032046
O O5 0.078486 0.883508 0.210044
O O6 0.487802 0.739829 0.422840
O O7 0.435238 0.640344 0.251031
O O8 0.015445 0.796145 0.397844
O O9 0.522787 0.955776 0.301661
O O10 0.745464 0.710486 0.565403
O O11 0.855459 0.486078 0.413660
O O12 0.361535 0.622422 0.907564
O O13 0.747558 0.647807 0.740339
O O14 0.843085 0.150677 0.176022
O O15 0.895630 0.150005 0.348515
#
# Coordination Sequence:
#
# PCOD9010846 Si02
#       8
#     1   2   2   2   2   2   2   2
#     4  10  22  40  70 100 146 174 232 278 362 400
#     4  10  22  41  61  97 135 184 224 290 332 425
#     4  11  26  43  72 103 146 179 237 288 364 397
#     4  10  25  48  69 104 138 188 233 298 342 427
#     4  10  21  43  69 102 135 190 225 296 334 432
#     4  12  24  39  68 101 134 186 224 298 339 429
#     4  10  21  40  64  93 136 177 239 276 346 407
#     4  10  23  43  73  97 138 181 243 278 355 409
#
# _framework density 28.502824
#
# number of rings (size 3 to 8) (size 9 to 14) (size 15 to 20)
#    0.000    1.600    1.333    2.000    5.600    6.933 
#    2.400    3.333    0.000    0.000    0.000    0.000 
#    0.000    0.000    0.000    0.000    0.000    0.000 
#
# Total GULP energy -83780.483266 kJ/mol
# GULP energy per Si atom -5585.365551 kJ/mol
# Density = 2.843795 g / cm^3
# Si number density = 28.502824 Si / 1000 Ang^3
#
#
#
# Elastic Constant Matrix: (Units=GPa)
#
#
# Indices 1 2 3 4 5 6 
#
# 1 89.5368 47.6141 31.0912 11.2125 14.4580 19.1842
# 2 47.6141 173.7138 57.7189 21.9370 6.9397 8.5291
# 3 31.0912 57.7189 203.5432 -0.6876 20.9263 6.6191
# 4 11.2125 21.9370 -0.6876 55.8424 -2.1268 3.6757
# 5 14.4580 6.9397 20.9263 -2.1268 41.6687 -9.8739
# 6 19.1842 8.5291 6.6191 3.6757 -9.8739 34.5026
#
#
#
# Elastic Compliance Matrix: (Units=1/GPa)
#
#
# Indices 1 2 3 4 5 6 
#
# 1 0.016816 -0.003428 -0.000486 -0.001640 -0.007568 -0.010401
# 2 -0.003428 0.007480 -0.001727 -0.002296 0.000905 0.000892
# 3 -0.000486 -0.001727 0.005801 0.000828 -0.002719 -0.001282
# 4 -0.001640 -0.002296 0.000828 0.019224 0.001442 -0.000315
# 5 -0.007568 0.000905 -0.002719 0.001442 0.031050 0.013238
# 6 -0.010401 0.000892 -0.001282 -0.000315 0.013238 0.038614
#
#
# Mechanical properties :
#
#
# Convention : Reuss Voigt Hill
#
# Bulk Modulus (GPa) = 53.14885 82.18245 67.66565
# Shear Modulus (GPa) = 36.61973 48.42738 42.52355
#
# Velocity S-wave (km/s) = 3.58827 4.12641 3.86671
# Velocity P-wave (km/s) = 5.98789 7.18322 6.61262
#
# Compressibility (1/GPa) = 0.01881508
#
# Stress axis : x y z
#
# Youngs Moduli (GPa) = 59.46746 133.68979 172.38446
#
# Poissons Ratio (x) = 0.45825 0.08376
# Poissons Ratio (y) = 0.20384 0.29777
# Poissons Ratio (z) = 0.02889 0.23093
#
# Static dielectric constant tensor:
#      x y z
#    x 3.126450 -0.549860 0.733050 
#    y -0.549860 2.660040 -0.495870 
#    z 0.733050 -0.495870 2.825340 
# 
# From -- ./inp_files/113199.got.cif
#   From: 2010.05.17/outbox.cif.g08.bks.cpg/sg2_57_cif.got.tgz:113199.got - 2010.06.03 11:33:40.
