data_PCOD9010860
_publ_section_title
;
Structure prediction by ZEFSAII (Michael W. Deem and Ramdas Pophale) SiO2 
 PCOD9010860
Probable space group: P -1
;
_chemical_formula_sum "Si O2"
_cell_formula_units_Z 14
_cell_length_a 7.273860
_cell_length_b 16.199708
_cell_length_c 13.964537
_cell_angle_alpha 22.395794
_cell_angle_beta 80.294379
_cell_angle_gamma 70.297522
_cell_volume 541.217786
_symmetry_space_group_name_H-M "P -1"
_symmetry_group_IT_number 2
_symmetry_cell_setting 'triclinic'
loop_
_space_group_symop_operation_xyz
x,y,z
-x,-y,-z
loop_
_atom_site_type_symbol
_atom_site_label
_atom_site_fract_x
_atom_site_fract_y
_atom_site_fract_z
Si Si1 0.963519 0.394410 0.763491
Si Si2 0.712543 0.896465 0.310962
Si Si3 0.603436 0.090396 0.812322
Si Si4 0.221701 0.762151 0.205743
Si Si5 0.430229 0.121584 0.271759
Si Si6 0.148570 0.620908 0.829776
Si Si7 0.987878 0.137728 0.225220
O O1 0.936620 0.653505 0.527382
O O2 0.835593 0.426206 0.641358
O O3 0.191570 0.160735 0.970708
O O4 0.897648 0.287815 0.975564
O O5 0.623548 0.983224 0.330531
O O6 0.549622 0.813998 0.366859
O O7 0.692369 0.125498 0.004980
O O8 0.500000 0.000000 0.000000
O O9 0.649722 0.288094 0.652703
O O10 0.000000 0.000000 0.000000
O O11 0.218699 0.118159 0.252088
O O12 0.500000 0.000000 0.500000
O O13 0.353349 0.409819 0.987159
O O14 0.167638 0.729588 0.813731
O O15 0.036327 0.856943 0.518489
O O16 0.000000 0.500000 0.000000
#
# Coordination Sequence:
#
# PCOD9010860 Si02
#       7
#     2   2   2   2   2   2   2
#     4  11  22  40  66  94 132 167 217 268 328 391
#     4  11  23  41  67  95 135 175 213 272 332 382
#     4   9  20  42  63  91 131 166 215 266 328 386
#     4   9  22  40  63  97 126 168 225 265 326 397
#     4  11  23  39  62  97 133 171 220 264 325 397
#     4   9  21  40  64  88 129 172 213 266 325 378
#     4  10  21  40  64  94 127 176 218 267 326 388
#
# _framework density 25.86759
#
# number of rings (size 3 to 8) (size 9 to 14) (size 15 to 20)
#    0.000    2.000    1.429    0.857    0.000   13.143 
#    0.000    2.857    0.000    0.000    0.000    0.000 
#    0.000    0.000    0.000    0.000    0.000    0.000 
#
# Total GULP energy -78283.909712 kJ/mol
# GULP energy per Si atom -5591.707837 kJ/mol
# Density = 2.580871 g / cm^3
# Si number density = 25.867590 Si / 1000 Ang^3
#
#
#
# Elastic Constant Matrix: (Units=GPa)
#
#
# Indices 1 2 3 4 5 6 
#
# 1 76.5990 29.4776 4.6984 2.3104 11.1502 10.6563
# 2 29.4776 194.8574 42.5591 -24.3145 7.1861 -6.1477
# 3 4.6984 42.5591 113.8115 -13.1432 -10.0193 9.3704
# 4 2.3104 -24.3145 -13.1432 55.8675 -0.7164 8.8670
# 5 11.1502 7.1861 -10.0193 -0.7164 24.9196 8.2137
# 6 10.6563 -6.1477 9.3704 8.8670 8.2137 24.8652
#
#
#
# Elastic Compliance Matrix: (Units=1/GPa)
#
#
# Indices 1 2 3 4 5 6 
#
# 1 0.015436 -0.002529 0.000311 -0.000819 -0.004205 -0.005677
# 2 -0.002529 0.006583 -0.002814 0.001585 -0.003265 0.004285
# 3 0.000311 -0.002814 0.011675 0.003064 0.008459 -0.009116
# 4 -0.000819 0.001585 0.003064 0.020911 0.004866 -0.009476
# 5 -0.004205 -0.003265 0.008459 0.004866 0.053627 -0.021643
# 6 -0.005677 0.004285 -0.009116 -0.009476 -0.021643 0.057673
#
#
# Mechanical properties :
#
#
# Convention : Reuss Voigt Hill
#
# Bulk Modulus (GPa) = 42.32092 59.85977 51.09035
# Shear Modulus (GPa) = 27.19691 41.69932 34.44811
#
# Velocity S-wave (km/s) = 3.24603 4.01936 3.65322
# Velocity P-wave (km/s) = 5.51771 6.68816 6.13093
#
# Compressibility (1/GPa) = 0.02362898
#
# Stress axis : x y z
#
# Youngs Moduli (GPa) = 64.78466 151.91360 85.65239
#
# Poissons Ratio (x) = 0.38423 -0.02666
# Poissons Ratio (y) = 0.16386 0.24105
# Poissons Ratio (z) = -0.02017 0.42753
#
# Static dielectric constant tensor:
#      x y z
#    x 2.205640 0.051680 0.035240 
#    y 0.051680 2.035200 -0.061090 
#    z 0.035240 -0.061090 2.046170 
# 
# From -- ./inp_files/506908.got.cif
#   From: 2010.05.17/outbox.cif.g08.bks.cpg/sg2_254_cif.got.tgz:506908.got - 2010.06.03 11:33:40.
