data_PCOD9010412
_publ_section_title
;
Structure prediction by ZEFSAII (Michael W. Deem and Ramdas Pophale) SiO2 
 PCOD9010412
Probable space group: P -1
;
_chemical_formula_sum "Si O2"
_cell_formula_units_Z 16
_cell_length_a 9.624613
_cell_length_b 9.826013
_cell_length_c 14.199848
_cell_angle_alpha 105.444549
_cell_angle_beta 52.725591
_cell_angle_gamma 137.663673
_cell_volume 677.214024
_symmetry_space_group_name_H-M "P -1"
_symmetry_group_IT_number 2
_symmetry_cell_setting 'triclinic'
loop_
_space_group_symop_operation_xyz
x,y,z
-x,-y,-z
loop_
_atom_site_type_symbol
_atom_site_label
_atom_site_fract_x
_atom_site_fract_y
_atom_site_fract_z
Si Si1 0.014325 0.318752 0.702392
Si Si2 0.912595 0.565648 0.775788
Si Si3 0.581158 0.450029 0.719374
Si Si4 0.240815 0.255077 0.462922
Si Si5 0.537331 0.907516 0.887174
Si Si6 0.181940 0.958954 0.845303
Si Si7 0.722068 0.468940 0.187687
Si Si8 0.320611 0.158275 0.015469
O O1 0.022523 0.479260 0.686231
O O2 0.205671 0.310718 0.587575
O O3 0.031611 0.353833 0.814300
O O4 0.720123 0.080734 0.762455
O O5 0.802321 0.580071 0.733110
O O6 0.138576 0.783849 0.781090
O O7 0.634716 0.379355 0.913654
O O8 0.734128 0.593297 0.589155
O O9 0.366036 0.445851 0.818278
O O10 0.406399 0.199964 0.752448
O O11 0.497894 0.325143 0.336675
O O12 0.000000 0.000000 0.500000
O O13 0.296967 0.677726 0.896771
O O14 0.708138 0.894698 0.873061
O O15 0.500000 0.000000 0.000000
O O16 0.890208 0.851196 0.928742
O O17 0.249289 0.996933 0.935781
#
# Coordination Sequence:
#
# PCOD9010412 Si02
#       8
#     2   2   2   2   2   2   2   2
#     4  12  24  42  66  99 132 165 216 271 324 378
#     4  11  23  39  63  96 134 168 209 264 330 371
#     4   9  22  42  66  95 121 165 227 258 319 384
#     4  10  22  47  73  92 123 171 221 272 318 380
#     4  12  24  40  63  98 133 168 208 264 325 382
#     4  10  21  40  63  89 132 173 212 264 305 393
#     4  10  24  42  69  93 125 169 217 264 314 383
#     4  10  22  39  62  90 131 174 221 248 315 389
#
# _framework density 23.626208999999999
#
# number of rings (size 3 to 8) (size 9 to 14) (size 15 to 20)
#    0.750    0.750    2.500    2.250    1.750    5.000 
#    0.000    0.625    0.000    0.000    0.000    0.000 
#    0.000    0.000    0.000    0.000    0.000    0.000 
#
# Total GULP energy -89199.449350 kJ/mol
# GULP energy per Si atom -5574.965584 kJ/mol
# Density = 2.357244 g / cm^3
# Si number density = 23.626209 Si / 1000 Ang^3
#
#
#
# Elastic Constant Matrix: (Units=GPa)
#
#
# Indices 1 2 3 4 5 6 
#
# 1 64.5697 17.1149 -0.0051 10.8960 5.3467 6.5021
# 2 17.1149 169.7965 50.1435 13.9832 4.2707 0.2631
# 3 -0.0051 50.1435 72.1043 7.8525 -7.5549 -4.2710
# 4 10.8960 13.9832 7.8525 42.5247 4.2897 -2.7601
# 5 5.3467 4.2707 -7.5549 4.2897 30.7235 0.7497
# 6 6.5021 0.2631 -4.2710 -2.7601 0.7497 26.5263
#
#
#
# Elastic Compliance Matrix: (Units=1/GPa)
#
#
# Indices 1 2 3 4 5 6 
#
# 1 0.017232 -0.001691 0.001185 -0.004184 -0.001781 -0.004401
# 2 -0.001691 0.007843 -0.005600 -0.000947 -0.002026 -0.000606
# 3 0.001185 -0.005600 0.018727 -0.002315 0.005442 0.002385
# 4 -0.004184 -0.000947 -0.002315 0.025895 -0.003409 0.003453
# 5 -0.001781 -0.002026 0.005442 -0.003409 0.034954 -0.000010
# 6 -0.004401 -0.000606 0.002385 0.003453 -0.000010 0.039527
#
#
# Mechanical properties :
#
#
# Convention : Reuss Voigt Hill
#
# Bulk Modulus (GPa) = 31.65355 48.99745 40.32550
# Shear Modulus (GPa) = 29.95466 35.90270 32.92868
#
# Velocity S-wave (km/s) = 3.56456 3.90245 3.73733
# Velocity P-wave (km/s) = 5.51073 6.41008 5.97735
#
# Compressibility (1/GPa) = 0.03159203
#
# Stress axis : x y z
#
# Youngs Moduli (GPa) = 58.03107 127.49601 53.39988
#
# Poissons Ratio (x) = 0.21557 -0.06330
# Poissons Ratio (y) = 0.09812 0.29902
# Poissons Ratio (z) = -0.06879 0.71394
#
# Static dielectric constant tensor:
#      x y z
#    x 1.952300 -0.034370 0.015030 
#    y -0.034370 1.965370 -0.027190 
#    z 0.015030 -0.027190 1.937290 
# 
# From -- ./inp_files/519036.got.cif
#   From: 2010.05.17/outbox.cif.g08.bks.cpg/sg2_260_cif.got.tgz:519036.got - 2010.06.03 11:33:40.
