data_PCOD9010731
_publ_section_title
;
Structure prediction by ZEFSAII (Michael W. Deem and Ramdas Pophale) SiO2 
 PCOD9010731
Probable space group: P -1
;
_chemical_formula_sum "Si O2"
_cell_formula_units_Z 16
_cell_length_a 15.183094
_cell_length_b 23.465736
_cell_length_c 9.947303
_cell_angle_alpha 131.905768
_cell_angle_beta 48.045757
_cell_angle_gamma 161.759138
_cell_volume 816.672004
_symmetry_space_group_name_H-M "P -1"
_symmetry_group_IT_number 2
_symmetry_cell_setting 'triclinic'
loop_
_space_group_symop_operation_xyz
x,y,z
-x,-y,-z
loop_
_atom_site_type_symbol
_atom_site_label
_atom_site_fract_x
_atom_site_fract_y
_atom_site_fract_z
Si Si1 0.357963 0.481656 0.936513
Si Si2 0.611319 0.395887 0.148535
Si Si3 0.702129 0.929929 0.951378
Si Si4 0.756752 0.492698 0.457109
Si Si5 0.692839 0.718976 0.236631
Si Si6 0.844693 0.374648 0.161521
Si Si7 0.269217 0.887063 0.667656
Si Si8 0.276423 0.829708 0.859382
O O1 0.449488 0.572979 0.846481
O O2 0.362673 0.393235 0.804826
O O3 0.543456 0.623750 0.093726
O O4 0.031617 0.313527 0.029853
O O5 0.673234 0.460788 0.338586
O O6 0.369315 0.188632 0.079613
O O7 0.895236 0.518589 0.001389
O O8 0.747653 0.032709 0.155475
O O9 0.423670 0.782328 0.912340
O O10 0.975195 0.077012 0.810352
O O11 0.474217 0.318240 0.561260
O O12 0.918660 0.506521 0.315688
O O13 0.963629 0.676788 0.600273
O O14 0.756545 0.277739 0.233103
O O15 0.354129 0.893684 0.728768
O O16 0.500000 0.000000 0.500000
O O17 0.500000 0.000000 0.000000
#
# Coordination Sequence:
#
# PCOD9010731 Si02
#       8
#     2   2   2   2   2   2   2   2
#     4  10  21  41  62  85 122 172 195 244 309 367
#     4  10  23  40  65  89 124 158 203 252 314 355
#     4  11  21  41  63  89 124 167 197 247 305 368
#     4  11  23  39  60  94 121 161 198 256 300 359
#     4  11  21  40  64  83 126 165 210 238 296 367
#     4  10  21  40  64  90 124 159 197 252 317 358
#     4  12  22  36  61  95 123 152 200 259 305 347
#     4  11  20  38  65  91 118 162 205 243 308 376
#
# _framework density 19.591708000000001
#
# number of rings (size 3 to 8) (size 9 to 14) (size 15 to 20)
#    0.000    1.250    3.750    3.750    1.750    3.500 
#    2.250    0.000    0.000    0.000    0.000    0.000 
#    0.000    0.000    0.000    0.000    0.000    0.000 
#
# Total GULP energy -89390.596400 kJ/mol
# GULP energy per Si atom -5586.912275 kJ/mol
# Density = 1.954712 g / cm^3
# Si number density = 19.591708 Si / 1000 Ang^3
#
#
#
# Elastic Constant Matrix: (Units=GPa)
#
#
# Indices 1 2 3 4 5 6 
#
# 1 105.5497 29.1278 20.7365 7.3752 29.7880 -19.3356
# 2 29.1278 101.2240 33.4638 -2.4618 7.1200 -9.9015
# 3 20.7365 33.4638 63.3422 -2.5592 19.9426 -9.2246
# 4 7.3752 -2.4618 -2.5592 39.4206 -3.8641 1.5529
# 5 29.7880 7.1200 19.9426 -3.8641 23.7154 -16.7085
# 6 -19.3356 -9.9015 -9.2246 1.5529 -16.7085 25.4314
#
#
#
# Elastic Compliance Matrix: (Units=1/GPa)
#
#
# Indices 1 2 3 4 5 6 
#
# 1 0.018008 -0.005701 0.005828 -0.006177 -0.031609 -0.006804
# 2 -0.005701 0.014596 -0.010190 0.002762 0.018664 0.009746
# 3 0.005828 -0.010190 0.029634 -0.003161 -0.040326 -0.015089
# 4 -0.006177 0.002762 -0.003161 0.028034 0.017856 0.005252
# 5 -0.031609 0.018664 -0.040326 0.017856 0.167936 0.077851
# 6 -0.006804 0.009746 -0.015089 0.005252 0.077851 0.083298
#
#
# Mechanical properties :
#
#
# Convention : Reuss Voigt Hill
#
# Bulk Modulus (GPa) = 23.74651 48.53024 36.13838
# Shear Modulus (GPa) = 13.30956 30.16598 21.73777
#
# Velocity S-wave (km/s) = 2.60926 3.92820 3.33459
# Velocity P-wave (km/s) = 4.60702 6.73787 5.77163
#
# Compressibility (1/GPa) = 0.04211145
#
# Stress axis : x y z
#
# Youngs Moduli (GPa) = 55.52976 68.51188 33.74509
#
# Poissons Ratio (x) = 0.39059 -0.19665
# Poissons Ratio (y) = 0.31658 0.34386
# Poissons Ratio (z) = -0.32361 0.69814
#
# Static dielectric constant tensor:
#      x y z
#    x 1.693430 -0.021520 -0.011860 
#    y -0.021520 1.699310 0.000320 
#    z -0.011860 0.000320 1.681910 
# 
# From -- ./inp_files/320329.got.cif
#   From: 2010.05.17/outbox.cif.g08.bks.cpg/sg2_161_cif.got.tgz:320329.got - 2010.06.03 11:33:40.
