data_PCOD9010520
_publ_section_title
;
Structure prediction by ZEFSAII (Michael W. Deem and Ramdas Pophale) SiO2 
 PCOD9010520
Probable space group: P -1
;
_chemical_formula_sum "Si O2"
_cell_formula_units_Z 14
_cell_length_a 16.474049
_cell_length_b 14.219565
_cell_length_c 5.317410
_cell_angle_alpha 100.955673
_cell_angle_beta 65.868423
_cell_angle_gamma 146.160483
_cell_volume 605.009029
_symmetry_space_group_name_H-M "P -1"
_symmetry_group_IT_number 2
_symmetry_cell_setting 'triclinic'
loop_
_space_group_symop_operation_xyz
x,y,z
-x,-y,-z
loop_
_atom_site_type_symbol
_atom_site_label
_atom_site_fract_x
_atom_site_fract_y
_atom_site_fract_z
Si Si1 0.730933 0.443815 0.616435
Si Si2 0.117622 0.195799 0.892666
Si Si3 0.588396 0.155453 0.279925
Si Si4 0.977294 0.579930 0.701517
Si Si5 0.291832 0.917789 0.187132
Si Si6 0.660396 0.582841 0.780531
Si Si7 0.950585 0.224784 0.901389
O O1 0.670943 0.307269 0.435093
O O2 0.797270 0.457187 0.796944
O O3 0.611227 0.425459 0.753265
O O4 0.901961 0.647874 0.419468
O O5 0.237437 0.296257 0.543281
O O6 0.226873 0.307391 0.058660
O O7 0.999630 0.181733 0.995314
O O8 0.000000 0.000000 0.000000
O O9 0.500000 0.000000 0.500000
O O10 0.455909 0.081903 0.220201
O O11 0.695110 0.177415 0.992758
O O12 0.009877 0.631525 0.974945
O O13 0.000000 0.500000 0.500000
O O14 0.137056 0.780647 0.496965
O O15 0.233126 0.937308 0.054283
O O16 0.500000 0.500000 0.000000
#
# Coordination Sequence:
#
# PCOD9010520 Si02
#       7
#     2   2   2   2   2   2   2
#     4  10  22  39  63  92 128 177 225 283 343 419
#     4  11  24  48  77 105 141 184 241 306 362 430
#     4  11  22  40  57  91 139 176 220 276 341 414
#     4  11  19  35  63  88 121 167 220 271 334 403
#     4  10  22  37  58  90 133 170 223 274 337 410
#     4  11  24  49  73 108 142 187 238 301 368 438
#     4  10  21  40  63  93 127 169 231 282 342 419
#
# _framework density 23.140149999999998
#
# number of rings (size 3 to 8) (size 9 to 14) (size 15 to 20)
#    0.000    1.429    1.429    4.286    0.000    3.429 
#    5.143    0.000    0.000    0.000    0.000    0.000 
#    0.000    0.000    0.000    0.000    0.000    0.000 
#
# Total GULP energy -78053.684866 kJ/mol
# GULP energy per Si atom -5575.263205 kJ/mol
# Density = 2.308748 g / cm^3
# Si number density = 23.140150 Si / 1000 Ang^3
#
#
#
# Elastic Constant Matrix: (Units=GPa)
#
#
# Indices 1 2 3 4 5 6 
#
# 1 146.8094 59.8087 41.0139 0.5363 -7.7212 36.7335
# 2 59.8087 102.9468 32.0477 0.0203 0.9851 18.3661
# 3 41.0139 32.0477 112.7492 -1.6081 -7.2141 6.7754
# 4 0.5363 0.0203 -1.6081 23.9625 5.2868 8.5469
# 5 -7.7212 0.9851 -7.2141 5.2868 39.9711 4.6661
# 6 36.7335 18.3661 6.7754 8.5469 4.6661 39.0791
#
#
#
# Elastic Compliance Matrix: (Units=1/GPa)
#
#
# Indices 1 2 3 4 5 6 
#
# 1 0.011745 -0.004483 -0.002224 0.002330 0.002766 -0.009387
# 2 -0.004483 0.013295 -0.002131 0.000875 -0.001498 -0.001677
# 3 -0.002224 -0.002131 0.010302 0.000041 0.001344 0.001136
# 4 0.002330 0.000875 0.000041 0.047056 -0.004343 -0.012381
# 5 0.002766 -0.001498 0.001344 -0.004343 0.026919 -0.004393
# 6 -0.009387 -0.001677 0.001136 -0.012381 -0.004393 0.038236
#
#
# Mechanical properties :
#
#
# Convention : Reuss Voigt Hill
#
# Bulk Modulus (GPa) = 56.60419 69.80509 63.20464
# Shear Modulus (GPa) = 29.21955 35.91153 32.56554
#
# Velocity S-wave (km/s) = 3.55733 3.94371 3.75549
# Velocity P-wave (km/s) = 6.43330 7.13925 6.79545
#
# Compressibility (1/GPa) = 0.01766654
#
# Stress axis : x y z
#
# Youngs Moduli (GPa) = 85.14242 75.21548 97.06742
#
# Poissons Ratio (x) = 0.33722 0.21585
# Poissons Ratio (y) = 0.38173 0.20682
# Poissons Ratio (z) = 0.18933 0.16026
#
# Static dielectric constant tensor:
#      x y z
#    x 2.119480 -0.060100 0.091560 
#    y -0.060100 1.899440 -0.012410 
#    z 0.091560 -0.012410 1.994380 
# 
# From -- ./inp_files/110925.got.cif
#   From: 2010.05.17/outbox.cif.g08.bks.cpg/sg2_56_cif.got.tgz:110925.got - 2010.06.03 11:33:40.
