data_PCOD9010570
_publ_section_title
;
Structure prediction by ZEFSAII (Michael W. Deem and Ramdas Pophale) SiO2 
 PCOD9010570
Probable space group: P -1
;
_chemical_formula_sum "Si O2"
_cell_formula_units_Z 16
_cell_length_a 15.249471
_cell_length_b 11.217171
_cell_length_c 9.570563
_cell_angle_alpha 85.973561
_cell_angle_beta 109.725454
_cell_angle_gamma 148.372692
_cell_volume 725.698692
_symmetry_space_group_name_H-M "P -1"
_symmetry_group_IT_number 2
_symmetry_cell_setting 'triclinic'
loop_
_space_group_symop_operation_xyz
x,y,z
-x,-y,-z
loop_
_atom_site_type_symbol
_atom_site_label
_atom_site_fract_x
_atom_site_fract_y
_atom_site_fract_z
Si Si1 0.219175 0.916065 0.621477
Si Si2 0.817290 0.510684 0.288861
Si Si3 0.369624 0.046618 0.166112
Si Si4 0.518993 0.553150 0.341928
Si Si5 0.693933 0.140480 0.584963
Si Si6 0.690971 0.757296 0.989398
Si Si7 0.840319 0.803266 0.310772
Si Si8 0.873627 0.338895 0.155329
O O1 0.274229 0.871114 0.551301
O O2 0.239001 0.882946 0.787248
O O3 0.990552 0.686001 0.481286
O O4 0.356648 0.184905 0.639530
O O5 0.592738 0.256306 0.241611
O O6 0.847892 0.683493 0.250287
O O7 0.845646 0.440608 0.193957
O O8 0.316049 0.112824 0.065579
O O9 0.334620 0.004937 0.315880
O O10 0.222322 0.785775 0.035936
O O11 0.500000 0.500000 0.500000
O O12 0.321965 0.329676 0.157363
O O13 0.646015 0.597344 0.321568
O O14 0.895565 0.428895 0.721750
O O15 0.500000 0.000000 0.500000
O O16 0.500000 0.500000 0.000000
O O17 0.854183 0.912852 0.182086
O O18 0.000000 0.000000 0.500000
#
# Coordination Sequence:
#
# PCOD9010570 Si02
#       8
#     2   2   2   2   2   2   2   2
#     4  11  23  41  66  94 130 171 222 271 322 400
#     4  11  22  38  66  94 130 167 226 264 323 393
#     4  12  22  40  68  94 131 173 215 277 338 380
#     4  11  22  41  66  97 132 168 217 274 337 385
#     4  11  24  44  64  96 134 170 217 269 337 394
#     4  10  21  40  63  95 130 169 223 266 324 397
#     4  11  22  42  69  93 128 178 225 269 332 397
#     4  11  24  42  65  96 129 170 222 272 325 395
#
# _framework density 22.047718
#
# number of rings (size 3 to 8) (size 9 to 14) (size 15 to 20)
#    0.000    1.000    3.750    6.000    0.000    0.000 
#    0.000    0.625    0.000    0.000    0.000    0.000 
#    0.000    0.000    0.000    0.000    0.000    0.000 
#
# Total GULP energy -89280.632999 kJ/mol
# GULP energy per Si atom -5580.039562 kJ/mol
# Density = 2.199754 g / cm^3
# Si number density = 22.047718 Si / 1000 Ang^3
#
#
#
# Elastic Constant Matrix: (Units=GPa)
#
#
# Indices 1 2 3 4 5 6 
#
# 1 69.7726 28.5268 24.9832 -3.7469 9.8717 -15.0535
# 2 28.5268 75.3130 40.0392 -3.9902 3.0543 -9.8934
# 3 24.9832 40.0392 138.5601 -14.2375 -9.3631 -5.5316
# 4 -3.7469 -3.9902 -14.2375 48.4848 -9.6984 5.6048
# 5 9.8717 3.0543 -9.3631 -9.6984 26.7842 4.9633
# 6 -15.0535 -9.8934 -5.5316 5.6048 4.9633 33.1735
#
#
#
# Elastic Compliance Matrix: (Units=1/GPa)
#
#
# Indices 1 2 3 4 5 6 
#
# 1 0.020868 -0.004697 -0.003080 -0.003031 -0.011133 0.009733
# 2 -0.004697 0.017922 -0.004521 -0.001149 -0.002881 0.003085
# 3 -0.003080 -0.004521 0.009858 0.004030 0.007083 -0.002843
# 4 -0.003031 -0.001149 0.004030 0.024915 0.013013 -0.007202
# 5 -0.011133 -0.002881 0.007083 0.013013 0.051672 -0.014660
# 6 0.009733 0.003085 -0.002843 -0.007202 -0.014660 0.038417
#
#
# Mechanical properties :
#
#
# Convention : Reuss Voigt Hill
#
# Bulk Modulus (GPa) = 41.57968 52.30490 46.94229
# Shear Modulus (GPa) = 25.47543 34.36162 29.91852
#
# Velocity S-wave (km/s) = 3.40290 3.95208 3.68773
# Velocity P-wave (km/s) = 5.86000 6.67834 6.28251
#
# Compressibility (1/GPa) = 0.02405021
#
# Stress axis : x y z
#
# Youngs Moduli (GPa) = 47.92023 55.79726 101.43699
#
# Poissons Ratio (x) = 0.26209 0.31248
# Poissons Ratio (y) = 0.22509 0.45864
# Poissons Ratio (z) = 0.14762 0.25229
#
# Static dielectric constant tensor:
#      x y z
#    x 1.835580 -0.000520 0.053300 
#    y -0.000520 1.880280 0.073840 
#    z 0.053300 0.073840 1.865140 
# 
# From -- ./inp_files/307598.got.cif
#   From: 2010.05.17/outbox.cif.g08.bks.cpg/sg2_154_cif.got.tgz:307598.got - 2010.06.03 11:33:40.
