data_PCOD9010051
_publ_section_title
;
Structure prediction by ZEFSAII (Michael W. Deem and Ramdas Pophale) SiO2 
 PCOD9010051
Probable space group: P -1
;
_chemical_formula_sum "Si O2"
_cell_formula_units_Z 16
_cell_length_a 8.300374
_cell_length_b 5.471750
_cell_length_c 20.566432
_cell_angle_alpha 107.411085
_cell_angle_beta 128.162322
_cell_angle_gamma 66.864554
_cell_volume 673.305234
_symmetry_space_group_name_H-M "P -1"
_symmetry_group_IT_number 2
_symmetry_cell_setting 'triclinic'
loop_
_space_group_symop_operation_xyz
x,y,z
-x,-y,-z
loop_
_atom_site_type_symbol
_atom_site_label
_atom_site_fract_x
_atom_site_fract_y
_atom_site_fract_z
Si Si1 0.904658 0.288230 0.531140
Si Si2 0.286974 0.924294 0.424923
Si Si3 0.758479 0.069173 0.737908
Si Si4 0.990136 0.652728 0.942735
Si Si5 0.607525 0.202798 0.974281
Si Si6 0.604777 0.696097 0.770614
Si Si7 0.803597 0.867013 0.122392
Si Si8 0.163332 0.641922 0.623735
O O1 0.744650 0.301895 0.551636
O O2 0.794364 0.429430 0.448533
O O3 0.109115 0.376583 0.614508
O O4 0.000000 0.000000 0.500000
O O5 0.294635 0.887723 0.347354
O O6 0.500000 0.000000 0.500000
O O7 0.066872 0.151144 0.403721
O O8 0.669266 0.370583 0.766808
O O9 0.016317 0.997244 0.800675
O O10 0.671802 0.848063 0.736403
O O11 0.077559 0.438519 0.889460
O O12 0.747565 0.778028 0.869182
O O13 0.177862 0.793981 0.008570
O O14 0.000000 0.500000 0.000000
O O15 0.404273 0.127662 0.886770
O O16 0.500000 0.500000 0.000000
O O17 0.704593 0.005508 0.041865
O O18 0.349505 0.748956 0.708260
#
# Coordination Sequence:
#
# PCOD9010051 Si02
#       8
#     2   2   2   2   2   2   2   2
#     4   9  21  41  66  92 129 169 219 262 335 388
#     4  11  25  41  66  99 130 170 223 274 324 390
#     4  11  25  44  68  96 135 173 223 275 326 389
#     4  10  21  40  61  94 126 169 220 268 318 390
#     4   9  17  36  63  86 121 163 214 255 326 381
#     4  11  25  45  67  95 134 180 215 269 339 389
#     4   9  19  39  61  90 123 172 208 265 326 384
#     4  10  23  42  66  94 133 176 216 270 330 398
#
# _framework density 23.763366000000001
#
# number of rings (size 3 to 8) (size 9 to 14) (size 15 to 20)
#    0.000    2.000    1.250    0.750   10.500    1.000 
#    9.000    0.000    0.000    0.000    0.000    0.000 
#    0.000    0.000    0.000    0.000    0.000    0.000 
#
# Total GULP energy -89129.457616 kJ/mol
# GULP energy per Si atom -5570.591101 kJ/mol
# Density = 2.370928 g / cm^3
# Si number density = 23.763366 Si / 1000 Ang^3
#
#
#
# Elastic Constant Matrix: (Units=GPa)
#
#
# Indices 1 2 3 4 5 6 
#
# 1 174.3398 28.2402 73.1639 0.9174 54.7919 34.5885
# 2 28.2402 57.7183 3.4069 2.0474 18.5211 5.5698
# 3 73.1639 3.4069 125.0507 11.2483 46.5839 15.5586
# 4 0.9174 2.0474 11.2483 28.6453 8.5576 7.5384
# 5 54.7919 18.5211 46.5839 8.5576 56.6556 0.1734
# 6 34.5885 5.5698 15.5586 7.5384 0.1734 48.0715
#
#
#
# Elastic Compliance Matrix: (Units=1/GPa)
#
#
# Indices 1 2 3 4 5 6 
#
# 1 0.011757 -0.002066 -0.002925 0.005795 -0.009140 -0.008149
# 2 -0.002066 0.020894 0.003902 0.000012 -0.008036 -0.002170
# 3 -0.002925 0.003902 0.013530 -0.002115 -0.009245 -0.002362
# 4 0.005795 0.000012 -0.002115 0.041165 -0.010057 -0.009905
# 5 -0.009140 -0.008036 -0.009245 -0.010057 0.038201 0.011939
# 6 -0.008149 -0.002170 -0.002362 -0.009905 0.011939 0.029192
#
#
# Mechanical properties :
#
#
# Convention : Reuss Voigt Hill
#
# Bulk Modulus (GPa) = 22.72604 62.97010 42.84807
# Shear Modulus (GPa) = 29.14050 43.49433 36.31741
#
# Velocity S-wave (km/s) = 3.50562 4.28285 3.91358
# Velocity P-wave (km/s) = 5.09609 7.14237 6.20417
#
# Compressibility (1/GPa) = 0.04400238
#
# Stress axis : x y z
#
# Youngs Moduli (GPa) = 85.05683 47.86163 73.91227
#
# Poissons Ratio (x) = 0.09888 0.21617
# Poissons Ratio (y) = 0.17572 -0.28839
# Poissons Ratio (z) = 0.24877 -0.18675
#
# Static dielectric constant tensor:
#      x y z
#    x 2.006790 0.016960 0.012810 
#    y 0.016960 2.111010 -0.004440 
#    z 0.012810 -0.004440 1.941350 
# 
# From -- ./inp_files/50991.got.cif
#   From: 2010.05.17/outbox.cif.g08.bks.cpg/sg2_26_cif.got.tgz:50991.got - 2010.06.03 11:33:40.
