data_PCOD9010745
_publ_section_title
;
Structure prediction by ZEFSAII (Michael W. Deem and Ramdas Pophale) SiO2 
 PCOD9010745
Probable space group: P -1
;
_chemical_formula_sum "Si O2"
_cell_formula_units_Z 16
_cell_length_a 15.522028
_cell_length_b 8.649251
_cell_length_c 4.996448
_cell_angle_alpha 85.187328
_cell_angle_beta 94.745030
_cell_angle_gamma 115.600038
_cell_volume 602.003151
_symmetry_space_group_name_H-M "P -1"
_symmetry_group_IT_number 2
_symmetry_cell_setting 'triclinic'
loop_
_space_group_symop_operation_xyz
x,y,z
-x,-y,-z
loop_
_atom_site_type_symbol
_atom_site_label
_atom_site_fract_x
_atom_site_fract_y
_atom_site_fract_z
Si Si1 0.936749 0.810234 0.397796
Si Si2 0.935522 0.492276 0.729664
Si Si3 0.735011 0.159497 0.148981
Si Si4 0.771924 0.794519 0.625655
Si Si5 0.109623 0.851818 0.099865
Si Si6 0.552364 0.375030 0.476806
Si Si7 0.629687 0.947616 0.631675
Si Si8 0.682677 0.453712 0.993096
O O1 0.998311 0.800331 0.158783
O O2 0.920787 0.659778 0.631967
O O3 0.828690 0.789952 0.372661
O O4 0.000000 0.000000 0.500000
O O5 0.861556 0.291860 0.735698
O O6 0.000000 0.500000 0.500000
O O7 0.000000 0.500000 0.000000
O O8 0.837534 0.145247 0.170271
O O9 0.747849 0.353187 0.076792
O O10 0.671172 0.030351 0.917125
O O11 0.669926 0.098702 0.404219
O O12 0.679701 0.828222 0.553694
O O13 0.741238 0.630030 0.829219
O O14 0.839228 0.962702 0.785745
O O15 0.500000 0.500000 0.500000
O O16 0.480227 0.186291 0.381333
O O17 0.599807 0.354115 0.768378
O O18 0.632019 0.461774 0.255106
#
# Coordination Sequence:
#
# PCOD9010745 Si02
#       8
#     2   2   2   2   2   2   2   2
#     4   9  19  41  67 101 133 179 229 278 332 402
#     4  10  21  40  64  90 126 171 221 270 332 390
#     4  11  25  44  68 104 141 178 232 280 348 401
#     4  10  22  42  69 100 138 178 236 280 340 402
#     4   9  21  40  67  95 137 182 222 279 337 399
#     4  12  26  45  74 102 139 176 231 279 357 410
#     4  11  25  45  70  98 139 185 223 289 346 414
#     4  12  26  44  72 104 136 180 228 290 335 419
#
# _framework density 26.577933999999999
#
# number of rings (size 3 to 8) (size 9 to 14) (size 15 to 20)
#    0.000    1.500    1.250    2.625    3.500    8.000 
#    0.000   21.250    0.000    0.000    0.000    0.000 
#    0.000    0.000    0.000    0.000    0.000    0.000 
#
# Total GULP energy -89395.781153 kJ/mol
# GULP energy per Si atom -5587.236322 kJ/mol
# Density = 2.651744 g / cm^3
# Si number density = 26.577934 Si / 1000 Ang^3
#
#
#
# Elastic Constant Matrix: (Units=GPa)
#
#
# Indices 1 2 3 4 5 6 
#
# 1 117.7722 15.1184 23.6036 -1.4463 -35.2103 -17.7492
# 2 15.1184 139.3528 -1.1258 -29.4383 9.8311 1.8940
# 3 23.6036 -1.1258 97.9959 7.6868 -5.8066 -1.2097
# 4 -1.4463 -29.4383 7.6868 51.9499 -8.0166 3.2553
# 5 -35.2103 9.8311 -5.8066 -8.0166 39.4007 -1.7700
# 6 -17.7492 1.8940 -1.2097 3.2553 -1.7700 48.0616
#
#
#
# Elastic Compliance Matrix: (Units=1/GPa)
#
#
# Indices 1 2 3 4 5 6 
#
# 1 0.014193 -0.002333 -0.002675 0.001176 0.013365 0.005679
# 2 -0.002333 0.008617 0.000096 0.004381 -0.003403 -0.001621
# 3 -0.002675 0.000096 0.010911 -0.001779 -0.001198 -0.000641
# 4 0.001176 0.004381 -0.001779 0.022760 0.004274 -0.001168
# 5 0.013365 -0.003403 -0.001198 0.004274 0.039144 0.006192
# 6 0.005679 -0.001621 -0.000641 -0.001168 0.006192 0.023259
#
#
# Mechanical properties :
#
#
# Convention : Reuss Voigt Hill
#
# Bulk Modulus (GPa) = 41.84954 47.81259 44.83106
# Shear Modulus (GPa) = 36.58312 49.05078 42.81695
#
# Velocity S-wave (km/s) = 3.71407 4.30064 4.01808
# Velocity P-wave (km/s) = 5.84574 6.53371 6.19927
#
# Compressibility (1/GPa) = 0.02389513
#
# Stress axis : x y z
#
# Youngs Moduli (GPa) = 70.45823 116.04431 91.65299
#
# Poissons Ratio (x) = 0.27075 0.24522
# Poissons Ratio (y) = 0.16439 -0.00877
# Poissons Ratio (z) = 0.18851 -0.01111
#
# Static dielectric constant tensor:
#      x y z
#    x 2.172230 -0.061570 0.083120 
#    y -0.061570 2.298940 -0.181750 
#    z 0.083120 -0.181750 2.172510 
# 
# From -- ./inp_files/90116.got.cif
#   From: 2010.05.17/outbox.cif.g08.bks.cpg/sg2_46_cif.got.tgz:90116.got - 2010.06.03 11:33:40.
