data_PCOD9010482
_publ_section_title
;
Structure prediction by ZEFSAII (Michael W. Deem and Ramdas Pophale) SiO2 
 PCOD9010482
Probable space group: P -1
;
_chemical_formula_sum "Si O2"
_cell_formula_units_Z 14
_cell_length_a 22.004125
_cell_length_b 5.603104
_cell_length_c 5.382894
_cell_angle_alpha 119.727602
_cell_angle_beta 107.050018
_cell_angle_gamma 66.777211
_cell_volume 525.644815
_symmetry_space_group_name_H-M "P -1"
_symmetry_group_IT_number 2
_symmetry_cell_setting 'triclinic'
loop_
_space_group_symop_operation_xyz
x,y,z
-x,-y,-z
loop_
_atom_site_type_symbol
_atom_site_label
_atom_site_fract_x
_atom_site_fract_y
_atom_site_fract_z
Si Si1 0.830027 0.265658 0.096752
Si Si2 0.270691 0.859205 0.719923
Si Si3 0.584041 0.692506 0.139790
Si Si4 0.698377 0.612810 0.852725
Si Si5 0.020820 0.298918 0.673446
Si Si6 0.854792 0.807991 0.519971
Si Si7 0.548800 0.290951 0.263596
O O1 0.781911 0.142114 0.134953
O O2 0.861908 0.472121 0.401438
O O3 0.775110 0.489479 0.972545
O O4 0.875771 0.009420 0.851781
O O5 0.297748 0.535969 0.483953
O O6 0.224194 0.032142 0.527740
O O7 0.315321 0.045948 0.976417
O O8 0.586018 0.478337 0.255138
O O9 0.590445 0.014313 0.328452
O O10 0.640745 0.552778 0.926831
O O11 0.504511 0.774405 0.023340
O O12 0.100706 0.196533 0.672607
O O13 0.000000 0.500000 0.500000
O O14 0.000000 0.000000 0.500000
O O15 0.000000 0.500000 0.000000
O O16 0.500000 0.500000 0.500000
#
# Coordination Sequence:
#
# PCOD9010482 Si02
#       7
#     2   2   2   2   2   2   2
#     4  10  21  40  63  92 125 172 220 270 346 405
#     4  10  22  40  63  90 128 165 221 262 348 396
#     4  10  23  39  61  90 124 156 220 261 325 393
#     4  10  23  38  58  97 118 165 211 276 322 404
#     4  12  28  47  74 111 148 193 250 302 361 429
#     4  10  23  40  65  93 133 177 223 283 339 408
#     4  10  22  42  61  89 118 171 206 261 329 394
#
# _framework density 26.633953000000002
#
# number of rings (size 3 to 8) (size 9 to 14) (size 15 to 20)
#    0.000    1.714    0.000    2.571    8.000    0.000 
#    0.000    0.000    0.000    0.000    0.000    0.000 
#    0.000    0.000    0.000    0.000    0.000    0.000 
#
# Total GULP energy -78081.114809 kJ/mol
# GULP energy per Si atom -5577.222486 kJ/mol
# Density = 2.657333 g / cm^3
# Si number density = 26.633953 Si / 1000 Ang^3
#
#
#
# Elastic Constant Matrix: (Units=GPa)
#
#
# Indices 1 2 3 4 5 6 
#
# 1 112.9936 33.5455 25.6386 17.2384 -15.0449 28.3382
# 2 33.5455 130.8702 68.5095 34.8952 5.4263 25.8752
# 3 25.6386 68.5095 150.7319 44.0485 -32.1130 19.7463
# 4 17.2384 34.8952 44.0485 39.6165 -1.3774 5.3532
# 5 -15.0449 5.4263 -32.1130 -1.3774 50.9725 -4.6077
# 6 28.3382 25.8752 19.7463 5.3532 -4.6077 54.7032
#
#
#
# Elastic Compliance Matrix: (Units=1/GPa)
#
#
# Indices 1 2 3 4 5 6 
#
# 1 0.011464 -0.001843 0.001702 -0.004453 0.004089 -0.004901
# 2 -0.001843 0.012804 -0.004775 -0.004900 -0.005351 -0.003349
# 3 0.001702 -0.004775 0.014207 -0.011758 0.009481 -0.001802
# 4 -0.004453 -0.004900 -0.011758 0.043794 -0.006653 0.004023
# 5 0.004089 -0.005351 0.009481 -0.006653 0.027182 -0.000069
# 6 -0.004901 -0.003349 -0.001802 0.004023 -0.000069 0.022655
#
#
# Mechanical properties :
#
#
# Convention : Reuss Voigt Hill
#
# Bulk Modulus (GPa) = 34.91180 72.22032 53.56606
# Shear Modulus (GPa) = 33.00651 46.85190 39.92921
#
# Velocity S-wave (km/s) = 3.52414 4.19872 3.87613
# Velocity P-wave (km/s) = 5.44939 7.11902 6.33941
#
# Compressibility (1/GPa) = 0.02864361
#
# Stress axis : x y z
#
# Youngs Moduli (GPa) = 87.23006 78.10090 70.38717
#
# Poissons Ratio (x) = 0.14390 -0.11981
# Poissons Ratio (y) = 0.16073 0.33612
# Poissons Ratio (z) = -0.14848 0.37296
#
# Static dielectric constant tensor:
#      x y z
#    x 1.430550 0.383850 -0.337380 
#    y 0.383850 1.901660 0.274480 
#    z -0.337380 0.274480 1.898090 
# 
# From -- ./inp_files/8875.got.cif
#   From: 2010.05.17/outbox.cif.g08.bks.cpg/sg2_5_cif.got.tgz:8875.got - 2010.06.03 11:33:40.
