data_PCOD9010072
_publ_section_title
;
Structure prediction by ZEFSAII (Michael W. Deem and Ramdas Pophale) SiO2 
 PCOD9010072
Probable space group: P -1
;
_chemical_formula_sum "Si O2"
_cell_formula_units_Z 16
_cell_length_a 9.804645
_cell_length_b 13.279785
_cell_length_c 6.891994
_cell_angle_alpha 63.825033
_cell_angle_beta 125.408820
_cell_angle_gamma 85.234195
_cell_volume 581.788617
_symmetry_space_group_name_H-M "P -1"
_symmetry_group_IT_number 2
_symmetry_cell_setting 'triclinic'
loop_
_space_group_symop_operation_xyz
x,y,z
-x,-y,-z
loop_
_atom_site_type_symbol
_atom_site_label
_atom_site_fract_x
_atom_site_fract_y
_atom_site_fract_z
Si Si1 0.230687 0.656917 0.529980
Si Si2 0.542802 0.357085 0.602440
Si Si3 0.705212 0.613906 0.130113
Si Si4 0.639717 0.936247 0.852119
Si Si5 0.894296 0.730282 0.934417
Si Si6 0.359735 0.841414 0.851363
Si Si7 0.142491 0.377907 0.344082
Si Si8 0.002983 0.068956 0.743933
O O1 0.400966 0.664431 0.555632
O O2 0.283519 0.521957 0.777020
O O3 0.108727 0.777382 0.456950
O O4 0.110154 0.659928 0.235328
O O5 0.500000 0.500000 0.500000
O O6 0.350106 0.355451 0.490635
O O7 0.681901 0.232103 0.944059
O O8 0.852051 0.610770 0.427704
O O9 0.780107 0.656388 0.972307
O O10 0.497759 0.716805 0.940521
O O11 0.805142 0.840200 0.925974
O O12 0.509296 0.899879 0.916465
O O13 0.500000 0.000000 0.500000
O O14 0.770843 0.978645 0.055262
O O15 0.878055 0.736386 0.683307
O O16 0.154604 0.941698 0.514653
O O17 0.000000 0.500000 0.000000
O O18 0.000000 0.000000 0.000000
#
# Coordination Sequence:
#
# PCOD9010072 Si02
#       8
#     2   2   2   2   2   2   2   2
#     4  11  22  40  60  95 131 167 219 268 329 401
#     4  11  22  41  58  94 141 169 212 271 333 403
#     4  10  21  40  61  98 136 168 222 270 333 417
#     4  10  21  42  71  94 131 170 233 282 321 398
#     4  10  22  39  64  95 129 175 215 279 336 397
#     4  10  22  42  64  99 133 169 218 278 333 396
#     4  11  21  36  61  87 132 177 208 263 333 391
#     4  11  24  42  71  95 125 177 228 276 335 391
#
# _framework density 27.501397000000001
#
# number of rings (size 3 to 8) (size 9 to 14) (size 15 to 20)
#    0.000    1.500    5.000    0.375    3.500    1.500 
#   15.750    0.625    0.000    7.500    0.000    0.000 
#    0.000    0.000    0.000    0.000    0.000    0.000 
#
# Total GULP energy -89180.005802 kJ/mol
# GULP energy per Si atom -5573.750363 kJ/mol
# Density = 2.743880 g / cm^3
# Si number density = 27.501397 Si / 1000 Ang^3
#
#
#
# Elastic Constant Matrix: (Units=GPa)
#
#
# Indices 1 2 3 4 5 6 
#
# 1 90.5799 20.8379 16.8988 0.5066 0.1187 18.6190
# 2 20.8379 70.5928 6.1109 15.3671 -7.7565 7.2221
# 3 16.8988 6.1109 153.6547 18.8169 9.0873 19.3669
# 4 0.5066 15.3671 18.8169 40.4737 -1.1819 -0.9626
# 5 0.1187 -7.7565 9.0873 -1.1819 47.3841 4.1941
# 6 18.6190 7.2221 19.3669 -0.9626 4.1941 49.8553
#
#
#
# Elastic Compliance Matrix: (Units=1/GPa)
#
#
# Indices 1 2 3 4 5 6 
#
# 1 0.012848 -0.003668 -0.000972 0.001590 -0.000065 -0.003853
# 2 -0.003668 0.017122 0.000598 -0.006695 0.002681 -0.001698
# 3 -0.000972 0.000598 0.007451 -0.003775 -0.001194 -0.002590
# 4 0.001590 -0.006695 -0.003775 0.029045 0.000137 0.002392
# 5 -0.000065 0.002681 -0.001194 0.000137 0.021930 -0.001742
# 6 -0.003853 -0.001698 -0.002590 0.002392 -0.001742 0.022942
#
#
# Mechanical properties :
#
#
# Convention : Reuss Voigt Hill
#
# Bulk Modulus (GPa) = 34.08705 44.72472 39.40589
# Shear Modulus (GPa) = 38.69919 45.60796 42.15357
#
# Velocity S-wave (km/s) = 3.75530 4.07675 3.91932
# Velocity P-wave (km/s) = 5.58790 6.20144 5.90265
#
# Compressibility (1/GPa) = 0.02933665
#
# Stress axis : x y z
#
# Youngs Moduli (GPa) = 77.83113 58.40350 134.21654
#
# Poissons Ratio (x) = 0.21420 0.13051
# Poissons Ratio (y) = 0.28545 -0.08023
# Poissons Ratio (z) = 0.07568 -0.03491
#
# Static dielectric constant tensor:
#      x y z
#    x 2.145410 -0.080420 0.011200 
#    y -0.080420 2.833590 0.481240 
#    z 0.011200 0.481240 2.812480 
# 
# From -- ./inp_files/272253.got.cif
#   From: 2010.05.17/outbox.cif.g08.bks.cpg/sg2_137_cif.got.tgz:272253.got - 2010.06.03 11:33:40.
