data_PCOD9010179
_publ_section_title
;
Structure prediction by ZEFSAII (Michael W. Deem and Ramdas Pophale) SiO2 
 PCOD9010179
Probable space group: P -1
;
_chemical_formula_sum "Si O2"
_cell_formula_units_Z 14
_cell_length_a 17.338317
_cell_length_b 5.922355
_cell_length_c 9.734958
_cell_angle_alpha 74.613093
_cell_angle_beta 125.320175
_cell_angle_gamma 128.870517
_cell_volume 627.496229
_symmetry_space_group_name_H-M "P -1"
_symmetry_group_IT_number 2
_symmetry_cell_setting 'triclinic'
loop_
_space_group_symop_operation_xyz
x,y,z
-x,-y,-z
loop_
_atom_site_type_symbol
_atom_site_label
_atom_site_fract_x
_atom_site_fract_y
_atom_site_fract_z
Si Si1 0.860352 0.254620 0.005547
Si Si2 0.257431 0.771140 0.570684
Si Si3 0.542187 0.338878 0.476788
Si Si4 0.453613 0.716237 0.813478
Si Si5 0.188509 0.402079 0.316248
Si Si6 0.894745 0.144142 0.788214
Si Si7 0.691969 0.942086 0.139857
O O1 0.990473 0.518929 0.150483
O O2 0.773684 0.082399 0.068502
O O3 0.823285 0.406299 0.836933
O O4 0.865027 0.054152 0.931343
O O5 0.390916 0.870147 0.693141
O O6 0.189796 0.460687 0.470791
O O7 0.214601 0.903114 0.398715
O O8 0.241414 0.850438 0.692692
O O9 0.500000 0.500000 0.500000
O O10 0.511193 0.349375 0.284776
O O11 0.683428 0.515487 0.599952
O O12 0.500000 0.000000 0.500000
O O13 0.357472 0.394796 0.831796
O O14 0.571506 0.907758 0.992975
O O15 0.085123 0.067609 0.232342
#
# Coordination Sequence:
#
# PCOD9010179 Si02
#       7
#     2   2   2   2   2   2   2
#     4  10  23  42  65  97 123 173 223 283 339 400
#     4  10  21  40  62  90 124 172 209 275 330 405
#     4  11  25  40  69 105 138 181 232 282 343 412
#     4  10  24  40  64  92 136 174 217 271 342 410
#     4  10  22  39  66  90 130 168 223 279 342 393
#     4  10  22  43  68  90 130 164 229 285 333 402
#     4  11  23  42  62  91 132 175 219 271 347 412
#
# _framework density 22.310891999999999
#
# number of rings (size 3 to 8) (size 9 to 14) (size 15 to 20)
#    0.000    1.714    0.000    3.429   12.000    1.714 
#    2.571    1.429    0.000    0.000    0.000    0.000 
#    0.000    0.000    0.000    0.000    0.000    0.000 
#
# Total GULP energy -77954.836849 kJ/mol
# GULP energy per Si atom -5568.202632 kJ/mol
# Density = 2.226011 g / cm^3
# Si number density = 22.310892 Si / 1000 Ang^3
#
#
#
# Elastic Constant Matrix: (Units=GPa)
#
#
# Indices 1 2 3 4 5 6 
#
# 1 85.9831 39.5768 60.6028 4.1641 -14.0387 6.4098
# 2 39.5768 84.1039 59.1311 7.2640 -16.4796 10.3587
# 3 60.6028 59.1311 155.8484 11.7783 -10.9130 1.7411
# 4 4.1641 7.2640 11.7783 23.3484 -5.1993 -6.5364
# 5 -14.0387 -16.4796 -10.9130 -5.1993 44.9869 -9.1257
# 6 6.4098 10.3587 1.7411 -6.5364 -9.1257 24.8735
#
#
#
# Elastic Compliance Matrix: (Units=1/GPa)
#
#
# Indices 1 2 3 4 5 6 
#
# 1 0.017634 -0.004062 -0.005191 0.000960 0.002607 -0.001280
# 2 -0.004062 0.019055 -0.005095 -0.003868 0.002699 -0.006558
# 3 -0.005191 -0.005095 0.010475 -0.002477 -0.000876 0.001754
# 4 0.000960 -0.003868 -0.002477 0.051954 0.007960 0.018110
# 5 0.002607 0.002699 -0.000876 0.007960 0.026806 0.010192
# 6 -0.001280 -0.006558 0.001754 0.018110 0.010192 0.051640
#
#
# Mechanical properties :
#
#
# Convention : Reuss Voigt Hill
#
# Bulk Modulus (GPa) = 54.15694 71.61740 62.88717
# Shear Modulus (GPa) = 23.53878 29.75009 26.64443
#
# Velocity S-wave (km/s) = 3.25165 3.65558 3.45952
# Velocity P-wave (km/s) = 6.19872 7.07016 6.64873
#
# Compressibility (1/GPa) = 0.01846485
#
# Stress axis : x y z
#
# Youngs Moduli (GPa) = 56.71005 52.48020 95.46841
#
# Poissons Ratio (x) = 0.21320 0.49561
# Poissons Ratio (y) = 0.23038 0.48645
# Poissons Ratio (z) = 0.29440 0.26741
#
# Static dielectric constant tensor:
#      x y z
#    x 1.947950 -0.128670 0.005110 
#    y -0.128670 1.946280 0.019410 
#    z 0.005110 0.019410 1.837630 
# 
# From -- ./inp_files/323594.got.cif
#   From: 2010.05.17/outbox.cif.g08.bks.cpg/sg2_162_cif.got.tgz:323594.got - 2010.06.03 11:33:40.
