data_PCOD9010016
_publ_section_title
;
Structure prediction by ZEFSAII (Michael W. Deem and Ramdas Pophale) SiO2 
 PCOD9010016
Probable space group: P -1
;
_chemical_formula_sum "Si O2"
_cell_formula_units_Z 16
_cell_length_a 16.213266
_cell_length_b 24.353588
_cell_length_c 15.637819
_cell_angle_alpha 156.585555
_cell_angle_beta 151.611466
_cell_angle_gamma 17.713143
_cell_volume 745.731305
_symmetry_space_group_name_H-M "P -1"
_symmetry_group_IT_number 2
_symmetry_cell_setting 'triclinic'
loop_
_space_group_symop_operation_xyz
x,y,z
-x,-y,-z
loop_
_atom_site_type_symbol
_atom_site_label
_atom_site_fract_x
_atom_site_fract_y
_atom_site_fract_z
Si Si1 0.250600 0.384422 0.180106
Si Si2 0.074438 0.719094 0.979896
Si Si3 0.190800 0.365321 0.290797
Si Si4 0.708716 0.154868 0.164441
Si Si5 0.323343 0.185976 0.797274
Si Si6 0.592392 0.834020 0.418202
Si Si7 0.154806 0.884951 0.065013
Si Si8 0.612539 0.544766 0.273454
O O1 0.301133 0.311267 0.218359
O O2 0.479781 0.347241 0.296656
O O3 0.952283 0.628873 0.242355
O O4 0.258516 0.248138 0.927192
O O5 0.239013 0.526588 0.784718
O O6 0.908055 0.725661 0.902169
O O7 0.308477 0.674207 0.167335
O O8 0.859556 0.944105 0.055307
O O9 0.376789 0.326404 0.474705
O O10 0.910861 0.622897 0.405752
O O11 0.526850 0.191594 0.977751
O O12 0.955723 0.074655 0.226601
O O13 0.484833 0.954775 0.583527
O O14 0.440779 0.786116 0.188863
O O15 0.500000 0.000000 0.500000
O O16 0.218908 0.685890 0.859728
O O17 0.000000 0.000000 0.000000
#
# Coordination Sequence:
#
# PCOD9010016 Si02
#       8
#     2   2   2   2   2   2   2   2
#     4   9  21  39  64  86 126 165 200 250 316 374
#     4  10  21  40  61  90 128 164 207 259 302 366
#     4  12  22  38  68  96 121 166 208 254 310 370
#     4   9  20  41  59  82 127 164 199 250 310 362
#     4   9  19  39  61  85 121 164 195 256 310 366
#     4  12  21  35  62  96 117 154 212 254 308 367
#     4  11  22  35  60  93 125 158 201 265 310 361
#     4  10  22  40  58  94 131 157 205 262 313 351
#
# _framework density 21.455449000000002
#
# number of rings (size 3 to 8) (size 9 to 14) (size 15 to 20)
#    0.750    1.000    2.500    3.375    0.000    0.500 
#    0.000    2.500    0.000    0.000    0.000    0.000 
#    0.000    0.000    0.000    0.000    0.000    0.000 
#
# Total GULP energy -89233.103410 kJ/mol
# GULP energy per Si atom -5577.068963 kJ/mol
# Density = 2.140662 g / cm^3
# Si number density = 21.455449 Si / 1000 Ang^3
#
#
#
# Elastic Constant Matrix: (Units=GPa)
#
#
# Indices 1 2 3 4 5 6 
#
# 1 94.2761 11.0804 21.4729 -9.8995 -10.4185 -10.9897
# 2 11.0804 62.9105 -0.3828 -6.1550 1.1248 -6.5911
# 3 21.4729 -0.3828 48.9889 -17.0531 -12.0775 -11.7522
# 4 -9.8995 -6.1550 -17.0531 27.3399 -3.7232 2.3823
# 5 -10.4185 1.1248 -12.0775 -3.7232 27.8127 -1.0223
# 6 -10.9897 -6.5911 -11.7522 2.3823 -1.0223 20.2549
#
#
#
# Elastic Compliance Matrix: (Units=1/GPa)
#
#
# Indices 1 2 3 4 5 6 
#
# 1 0.012679 -0.001510 -0.002233 0.003029 0.004428 0.004959
# 2 -0.001510 0.017546 0.005301 0.006364 0.002148 0.007326
# 3 -0.002233 0.005301 0.041675 0.027346 0.021536 0.022564
# 4 0.003029 0.006364 0.027346 0.057817 0.021000 0.013840
# 5 0.004428 0.002148 0.021536 0.021000 0.050266 0.015664
# 6 0.004959 0.007326 0.022564 0.013840 0.015664 0.066700
#
#
# Mechanical properties :
#
#
# Convention : Reuss Voigt Hill
#
# Bulk Modulus (GPa) = 13.33065 30.05739 21.69402
# Shear Modulus (GPa) = 18.61706 26.68184 22.64945
#
# Velocity S-wave (km/s) = 2.94888 3.53029 3.25260
# Velocity P-wave (km/s) = 4.22152 5.53686 4.92332
#
# Compressibility (1/GPa) = 0.07501511
#
# Stress axis : x y z
#
# Youngs Moduli (GPa) = 78.87171 56.99434 23.99536
#
# Poissons Ratio (x) = 0.08606 0.05359
# Poissons Ratio (y) = 0.11909 -0.12721
# Poissons Ratio (z) = 0.17616 -0.30215
#
# Static dielectric constant tensor:
#      x y z
#    x 1.813810 -0.022330 -0.004960 
#    y -0.022330 1.788330 0.012910 
#    z -0.004960 0.012910 1.789030 
# 
# From -- ./inp_files/535422.got.cif
#   From: 2010.05.17/outbox.cif.g08.bks.cpg/sg2_268_cif.got.tgz:535422.got - 2010.06.03 11:33:40.
