data_PCOD9010085
_publ_section_title
;
Structure prediction by ZEFSAII (Michael W. Deem and Ramdas Pophale) SiO2 
 PCOD9010085
Probable space group: P -1
;
_chemical_formula_sum "Si O2"
_cell_formula_units_Z 12
_cell_length_a 8.487559
_cell_length_b 11.268410
_cell_length_c 10.610635
_cell_angle_alpha 107.513331
_cell_angle_beta 64.081717
_cell_angle_gamma 53.309396
_cell_volume 458.599770
_symmetry_space_group_name_H-M "P -1"
_symmetry_group_IT_number 2
_symmetry_cell_setting 'triclinic'
loop_
_space_group_symop_operation_xyz
x,y,z
-x,-y,-z
loop_
_atom_site_type_symbol
_atom_site_label
_atom_site_fract_x
_atom_site_fract_y
_atom_site_fract_z
Si Si1 0.408800 0.720680 0.398136
Si Si2 0.457224 0.175636 0.223975
Si Si3 0.967565 0.674843 0.784912
Si Si4 0.796702 0.532003 0.945464
Si Si5 0.198759 0.076866 0.733306
Si Si6 0.510433 0.576521 0.814313
O O1 0.594177 0.652610 0.184235
O O2 0.264148 0.673040 0.395936
O O3 0.656110 0.539295 0.370285
O O4 0.203643 0.961863 0.595315
O O5 0.130625 0.319753 0.315197
O O6 0.502792 0.293797 0.224504
O O7 0.499353 0.114876 0.335339
O O8 0.755383 0.926143 0.964519
O O9 0.836364 0.645935 0.916047
O O10 0.623226 0.555482 0.905045
O O11 0.142413 0.249455 0.756578
O O12 0.860691 0.254110 0.987379
#
# Coordination Sequence:
#
# PCOD9010085 Si02
#       6
#     2   2   2   2   2   2
#     4  11  22  36  64  88 115 149 195 237 288 339
#     4  10  21  40  62  83 116 157 191 234 289 340
#     4  10  21  40  62  83 116 157 191 234 289 340
#     4  10  22  41  60  84 119 152 191 239 284 339
#     4  11  22  36  64  88 115 149 195 237 288 339
#     4  10  22  41  60  84 119 152 191 239 284 339
#
# _framework density 26.166605000000001
#
# number of rings (size 3 to 8) (size 9 to 14) (size 15 to 20)
#    0.000    1.667    3.333    3.000    0.000    4.667 
#    0.000    0.000    0.000    0.000    0.000    0.000 
#    0.000    0.000    0.000    0.000    0.000    0.000 
#
# Total GULP energy -67247.890294 kJ/mol
# GULP energy per Si atom -5603.990858 kJ/mol
# Density = 2.610705 g / cm^3
# Si number density = 26.166605 Si / 1000 Ang^3
#
#
#
# Elastic Constant Matrix: (Units=GPa)
#
#
# Indices 1 2 3 4 5 6 
#
# 1 84.0054 31.5852 3.3590 -6.1764 23.7441 -5.5990
# 2 31.5852 140.1098 29.4451 5.0395 8.5239 -5.8879
# 3 3.3590 29.4451 91.0192 0.3663 35.0623 20.3780
# 4 -6.1764 5.0395 0.3663 26.5190 -4.5214 15.1506
# 5 23.7441 8.5239 35.0623 -4.5214 44.2189 8.2747
# 6 -5.5990 -5.8879 20.3780 15.1506 8.2747 61.3061
#
#
#
# Elastic Compliance Matrix: (Units=1/GPa)
#
#
# Indices 1 2 3 4 5 6 
#
# 1 0.017032 -0.004294 0.005467 0.002326 -0.012497 0.000438
# 2 -0.004294 0.009095 -0.004626 -0.003461 0.003415 0.002414
# 3 0.005467 -0.004626 0.019732 0.001718 -0.016638 -0.004683
# 4 0.002326 -0.003461 0.001718 0.047277 0.005340 -0.013095
# 5 -0.012497 0.003415 -0.016638 0.005340 0.042853 -0.002387
# 6 0.000438 0.002414 -0.004683 -0.013095 -0.002387 0.021698
#
#
# Mechanical properties :
#
#
# Convention : Reuss Voigt Hill
#
# Bulk Modulus (GPa) = 25.67004 49.32367 37.49685
# Shear Modulus (GPa) = 28.15677 43.12514 35.64096
#
# Velocity S-wave (km/s) = 3.28389 4.06408 3.69464
# Velocity P-wave (km/s) = 4.92038 6.39634 5.70628
#
# Compressibility (1/GPa) = 0.03895592
#
# Stress axis : x y z
#
# Youngs Moduli (GPa) = 58.71189 109.94456 50.67843
#
# Poissons Ratio (x) = 0.47206 -0.27707
# Poissons Ratio (y) = 0.25209 0.23443
# Poissons Ratio (z) = -0.32099 0.50858
#
# Static dielectric constant tensor:
#      x y z
#    x 2.035180 -0.024710 -0.020070 
#    y -0.024710 2.034340 0.019340 
#    z -0.020070 0.019340 2.087460 
# 
# From -- ./inp_files/64779.got.cif
#   From: 2010.05.17/outbox.cif.g08.bks.cpg/sg2_33_cif.got.tgz:64779.got - 2010.06.03 11:33:40.
