data_PCOD9010646
_publ_section_title
;
Structure prediction by ZEFSAII (Michael W. Deem and Ramdas Pophale) SiO2 
 PCOD9010646
Probable space group: P -1
;
_chemical_formula_sum "Si O2"
_cell_formula_units_Z 16
_cell_length_a 5.775496
_cell_length_b 11.205446
_cell_length_c 15.817781
_cell_angle_alpha 55.148776
_cell_angle_beta 124.023260
_cell_angle_gamma 93.234324
_cell_volume 641.962820
_symmetry_space_group_name_H-M "P -1"
_symmetry_group_IT_number 2
_symmetry_cell_setting 'triclinic'
loop_
_space_group_symop_operation_xyz
x,y,z
-x,-y,-z
loop_
_atom_site_type_symbol
_atom_site_label
_atom_site_fract_x
_atom_site_fract_y
_atom_site_fract_z
Si Si1 0.455454 0.406195 0.947527
Si Si2 0.315256 0.891102 0.993097
Si Si3 0.951921 0.945212 0.400904
Si Si4 0.831434 0.085628 0.710121
Si Si5 0.347040 0.390045 0.700302
Si Si6 0.225092 0.340706 0.503288
Si Si7 0.485294 0.132137 0.342054
Si Si8 0.758398 0.518984 0.803289
O O1 0.612042 0.220618 0.030449
O O2 0.609728 0.471585 0.875778
O O3 0.102322 0.429625 0.879293
O O4 0.500000 0.500000 0.000000
O O5 0.429391 0.765080 0.143175
O O6 0.500000 0.000000 0.000000
O O7 0.972077 0.015412 0.857097
O O8 0.921108 0.922051 0.305317
O O9 0.276047 0.932114 0.506729
O O10 0.896410 0.796272 0.489865
O O11 0.714292 0.110954 0.318656
O O12 0.576075 0.260634 0.582005
O O13 0.697609 0.966059 0.691027
O O14 0.257641 0.354044 0.605055
O O15 0.533055 0.503871 0.691275
O O16 0.030679 0.491635 0.642924
O O17 0.274000 0.305121 0.254989
#
# Coordination Sequence:
#
# PCOD9010646 Si02
#       8
#     2   2   2   2   2   2   2   2
#     4  11  26  47  72 108 145 204 251 305 374 459
#     4  11  26  47  70 107 147 192 246 308 385 444
#     4  10  21  40  64 101 139 181 240 303 366 442
#     4  11  24  41  71 104 139 190 240 309 371 450
#     4  10  23  47  68 102 144 189 243 311 364 454
#     4  10  22  45  71  99 136 188 252 295 375 436
#     4  10  22  39  67 100 139 187 238 298 372 433
#     4  11  24  44  74 101 149 192 251 309 373 443
#
# _framework density 24.923562
#
# number of rings (size 3 to 8) (size 9 to 14) (size 15 to 20)
#    0.000    1.500    1.250    2.250    5.250    3.500 
#    6.750    1.875    0.000    0.000    0.000    0.000 
#    0.000    0.000    0.000    0.000    0.000    0.000 
#
# Total GULP energy -89175.025618 kJ/mol
# GULP energy per Si atom -5573.439101 kJ/mol
# Density = 2.486683 g / cm^3
# Si number density = 24.923562 Si / 1000 Ang^3
#
#
#
# Elastic Constant Matrix: (Units=GPa)
#
#
# Indices 1 2 3 4 5 6 
#
# 1 66.4529 13.2261 49.1745 -2.1152 11.8296 -8.2836
# 2 13.2261 113.8267 2.4908 19.1138 1.2615 5.5780
# 3 49.1745 2.4908 97.4403 8.5650 3.9824 -14.2395
# 4 -2.1152 19.1138 8.5650 40.0866 -3.3503 13.7439
# 5 11.8296 1.2615 3.9824 -3.3503 27.2987 -0.3298
# 6 -8.2836 5.5780 -14.2395 13.7439 -0.3298 24.4000
#
#
#
# Elastic Compliance Matrix: (Units=1/GPa)
#
#
# Indices 1 2 3 4 5 6 
#
# 1 0.028198 -0.003820 -0.014550 0.006226 -0.009177 -0.001676
# 2 -0.003820 0.010111 0.002336 -0.005876 0.000139 0.001066
# 3 -0.014550 0.002336 0.020094 -0.010097 0.002171 0.011970
# 4 0.006226 -0.005876 -0.010097 0.038849 0.003521 -0.024271
# 5 -0.009177 0.000139 0.002171 0.003521 0.040677 -0.003314
# 6 -0.001676 0.001066 0.011970 -0.024271 -0.003314 0.060783
#
#
# Mechanical properties :
#
#
# Convention : Reuss Voigt Hill
#
# Bulk Modulus (GPa) = 37.97205 45.27809 41.62507
# Shear Modulus (GPa) = 20.87175 32.54562 26.70868
#
# Velocity S-wave (km/s) = 2.89698 3.61753 3.27712
# Velocity P-wave (km/s) = 5.14378 5.97117 5.57285
#
# Compressibility (1/GPa) = 0.02633516
#
# Stress axis : x y z
#
# Youngs Moduli (GPa) = 35.46329 98.90383 49.76652
#
# Poissons Ratio (x) = 0.37778 0.72410
# Poissons Ratio (y) = 0.13546 -0.11625
# Poissons Ratio (z) = 0.51599 -0.23102
#
# Static dielectric constant tensor:
#      x y z
#    x 2.196960 -0.034810 -0.066020 
#    y -0.034810 1.939770 -0.000680 
#    z -0.066020 -0.000680 2.062750 
# 
# From -- ./inp_files/549492.got.cif
#   From: 2010.05.17/outbox.cif.g08.bks.cpg/sg2_275_cif.got.tgz:549492.got - 2010.06.03 11:33:40.
