data_PCOD9010681
_publ_section_title
;
Structure prediction by ZEFSAII (Michael W. Deem and Ramdas Pophale) SiO2 
 PCOD9010681
Probable space group: P -1
;
_chemical_formula_sum "Si O2"
_cell_formula_units_Z 16
_cell_length_a 14.711919
_cell_length_b 12.109961
_cell_length_c 6.039799
_cell_angle_alpha 61.618273
_cell_angle_beta 83.544970
_cell_angle_gamma 45.718784
_cell_volume 635.305040
_symmetry_space_group_name_H-M "P -1"
_symmetry_group_IT_number 2
_symmetry_cell_setting 'triclinic'
loop_
_space_group_symop_operation_xyz
x,y,z
-x,-y,-z
loop_
_atom_site_type_symbol
_atom_site_label
_atom_site_fract_x
_atom_site_fract_y
_atom_site_fract_z
Si Si1 0.018767 0.663954 0.235051
Si Si2 0.185510 0.906513 0.545007
Si Si3 0.793914 0.718164 0.200376
Si Si4 0.228922 0.437685 0.016011
Si Si5 0.916733 0.222405 0.546895
Si Si6 0.566537 0.844011 0.449957
Si Si7 0.439271 0.748995 0.355073
Si Si8 0.612748 0.375172 0.898496
O O1 0.087301 0.501141 0.552151
O O2 0.096919 0.559567 0.087693
O O3 0.052684 0.765734 0.224761
O O4 0.863466 0.782599 0.135955
O O5 0.126044 0.874581 0.404589
O O6 0.312381 0.849053 0.457124
O O7 0.246835 0.767691 0.870482
O O8 0.056636 0.109718 0.483898
O O9 0.675477 0.814144 0.313435
O O10 0.750815 0.712433 0.978245
O O11 0.350730 0.338175 0.245255
O O12 0.204048 0.572308 0.719767
O O13 0.480627 0.850069 0.293668
O O14 0.500000 0.000000 0.500000
O O15 0.569140 0.530265 0.595442
O O16 0.400427 0.739759 0.130697
O O17 0.500000 0.500000 0.000000
#
# Coordination Sequence:
#
# PCOD9010681 Si02
#       8
#     2   2   2   2   2   2   2   2
#     4   9  19  37  62  89 119 159 201 250 301 362
#     4  10  22  39  59  91 124 155 199 258 307 363
#     4   9  20  38  60  88 121 156 208 247 297 361
#     4  10  21  40  64  88 121 165 202 252 310 359
#     4  10  22  38  62  91 121 155 203 254 311 366
#     4  11  25  41  61  93 128 164 208 254 301 369
#     4  10  22  40  63  90 123 165 207 247 307 369
#     4   9  20  39  64  88 118 159 203 250 304 362
#
# _framework density 25.184753000000001
#
# number of rings (size 3 to 8) (size 9 to 14) (size 15 to 20)
#    0.000    2.250    0.000    1.125    1.750   14.500 
#    2.250    2.500    0.000    0.000    0.000    0.000 
#    0.000    0.000    0.000    0.000    0.000    0.000 
#
# Total GULP energy -89514.574335 kJ/mol
# GULP energy per Si atom -5594.660896 kJ/mol
# Density = 2.512743 g / cm^3
# Si number density = 25.184753 Si / 1000 Ang^3
#
#
#
# Elastic Constant Matrix: (Units=GPa)
#
#
# Indices 1 2 3 4 5 6 
#
# 1 101.2349 53.4897 19.0908 22.3156 23.7052 0.9907
# 2 53.4897 116.7025 28.0767 23.8856 14.2421 6.2169
# 3 19.0908 28.0767 84.4566 -3.1917 21.9765 8.6665
# 4 22.3156 23.8856 -3.1917 49.4487 5.1197 7.2968
# 5 23.7052 14.2421 21.9765 5.1197 24.4523 11.2729
# 6 0.9907 6.2169 8.6665 7.2968 11.2729 32.1301
#
#
#
# Elastic Compliance Matrix: (Units=1/GPa)
#
#
# Indices 1 2 3 4 5 6 
#
# 1 0.017673 -0.005847 0.001634 -0.004296 -0.017671 0.007321
# 2 -0.005847 0.012607 -0.003667 -0.003788 0.003106 -0.001499
# 3 0.001634 -0.003667 0.016831 0.003628 -0.015706 0.000806
# 4 -0.004296 -0.003788 0.003628 0.025048 0.000646 -0.006028
# 5 -0.017671 0.003106 -0.015706 0.000646 0.081526 -0.024570
# 6 0.007321 -0.001499 0.000806 -0.006028 -0.024570 0.040960
#
#
# Mechanical properties :
#
#
# Convention : Reuss Voigt Hill
#
# Bulk Modulus (GPa) = 31.89742 55.96758 43.93250
# Shear Modulus (GPa) = 22.63907 34.65535 28.64721
#
# Velocity S-wave (km/s) = 3.00145 3.71353 3.37632
# Velocity P-wave (km/s) = 4.97036 6.37637 5.71676
#
# Compressibility (1/GPa) = 0.03135049
#
# Stress axis : x y z
#
# Youngs Moduli (GPa) = 56.58408 79.31980 59.41253
#
# Poissons Ratio (x) = 0.46381 -0.09706
# Poissons Ratio (y) = 0.33087 0.21785
# Poissons Ratio (z) = -0.09244 0.29085
#
# Static dielectric constant tensor:
#      x y z
#    x 1.976730 0.015430 0.007970 
#    y 0.015430 1.979820 -0.067070 
#    z 0.007970 -0.067070 2.020430 
# 
# From -- ./inp_files/94604.got.cif
#   From: 2010.05.17/outbox.cif.g08.bks.cpg/sg2_48_cif.got.tgz:94604.got - 2010.06.03 11:33:40.
