data_PCOD9010400
_publ_section_title
;
Structure prediction by ZEFSAII (Michael W. Deem and Ramdas Pophale) SiO2 
 PCOD9010400
Probable space group: P -1
;
_chemical_formula_sum "Si O2"
_cell_formula_units_Z 12
_cell_length_a 10.044681
_cell_length_b 10.977139
_cell_length_c 11.050233
_cell_angle_alpha 145.215794
_cell_angle_beta 108.547789
_cell_angle_gamma 93.972632
_cell_volume 521.608442
_symmetry_space_group_name_H-M "P -1"
_symmetry_group_IT_number 2
_symmetry_cell_setting 'triclinic'
loop_
_space_group_symop_operation_xyz
x,y,z
-x,-y,-z
loop_
_atom_site_type_symbol
_atom_site_label
_atom_site_fract_x
_atom_site_fract_y
_atom_site_fract_z
Si Si1 0.407854 0.091202 0.812573
Si Si2 0.935216 0.400109 0.595217
Si Si3 0.492738 0.531717 0.662896
Si Si4 0.101408 0.263687 0.328614
Si Si5 0.713919 0.183437 0.823282
Si Si6 0.565932 0.399880 0.799341
O O1 0.567997 0.102607 0.817955
O O2 0.437883 0.177159 0.032674
O O3 0.428746 0.343075 0.959066
O O4 0.213337 0.815269 0.529659
O O5 0.003530 0.267149 0.421401
O O6 0.863593 0.505379 0.563537
O O7 0.098873 0.654493 0.924469
O O8 0.500000 0.500000 0.500000
O O9 0.287234 0.335072 0.480712
O O10 0.602001 0.463150 0.717107
O O11 0.000000 0.000000 0.000000
O O12 0.703808 0.378190 0.889755
O O13 0.622694 0.901513 0.496009
#
# Coordination Sequence:
#
# PCOD9010400 Si02
#       6
#     2   2   2   2   2   2
#     4  10  23  39  64  95 120 169 208 259 316 375
#     4  11  24  39  64  99 122 169 214 255 320 373
#     4  10  21  40  63  89 125 165 204 259 311 368
#     4  11  23  40  60  94 136 162 209 264 311 378
#     4  11  21  44  65  89 131 166 211 261 312 377
#     4   9  23  41  64  92 125 170 211 257 319 369
#
# _framework density 23.005762000000001
#
# number of rings (size 3 to 8) (size 9 to 14) (size 15 to 20)
#    1.000    0.667    1.667    2.500    2.333    2.667 
#    0.000    3.333    0.000    0.000    0.000    0.000 
#    0.000    0.000    0.000    0.000    0.000    0.000 
#
# Total GULP energy -66937.244628 kJ/mol
# GULP energy per Si atom -5578.103719 kJ/mol
# Density = 2.295340 g / cm^3
# Si number density = 23.005762 Si / 1000 Ang^3
#
#
#
# Elastic Constant Matrix: (Units=GPa)
#
#
# Indices 1 2 3 4 5 6 
#
# 1 58.1565 15.1558 28.2461 6.6681 -1.9010 8.0324
# 2 15.1558 50.8816 14.1684 -8.0624 11.4091 2.8663
# 3 28.2461 14.1684 114.0563 8.6000 -3.7250 5.4968
# 4 6.6681 -8.0624 8.6000 44.4151 2.8046 2.6621
# 5 -1.9010 11.4091 -3.7250 2.8046 40.1004 -4.1027
# 6 8.0324 2.8663 5.4968 2.6621 -4.1027 27.0148
#
#
#
# Elastic Compliance Matrix: (Units=1/GPa)
#
#
# Indices 1 2 3 4 5 6 
#
# 1 0.021869 -0.006176 -0.004104 -0.003490 0.002214 -0.004332
# 2 -0.006176 0.025171 -0.002257 0.006599 -0.008360 -0.002295
# 3 -0.004104 -0.002257 0.010265 -0.001863 0.001509 -0.000216
# 4 -0.003490 0.006599 -0.001863 0.025006 -0.004209 -0.002387
# 5 0.002214 -0.008360 0.001509 -0.004209 0.028330 0.004639
# 6 -0.004332 -0.002295 -0.000216 -0.002387 0.004639 0.039532
#
#
# Mechanical properties :
#
#
# Convention : Reuss Voigt Hill
#
# Bulk Modulus (GPa) = 31.02820 37.58166 34.30493
# Shear Modulus (GPa) = 26.88286 33.34101 30.11193
#
# Velocity S-wave (km/s) = 3.42208 3.81103 3.62178
# Velocity P-wave (km/s) = 5.39728 5.97800 5.69504
#
# Compressibility (1/GPa) = 0.03222875
#
# Stress axis : x y z
#
# Youngs Moduli (GPa) = 45.72731 39.72777 97.42163
#
# Poissons Ratio (x) = 0.24537 0.39985
# Poissons Ratio (y) = 0.28243 0.21991
# Poissons Ratio (z) = 0.18768 0.08968
#
# Static dielectric constant tensor:
#      x y z
#    x 1.868320 0.026020 -0.072340 
#    y 0.026020 1.912660 0.004120 
#    z -0.072340 0.004120 1.936540 
# 
# From -- ./inp_files/426979.got.cif
#   From: 2010.05.17/outbox.cif.g08.bks.cpg/sg2_214_cif.got.tgz:426979.got - 2010.06.03 11:33:40.
