data_PCOD9010884
_publ_section_title
;
Structure prediction by ZEFSAII (Michael W. Deem and Ramdas Pophale) SiO2 
 PCOD9010884
Probable space group: P -1
;
_chemical_formula_sum "Si O2"
_cell_formula_units_Z 12
_cell_length_a 4.808844
_cell_length_b 11.881599
_cell_length_c 8.454139
_cell_angle_alpha 83.750062
_cell_angle_beta 91.620839
_cell_angle_gamma 75.475320
_cell_volume 464.048468
_symmetry_space_group_name_H-M "P -1"
_symmetry_group_IT_number 2
_symmetry_cell_setting 'triclinic'
loop_
_space_group_symop_operation_xyz
x,y,z
-x,-y,-z
loop_
_atom_site_type_symbol
_atom_site_label
_atom_site_fract_x
_atom_site_fract_y
_atom_site_fract_z
Si Si1 0.264893 0.207045 0.557685
Si Si2 0.065325 0.220177 0.901930
Si Si3 0.346912 0.523359 0.163568
Si Si4 0.185991 0.841542 0.631095
Si Si5 0.094020 0.603464 0.684626
Si Si6 0.385471 0.896297 0.940430
O O1 0.227802 0.190608 0.742412
O O2 0.122646 0.121668 0.462277
O O3 0.069239 0.337137 0.485225
O O4 0.582571 0.190256 0.500133
O O5 0.849485 0.346194 0.860461
O O6 0.867305 0.134682 0.958450
O O7 0.323776 0.209534 0.032698
O O8 0.608420 0.495818 0.298627
O O9 0.500000 0.500000 0.000000
O O10 0.865237 0.557910 0.788582
O O11 0.182547 0.718092 0.736345
O O12 0.273652 0.917282 0.756989
O O13 0.500000 0.000000 0.000000
#
# Coordination Sequence:
#
# PCOD9010884 Si02
#       6
#     2   2   2   2   2   2
#     4  10  22  43  68  97 143 179 213 271 336 391
#     4  12  27  44  69 104 138 167 237 285 318 402
#     4  12  24  37  64 106 139 180 221 267 324 397
#     4  10  21  43  70  94 134 183 214 267 337 403
#     4  10  21  40  64  94 142 183 215 249 339 396
#     4  12  27  49  72  96 129 178 227 290 349 389
#
# _framework density 25.859369999999998
#
# number of rings (size 3 to 8) (size 9 to 14) (size 15 to 20)
#    1.000    0.000    1.667    5.000    2.333    1.333 
#    0.000    5.000    0.000    0.000    0.000    0.000 
#    0.000    0.000    0.000    0.000    0.000    0.000 
#
# Total GULP energy -67238.010460 kJ/mol
# GULP energy per Si atom -5603.167538 kJ/mol
# Density = 2.580051 g / cm^3
# Si number density = 25.859370 Si / 1000 Ang^3
#
#
#
# Elastic Constant Matrix: (Units=GPa)
#
#
# Indices 1 2 3 4 5 6 
#
# 1 157.7507 30.6261 42.0982 -11.1611 -35.5177 17.9009
# 2 30.6261 90.3538 45.2273 -13.2418 -8.4123 2.6805
# 3 42.0982 45.2273 121.8189 -10.4865 -30.7276 19.9170
# 4 -11.1611 -13.2418 -10.4865 25.8796 1.0202 4.7911
# 5 -35.5177 -8.4123 -30.7276 1.0202 52.9927 -7.0613
# 6 17.9009 2.6805 19.9170 4.7911 -7.0613 36.7205
#
#
#
# Elastic Compliance Matrix: (Units=1/GPa)
#
#
# Indices 1 2 3 4 5 6 
#
# 1 0.008396 -0.001727 -0.000271 0.003057 0.004696 -0.003316
# 2 -0.001727 0.014685 -0.005173 0.004430 -0.001688 0.001673
# 3 -0.000271 -0.005173 0.012880 0.003312 0.005625 -0.005827
# 4 0.003057 0.004430 0.003312 0.045130 0.002605 -0.008997
# 5 0.004696 -0.001688 0.005625 0.002605 0.024858 -0.000777
# 6 -0.003316 0.001673 -0.005827 -0.008997 -0.000777 0.032912
#
#
# Mechanical properties :
#
#
# Convention : Reuss Voigt Hill
#
# Bulk Modulus (GPa) = 46.25532 67.31404 56.78468
# Shear Modulus (GPa) = 31.17009 39.91669 35.54339
#
# Velocity S-wave (km/s) = 3.47561 3.93314 3.71143
# Velocity P-wave (km/s) = 5.83374 6.83472 6.35397
#
# Compressibility (1/GPa) = 0.02161913
#
# Stress axis : x y z
#
# Youngs Moduli (GPa) = 119.09774 68.09726 77.64029
#
# Poissons Ratio (x) = 0.11760 0.02102
# Poissons Ratio (y) = 0.20568 0.40166
# Poissons Ratio (z) = 0.03224 0.35229
#
# Static dielectric constant tensor:
#      x y z
#    x 1.989580 -0.005260 0.069650 
#    y -0.005260 2.157440 0.013190 
#    z 0.069650 0.013190 2.004920 
# 
# From -- ./inp_files/130839.got.cif
#   From: 2010.05.17/outbox.cif.g08.bks.cpg/sg2_66_cif.got.tgz:130839.got - 2010.06.03 11:33:40.
