data_PCOD9010006
_publ_section_title
;
Structure prediction by ZEFSAII (Michael W. Deem and Ramdas Pophale) SiO2 
 PCOD9010006
Probable space group: P -1
;
_chemical_formula_sum "Si O2"
_cell_formula_units_Z 14
_cell_length_a 11.950092
_cell_length_b 11.835130
_cell_length_c 6.619251
_cell_angle_alpha 44.502379
_cell_angle_beta 106.939839
_cell_angle_gamma 108.894486
_cell_volume 618.256477
_symmetry_space_group_name_H-M "P -1"
_symmetry_group_IT_number 2
_symmetry_cell_setting 'triclinic'
loop_
_space_group_symop_operation_xyz
x,y,z
-x,-y,-z
loop_
_atom_site_type_symbol
_atom_site_label
_atom_site_fract_x
_atom_site_fract_y
_atom_site_fract_z
Si Si1 0.893291 0.290806 0.174526
Si Si2 0.540681 0.022212 0.760923
Si Si3 0.785923 0.535813 0.518309
Si Si4 0.289621 0.299946 0.382333
Si Si5 0.547070 0.395626 0.337065
Si Si6 0.106607 0.433118 0.882517
Si Si7 0.697279 0.993198 0.547472
O O1 0.928568 0.405910 0.241065
O O2 0.813906 0.126899 0.419143
O O3 0.816591 0.386929 0.860697
O O4 0.012471 0.285413 0.116047
O O5 0.572304 0.219716 0.497979
O O6 0.650189 0.951723 0.805023
O O7 0.419491 0.945716 0.680462
O O8 0.500000 0.000000 0.000000
O O9 0.785464 0.691127 0.465594
O O10 0.657999 0.481684 0.414600
O O11 0.879640 0.568738 0.344940
O O12 0.425324 0.350307 0.457308
O O13 0.285738 0.149636 0.418038
O O14 0.236532 0.427842 0.049487
O O15 0.500000 0.500000 0.000000
#
# Coordination Sequence:
#
# PCOD9010006 Si02
#       7
#     2   2   2   2   2   2   2
#     4  10  22  39  65  89 117 168 206 256 306 365
#     4  10  22  40  62  88 126 166 203 253 312 375
#     4  11  21  38  63  89 125 159 208 253 310 366
#     4  10  23  38  57  92 124 165 199 255 314 365
#     4  11  21  38  65  94 123 160 208 258 310 364
#     4  10  21  40  61  90 123 156 214 260 300 358
#     4  10  22  40  59  87 127 158 207 245 309 378
#
# _framework density 22.644324999999998
#
# number of rings (size 3 to 8) (size 9 to 14) (size 15 to 20)
#    0.000    1.714    1.429    2.571    2.000    2.857 
#    7.714    0.714    0.000    0.000    0.000    0.000 
#    0.000    0.000    0.000    0.000    0.000    0.000 
#
# Total GULP energy -78049.790508 kJ/mol
# GULP energy per Si atom -5574.985036 kJ/mol
# Density = 2.259279 g / cm^3
# Si number density = 22.644325 Si / 1000 Ang^3
#
#
#
# Elastic Constant Matrix: (Units=GPa)
#
#
# Indices 1 2 3 4 5 6 
#
# 1 111.4143 53.4750 31.0027 13.9884 -27.3495 -17.0064
# 2 53.4750 110.7292 43.1140 20.2451 -31.2384 -20.9838
# 3 31.0027 43.1140 69.9833 23.4544 -16.4901 -15.1954
# 4 13.9884 20.2451 23.4544 32.1570 -2.1134 -10.0484
# 5 -27.3495 -31.2384 -16.4901 -2.1134 50.1618 17.2016
# 6 -17.0064 -20.9838 -15.1954 -10.0484 17.2016 46.4496
#
#
#
# Elastic Compliance Matrix: (Units=1/GPa)
#
#
# Indices 1 2 3 4 5 6 
#
# 1 0.012490 -0.004060 -0.001662 -0.001236 0.003462 0.000646
# 2 -0.004060 0.015213 -0.004950 -0.003517 0.005102 0.001116
# 3 -0.001662 -0.004950 0.023145 -0.012551 0.002750 0.000993
# 4 -0.001236 -0.003517 -0.012551 0.044448 -0.007224 0.006144
# 5 0.003462 0.005102 0.002750 -0.007224 0.028181 -0.007527
# 6 0.000646 0.001116 0.000993 0.006144 -0.007527 0.026711
#
#
# Mechanical properties :
#
#
# Convention : Reuss Voigt Hill
#
# Bulk Modulus (GPa) = 33.89390 60.81223 47.35306
# Shear Modulus (GPa) = 27.56829 36.72270 32.14550
#
# Velocity S-wave (km/s) = 3.49298 4.03142 3.77182
# Velocity P-wave (km/s) = 5.59181 6.97019 6.31870
#
# Compressibility (1/GPa) = 0.02950384
#
# Stress axis : x y z
#
# Youngs Moduli (GPa) = 80.06369 65.73256 43.20568
#
# Poissons Ratio (x) = 0.26686 0.07180
# Poissons Ratio (y) = 0.32505 0.21389
# Poissons Ratio (z) = 0.13306 0.32541
#
# Static dielectric constant tensor:
#      x y z
#    x 1.899040 -0.030630 -0.016340 
#    y -0.030630 1.844200 0.022180 
#    z -0.016340 0.022180 1.952780 
# 
# From -- ./inp_files/66118.got.cif
#   From: 2010.05.17/outbox.cif.g08.bks.cpg/sg2_34_cif.got.tgz:66118.got - 2010.06.03 11:33:40.
