data_PCOD9010949
_publ_section_title
;
Structure prediction by ZEFSAII (Michael W. Deem and Ramdas Pophale) SiO2 
 PCOD9010949
Probable space group: P -1
;
_chemical_formula_sum "Si O2"
_cell_formula_units_Z 16
_cell_length_a 7.882798
_cell_length_b 14.615257
_cell_length_c 6.623339
_cell_angle_alpha 75.338344
_cell_angle_beta 93.851971
_cell_angle_gamma 72.687517
_cell_volume 696.338217
_symmetry_space_group_name_H-M "P -1"
_symmetry_group_IT_number 2
_symmetry_cell_setting 'triclinic'
loop_
_space_group_symop_operation_xyz
x,y,z
-x,-y,-z
loop_
_atom_site_type_symbol
_atom_site_label
_atom_site_fract_x
_atom_site_fract_y
_atom_site_fract_z
Si Si1 0.252569 0.462719 0.899980
Si Si2 0.650112 0.415198 0.810930
Si Si3 0.703599 0.929383 0.534128
Si Si4 0.731418 0.237957 0.221135
Si Si5 0.195810 0.185459 0.790641
Si Si6 0.894063 0.355500 0.476345
Si Si7 0.017823 0.073839 0.132429
Si Si8 0.661576 0.752464 0.876935
O O1 0.435195 0.437059 0.792938
O O2 0.107712 0.552983 0.721597
O O3 0.305746 0.502444 0.092985
O O4 0.214441 0.360676 0.003475
O O5 0.748758 0.401082 0.614588
O O6 0.729679 0.312800 0.997222
O O7 0.753234 0.902163 0.321619
O O8 0.828524 0.971341 0.662464
O O9 0.729298 0.820151 0.694210
O O10 0.500000 0.000000 0.500000
O O11 0.823473 0.276703 0.390326
O O12 0.524389 0.250143 0.229809
O O13 0.840479 0.127985 0.215847
O O14 0.084009 0.290571 0.621310
O O15 0.071278 0.157425 0.962267
O O16 0.360516 0.195006 0.933095
O O17 0.000000 0.000000 0.000000
#
# Coordination Sequence:
#
# PCOD9010949 Si02
#       8
#     2   2   2   2   2   2   2   2
#     4   9  20  36  61  97 129 168 215 256 309 379
#     4   9  18  36  61  93 134 167 207 265 314 359
#     4  11  27  47  65  92 131 169 209 261 325 388
#     4  10  21  40  64  97 124 167 215 266 310 375
#     4  11  25  44  64  94 134 170 201 265 328 375
#     4  11  20  37  67  93 130 169 216 260 311 375
#     4  11  25  43  70  94 125 161 217 270 319 375
#     4  10  25  42  63  93 135 167 207 263 318 374
#
# _framework density 22.977339000000001
#
# number of rings (size 3 to 8) (size 9 to 14) (size 15 to 20)
#    0.000    1.750    2.500    1.125    3.500    6.000 
#    0.000    1.250    0.000    0.000    0.000    0.000 
#    0.000    0.000    0.000    0.000    0.000    0.000 
#
# Total GULP energy -89419.530859 kJ/mol
# GULP energy per Si atom -5588.720679 kJ/mol
# Density = 2.292504 g / cm^3
# Si number density = 22.977339 Si / 1000 Ang^3
#
#
#
# Elastic Constant Matrix: (Units=GPa)
#
#
# Indices 1 2 3 4 5 6 
#
# 1 30.2213 9.8300 12.4648 3.2130 5.1791 -9.9542
# 2 9.8300 76.4658 11.5406 8.2107 -5.3032 -5.8402
# 3 12.4648 11.5406 68.5095 7.3205 -2.0293 -4.7886
# 4 3.2130 8.2107 7.3205 29.8078 -2.8202 -6.0494
# 5 5.1791 -5.3032 -2.0293 -2.8202 33.5457 2.4585
# 6 -9.9542 -5.8402 -4.7886 -6.0494 2.4585 39.4311
#
#
#
# Elastic Compliance Matrix: (Units=1/GPa)
#
#
# Indices 1 2 3 4 5 6 
#
# 1 0.041708 -0.004172 -0.006396 -0.000616 -0.008238 0.009554
# 2 -0.004172 0.014313 -0.001246 -0.002880 0.002566 0.000313
# 3 -0.006396 -0.001246 0.016301 -0.002896 0.001560 -0.000361
# 4 -0.000616 -0.002880 -0.002896 0.036237 0.002182 0.004489
# 5 -0.008238 0.002566 0.001560 0.002182 0.031998 -0.003170
# 6 0.009554 0.000313 -0.000361 0.004489 -0.003170 0.028661
#
#
# Mechanical properties :
#
#
# Convention : Reuss Voigt Hill
#
# Bulk Modulus (GPa) = 20.53664 26.98529 23.76097
# Shear Modulus (GPa) = 23.91446 29.98100 26.94773
#
# Velocity S-wave (km/s) = 3.22962 3.61613 3.42833
# Velocity P-wave (km/s) = 4.78168 5.40417 5.10242
#
# Compressibility (1/GPa) = 0.04869345
#
# Stress axis : x y z
#
# Youngs Moduli (GPa) = 23.97601 69.86465 61.34730
#
# Poissons Ratio (x) = 0.29147 0.39239
# Poissons Ratio (y) = 0.10003 0.07646
# Poissons Ratio (z) = 0.15335 0.08708
#
# Static dielectric constant tensor:
#      x y z
#    x 1.884140 0.031330 0.010410 
#    y 0.031330 1.893300 -0.000980 
#    z 0.010410 -0.000980 1.840770 
# 
# From -- ./inp_files/38084.got.cif
#   From: 2010.05.17/outbox.cif.g08.bks.cpg/sg2_20_cif.got.tgz:38084.got - 2010.06.03 11:33:40.
