data_PCOD9010177
_publ_section_title
;
Structure prediction by ZEFSAII (Michael W. Deem and Ramdas Pophale) SiO2 
 PCOD9010177
Probable space group: P -1
;
_chemical_formula_sum "Si O2"
_cell_formula_units_Z 16
_cell_length_a 5.417154
_cell_length_b 5.588659
_cell_length_c 21.361558
_cell_angle_alpha 80.284587
_cell_angle_beta 78.784033
_cell_angle_gamma 97.803932
_cell_volume 615.682350
_symmetry_space_group_name_H-M "P -1"
_symmetry_group_IT_number 2
_symmetry_cell_setting 'triclinic'
loop_
_space_group_symop_operation_xyz
x,y,z
-x,-y,-z
loop_
_atom_site_type_symbol
_atom_site_label
_atom_site_fract_x
_atom_site_fract_y
_atom_site_fract_z
Si Si1 0.359559 0.433673 0.818545
Si Si2 0.330889 0.444771 0.574230
Si Si3 0.442965 0.352534 0.074034
Si Si4 0.206823 0.949171 0.542547
Si Si5 0.693665 0.537812 0.671852
Si Si6 0.195197 0.932841 0.787410
Si Si7 0.949427 0.211888 0.040938
Si Si8 0.781789 0.027820 0.702781
O O1 0.505737 0.474403 0.875692
O O2 0.550040 0.496472 0.748065
O O3 0.212876 0.159634 0.825452
O O4 0.183206 0.644432 0.817167
O O5 0.500000 0.500000 0.500000
O O6 0.219474 0.156554 0.585980
O O7 0.503676 0.486690 0.625282
O O8 0.159594 0.658415 0.571999
O O9 0.156480 0.214798 0.085462
O O10 0.650896 0.173499 0.074101
O O11 0.500000 0.500000 0.000000
O O12 0.500000 0.000000 0.500000
O O13 0.000000 0.000000 0.500000
O O14 0.856878 0.318750 0.673863
O O15 0.792970 0.829890 0.656354
O O16 0.480171 0.992546 0.738512
O O17 0.964855 0.958894 0.751209
O O18 0.000000 0.500000 0.000000
O O19 0.000000 0.000000 0.000000
#
# Coordination Sequence:
#
# PCOD9010177 Si02
#       8
#     2   2   2   2   2   2   2   2
#     4  10  23  41  63  92 124 164 207 256 310 369
#     4  10  21  40  63  93 126 165 209 258 311 370
#     4  10  23  42  65  93 126 164 207 256 309 369
#     4  10  21  40  63  90 123 162 205 254 307 366
#     4  10  21  41  64  92 126 165 208 258 311 370
#     4  10  22  40  62  90 123 161 204 253 307 366
#     4  10  22  40  63  90 123 160 202 250 304 362
#     4  10  21  40  62  90 123 161 204 253 307 366
#
# _framework density 25.98743
#
# number of rings (size 3 to 8) (size 9 to 14) (size 15 to 20)
#    0.000    2.000    0.000    2.250    0.000    8.000 
#    0.000   31.250    0.000    0.000    0.000    0.000 
#    0.000    0.000    0.000    0.000    0.000    0.000 
#
# Total GULP energy -89520.641677 kJ/mol
# GULP energy per Si atom -5595.040105 kJ/mol
# Density = 2.592828 g / cm^3
# Si number density = 25.987430 Si / 1000 Ang^3
#
#
#
# Elastic Constant Matrix: (Units=GPa)
#
#
# Indices 1 2 3 4 5 6 
#
# 1 146.6766 63.4542 50.4742 14.0890 29.3164 -12.3803
# 2 63.4542 287.6728 78.7588 31.7436 17.2832 -4.5206
# 3 50.4742 78.7588 164.5137 30.0179 38.1099 0.8757
# 4 14.0890 31.7436 30.0179 67.8936 4.5135 -2.9493
# 5 29.3164 17.2832 38.1099 4.5135 66.3081 -1.8422
# 6 -12.3803 -4.5206 0.8757 -2.9493 -1.8422 56.9447
#
#
#
# Elastic Compliance Matrix: (Units=1/GPa)
#
#
# Indices 1 2 3 4 5 6 
#
# 1 0.008532 -0.001295 -0.001347 -0.000324 -0.002592 0.001672
# 2 -0.001295 0.004281 -0.001555 -0.001072 0.000425 0.000040
# 3 -0.001347 -0.001555 0.008586 -0.002573 -0.003781 -0.000804
# 4 -0.000324 -0.001072 -0.002573 0.016414 0.000805 0.000760
# 5 -0.002592 0.000425 -0.003781 0.000805 0.018239 0.000160
# 6 0.001672 0.000040 -0.000804 0.000760 0.000160 0.017985
#
#
# Mechanical properties :
#
#
# Convention : Reuss Voigt Hill
#
# Bulk Modulus (GPa) = 76.89806 109.35971 93.12888
# Shear Modulus (GPa) = 57.62602 65.30767 61.46684
#
# Velocity S-wave (km/s) = 4.71410 5.01847 4.86866
# Velocity P-wave (km/s) = 7.69968 8.70363 8.21700
#
# Compressibility (1/GPa) = 0.01300423
#
# Stress axis : x y z
#
# Youngs Moduli (GPa) = 117.20653 233.58781 116.47041
#
# Poissons Ratio (x) = 0.30260 0.15686
# Poissons Ratio (y) = 0.15183 0.18112
# Poissons Ratio (z) = 0.15785 0.36325
#
# Static dielectric constant tensor:
#      x y z
#    x 1.895150 -0.134840 0.101280 
#    y -0.134840 1.853550 0.169810 
#    z 0.101280 0.169810 1.816640 
# 
# From -- ./inp_files/13140.got.cif
#   From: 2010.05.17/outbox.cif.g08.bks.cpg/sg2_7_cif.got.tgz:13140.got - 2010.06.03 11:33:40.
