data_PCOD9010997
_publ_section_title
;
Structure prediction by ZEFSAII (Michael W. Deem and Ramdas Pophale) SiO2 
 PCOD9010997
Probable space group: P -1
;
_chemical_formula_sum "Si O2"
_cell_formula_units_Z 16
_cell_length_a 5.264383
_cell_length_b 9.454264
_cell_length_c 18.981344
_cell_angle_alpha 73.508065
_cell_angle_beta 136.220528
_cell_angle_gamma 105.328904
_cell_volume 624.228068
_symmetry_space_group_name_H-M "P -1"
_symmetry_group_IT_number 2
_symmetry_cell_setting 'triclinic'
loop_
_space_group_symop_operation_xyz
x,y,z
-x,-y,-z
loop_
_atom_site_type_symbol
_atom_site_label
_atom_site_fract_x
_atom_site_fract_y
_atom_site_fract_z
Si Si1 0.073043 0.160159 0.763724
Si Si2 0.170335 0.865697 0.011281
Si Si3 0.924383 0.556951 0.077653
Si Si4 0.305622 0.274894 0.168677
Si Si5 0.545073 0.350391 0.711252
Si Si6 0.605503 0.328984 0.381263
Si Si7 0.065386 0.879644 0.717108
Si Si8 0.096576 0.930135 0.457012
O O1 0.391415 0.138225 0.888177
O O2 0.285622 0.259029 0.729829
O O3 0.729401 0.245346 0.707817
O O4 0.943238 0.995668 0.733136
O O5 0.003232 0.716199 0.037010
O O6 0.047944 0.836607 0.909593
O O7 0.000000 0.000000 0.000000
O O8 0.172461 0.437001 0.109805
O O9 0.087904 0.575488 0.186084
O O10 0.500000 0.500000 0.000000
O O11 0.510956 0.285992 0.285325
O O12 0.600044 0.212964 0.183569
O O13 0.357427 0.495885 0.628676
O O14 0.898589 0.241695 0.496323
O O15 0.233126 0.247987 0.350764
O O16 0.171811 0.998422 0.660910
O O17 0.500000 0.000000 0.500000
O O18 0.000000 0.000000 0.500000
#
# Coordination Sequence:
#
# PCOD9010997 Si02
#       8
#     2   2   2   2   2   2   2   2
#     4  11  25  45  60  95 135 174 210 265 320 387
#     4  11  23  38  59  92 129 170 212 260 318 378
#     4  10  23  39  60  90 125 171 219 270 311 375
#     4  11  22  38  64  91 126 167 222 258 323 372
#     4  10  25  42  66  89 134 172 214 262 326 377
#     4  10  24  40  69  97 122 169 219 272 321 386
#     4  11  24  40  69  94 129 167 220 265 326 384
#     4  10  21  40  65 100 130 158 209 278 325 374
#
# _framework density 25.631658000000002
#
# number of rings (size 3 to 8) (size 9 to 14) (size 15 to 20)
#    0.000    1.500    2.500    1.125   10.500    0.000 
#    0.000    3.750    0.000    0.000    0.000    0.000 
#    0.000    0.000    0.000    0.000    0.000    0.000 
#
# Total GULP energy -89302.690816 kJ/mol
# GULP energy per Si atom -5581.418176 kJ/mol
# Density = 2.557332 g / cm^3
# Si number density = 25.631658 Si / 1000 Ang^3
#
#
#
# Elastic Constant Matrix: (Units=GPa)
#
#
# Indices 1 2 3 4 5 6 
#
# 1 110.6489 64.8298 19.2849 -19.3119 8.5188 -15.3259
# 2 64.8298 206.2484 47.1383 -33.5251 9.8438 -19.2716
# 3 19.2849 47.1383 74.5649 -34.8402 -0.4621 -12.9109
# 4 -19.3119 -33.5251 -34.8402 45.2076 -7.4616 10.3492
# 5 8.5188 9.8438 -0.4621 -7.4616 35.9950 0.5225
# 6 -15.3259 -19.2716 -12.9109 10.3492 0.5225 49.7277
#
#
#
# Elastic Compliance Matrix: (Units=1/GPa)
#
#
# Indices 1 2 3 4 5 6 
#
# 1 0.011569 -0.003098 0.000333 0.002201 -0.001460 0.002009
# 2 -0.003098 0.006768 -0.002782 0.001243 -0.000906 0.000697
# 3 0.000333 -0.002782 0.022890 0.016066 0.004283 0.001579
# 4 0.002201 0.001243 0.016066 0.038185 0.007300 -0.002692
# 5 -0.001460 -0.000906 0.004283 0.007300 0.029965 -0.001523
# 6 0.002009 0.000697 0.001579 -0.002692 -0.001523 0.021985
#
#
# Mechanical properties :
#
#
# Convention : Reuss Voigt Hill
#
# Bulk Modulus (GPa) = 33.18333 72.66313 52.92323
# Shear Modulus (GPa) = 32.78692 43.53334 38.16013
#
# Velocity S-wave (km/s) = 3.58041 4.12566 3.86267
# Velocity P-wave (km/s) = 5.48332 7.14880 6.37072
#
# Compressibility (1/GPa) = 0.03013561
#
# Stress axis : x y z
#
# Youngs Moduli (GPa) = 86.43663 147.74570 43.68710
#
# Poissons Ratio (x) = 0.45765 -0.01456
# Poissons Ratio (y) = 0.26774 0.12153
# Poissons Ratio (z) = -0.02881 0.41099
#
# Static dielectric constant tensor:
#      x y z
#    x 2.039710 0.006680 -0.065090 
#    y 0.006680 2.006310 0.074900 
#    z -0.065090 0.074900 2.258910 
# 
# From -- ./inp_files/53443.got.cif
#   From: 2010.05.17/outbox.cif.g08.bks.cpg/sg2_27_cif.got.tgz:53443.got - 2010.06.03 11:33:40.
