data_PCOD9010972
_publ_section_title
;
Structure prediction by ZEFSAII (Michael W. Deem and Ramdas Pophale) SiO2 
 PCOD9010972
Probable space group: P -1
;
_chemical_formula_sum "Si O2"
_cell_formula_units_Z 16
_cell_length_a 16.815271
_cell_length_b 13.209733
_cell_length_c 6.555655
_cell_angle_alpha 110.230937
_cell_angle_beta 52.989333
_cell_angle_gamma 139.652096
_cell_volume 734.629890
_symmetry_space_group_name_H-M "P -1"
_symmetry_group_IT_number 2
_symmetry_cell_setting 'triclinic'
loop_
_space_group_symop_operation_xyz
x,y,z
-x,-y,-z
loop_
_atom_site_type_symbol
_atom_site_label
_atom_site_fract_x
_atom_site_fract_y
_atom_site_fract_z
Si Si1 0.184354 0.435298 0.216856
Si Si2 0.867331 0.407747 0.804310
Si Si3 0.690887 0.064708 0.764477
Si Si4 0.340601 0.426454 0.660989
Si Si5 0.047106 0.075483 0.701740
Si Si6 0.557377 0.121514 0.676320
Si Si7 0.237752 0.543374 0.638820
Si Si8 0.084212 0.892786 0.768150
O O1 0.239424 0.595213 0.158962
O O2 0.160701 0.420188 0.483253
O O3 0.031779 0.293924 0.232948
O O4 0.286736 0.422246 0.965665
O O5 0.803926 0.237976 0.821845
O O6 0.000000 0.500000 0.500000
O O7 0.871403 0.474154 0.060492
O O8 0.630328 0.095597 0.703829
O O9 0.763646 0.024972 0.502335
O O10 0.573831 0.933961 0.022114
O O11 0.500000 0.500000 0.500000
O O12 0.212978 0.250382 0.627416
O O13 0.329042 0.527705 0.616312
O O14 0.028464 0.950698 0.769240
O O15 0.000000 0.000000 0.500000
O O16 0.936948 0.082559 0.953096
O O17 0.654935 0.287414 0.523391
O O18 0.500000 0.000000 0.500000
#
# Coordination Sequence:
#
# PCOD9010972 Si02
#       8
#     2   2   2   2   2   2   2   2
#     4  10  21  40  64  98 131 172 217 278 335 395
#     4  11  21  39  63  96 135 169 213 273 331 392
#     4  11  23  41  63  92 133 171 217 269 335 397
#     4  10  24  43  69  99 136 173 226 286 340 396
#     4  10  22  44  68  96 130 172 222 283 342 395
#     4  11  24  41  60  91 134 179 218 265 324 409
#     4  11  23  41  67  94 133 179 221 270 332 408
#     4  10  22  41  66  92 130 168 218 279 336 395
#
# _framework density 21.779674
#
# number of rings (size 3 to 8) (size 9 to 14) (size 15 to 20)
#    0.000    1.500    3.750    0.750    0.000    4.000 
#    2.250    2.500    0.000    0.000    0.000    0.000 
#    0.000    0.000    0.000    0.000    0.000    0.000 
#
# Total GULP energy -89135.450346 kJ/mol
# GULP energy per Si atom -5570.965647 kJ/mol
# Density = 2.173010 g / cm^3
# Si number density = 21.779674 Si / 1000 Ang^3
#
#
#
# Elastic Constant Matrix: (Units=GPa)
#
#
# Indices 1 2 3 4 5 6 
#
# 1 47.4725 20.9163 52.8175 12.6128 -2.8808 -6.3928
# 2 20.9163 85.0200 67.3893 12.4195 8.2304 -6.9730
# 3 52.8175 67.3893 221.2518 29.6386 -10.8253 12.2661
# 4 12.6128 12.4195 29.6386 48.9845 -1.3849 11.6719
# 5 -2.8808 8.2304 -10.8253 -1.3849 41.6966 -1.3500
# 6 -6.3928 -6.9730 12.2661 11.6719 -1.3500 24.5063
#
#
#
# Elastic Compliance Matrix: (Units=1/GPa)
#
#
# Indices 1 2 3 4 5 6 
#
# 1 0.034490 0.000631 -0.008272 -0.008125 0.000398 0.017209
# 2 0.000631 0.018145 -0.005974 -0.003615 -0.004893 0.009770
# 3 -0.008272 -0.005974 0.008859 0.000339 0.002650 -0.008307
# 4 -0.008125 -0.003615 0.000339 0.027093 0.000616 -0.016187
# 5 0.000398 -0.004893 0.002650 0.000616 0.025636 -0.001496
# 6 0.017209 0.009770 -0.008307 -0.016187 -0.001496 0.059860
#
#
# Mechanical properties :
#
#
# Convention : Reuss Voigt Hill
#
# Bulk Modulus (GPa) = 29.18493 70.66562 49.92527
# Shear Modulus (GPa) = 23.50352 37.21224 30.35788
#
# Velocity S-wave (km/s) = 3.28860 4.13798 3.73750
# Velocity P-wave (km/s) = 5.27722 7.43953 6.44964
#
# Compressibility (1/GPa) = 0.03426425
#
# Stress axis : x y z
#
# Youngs Moduli (GPa) = 28.99360 55.11218 112.88123
#
# Poissons Ratio (x) = -0.03479 0.93376
# Poissons Ratio (y) = -0.01830 0.67436
# Poissons Ratio (z) = 0.23984 0.32925
#
# Static dielectric constant tensor:
#      x y z
#    x 1.799560 0.030290 -0.004990 
#    y 0.030290 1.934220 0.025890 
#    z -0.004990 0.025890 1.892050 
# 
# From -- ./inp_files/110931.got.cif
#   From: 2010.05.17/outbox.cif.g08.bks.cpg/sg2_56_cif.got.tgz:110931.got - 2010.06.03 11:33:40.
