data_PCOD9010362
_publ_section_title
;
Structure prediction by ZEFSAII (Michael W. Deem and Ramdas Pophale) SiO2 
 PCOD9010362
Probable space group: P -1
;
_chemical_formula_sum "Si O2"
_cell_formula_units_Z 16
_cell_length_a 7.177440
_cell_length_b 12.441311
_cell_length_c 9.579709
_cell_angle_alpha 112.312179
_cell_angle_beta 93.926451
_cell_angle_gamma 110.486233
_cell_volume 721.052799
_symmetry_space_group_name_H-M "P -1"
_symmetry_group_IT_number 2
_symmetry_cell_setting 'triclinic'
loop_
_space_group_symop_operation_xyz
x,y,z
-x,-y,-z
loop_
_atom_site_type_symbol
_atom_site_label
_atom_site_fract_x
_atom_site_fract_y
_atom_site_fract_z
Si Si1 0.826609 0.881993 0.014188
Si Si2 0.573760 0.183163 0.515304
Si Si3 0.981652 0.694000 0.287055
Si Si4 0.805384 0.900348 0.353204
Si Si5 0.583197 0.955643 0.845621
Si Si6 0.893638 0.425631 0.275864
Si Si7 0.895201 0.240017 0.969874
Si Si8 0.341178 0.555864 0.464304
O O1 0.800825 0.920354 0.193124
O O2 0.897435 0.768320 0.972325
O O3 0.652216 0.855311 0.877872
O O4 0.000000 0.000000 0.000000
O O5 0.807392 0.217280 0.583374
O O6 0.401725 0.110187 0.586331
O O7 0.533584 0.109830 0.330747
O O8 0.556953 0.318964 0.562933
O O9 0.890270 0.556461 0.283523
O O10 0.056525 0.681796 0.130120
O O11 0.836959 0.769050 0.305418
O O12 0.000000 0.000000 0.500000
O O13 0.752570 0.091352 0.866154
O O14 0.500000 0.000000 0.000000
O O15 0.132655 0.456038 0.332532
O O16 0.760081 0.396093 0.391976
O O17 0.810543 0.308453 0.109381
O O18 0.500000 0.500000 0.500000
#
# Coordination Sequence:
#
# PCOD9010362 Si02
#       8
#     2   2   2   2   2   2   2   2
#     4   9  21  40  57  90 122 162 210 250 314 377
#     4  11  24  41  64  95 128 166 212 265 315 381
#     4  10  23  41  64  94 127 163 215 260 318 379
#     4  11  23  40  67  91 128 173 204 262 322 378
#     4  11  24  39  60  94 128 165 209 264 321 373
#     4  10  21  41  64  90 123 169 210 260 318 373
#     4  10  21  40  63  87 124 166 207 259 315 380
#     4  10  22  40  62  92 125 166 213 260 313 377
#
# _framework density 22.189775000000001
#
# number of rings (size 3 to 8) (size 9 to 14) (size 15 to 20)
#    0.000    1.750    0.000    4.125    5.250    1.000 
#    4.500    0.000    0.000    6.000    0.000    0.000 
#    0.000    0.000    0.000    0.000    0.000    0.000 
#
# Total GULP energy -89253.684027 kJ/mol
# GULP energy per Si atom -5578.355252 kJ/mol
# Density = 2.213927 g / cm^3
# Si number density = 22.189775 Si / 1000 Ang^3
#
#
#
# Elastic Constant Matrix: (Units=GPa)
#
#
# Indices 1 2 3 4 5 6 
#
# 1 42.0108 27.7765 16.2112 -5.4535 -2.2688 -4.6291
# 2 27.7765 72.7500 31.5860 -14.8699 8.5400 8.1710
# 3 16.2112 31.5860 120.9322 -11.4836 -10.6654 1.5551
# 4 -5.4535 -14.8699 -11.4836 39.5518 1.1755 -4.1491
# 5 -2.2688 8.5400 -10.6654 1.1755 26.7017 -10.8218
# 6 -4.6291 8.1710 1.5551 -4.1491 -10.8218 30.7223
#
#
#
# Elastic Compliance Matrix: (Units=1/GPa)
#
#
# Indices 1 2 3 4 5 6 
#
# 1 0.038741 -0.019112 0.001019 -0.000292 0.016580 0.016670
# 2 -0.019112 0.029064 -0.006102 0.005368 -0.020384 -0.016756
# 3 0.001019 -0.006102 0.010469 0.001089 0.007858 0.004162
# 4 -0.000292 0.005368 0.001089 0.027797 -0.001899 0.001558
# 5 0.016580 -0.020384 0.007858 -0.001899 0.060130 0.028446
# 6 0.016670 -0.016756 0.004162 0.001558 0.028446 0.049538
#
#
# Mechanical properties :
#
#
# Convention : Reuss Voigt Hill
#
# Bulk Modulus (GPa) = 33.46258 42.98227 38.22242
# Shear Modulus (GPa) = 18.24204 30.06978 24.15591
#
# Velocity S-wave (km/s) = 2.87033 3.68519 3.30298
# Velocity P-wave (km/s) = 5.10861 6.12534 5.63994
#
# Compressibility (1/GPa) = 0.02988413
#
# Stress axis : x y z
#
# Youngs Moduli (GPa) = 25.81223 34.40656 95.51837
#
# Poissons Ratio (x) = 0.65759 -0.09731
# Poissons Ratio (y) = 0.49333 0.58282
# Poissons Ratio (z) = -0.02630 0.20994
#
# Static dielectric constant tensor:
#      x y z
#    x 1.879050 -0.044590 0.076290 
#    y -0.044590 1.797500 0.015150 
#    z 0.076290 0.015150 1.797480 
# 
# From -- ./inp_files/189308.got.cif
#   From: 2010.05.17/outbox.cif.g08.bks.cpg/sg2_95_cif.got.tgz:189308.got - 2010.06.03 11:33:40.
