data_PCOD9010553
_publ_section_title
;
Structure prediction by ZEFSAII (Michael W. Deem and Ramdas Pophale) SiO2 
 PCOD9010553
Probable space group: P -1
;
_chemical_formula_sum "Si O2"
_cell_formula_units_Z 16
_cell_length_a 7.242125
_cell_length_b 20.394573
_cell_length_c 6.534140
_cell_angle_alpha 129.259575
_cell_angle_beta 62.162416
_cell_angle_gamma 115.022834
_cell_volume 649.230115
_symmetry_space_group_name_H-M "P -1"
_symmetry_group_IT_number 2
_symmetry_cell_setting 'triclinic'
loop_
_space_group_symop_operation_xyz
x,y,z
-x,-y,-z
loop_
_atom_site_type_symbol
_atom_site_label
_atom_site_fract_x
_atom_site_fract_y
_atom_site_fract_z
Si Si1 0.707093 0.873892 0.902777
Si Si2 0.620139 0.095411 0.171587
Si Si3 0.006099 0.008043 0.751569
Si Si4 0.117491 0.677560 0.852108
Si Si5 0.612659 0.383845 0.775846
Si Si6 0.678005 0.232963 0.701075
Si Si7 0.806767 0.570462 0.114053
Si Si8 0.116221 0.281380 0.319985
O O1 0.487103 0.857382 0.859193
O O2 0.738002 0.786053 0.822172
O O3 0.890829 0.916588 0.727022
O O4 0.765530 0.952857 0.191245
O O5 0.569084 0.139232 0.495616
O O6 0.861116 0.080620 0.012001
O O7 0.500000 0.000000 0.000000
O O8 0.000000 0.000000 0.500000
O O9 0.264938 0.642650 0.539659
O O10 0.941473 0.712237 0.874455
O O11 0.248930 0.749483 0.072814
O O12 0.003148 0.606168 0.932032
O O13 0.566470 0.307724 0.815487
O O14 0.395505 0.407972 0.860529
O O15 0.762553 0.467941 0.960156
O O16 0.893597 0.248096 0.484871
O O17 0.813141 0.624693 0.427647
#
# Coordination Sequence:
#
# PCOD9010553 Si02
#       8
#     2   2   2   2   2   2   2   2
#     4  10  21  41  64  91 131 164 212 274 319 391
#     4  10  21  42  68  94 128 168 213 274 332 390
#     4  10  22  40  65  94 128 166 210 266 334 395
#     4  10  23  39  66  91 130 182 219 267 337 397
#     4  10  22  41  64  97 132 171 221 279 330 394
#     4  10  21  41  64  92 129 168 217 277 327 392
#     4  10  22  40  65  94 134 172 219 280 330 390
#     4  10  21  40  63  94 129 173 218 270 326 394
#
# _framework density 24.644572
#
# number of rings (size 3 to 8) (size 9 to 14) (size 15 to 20)
#    0.000    2.000    1.250    1.125    0.000    9.000 
#    0.000   10.000    2.750    0.000    0.000    0.000 
#    0.000    0.000    0.000    0.000    0.000    0.000 
#
# Total GULP energy -89422.130439 kJ/mol
# GULP energy per Si atom -5588.883152 kJ/mol
# Density = 2.458848 g / cm^3
# Si number density = 24.644572 Si / 1000 Ang^3
#
#
#
# Elastic Constant Matrix: (Units=GPa)
#
#
# Indices 1 2 3 4 5 6 
#
# 1 84.6970 25.2712 31.5515 -9.9155 15.2639 -16.0960
# 2 25.2712 110.6901 79.1945 -3.4975 11.6371 -12.3460
# 3 31.5515 79.1945 145.4122 11.2837 48.8902 -8.8229
# 4 -9.9155 -3.4975 11.2837 40.3454 -3.2566 4.4663
# 5 15.2639 11.6371 48.8902 -3.2566 42.0335 -1.0750
# 6 -16.0960 -12.3460 -8.8229 4.4663 -1.0750 43.0619
#
#
#
# Elastic Compliance Matrix: (Units=1/GPa)
#
#
# Indices 1 2 3 4 5 6 
#
# 1 0.014449 -0.001465 -0.001320 0.003076 -0.002958 0.004318
# 2 -0.001465 0.018920 -0.014740 0.006280 0.012964 0.001529
# 3 -0.001320 -0.014740 0.024269 -0.010444 -0.024458 0.000726
# 4 0.003076 0.006280 -0.010444 0.030167 0.011577 -0.002029
# 5 -0.002958 0.012964 -0.024458 0.011577 0.050561 -0.002339
# 6 0.004318 0.001529 0.000726 -0.002029 -0.002339 0.025576
#
#
# Mechanical properties :
#
#
# Convention : Reuss Voigt Hill
#
# Bulk Modulus (GPa) = 44.26788 68.09262 56.18025
# Shear Modulus (GPa) = 24.21081 38.74032 31.47556
#
# Velocity S-wave (km/s) = 3.13773 3.96910 3.57764
# Velocity P-wave (km/s) = 5.57930 6.97817 6.31757
#
# Compressibility (1/GPa) = 0.02258974
#
# Stress axis : x y z
#
# Youngs Moduli (GPa) = 69.20789 52.85281 41.20550
#
# Poissons Ratio (x) = 0.07743 0.05438
# Poissons Ratio (y) = 0.10139 0.60736
# Poissons Ratio (z) = 0.09133 0.77903
#
# Static dielectric constant tensor:
#      x y z
#    x 2.099400 0.016370 -0.000800 
#    y 0.016370 2.020690 0.045100 
#    z -0.000800 0.045100 1.954810 
# 
# From -- ./inp_files/52075.got.cif
#   From: 2010.05.17/outbox.cif.g08.bks.cpg/sg2_27_cif.got.tgz:52075.got - 2010.06.03 11:33:40.
