data_PCOD9010300
_publ_section_title
;
Structure prediction by ZEFSAII (Michael W. Deem and Ramdas Pophale) SiO2 
 PCOD9010300
Probable space group: P -1
;
_chemical_formula_sum "Si O2"
_cell_formula_units_Z 16
_cell_length_a 8.273371
_cell_length_b 5.237424
_cell_length_c 23.393013
_cell_angle_alpha 54.140290
_cell_angle_beta 50.880150
_cell_angle_gamma 77.480421
_cell_volume 618.237958
_symmetry_space_group_name_H-M "P -1"
_symmetry_group_IT_number 2
_symmetry_cell_setting 'triclinic'
loop_
_space_group_symop_operation_xyz
x,y,z
-x,-y,-z
loop_
_atom_site_type_symbol
_atom_site_label
_atom_site_fract_x
_atom_site_fract_y
_atom_site_fract_z
Si Si1 0.705885 0.629619 0.054847
Si Si2 0.037414 0.016219 0.601119
Si Si3 0.788374 0.246948 0.549781
Si Si4 0.966554 0.306606 0.120583
Si Si5 0.966768 0.907910 0.752122
Si Si6 0.548701 0.087185 0.836641
Si Si7 0.606424 0.004200 0.403014
Si Si8 0.437347 0.304471 0.715002
O O1 0.561170 0.834178 0.091361
O O2 0.878954 0.579844 0.071008
O O3 0.562685 0.278313 0.112726
O O4 0.843239 0.765906 0.950709
O O5 0.059521 0.405435 0.546700
O O6 0.905062 0.961646 0.579367
O O7 0.284122 0.007382 0.558241
O O8 0.913371 0.826509 0.707818
O O9 0.629455 0.262789 0.636581
O O10 0.623815 0.177441 0.543226
O O11 0.036324 0.361891 0.163682
O O12 0.765487 0.998192 0.205666
O O13 0.212854 0.108000 0.661740
O O14 0.799505 0.105317 0.783896
O O15 0.507245 0.316242 0.764225
O O16 0.626547 0.372836 0.332354
#
# Coordination Sequence:
#
# PCOD9010300 Si02
#       8
#     2   2   2   2   2   2   2   2
#     4  10  25  44  68  98 132 184 227 294 344 418
#     4   9  22  40  64  97 133 174 227 280 341 415
#     4  11  20  43  65  92 136 176 222 283 344 409
#     4  10  22  42  66  95 131 173 230 279 349 405
#     4  10  21  40  62  97 128 177 223 285 334 417
#     4  11  24  42  67  96 139 174 236 280 352 407
#     4  10  22  38  63  95 129 179 224 279 340 405
#     4  11  21  38  66  91 128 179 221 281 341 414
#
# _framework density 25.880002000000001
#
# number of rings (size 3 to 8) (size 9 to 14) (size 15 to 20)
#    0.750    1.000    2.500    1.125    1.750    8.000 
#    2.250    2.500    0.000    0.000    0.000    0.000 
#    0.000    0.000    0.000    0.000    0.000    0.000 
#
# Total GULP energy -89390.727290 kJ/mol
# GULP energy per Si atom -5586.920456 kJ/mol
# Density = 2.582110 g / cm^3
# Si number density = 25.880002 Si / 1000 Ang^3
#
#
#
# Elastic Constant Matrix: (Units=GPa)
#
#
# Indices 1 2 3 4 5 6 
#
# 1 115.1456 25.0370 44.7912 8.6372 -3.8393 -25.1191
# 2 25.0370 57.0099 26.7655 10.0016 -8.3954 8.5951
# 3 44.7912 26.7655 101.1161 5.1605 16.9370 35.0163
# 4 8.6372 10.0016 5.1605 25.5602 6.0314 21.2267
# 5 -3.8393 -8.3954 16.9370 6.0314 35.1825 -1.3370
# 6 -25.1191 8.5951 35.0163 21.2267 -1.3370 9.1458
#
#
#
# Elastic Compliance Matrix: (Units=1/GPa)
#
#
# Indices 1 2 3 4 5 6 
#
# 1 0.005594 -0.003988 0.002328 0.008703 -0.003352 -0.010489
# 2 -0.003988 0.023985 -0.004048 -0.005263 0.007963 -0.004620
# 3 0.002328 -0.004048 0.005999 -0.011424 -0.001125 0.013578
# 4 0.008703 -0.005263 -0.011424 0.022132 0.002218 0.021546
# 5 -0.003352 0.007963 -0.001125 0.002218 0.029617 -0.013201
# 6 -0.010489 -0.004620 0.013578 0.021546 -0.013201 -0.019050
#
#
# Mechanical properties :
#
#
# Convention : Reuss Voigt Hill
#
# Bulk Modulus (GPa) = 41.38749 51.82878 46.60813
# Shear Modulus (GPa) = 56.98163 25.75622 41.36893
#
# Velocity S-wave (km/s) = 4.69739 3.15813 4.00245
# Velocity P-wave (km/s) = 6.74147 5.77654 6.27757
#
# Compressibility (1/GPa) = 0.02416189
#
# Stress axis : x y z
#
# Youngs Moduli (GPa) = 178.77642 41.69246 166.68232
#
# Poissons Ratio (x) = 0.16629 -0.38800
# Poissons Ratio (y) = 0.71303 0.67465
# Poissons Ratio (z) = -0.41615 0.16875
#
# Static dielectric constant tensor:
#      x y z
#    x 2.259160 0.074870 -0.010770 
#    y 0.074870 2.092500 0.039930 
#    z -0.010770 0.039930 1.992980 
# 
# From -- ./inp_files/605822.got.cif
#   From: 2010.05.17/outbox.cif.g08.bks.cpg/sg2_303_cif.got.tgz:605822.got - 2010.06.03 11:33:40.
