data_PCOD9010246
_publ_section_title
;
Structure prediction by ZEFSAII (Michael W. Deem and Ramdas Pophale) SiO2 
 PCOD9010246
Probable space group: P -1
;
_chemical_formula_sum "Si O2"
_cell_formula_units_Z 14
_cell_length_a 19.958414
_cell_length_b 12.219345
_cell_length_c 14.980184
_cell_angle_alpha 140.059939
_cell_angle_beta 19.446941
_cell_angle_gamma 149.390139
_cell_volume 597.283635
_symmetry_space_group_name_H-M "P -1"
_symmetry_group_IT_number 2
_symmetry_cell_setting 'triclinic'
loop_
_space_group_symop_operation_xyz
x,y,z
-x,-y,-z
loop_
_atom_site_type_symbol
_atom_site_label
_atom_site_fract_x
_atom_site_fract_y
_atom_site_fract_z
Si Si1 0.284525 0.380292 0.077991
Si Si2 0.694796 0.376811 0.300921
Si Si3 0.082850 0.813586 0.415384
Si Si4 0.738735 0.434722 0.478308
Si Si5 0.840223 0.615310 0.086364
Si Si6 0.145181 0.004357 0.734052
Si Si7 0.459512 0.704061 0.907208
O O1 0.164211 0.320574 0.290313
O O2 0.471822 0.317076 0.794525
O O3 0.447599 0.613904 0.964858
O O4 0.026145 0.227072 0.244509
O O5 0.661241 0.445757 0.482272
O O6 0.689571 0.460944 0.264349
O O7 0.443738 0.114686 0.448522
O O8 0.000000 0.500000 0.000000
O O9 0.966141 0.678545 0.385045
O O10 0.251651 0.076158 0.350544
O O11 0.284331 0.781302 0.179408
O O12 0.874984 0.323201 0.238702
O O13 0.862816 0.827383 0.208052
O O14 0.682634 0.482284 0.110348
O O15 0.000000 0.000000 0.000000
#
# Coordination Sequence:
#
# PCOD9010246 Si02
#       7
#     2   2   2   2   2   2   2
#     4  12  23  40  65  94 129 166 216 264 322 380
#     4  10  21  40  62  93 125 163 211 263 319 380
#     4  10  23  41  64  91 122 174 213 259 326 376
#     4  10  22  40  61  92 132 163 210 271 309 384
#     4  10  21  40  66  90 125 164 213 264 320 376
#     4  12  22  39  65  91 126 166 209 260 326 376
#     4  10  21  42  66  90 125 163 220 270 309 385
#
# _framework density 23.439450999999998
#
# number of rings (size 3 to 8) (size 9 to 14) (size 15 to 20)
#    0.000    1.429    2.857    2.143    0.000    3.429 
#    0.000    1.429    0.000    0.000    0.000    0.000 
#    0.000    0.000    0.000    0.000    0.000    0.000 
#
# Total GULP energy -78054.354904 kJ/mol
# GULP energy per Si atom -5575.311065 kJ/mol
# Density = 2.338610 g / cm^3
# Si number density = 23.439451 Si / 1000 Ang^3
#
#
#
# Elastic Constant Matrix: (Units=GPa)
#
#
# Indices 1 2 3 4 5 6 
#
# 1 67.7839 12.3938 26.4915 -5.1672 -0.6197 -3.4044
# 2 12.3938 48.1892 6.6164 -17.1142 1.1480 -5.6583
# 3 26.4915 6.6164 121.7830 -14.9342 -10.5607 -12.9733
# 4 -5.1672 -17.1142 -14.9342 26.2682 0.5705 -1.6839
# 5 -0.6197 1.1480 -10.5607 0.5705 48.2534 -3.1422
# 6 -3.4044 -5.6583 -12.9733 -1.6839 -3.1422 28.1839
#
#
#
# Elastic Compliance Matrix: (Units=1/GPa)
#
#
# Indices 1 2 3 4 5 6 
#
# 1 0.016878 -0.004552 -0.003778 -0.001833 -0.000531 -0.000783
# 2 -0.004552 0.029782 0.002751 0.020579 0.000109 0.007937
# 3 -0.003778 0.002751 0.010614 0.007395 0.002493 0.005701
# 4 -0.001833 0.020579 0.007395 0.055986 0.001146 0.010787
# 5 -0.000531 0.000109 0.002493 0.001146 0.021479 0.003568
# 6 -0.000783 0.007937 0.005701 0.010787 0.003568 0.040647
#
#
# Mechanical properties :
#
#
# Convention : Reuss Voigt Hill
#
# Bulk Modulus (GPa) = 21.68505 36.52883 29.10694
# Shear Modulus (GPa) = 24.76254 33.35806 29.06030
#
# Velocity S-wave (km/s) = 3.25383 3.77657 3.52490
# Velocity P-wave (km/s) = 4.83613 5.88514 5.38623
#
# Compressibility (1/GPa) = 0.04611471
#
# Stress axis : x y z
#
# Youngs Moduli (GPa) = 59.24913 33.57680 94.21416
#
# Poissons Ratio (x) = 0.15285 0.35597
# Poissons Ratio (y) = 0.26971 -0.25915
# Poissons Ratio (z) = 0.22386 -0.09236
#
# Static dielectric constant tensor:
#      x y z
#    x 1.484290 0.540070 -0.527790 
#    y 0.540070 1.215530 0.637760 
#    z -0.527790 0.637760 1.480610 
# 
# From -- ./inp_files/272740.got.cif
#   From: 2010.05.17/outbox.cif.g08.bks.cpg/sg2_137_cif.got.tgz:272740.got - 2010.06.03 11:33:40.
