data_PCOD9010886
_publ_section_title
;
Structure prediction by ZEFSAII (Michael W. Deem and Ramdas Pophale) SiO2 
 PCOD9010886
Probable space group: P -1
;
_chemical_formula_sum "Si O2"
_cell_formula_units_Z 12
_cell_length_a 10.015569
_cell_length_b 9.031053
_cell_length_c 9.966475
_cell_angle_alpha 104.656510
_cell_angle_beta 111.105975
_cell_angle_gamma 127.179658
_cell_volume 518.637833
_symmetry_space_group_name_H-M "P -1"
_symmetry_group_IT_number 2
_symmetry_cell_setting 'triclinic'
loop_
_space_group_symop_operation_xyz
x,y,z
-x,-y,-z
loop_
_atom_site_type_symbol
_atom_site_label
_atom_site_fract_x
_atom_site_fract_y
_atom_site_fract_z
Si Si1 0.777113 0.415014 0.149920
Si Si2 0.165272 0.007352 0.006976
Si Si3 0.401733 0.112599 0.601295
Si Si4 0.197663 0.794683 0.205333
Si Si5 0.579312 0.536118 0.190389
Si Si6 0.747165 0.095996 0.231957
O O1 0.785428 0.592269 0.254554
O O2 0.811081 0.313229 0.248970
O O3 0.956100 0.556962 0.127315
O O4 0.518490 0.165082 0.952070
O O5 0.403126 0.287461 0.149699
O O6 0.178055 0.868571 0.074482
O O7 0.119709 0.913946 0.816297
O O8 0.000000 0.000000 0.000000
O O9 0.637742 0.216033 0.723963
O O10 0.404750 0.290568 0.689152
O O11 0.311284 0.011087 0.397237
O O12 0.240434 0.900663 0.604186
O O13 0.500000 0.500000 0.000000
#
# Coordination Sequence:
#
# PCOD9010886 Si02
#       6
#     2   2   2   2   2   2
#     4  10  21  40  64  95 120 177 213 263 308 377
#     4  11  24  40  64 100 124 167 222 265 312 376
#     4  11  24  44  63  98 132 171 204 267 326 382
#     4  11  26  41  65  96 138 164 209 266 328 377
#     4  11  21  40  66  92 126 168 220 263 312 374
#     4  10  22  41  67  88 129 170 222 257 310 388
#
# _framework density 23.137536000000001
#
# number of rings (size 3 to 8) (size 9 to 14) (size 15 to 20)
#    0.000    1.333    3.333    4.000    2.333    3.333 
#    0.000    0.000    0.000    0.000    0.000    0.000 
#    0.000    0.000    0.000    0.000    0.000    0.000 
#
# Total GULP energy -67069.227333 kJ/mol
# GULP energy per Si atom -5589.102278 kJ/mol
# Density = 2.308487 g / cm^3
# Si number density = 23.137536 Si / 1000 Ang^3
#
#
#
# Elastic Constant Matrix: (Units=GPa)
#
#
# Indices 1 2 3 4 5 6 
#
# 1 150.7121 37.3155 23.9784 10.9327 -15.1907 7.1547
# 2 37.3155 138.8262 2.9539 14.3655 6.3548 4.1785
# 3 23.9784 2.9539 56.3678 7.9069 -5.9460 3.4881
# 4 10.9327 14.3655 7.9069 21.7018 2.9054 -12.8873
# 5 -15.1907 6.3548 -5.9460 2.9054 39.1495 9.1336
# 6 7.1547 4.1785 3.4881 -12.8873 9.1336 45.5203
#
#
#
# Elastic Compliance Matrix: (Units=1/GPa)
#
#
# Indices 1 2 3 4 5 6 
#
# 1 0.008349 -0.001816 -0.002152 -0.004674 0.004293 -0.003165
# 2 -0.001816 0.008423 0.001254 -0.006293 -0.000905 -0.002184
# 3 -0.002152 0.001254 0.020930 -0.011130 0.004221 -0.005379
# 4 -0.004674 -0.006293 -0.011130 0.073912 -0.014011 0.025902
# 5 0.004293 -0.000905 0.004221 -0.014011 0.031658 -0.011234
# 6 -0.003165 -0.002184 -0.005379 0.025902 -0.011234 0.032665
#
#
# Mechanical properties :
#
#
# Convention : Reuss Voigt Hill
#
# Bulk Modulus (GPa) = 30.98556 52.71130 41.84843
# Shear Modulus (GPa) = 26.02486 40.05154 33.03820
#
# Velocity S-wave (km/s) = 3.35743 4.16507 3.78286
# Velocity P-wave (km/s) = 5.33392 6.77950 6.09968
#
# Compressibility (1/GPa) = 0.03227310
#
# Stress axis : x y z
#
# Youngs Moduli (GPa) = 119.77122 118.72159 47.77868
#
# Poissons Ratio (x) = 0.21559 0.10283
# Poissons Ratio (y) = 0.21750 -0.05989
# Poissons Ratio (z) = 0.25776 -0.14882
#
# Static dielectric constant tensor:
#      x y z
#    x 1.965400 0.029820 -0.043160 
#    y 0.029820 1.840290 -0.013110 
#    z -0.043160 -0.013110 1.996720 
# 
# From -- ./inp_files/380035.got.cif
#   From: 2010.05.17/outbox.cif.g08.bks.cpg/sg2_191_cif.got.tgz:380035.got - 2010.06.03 11:33:40.
