data_PCOD9010896
_publ_section_title
;
Structure prediction by ZEFSAII (Michael W. Deem and Ramdas Pophale) SiO2 
 PCOD9010896
Probable space group: P -1
;
_chemical_formula_sum "Si O2"
_cell_formula_units_Z 16
_cell_length_a 13.919668
_cell_length_b 9.542562
_cell_length_c 14.974375
_cell_angle_alpha 130.610705
_cell_angle_beta 48.215858
_cell_angle_gamma 149.356106
_cell_volume 740.018076
_symmetry_space_group_name_H-M "P -1"
_symmetry_group_IT_number 2
_symmetry_cell_setting 'triclinic'
loop_
_space_group_symop_operation_xyz
x,y,z
-x,-y,-z
loop_
_atom_site_type_symbol
_atom_site_label
_atom_site_fract_x
_atom_site_fract_y
_atom_site_fract_z
Si Si1 0.478583 0.273435 0.378868
Si Si2 0.833479 0.688474 0.933089
Si Si3 0.200877 0.006836 0.014139
Si Si4 0.744013 0.801563 0.665574
Si Si5 0.073581 0.296600 0.773982
Si Si6 0.510900 0.804707 0.946667
Si Si7 0.399921 0.760326 0.535137
Si Si8 0.064834 0.610190 0.779986
O O1 0.500000 0.500000 0.500000
O O2 0.295503 0.103912 0.355259
O O3 0.690163 0.459981 0.277064
O O4 0.469234 0.129459 0.410411
O O5 0.910293 0.570691 0.807657
O O6 0.743583 0.719790 0.924840
O O7 0.697018 0.495375 0.020325
O O8 0.000000 0.000000 0.000000
O O9 0.014551 0.805471 0.114181
O O10 0.362276 0.062497 0.987353
O O11 0.179619 0.884107 0.881854
O O12 0.613287 0.764533 0.804551
O O13 0.660117 0.508063 0.574719
O O14 0.962513 0.029091 0.666893
O O15 0.997739 0.400162 0.813608
O O16 0.500000 0.000000 0.000000
O O17 0.202921 0.644698 0.644505
O O18 0.500000 0.000000 0.500000
#
# Coordination Sequence:
#
# PCOD9010896 Si02
#       8
#     2   2   2   2   2   2   2   2
#     4   9  21  38  64  92 120 171 214 257 319 380
#     4  10  22  37  60  94 128 170 206 271 326 384
#     4  10  22  38  63  95 133 164 207 269 331 384
#     4  10  23  41  66  93 126 169 217 264 320 388
#     4  10  21  40  64  95 128 163 214 273 321 385
#     4  11  24  40  65  98 129 173 216 267 326 395
#     4  10  23  41  64  89 127 170 213 264 317 380
#     4  10  22  39  63  92 125 170 211 260 328 387
#
# _framework density 21.621092999999998
#
# number of rings (size 3 to 8) (size 9 to 14) (size 15 to 20)
#    0.000    2.000    0.000    2.250   10.500    5.500 
#    0.000    0.000    0.000    9.000    0.000    0.000 
#    0.000    0.000    0.000    0.000    0.000    0.000 
#
# Total GULP energy -89181.319075 kJ/mol
# GULP energy per Si atom -5573.832442 kJ/mol
# Density = 2.157188 g / cm^3
# Si number density = 21.621093 Si / 1000 Ang^3
#
#
#
# Elastic Constant Matrix: (Units=GPa)
#
#
# Indices 1 2 3 4 5 6 
#
# 1 101.7210 35.3800 17.1862 1.4499 -13.6632 -23.2030
# 2 35.3800 78.8671 29.4282 -14.9174 -8.8304 -32.4950
# 3 17.1862 29.4282 77.3948 6.1900 -17.4465 -2.9845
# 4 1.4499 -14.9174 6.1900 22.8629 -4.5483 -0.1394
# 5 -13.6632 -8.8304 -17.4465 -4.5483 30.8332 10.1122
# 6 -23.2030 -32.4950 -2.9845 -0.1394 10.1122 36.4657
#
#
#
# Elastic Compliance Matrix: (Units=1/GPa)
#
#
# Indices 1 2 3 4 5 6 
#
# 1 0.012576 -0.004710 -0.000003 -0.003306 0.002740 0.003033
# 2 -0.004710 0.038929 -0.016288 0.029021 -0.006454 0.032260
# 3 -0.000003 -0.016288 0.022122 -0.014549 0.010880 -0.015778
# 4 -0.003306 0.029021 -0.014549 0.067188 0.001144 0.022506
# 5 0.002740 -0.006454 0.010880 0.001144 0.043061 -0.015054
# 6 0.003033 0.032260 -0.015778 0.022506 -0.015054 0.061069
#
#
# Mechanical properties :
#
#
# Convention : Reuss Voigt Hill
#
# Bulk Modulus (GPa) = 31.61932 46.88574 39.25253
# Shear Modulus (GPa) = 16.80736 29.76495 23.28615
#
# Velocity S-wave (km/s) = 2.79114 3.71437 3.28534
# Velocity P-wave (km/s) = 5.00433 6.33464 5.70837
#
# Compressibility (1/GPa) = 0.03162623
#
# Stress axis : x y z
#
# Youngs Moduli (GPa) = 79.51423 25.68803 45.20298
#
# Poissons Ratio (x) = 0.12099 0.00012
# Poissons Ratio (y) = 0.37450 0.73627
# Poissons Ratio (z) = 0.00022 0.41841
#
# Static dielectric constant tensor:
#      x y z
#    x 1.915490 0.039940 0.036730 
#    y 0.039940 1.871900 0.015020 
#    z 0.036730 0.015020 1.805490 
# 
# From -- ./inp_files/530147.got.cif
#   From: 2010.05.17/outbox.cif.g08.bks.cpg/sg2_266_cif.got.tgz:530147.got - 2010.06.03 11:33:40.
