data_PCOD9010372
_publ_section_title
;
Structure prediction by ZEFSAII (Michael W. Deem and Ramdas Pophale) SiO2 
 PCOD9010372
Probable space group: P -1
;
_chemical_formula_sum "Si O2"
_cell_formula_units_Z 16
_cell_length_a 6.848960
_cell_length_b 22.179188
_cell_length_c 10.536212
_cell_angle_alpha 46.818966
_cell_angle_beta 65.587724
_cell_angle_gamma 103.630757
_cell_volume 663.905683
_symmetry_space_group_name_H-M "P -1"
_symmetry_group_IT_number 2
_symmetry_cell_setting 'triclinic'
loop_
_space_group_symop_operation_xyz
x,y,z
-x,-y,-z
loop_
_atom_site_type_symbol
_atom_site_label
_atom_site_fract_x
_atom_site_fract_y
_atom_site_fract_z
Si Si1 0.520506 0.334267 0.842368
Si Si2 0.202797 0.762540 0.360777
Si Si3 0.577754 0.477860 0.827546
Si Si4 0.552034 0.584691 0.472889
Si Si5 0.642167 0.186787 0.028499
Si Si6 0.767308 0.090409 0.483416
Si Si7 0.854178 0.792347 0.532220
Si Si8 0.621102 0.876906 0.338699
O O1 0.582131 0.261348 0.985185
O O2 0.107723 0.224125 0.127491
O O3 0.702399 0.455081 0.712296
O O4 0.588625 0.376319 0.615804
O O5 0.377096 0.796373 0.398213
O O6 0.879499 0.607008 0.642258
O O7 0.084495 0.822894 0.315021
O O8 0.431876 0.824342 0.085635
O O9 0.401448 0.500777 0.764283
O O10 0.345114 0.347557 0.159502
O O11 0.500000 0.500000 0.500000
O O12 0.957356 0.714746 0.206356
O O13 0.407542 0.040887 0.347064
O O14 0.504201 0.084536 0.596280
O O15 0.915090 0.108772 0.555457
O O16 0.620010 0.793930 0.541402
O O17 0.000000 0.000000 0.000000
#
# Coordination Sequence:
#
# PCOD9010372 Si02
#       8
#     2   2   2   2   2   2   2   2
#     4  10  22  40  62  88 121 162 200 243 299 355
#     4  10  22  38  59  90 121 155 200 246 294 356
#     4   9  20  40  62  86 121 157 194 248 299 347
#     4   9  21  39  58  85 120 157 202 246 289 350
#     4  11  22  38  61  89 124 163 200 243 297 355
#     4  10  23  41  61  90 123 154 200 253 296 353
#     4  10  21  40  63  88 122 157 195 248 305 355
#     4  11  23  40  64  91 119 157 200 246 304 360
#
# _framework density 24.099810000000002
#
# number of rings (size 3 to 8) (size 9 to 14) (size 15 to 20)
#    0.000    2.000    0.000    2.250    0.000   13.500 
#    0.000    8.750    0.000    0.000    0.000    0.000 
#    0.000    0.000    0.000    0.000    0.000    0.000 
#
# Total GULP energy -89419.753021 kJ/mol
# GULP energy per Si atom -5588.734564 kJ/mol
# Density = 2.404496 g / cm^3
# Si number density = 24.099810 Si / 1000 Ang^3
#
#
#
# Elastic Constant Matrix: (Units=GPa)
#
#
# Indices 1 2 3 4 5 6 
#
# 1 146.3530 39.3152 29.9730 -9.6459 14.7777 4.8818
# 2 39.3152 76.7854 15.7371 -18.9892 12.3605 6.2106
# 3 29.9730 15.7371 87.1669 -28.5304 11.5378 14.3200
# 4 -9.6459 -18.9892 -28.5304 40.6428 -2.0002 -3.9002
# 5 14.7777 12.3605 11.5378 -2.0002 24.0480 3.6058
# 6 4.8818 6.2106 14.3200 -3.9002 3.6058 14.3731
#
#
#
# Elastic Compliance Matrix: (Units=1/GPa)
#
#
# Indices 1 2 3 4 5 6 
#
# 1 0.008530 -0.004002 -0.002752 -0.001728 -0.002259 0.001672
# 2 -0.004002 0.018130 0.002614 0.008540 -0.006639 -0.005096
# 3 -0.002752 0.002614 0.019096 0.012308 -0.005621 -0.014471
# 4 -0.001728 0.008540 0.012308 0.036151 -0.005604 -0.004151
# 5 -0.002259 -0.006639 -0.005621 -0.005604 0.049313 -0.004655
# 6 0.001672 -0.005096 -0.014471 -0.004151 -0.004655 0.085668
#
#
# Mechanical properties :
#
#
# Convention : Reuss Voigt Hill
#
# Bulk Modulus (GPa) = 26.68338 53.37289 40.02813
# Shear Modulus (GPa) = 21.03852 30.83145 25.93499
#
# Velocity S-wave (km/s) = 2.95782 3.58064 3.28403
# Velocity P-wave (km/s) = 4.77085 6.26812 5.57002
#
# Compressibility (1/GPa) = 0.03747652
#
# Stress axis : x y z
#
# Youngs Moduli (GPa) = 117.23400 55.15809 52.36572
#
# Poissons Ratio (x) = 0.22077 0.14410
# Poissons Ratio (y) = 0.46922 -0.13690
# Poissons Ratio (z) = 0.32259 -0.14420
#
# Static dielectric constant tensor:
#      x y z
#    x 1.958990 -0.028700 0.008620 
#    y -0.028700 1.940490 0.057790 
#    z 0.008620 0.057790 2.001280 
# 
# From -- ./inp_files/77824.got.cif
#   From: 2010.05.17/outbox.cif.g08.bks.cpg/sg2_39_cif.got.tgz:77824.got - 2010.06.03 11:33:40.
