data_PCOD9010336
_publ_section_title
;
Structure prediction by ZEFSAII (Michael W. Deem and Ramdas Pophale) SiO2 
 PCOD9010336
Probable space group: P -1
;
_chemical_formula_sum "Si O2"
_cell_formula_units_Z 15
_cell_length_a 12.227072
_cell_length_b 11.267521
_cell_length_c 10.731162
_cell_angle_alpha 40.290665
_cell_angle_beta 102.255238
_cell_angle_gamma 69.867321
_cell_volume 559.440848
_symmetry_space_group_name_H-M "P -1"
_symmetry_group_IT_number 2
_symmetry_cell_setting 'triclinic'
loop_
_space_group_symop_operation_xyz
x,y,z
-x,-y,-z
loop_
_atom_site_type_symbol
_atom_site_label
_atom_site_fract_x
_atom_site_fract_y
_atom_site_fract_z
Si Si1 0.778170 0.276342 0.747805
Si Si2 0.421814 0.377629 0.829843
Si Si3 0.236546 0.118126 0.015049
Si Si4 0.030610 0.926139 0.421320
Si Si5 0.927124 0.685238 0.629018
Si Si6 0.447618 0.381025 0.331746
Si Si7 0.179756 0.462502 0.103535
Si Si8 0.500000 0.000000 0.000000
O O1 0.652654 0.546084 0.396494
O O2 0.693623 0.440086 0.727895
O O3 0.735560 0.120223 0.841135
O O4 0.000000 0.000000 0.000000
O O5 0.236647 0.604762 0.684831
O O6 0.502094 0.472949 0.800399
O O7 0.564292 0.026059 0.130482
O O8 0.363051 0.952937 0.302072
O O9 0.321044 0.146459 0.915505
O O10 0.025754 0.434745 0.748786
O O11 0.899023 0.922247 0.369480
O O12 0.000000 0.000000 0.500000
O O13 0.978253 0.196962 0.141503
O O14 0.786123 0.758246 0.624166
O O15 0.086741 0.522506 0.904094
O O16 0.353692 0.374885 0.210156
#
# Coordination Sequence:
#
# PCOD9010336 Si02
#       8
#     2   2   2   2   2   2   2   1
#     4  11  21  37  60  86 114 158 199 242 300 361
#     4  11  21  39  62  85 121 159 195 248 301 357
#     4  11  21  38  60  84 120 155 197 248 297 358
#     4  10  21  40  63  86 117 159 203 247 298 354
#     4  10  21  40  64  86 118 160 204 247 300 352
#     4  11  21  39  59  88 120 158 201 244 304 360
#     4  10  22  41  62  89 120 159 202 251 297 356
#     4  12  20  38  60  86 124 156 192 248 304 350
#
# _framework density 26.812484999999999
#
# number of rings (size 3 to 8) (size 9 to 14) (size 15 to 20)
#    0.000    1.333    4.000    4.000    0.000    0.533 
#    2.400    3.333    0.000    0.000    0.000    0.000 
#    0.000    0.000    0.000    0.000    0.000    0.000 
#
# Total GULP energy -83668.791953 kJ/mol
# GULP energy per Si atom -5577.919464 kJ/mol
# Density = 2.675146 g / cm^3
# Si number density = 26.812485 Si / 1000 Ang^3
#
#
#
# Elastic Constant Matrix: (Units=GPa)
#
#
# Indices 1 2 3 4 5 6 
#
# 1 145.1572 0.2436 19.3712 6.2061 -23.6093 -6.6789
# 2 0.2436 78.2341 26.3854 -13.8696 -4.3340 -3.0497
# 3 19.3712 26.3854 62.4894 0.0694 16.9747 0.7145
# 4 6.2061 -13.8696 0.0694 42.6889 6.0563 6.4570
# 5 -23.6093 -4.3340 16.9747 6.0563 38.2278 -8.6198
# 6 -6.6789 -3.0497 0.7145 6.4570 -8.6198 44.2704
#
#
#
# Elastic Compliance Matrix: (Units=1/GPa)
#
#
# Indices 1 2 3 4 5 6 
#
# 1 0.010008 0.002741 -0.007347 -0.002807 0.011192 0.004406
# 2 0.002741 0.017591 -0.010616 0.003692 0.008472 0.002908
# 3 -0.007347 -0.010616 0.028251 0.001367 -0.019940 -0.006378
# 4 -0.002807 0.003692 0.001367 0.026929 -0.007444 -0.005568
# 5 0.011192 0.008472 -0.019940 -0.007444 0.046957 0.012822
# 6 0.004406 0.002908 -0.006378 -0.005568 0.012822 0.026865
#
#
# Mechanical properties :
#
#
# Convention : Reuss Voigt Hill
#
# Bulk Modulus (GPa) = 39.36158 41.98677 40.67418
# Shear Modulus (GPa) = 25.57353 41.02946 33.30149
#
# Velocity S-wave (km/s) = 3.09170 3.91607 3.52805
# Velocity P-wave (km/s) = 5.23994 6.01173 5.63905
#
# Compressibility (1/GPa) = 0.02540549
#
# Stress axis : x y z
#
# Youngs Moduli (GPa) = 99.91882 56.84626 35.39707
#
# Poissons Ratio (x) = -0.15582 0.26008
# Poissons Ratio (y) = -0.27388 0.37578
# Poissons Ratio (z) = 0.73414 0.60348
#
# Static dielectric constant tensor:
#      x y z
#    x 2.026160 0.017870 0.179240 
#    y 0.017870 1.997810 0.227480 
#    z 0.179240 0.227480 1.843550 
# 
# From -- ./inp_files/210174.got.cif
#   From: 2010.05.17/outbox.cif.g08.bks.cpg/sg2_106_cif.got.tgz:210174.got - 2010.06.03 11:33:40.
