data_PCOD9010132
_publ_section_title
;
Structure prediction by ZEFSAII (Michael W. Deem and Ramdas Pophale) SiO2 
 PCOD9010132
Probable space group: P -1
;
_chemical_formula_sum "Si O2"
_cell_formula_units_Z 16
_cell_length_a 13.592562
_cell_length_b 7.034418
_cell_length_c 8.441390
_cell_angle_alpha 123.423817
_cell_angle_beta 101.661210
_cell_angle_gamma 92.593451
_cell_volume 647.523244
_symmetry_space_group_name_H-M "P -1"
_symmetry_group_IT_number 2
_symmetry_cell_setting 'triclinic'
loop_
_space_group_symop_operation_xyz
x,y,z
-x,-y,-z
loop_
_atom_site_type_symbol
_atom_site_label
_atom_site_fract_x
_atom_site_fract_y
_atom_site_fract_z
Si Si1 0.669951 0.962072 0.636541
Si Si2 0.111361 0.465778 0.581155
Si Si3 0.201023 0.361398 0.280996
Si Si4 0.390363 0.880112 0.981437
Si Si5 0.003618 0.474791 0.174436
Si Si6 0.749935 0.817797 0.093789
Si Si7 0.141777 0.972901 0.493764
Si Si8 0.411696 0.393537 0.797763
O O1 0.733273 0.807002 0.692246
O O2 0.755932 0.079044 0.589295
O O3 0.584109 0.795462 0.424710
O O4 0.620350 0.097877 0.819841
O O5 0.192781 0.542682 0.503470
O O6 0.117745 0.198297 0.496615
O O7 0.000000 0.500000 0.500000
O O8 0.107868 0.584215 0.805931
O O9 0.078500 0.301702 0.173991
O O10 0.241682 0.379154 0.122870
O O11 0.380689 0.615088 0.808831
O O12 0.500000 0.000000 0.000000
O O13 0.305887 0.000992 0.929658
O O14 0.058378 0.740413 0.352335
O O15 0.000000 0.500000 0.000000
O O16 0.847378 0.949148 0.282285
O O17 0.680186 0.714787 0.168827
O O18 0.500000 0.500000 0.000000
#
# Coordination Sequence:
#
# PCOD9010132 Si02
#       8
#     2   2   2   2   2   2   2   2
#     4   9  23  43  62  93 128 164 218 259 315 387
#     4   9  19  39  59  85 122 155 203 255 311 374
#     4   9  20  40  59  86 124 158 203 262 312 373
#     4  11  23  43  65  97 131 169 215 262 326 378
#     4  11  22  36  61  91 120 163 208 256 320 379
#     4  10  22  43  63  92 126 164 218 260 313 389
#     4  10  21  40  62  88 121 163 208 261 314 376
#     4  11  23  42  66  96 131 169 211 272 314 379
#
# _framework density 24.709540000000001
#
# number of rings (size 3 to 8) (size 9 to 14) (size 15 to 20)
#    0.000    2.000    1.250    1.125    3.500    1.000 
#    0.000   13.750    0.000    0.000    0.000    0.000 
#    0.000    0.000    0.000    0.000    0.000    0.000 
#
# Total GULP energy -89098.918305 kJ/mol
# GULP energy per Si atom -5568.682394 kJ/mol
# Density = 2.465330 g / cm^3
# Si number density = 24.709540 Si / 1000 Ang^3
#
#
#
# Elastic Constant Matrix: (Units=GPa)
#
#
# Indices 1 2 3 4 5 6 
#
# 1 55.2004 0.7047 57.7404 -6.5460 -14.5121 -1.9553
# 2 0.7047 75.5262 27.6380 -7.7066 10.6291 -11.4997
# 3 57.7404 27.6380 129.1907 -20.0642 -11.6342 12.0200
# 4 -6.5460 -7.7066 -20.0642 34.8022 3.2245 -3.1368
# 5 -14.5121 10.6291 -11.6342 3.2245 42.6321 -13.9331
# 6 -1.9553 -11.4997 12.0200 -3.1368 -13.9331 39.6945
#
#
#
# Elastic Compliance Matrix: (Units=1/GPa)
#
#
# Indices 1 2 3 4 5 6 
#
# 1 0.045394 0.008297 -0.022790 -0.002503 0.012494 0.015729
# 2 0.008297 0.017634 -0.008061 0.001634 -0.001415 0.007591
# 3 -0.022790 -0.008061 0.021160 0.005517 -0.003923 -0.010806
# 4 -0.002503 0.001634 0.005517 0.032037 -0.002012 0.000505
# 5 0.012494 -0.001415 -0.003923 -0.002012 0.031117 0.012157
# 6 0.015729 0.007591 -0.010806 0.000505 0.012157 0.035746
#
#
# Mechanical properties :
#
#
# Convention : Reuss Voigt Hill
#
# Bulk Modulus (GPa) = 25.58834 48.00925 36.79880
# Shear Modulus (GPa) = 20.72775 35.01473 27.87124
#
# Velocity S-wave (km/s) = 2.89944 3.76846 3.36215
# Velocity P-wave (km/s) = 4.64620 6.19731 5.47694
#
# Compressibility (1/GPa) = 0.03908029
#
# Stress axis : x y z
#
# Youngs Moduli (GPa) = 22.02941 56.70720 47.25920
#
# Poissons Ratio (x) = -0.47053 1.07706
# Poissons Ratio (y) = -0.18279 0.38096
# Poissons Ratio (z) = 0.50206 0.45712
#
# Static dielectric constant tensor:
#      x y z
#    x 2.137710 0.008690 -0.003160 
#    y 0.008690 2.010930 -0.006230 
#    z -0.003160 -0.006230 2.240480 
# 
# From -- ./inp_files/299765.got.cif
#   From: 2010.05.17/outbox.cif.g08.bks.cpg/sg2_150_cif.got.tgz:299765.got - 2010.06.03 11:33:40.
