data_PCOD9010052
_publ_section_title
;
Structure prediction by ZEFSAII (Michael W. Deem and Ramdas Pophale) SiO2 
 PCOD9010052
Probable space group: P -1
;
_chemical_formula_sum "Si O2"
_cell_formula_units_Z 16
_cell_length_a 11.850384
_cell_length_b 17.033454
_cell_length_c 9.462207
_cell_angle_alpha 140.298141
_cell_angle_beta 140.535206
_cell_angle_gamma 31.505658
_cell_volume 597.822645
_symmetry_space_group_name_H-M "P -1"
_symmetry_group_IT_number 2
_symmetry_cell_setting 'triclinic'
loop_
_space_group_symop_operation_xyz
x,y,z
-x,-y,-z
loop_
_atom_site_type_symbol
_atom_site_label
_atom_site_fract_x
_atom_site_fract_y
_atom_site_fract_z
Si Si1 0.177789 0.255553 0.417665
Si Si2 0.112165 0.540881 0.845571
Si Si3 0.837999 0.684750 0.051327
Si Si4 0.472546 0.564986 0.343168
Si Si5 0.591699 0.196560 0.586226
Si Si6 0.151272 0.742977 0.549384
Si Si7 0.636898 0.056852 0.154614
Si Si8 0.950716 0.938670 0.038750
O O1 0.158718 0.374736 0.674974
O O2 0.420686 0.177083 0.467345
O O3 0.979219 0.378085 0.282630
O O4 0.142317 0.128584 0.245247
O O5 0.917578 0.664362 0.938503
O O6 0.340262 0.513393 0.066921
O O7 0.564378 0.786922 0.917739
O O8 0.000000 0.500000 0.000000
O O9 0.916817 0.772362 0.330808
O O10 0.539538 0.636629 0.391575
O O11 0.290616 0.691464 0.463120
O O12 0.693491 0.415996 0.428280
O O13 0.718500 0.082388 0.414678
O O14 0.775370 0.173546 0.837809
O O15 0.125635 0.885517 0.798237
O O16 0.846087 0.942734 0.094301
O O17 0.500000 0.000000 0.000000
#
# Coordination Sequence:
#
# PCOD9010052 Si02
#       8
#     2   2   2   2   2   2   2   2
#     4  11  24  43  67  97 132 179 219 270 322 389
#     4  10  22  44  66  96 134 169 225 273 319 388
#     4  11  23  41  69 102 128 172 218 272 334 386
#     4  10  21  40  61  94 126 172 216 271 325 381
#     4  12  22  38  65  96 126 172 223 266 329 380
#     4  10  23  37  62  95 136 165 210 275 333 387
#     4  12  22  36  63  99 133 169 211 275 338 383
#     4  12  24  40  62  99 137 168 216 273 331 390
#
# _framework density 26.763791999999999
#
# number of rings (size 3 to 8) (size 9 to 14) (size 15 to 20)
#    0.000    1.000    5.000    1.875    5.250    0.500 
#    0.000    0.625    0.000    1.500    0.000    0.000 
#    0.000    0.000    0.000    0.000    0.000    0.000 
#
# Total GULP energy -89660.420590 kJ/mol
# GULP energy per Si atom -5603.776287 kJ/mol
# Density = 2.670288 g / cm^3
# Si number density = 26.763792 Si / 1000 Ang^3
#
#
#
# Elastic Constant Matrix: (Units=GPa)
#
#
# Indices 1 2 3 4 5 6 
#
# 1 79.1708 22.2969 20.9241 0.7227 19.1686 -0.9890
# 2 22.2969 98.8917 26.4445 5.8378 12.2716 6.2305
# 3 20.9241 26.4445 173.8207 8.3749 35.1853 -3.6281
# 4 0.7227 5.8378 8.3749 50.9075 -3.2172 10.8798
# 5 19.1686 12.2716 35.1853 -3.2172 37.7227 5.8358
# 6 -0.9890 6.2305 -3.6281 10.8798 5.8358 34.0191
#
#
#
# Elastic Compliance Matrix: (Units=1/GPa)
#
#
# Indices 1 2 3 4 5 6 
#
# 1 0.015184 -0.002647 0.000195 -0.000962 -0.007512 0.002543
# 2 -0.002647 0.011315 -0.001209 -0.000721 -0.000979 -0.001880
# 3 0.000195 -0.001209 0.007591 -0.002230 -0.007445 0.003027
# 4 -0.000962 -0.000721 -0.002230 0.022254 0.005982 -0.008277
# 5 -0.007512 -0.000979 -0.007445 0.005982 0.039574 -0.009535
# 6 0.002543 -0.001880 0.003027 -0.008277 -0.009535 0.034419
#
#
# Mechanical properties :
#
#
# Convention : Reuss Voigt Hill
#
# Bulk Modulus (GPa) = 37.35830 54.57936 45.96883
# Shear Modulus (GPa) = 34.11058 43.34436 38.72747
#
# Velocity S-wave (km/s) = 3.57389 4.02869 3.80808
# Velocity P-wave (km/s) = 5.56948 6.48673 6.04553
#
# Compressibility (1/GPa) = 0.02676782
#
# Stress axis : x y z
#
# Youngs Moduli (GPa) = 65.85784 88.38112 131.73163
#
# Poissons Ratio (x) = 0.23394 -0.02568
# Poissons Ratio (y) = 0.17432 0.15928
# Poissons Ratio (z) = -0.01284 0.10686
#
# Static dielectric constant tensor:
#      x y z
#    x 2.080190 0.040620 -0.020600 
#    y 0.040620 2.103210 0.095950 
#    z -0.020600 0.095950 2.113010 
# 
# From -- ./inp_files/457569.got.cif
#   From: 2010.05.17/outbox.cif.g08.bks.cpg/sg2_229_cif.got.tgz:457569.got - 2010.06.03 11:33:40.
