data_PCOD9010268
_publ_section_title
;
Structure prediction by ZEFSAII (Michael W. Deem and Ramdas Pophale) SiO2 
 PCOD9010268
Probable space group: P -1
;
_chemical_formula_sum "Si O2"
_cell_formula_units_Z 15
_cell_length_a 11.020775
_cell_length_b 5.909497
_cell_length_c 11.899132
_cell_angle_alpha 111.536075
_cell_angle_beta 121.643258
_cell_angle_gamma 73.231240
_cell_volume 609.167361
_symmetry_space_group_name_H-M "P -1"
_symmetry_group_IT_number 2
_symmetry_cell_setting 'triclinic'
loop_
_space_group_symop_operation_xyz
x,y,z
-x,-y,-z
loop_
_atom_site_type_symbol
_atom_site_label
_atom_site_fract_x
_atom_site_fract_y
_atom_site_fract_z
Si Si1 0.938511 0.364052 0.168547
Si Si2 0.703754 0.612585 0.935975
Si Si3 0.500000 0.000000 0.000000
Si Si4 0.769169 0.823902 0.775137
Si Si5 0.867804 0.218474 0.590552
Si Si6 0.492182 0.773913 0.204656
Si Si7 0.345957 0.088578 0.488062
Si Si8 0.912144 0.276606 0.384684
O O1 0.824954 0.449970 0.034420
O O2 0.861209 0.313580 0.239061
O O3 0.062537 0.148758 0.152272
O O4 0.034484 0.584089 0.280767
O O5 0.749126 0.642795 0.835222
O O6 0.552840 0.498859 0.856146
O O7 0.662817 0.878921 0.018284
O O8 0.478390 0.137911 0.889505
O O9 0.727255 0.740124 0.614383
O O10 0.651491 0.055571 0.788610
O O11 0.814518 0.256780 0.442488
O O12 0.736504 0.149107 0.586444
O O13 0.974081 0.964669 0.601364
O O14 0.626502 0.799848 0.356888
O O15 0.500000 0.000000 0.500000
O O16 0.000000 0.500000 0.500000
#
# Coordination Sequence:
#
# PCOD9010268 Si02
#       8
#     2   2   1   2   2   2   2   2
#     4  11  23  40  66 101 133 172 218 280 336 401
#     4  11  25  44  68  94 132 180 224 273 337 390
#     4  10  24  50  62 100 130 176 236 268 326 408
#     4  10  23  43  62 101 134 166 225 267 336 399
#     4  10  21  40  62  94 137 174 214 275 331 386
#     4  10  24  44  70  94 130 180 221 274 331 397
#     4  10  22  43  65  96 133 173 220 268 327 397
#     4   9  20  38  62  95 130 170 219 273 334 387
#
# _framework density 24.623774999999998
#
# number of rings (size 3 to 8) (size 9 to 14) (size 15 to 20)
#    0.000    1.867    1.333    0.800    3.733    7.467 
#    4.800    1.333    0.000    0.000    0.000    0.000 
#    0.000    0.000    0.000    0.000    0.000    0.000 
#
# Total GULP energy -83557.976764 kJ/mol
# GULP energy per Si atom -5570.531784 kJ/mol
# Density = 2.456773 g / cm^3
# Si number density = 24.623775 Si / 1000 Ang^3
#
#
#
# Elastic Constant Matrix: (Units=GPa)
#
#
# Indices 1 2 3 4 5 6 
#
# 1 75.8116 6.2179 45.3989 -8.0797 -30.1393 14.5842
# 2 6.2179 37.9989 45.5310 -10.6471 -3.8058 7.5484
# 3 45.3989 45.5310 163.9183 -40.8214 -17.1553 30.8166
# 4 -8.0797 -10.6471 -40.8214 54.3605 12.3942 -6.1633
# 5 -30.1393 -3.8058 -17.1553 12.3942 43.3626 -14.1480
# 6 14.5842 7.5484 30.8166 -6.1633 -14.1480 48.6921
#
#
#
# Elastic Compliance Matrix: (Units=1/GPa)
#
#
# Indices 1 2 3 4 5 6 
#
# 1 0.022359 0.005239 -0.007381 -0.004431 0.014624 0.000850
# 2 0.005239 0.040741 -0.013051 -0.001574 0.002829 0.000998
# 3 -0.007381 -0.013051 0.014087 0.007369 -0.004454 -0.005043
# 4 -0.004431 -0.001574 0.007369 0.024540 -0.008078 -0.002334
# 5 0.014624 0.002829 -0.004454 -0.008078 0.036495 0.007581
# 6 0.000850 0.000998 -0.005043 -0.002334 0.007581 0.025227
#
#
# Mechanical properties :
#
#
# Convention : Reuss Voigt Hill
#
# Bulk Modulus (GPa) = 21.36653 52.44715 36.90684
# Shear Modulus (GPa) = 23.87381 41.32177 32.59779
#
# Velocity S-wave (km/s) = 3.11713 4.10094 3.64240
# Velocity P-wave (km/s) = 4.65310 6.61583 5.71929
#
# Compressibility (1/GPa) = 0.04680218
#
# Stress axis : x y z
#
# Youngs Moduli (GPa) = 44.72506 24.54503 70.98759
#
# Poissons Ratio (x) = -0.12859 0.52393
# Poissons Ratio (y) = -0.23432 0.92647
# Poissons Ratio (z) = 0.33010 0.32034
#
# Static dielectric constant tensor:
#      x y z
#    x 1.867530 0.022710 -0.086070 
#    y 0.022710 1.984520 0.119770 
#    z -0.086070 0.119770 1.951990 
# 
# From -- ./inp_files/409523.got.cif
#   From: 2010.05.17/outbox.cif.g08.bks.cpg/sg2_205_cif.got.tgz:409523.got - 2010.06.03 11:33:40.
