data_PCOD9010060
_publ_section_title
;
Structure prediction by ZEFSAII (Michael W. Deem and Ramdas Pophale) SiO2 
 PCOD9010060
Probable space group: P -1
;
_chemical_formula_sum "Si O2"
_cell_formula_units_Z 15
_cell_length_a 8.436592
_cell_length_b 9.053929
_cell_length_c 11.549817
_cell_angle_alpha 96.285346
_cell_angle_beta 130.050927
_cell_angle_gamma 66.827275
_cell_volume 607.749405
_symmetry_space_group_name_H-M "P -1"
_symmetry_group_IT_number 2
_symmetry_cell_setting 'triclinic'
loop_
_space_group_symop_operation_xyz
x,y,z
-x,-y,-z
loop_
_atom_site_type_symbol
_atom_site_label
_atom_site_fract_x
_atom_site_fract_y
_atom_site_fract_z
Si Si1 0.753386 0.872048 0.064034
Si Si2 0.826624 0.065216 0.283488
Si Si3 0.690515 0.986721 0.431197
Si Si4 0.000000 0.000000 0.000000
Si Si5 0.344019 0.524603 0.211156
Si Si6 0.954962 0.481682 0.134122
Si Si7 0.305065 0.609640 0.829415
Si Si8 0.382472 0.838668 0.347957
O O1 0.809620 0.679753 0.069569
O O2 0.903221 0.890530 0.244338
O O3 0.834632 0.934098 0.993990
O O4 0.500000 0.000000 0.000000
O O5 0.642030 0.081020 0.295208
O O6 0.739249 0.203790 0.156879
O O7 0.035134 0.092532 0.438609
O O8 0.608700 0.107701 0.512192
O O9 0.595843 0.851030 0.385439
O O10 0.165693 0.970719 0.188799
O O11 0.584011 0.431524 0.249383
O O12 0.367285 0.668703 0.305104
O O13 0.215885 0.441530 0.222364
O O14 0.157450 0.592786 0.022720
O O15 0.908776 0.422813 0.231900
O O16 0.500000 0.500000 0.000000
#
# Coordination Sequence:
#
# PCOD9010060 Si02
#       8
#     2   2   2   1   2   2   2   2
#     4  12  24  37  68 110 137 177 229 300 350 403
#     4  11  23  46  69 100 140 189 237 287 344 427
#     4  10  24  46  72  94 144 190 238 278 354 428
#     4  12  24  38  70 110 136 168 244 298 348 392
#     4  10  21  40  61  94 139 178 217 282 348 417
#     4  10  22  38  62  98 145 175 215 283 366 404
#     4  10  23  39  66 103 138 176 227 287 349 409
#     4  11  23  43  68 105 134 186 233 294 349 415
#
# _framework density 24.681225000000001
#
# number of rings (size 3 to 8) (size 9 to 14) (size 15 to 20)
#    0.000    1.333    2.667    2.400    7.467    0.000 
#    4.800    1.333    0.000    0.000    0.000    0.000 
#    0.000    0.000    0.000    0.000    0.000    0.000 
#
# Total GULP energy -83514.807412 kJ/mol
# GULP energy per Si atom -5567.653827 kJ/mol
# Density = 2.462505 g / cm^3
# Si number density = 24.681225 Si / 1000 Ang^3
#
#
#
# Elastic Constant Matrix: (Units=GPa)
#
#
# Indices 1 2 3 4 5 6 
#
# 1 218.1503 50.4007 7.4153 13.9774 0.3542 36.9495
# 2 50.4007 64.0072 15.0126 13.3225 -10.6887 7.1872
# 3 7.4153 15.0126 45.9173 14.6505 1.9251 10.3541
# 4 13.9774 13.3225 14.6505 32.8797 7.5581 2.0068
# 5 0.3542 -10.6887 1.9251 7.5581 39.6199 3.8171
# 6 36.9495 7.1872 10.3541 2.0068 3.8171 42.9978
#
#
#
# Elastic Compliance Matrix: (Units=1/GPa)
#
#
# Indices 1 2 3 4 5 6 
#
# 1 0.006644 -0.005019 0.002194 -0.001270 -0.000770 -0.005272
# 2 -0.005019 0.023397 -0.005266 -0.006872 0.007799 0.001299
# 3 0.002194 -0.005266 0.028288 -0.010953 -0.000022 -0.007304
# 4 -0.001270 -0.006872 -0.010953 0.040549 -0.009414 0.003821
# 5 -0.000770 0.007799 -0.000022 -0.009414 0.029418 -0.002809
# 6 -0.005272 0.001299 -0.007304 0.003821 -0.002809 0.029400
#
#
# Mechanical properties :
#
#
# Convention : Reuss Voigt Hill
#
# Bulk Modulus (GPa) = 23.72604 52.63690 38.18147
# Shear Modulus (GPa) = 26.60574 40.11590 33.36082
#
# Velocity S-wave (km/s) = 3.28681 4.03595 3.68049
# Velocity P-wave (km/s) = 4.90286 6.56441 5.79351
#
# Compressibility (1/GPa) = 0.04214778
#
# Stress axis : x y z
#
# Youngs Moduli (GPa) = 150.50105 42.73989 35.35028
#
# Poissons Ratio (x) = 0.21451 -0.07756
# Poissons Ratio (y) = 0.75535 0.18617
# Poissons Ratio (z) = -0.33021 0.22508
#
# Static dielectric constant tensor:
#      x y z
#    x 2.075290 -0.011980 0.057400 
#    y -0.011980 1.959700 -0.033520 
#    z 0.057400 -0.033520 2.076950 
# 
# From -- ./inp_files/382771.got.cif
#   From: 2010.05.17/outbox.cif.g08.bks.cpg/sg2_192_cif.got.tgz:382771.got - 2010.06.03 11:33:40.
