data_PCOD9010978
_publ_section_title
;
Structure prediction by ZEFSAII (Michael W. Deem and Ramdas Pophale) SiO2 
 PCOD9010978
Probable space group: P -1
;
_chemical_formula_sum "Si O2"
_cell_formula_units_Z 14
_cell_length_a 13.219700
_cell_length_b 8.506855
_cell_length_c 6.869379
_cell_angle_alpha 50.885074
_cell_angle_beta 80.559449
_cell_angle_gamma 69.055089
_cell_volume 557.758232
_symmetry_space_group_name_H-M "P -1"
_symmetry_group_IT_number 2
_symmetry_cell_setting 'triclinic'
loop_
_space_group_symop_operation_xyz
x,y,z
-x,-y,-z
loop_
_atom_site_type_symbol
_atom_site_label
_atom_site_fract_x
_atom_site_fract_y
_atom_site_fract_z
Si Si1 0.631381 0.661172 0.703393
Si Si2 0.994817 0.815278 0.417081
Si Si3 0.552721 0.017266 0.764780
Si Si4 0.195631 0.454629 0.725641
Si Si5 0.084853 0.138304 0.003830
Si Si6 0.621352 0.373279 0.624250
Si Si7 0.870245 0.544679 0.822313
O O1 0.545139 0.831888 0.457420
O O2 0.624266 0.429289 0.812642
O O3 0.759761 0.622217 0.672433
O O4 0.702126 0.485016 0.419362
O O5 0.920723 0.925211 0.170670
O O6 0.918722 0.740774 0.646280
O O7 0.092061 0.591688 0.523432
O O8 0.069045 0.966441 0.294597
O O9 0.636141 0.144566 0.696291
O O10 0.500000 0.000000 0.000000
O O11 0.398740 0.214439 0.176219
O O12 0.188469 0.216683 0.916393
O O13 0.166256 0.518427 0.908684
O O14 0.974623 0.340644 0.902213
O O15 0.500000 0.500000 0.500000
#
# Coordination Sequence:
#
# PCOD9010978 Si02
#       7
#     2   2   2   2   2   2   2
#     4  10  23  45  69 102 142 177 234 297 347 431
#     4  10  21  40  64  98 133 181 238 286 351 427
#     4  10  24  47  71 102 137 185 238 293 360 426
#     4  11  23  40  64  96 138 187 234 291 355 421
#     4  10  21  40  66  92 136 185 231 291 351 426
#     4  10  23  45  69  98 139 182 237 292 352 420
#     4  11  23  39  65 100 139 179 235 292 353 424
#
# _framework density 25.100480000000001
#
# number of rings (size 3 to 8) (size 9 to 14) (size 15 to 20)
#    0.000    1.714    0.000    5.143    4.000    5.143 
#   12.857    0.000    0.000    0.000    0.000    0.000 
#    0.000    0.000    0.000    0.000    0.000    0.000 
#
# Total GULP energy -77976.791237 kJ/mol
# GULP energy per Si atom -5569.770803 kJ/mol
# Density = 2.504335 g / cm^3
# Si number density = 25.100480 Si / 1000 Ang^3
#
#
#
# Elastic Constant Matrix: (Units=GPa)
#
#
# Indices 1 2 3 4 5 6 
#
# 1 141.7709 34.4765 35.7461 -2.0445 -15.1738 18.6541
# 2 34.4765 126.7464 32.6309 25.3328 -16.9108 14.3006
# 3 35.7461 32.6309 81.9935 -10.5388 -12.7894 1.3971
# 4 -2.0445 25.3328 -10.5388 23.7500 -2.4724 -4.1988
# 5 -15.1738 -16.9108 -12.7894 -2.4724 51.5253 -9.5891
# 6 18.6541 14.3006 1.3971 -4.1988 -9.5891 31.9284
#
#
#
# Elastic Compliance Matrix: (Units=1/GPa)
#
#
# Indices 1 2 3 4 5 6 
#
# 1 0.008756 -0.000772 -0.003427 -0.000682 0.000599 -0.004530
# 2 -0.000772 0.015891 -0.008720 -0.022517 0.000024 -0.009239
# 3 -0.003427 -0.008720 0.020146 0.019881 0.003713 0.008756
# 4 -0.000682 -0.022517 0.019881 0.079239 0.005163 0.021585
# 5 0.000599 0.000024 0.003713 0.005163 0.022021 0.006770
# 6 -0.004530 -0.009239 0.008756 0.021585 0.006770 0.042593
#
#
# Mechanical properties :
#
#
# Convention : Reuss Voigt Hill
#
# Bulk Modulus (GPa) = 52.76138 61.80198 57.28168
# Shear Modulus (GPa) = 22.64465 37.95123 30.29794
#
# Velocity S-wave (km/s) = 3.00686 3.89263 3.47805
# Velocity P-wave (km/s) = 5.75505 6.69915 6.24497
#
# Compressibility (1/GPa) = 0.01895326
#
# Stress axis : x y z
#
# Youngs Moduli (GPa) = 114.21100 62.92908 49.63826
#
# Poissons Ratio (x) = 0.04859 0.17010
# Poissons Ratio (y) = 0.08820 0.43287
# Poissons Ratio (z) = 0.39139 0.54877
#
# Static dielectric constant tensor:
#      x y z
#    x 1.947020 0.035850 -0.008140 
#    y 0.035850 2.238790 -0.006850 
#    z -0.008140 -0.006850 1.985510 
# 
# From -- ./inp_files/329810.got.cif
#   From: 2010.05.17/outbox.cif.g08.bks.cpg/sg2_165_cif.got.tgz:329810.got - 2010.06.03 11:33:40.
