data_PCOD9010088
_publ_section_title
;
Structure prediction by ZEFSAII (Michael W. Deem and Ramdas Pophale) SiO2 
 PCOD9010088
Probable space group: P -1
;
_chemical_formula_sum "Si O2"
_cell_formula_units_Z 12
_cell_length_a 8.841535
_cell_length_b 9.187023
_cell_length_c 13.365685
_cell_angle_alpha 98.591152
_cell_angle_beta 32.816968
_cell_angle_gamma 114.937713
_cell_volume 484.906552
_symmetry_space_group_name_H-M "P -1"
_symmetry_group_IT_number 2
_symmetry_cell_setting 'triclinic'
loop_
_space_group_symop_operation_xyz
x,y,z
-x,-y,-z
loop_
_atom_site_type_symbol
_atom_site_label
_atom_site_fract_x
_atom_site_fract_y
_atom_site_fract_z
Si Si1 0.352281 0.793186 0.681573
Si Si2 0.582408 0.217177 0.038151
Si Si3 0.250714 0.259328 0.715431
Si Si4 0.502917 0.600644 0.733639
Si Si5 0.206756 0.135913 0.029801
Si Si6 0.279267 0.903378 0.341291
O O1 0.503921 0.751312 0.498691
O O2 0.306600 0.661129 0.780540
O O3 0.016546 0.785322 0.847000
O O4 0.622796 0.987575 0.598286
O O5 0.589138 0.379701 0.101218
O O6 0.363970 0.163757 0.055374
O O7 0.405865 0.051953 0.198045
O O8 0.959547 0.266488 0.819368
O O9 0.425910 0.421776 0.710543
O O10 0.045167 0.073986 0.867692
O O11 0.894063 0.755585 0.525283
O O12 0.518080 0.189353 0.791570
#
# Coordination Sequence:
#
# PCOD9010088 Si02
#       6
#     2   2   2   2   2   2
#     4  11  22  38  62  89 116 152 196 241 286 342
#     4  10  21  40  62  84 116 160 196 228 286 360
#     4  11  22  38  62  89 116 152 196 241 286 342
#     4  11  22  40  62  87 116 154 196 239 286 344
#     4  11  22  40  62  87 116 154 196 239 286 344
#     4  10  21  40  62  84 116 160 196 228 286 360
#
# _framework density 24.747036999999999
#
# number of rings (size 3 to 8) (size 9 to 14) (size 15 to 20)
#    0.000    1.333    0.000    9.000    0.000    0.000 
#    0.000    6.667    0.000    0.000    0.000    0.000 
#    0.000    0.000    0.000    0.000    0.000    0.000 
#
# Total GULP energy -67256.424656 kJ/mol
# GULP energy per Si atom -5604.702055 kJ/mol
# Density = 2.469071 g / cm^3
# Si number density = 24.747037 Si / 1000 Ang^3
#
#
#
# Elastic Constant Matrix: (Units=GPa)
#
#
# Indices 1 2 3 4 5 6 
#
# 1 105.7349 68.4076 52.5404 21.9255 -36.8704 8.9500
# 2 68.4076 177.1984 93.7296 25.9341 -19.3314 33.8348
# 3 52.5404 93.7296 132.2367 44.6811 -33.9347 14.7710
# 4 21.9255 25.9341 44.6811 49.0895 0.2181 3.3804
# 5 -36.8704 -19.3314 -33.9347 0.2181 32.2638 2.0243
# 6 8.9500 33.8348 14.7710 3.3804 2.0243 33.9219
#
#
#
# Elastic Compliance Matrix: (Units=1/GPa)
#
#
# Indices 1 2 3 4 5 6 
#
# 1 0.026898 -0.009396 0.012466 -0.018318 0.038572 -0.003629
# 2 -0.009396 0.014037 -0.012103 0.008289 -0.014724 -0.006199
# 3 0.012466 -0.012103 0.031454 -0.027668 0.040551 -0.004576
# 4 -0.018318 0.008289 -0.027668 0.049116 -0.045804 0.006451
# 5 0.038572 -0.014724 0.040551 -0.045804 0.110163 -0.015158
# 6 -0.003629 -0.006199 -0.004576 0.006451 -0.015158 0.038874
#
#
# Mechanical properties :
#
#
# Convention : Reuss Voigt Hill
#
# Bulk Modulus (GPa) = 18.40863 93.83615 56.12239
# Shear Modulus (GPa) = 16.30172 36.42120 26.36146
#
# Velocity S-wave (km/s) = 2.56937 3.84049 3.26734
# Velocity P-wave (km/s) = 4.03200 7.59383 6.07961
#
# Compressibility (1/GPa) = 0.05432234
#
# Stress axis : x y z
#
# Youngs Moduli (GPa) = 37.17753 71.24167 31.79234
#
# Poissons Ratio (x) = 0.66938 -0.39631
# Poissons Ratio (y) = 0.34932 0.38478
# Poissons Ratio (z) = -0.46344 0.86224
#
# Static dielectric constant tensor:
#      x y z
#    x 1.964460 -0.012360 0.017470 
#    y -0.012360 2.005430 0.034950 
#    z 0.017470 0.034950 1.999080 
# 
# From -- ./inp_files/147781.got.cif
#   From: 2010.05.17/outbox.cif.g08.bks.cpg/sg2_74_cif.got.tgz:147781.got - 2010.06.03 11:33:40.
