data_PCOD9010276
_publ_section_title
;
Structure prediction by ZEFSAII (Michael W. Deem and Ramdas Pophale) SiO2 
 PCOD9010276
Probable space group: P -1
;
_chemical_formula_sum "Si O2"
_cell_formula_units_Z 16
_cell_length_a 9.564114
_cell_length_b 8.209296
_cell_length_c 15.048933
_cell_angle_alpha 80.456342
_cell_angle_beta 36.995305
_cell_angle_gamma 88.741483
_cell_volume 688.909883
_symmetry_space_group_name_H-M "P -1"
_symmetry_group_IT_number 2
_symmetry_cell_setting 'triclinic'
loop_
_space_group_symop_operation_xyz
x,y,z
-x,-y,-z
loop_
_atom_site_type_symbol
_atom_site_label
_atom_site_fract_x
_atom_site_fract_y
_atom_site_fract_z
Si Si1 0.920660 0.600029 0.944231
Si Si2 0.476617 0.755583 0.109120
Si Si3 0.635007 0.176009 0.374464
Si Si4 0.141120 0.350414 0.748506
Si Si5 0.654244 0.418267 0.514465
Si Si6 0.127927 0.763535 0.437327
Si Si7 0.317114 0.854148 0.996355
Si Si8 0.370869 0.143527 0.330186
O O1 0.105712 0.772411 0.809187
O O2 0.967660 0.473429 0.854587
O O3 0.658516 0.641551 0.063994
O O4 0.000000 0.500000 0.000000
O O5 0.236875 0.733878 0.289722
O O6 0.595588 0.949457 0.048116
O O7 0.411404 0.751436 0.038421
O O8 0.660379 0.295608 0.437547
O O9 0.474432 0.195348 0.368998
O O10 0.500000 0.000000 0.500000
O O11 0.377896 0.384209 0.684469
O O12 0.243927 0.401205 0.594956
O O13 0.967939 0.175221 0.858098
O O14 0.813346 0.376990 0.515154
O O15 0.855539 0.772726 0.577113
O O16 0.271650 0.942425 0.387424
O O17 0.430918 0.810993 0.850038
#
# Coordination Sequence:
#
# PCOD9010276 Si02
#       8
#     2   2   2   2   2   2   2   2
#     4  11  24  43  64  95 139 179 226 281 342 408
#     4  10  24  41  71  98 135 175 229 279 333 402
#     4  11  23  38  68 102 129 179 230 282 338 400
#     4  10  23  41  65  90 136 173 218 271 341 398
#     4  10  22  41  64  93 133 176 219 272 336 402
#     4  10  21  40  62  95 133 172 214 276 331 393
#     4  10  23  43  67 103 131 177 224 281 336 398
#     4  10  22  38  65  98 135 167 222 277 335 397
#
# _framework density 23.225099
#
# number of rings (size 3 to 8) (size 9 to 14) (size 15 to 20)
#    0.000    1.750    1.250    1.500    7.000    1.500 
#    2.250    3.750    0.000    0.000    0.000    0.000 
#    0.000    0.000    0.000    0.000    0.000    0.000 
#
# Total GULP energy -89302.089619 kJ/mol
# GULP energy per Si atom -5581.380601 kJ/mol
# Density = 2.317224 g / cm^3
# Si number density = 23.225099 Si / 1000 Ang^3
#
#
#
# Elastic Constant Matrix: (Units=GPa)
#
#
# Indices 1 2 3 4 5 6 
#
# 1 80.0980 12.8959 39.3340 0.9562 13.7747 -0.9675
# 2 12.8959 42.4358 25.8927 5.6276 7.5917 -3.3248
# 3 39.3340 25.8927 123.6011 -8.6358 -1.5847 8.8257
# 4 0.9562 5.6276 -8.6358 32.1041 1.4917 -1.9825
# 5 13.7747 7.5917 -1.5847 1.4917 43.2694 -1.6606
# 6 -0.9675 -3.3248 8.8257 -1.9825 -1.6606 32.9841
#
#
#
# Elastic Compliance Matrix: (Units=1/GPa)
#
#
# Indices 1 2 3 4 5 6 
#
# 1 0.016076 -0.000412 -0.005308 -0.001503 -0.005130 0.001502
# 2 -0.000412 0.030071 -0.007000 -0.006647 -0.005009 0.004240
# 3 -0.005308 -0.007000 0.011838 0.004203 0.003067 -0.003622
# 4 -0.001503 -0.006647 0.004203 0.033472 0.000653 0.000206
# 5 -0.005130 -0.005009 0.003067 0.000653 0.025708 -0.000143
# 6 0.001502 0.004240 -0.003622 0.000206 -0.000143 0.031763
#
#
# Mechanical properties :
#
#
# Convention : Reuss Voigt Hill
#
# Bulk Modulus (GPa) = 30.72605 44.70892 37.71749
# Shear Modulus (GPa) = 26.99573 32.87232 29.93402
#
# Velocity S-wave (km/s) = 3.41303 3.76623 3.59397
# Velocity P-wave (km/s) = 5.36564 6.18100 5.78769
#
# Compressibility (1/GPa) = 0.03254567
#
# Stress axis : x y z
#
# Youngs Moduli (GPa) = 62.20525 33.25448 84.47692
#
# Poissons Ratio (x) = 0.01370 0.44837
# Poissons Ratio (y) = 0.02563 0.59132
# Poissons Ratio (z) = 0.33016 0.23277
#
# Static dielectric constant tensor:
#      x y z
#    x 1.848820 0.022610 -0.022190 
#    y 0.022610 1.933400 -0.054590 
#    z -0.022190 -0.054590 1.910600 
# 
# From -- ./inp_files/494582.got.cif
#   From: 2010.05.17/outbox.cif.g08.bks.cpg/sg2_248_cif.got.tgz:494582.got - 2010.06.03 11:33:40.
