data_PCOD9010125
_publ_section_title
;
Structure prediction by ZEFSAII (Michael W. Deem and Ramdas Pophale) SiO2 
 PCOD9010125
Probable space group: P -1
;
_chemical_formula_sum "Si O2"
_cell_formula_units_Z 16
_cell_length_a 12.346578
_cell_length_b 7.497474
_cell_length_c 21.169658
_cell_angle_alpha 47.576588
_cell_angle_beta 140.836226
_cell_angle_gamma 103.935627
_cell_volume 727.141886
_symmetry_space_group_name_H-M "P -1"
_symmetry_group_IT_number 2
_symmetry_cell_setting 'triclinic'
loop_
_space_group_symop_operation_xyz
x,y,z
-x,-y,-z
loop_
_atom_site_type_symbol
_atom_site_label
_atom_site_fract_x
_atom_site_fract_y
_atom_site_fract_z
Si Si1 0.075252 0.277937 0.228442
Si Si2 0.790354 0.337703 0.331506
Si Si3 0.540082 0.444884 0.405447
Si Si4 0.342777 0.552475 0.053589
Si Si5 0.089081 0.221191 0.756820
Si Si6 0.346009 0.279472 0.251216
Si Si7 0.142985 0.591502 0.514937
Si Si8 0.724250 0.568209 0.611516
O O1 0.140335 0.325370 0.177915
O O2 0.124593 0.429869 0.268625
O O3 0.260474 0.915177 0.409884
O O4 0.826221 0.415748 0.079808
O O5 0.595718 0.370552 0.200025
O O6 0.833505 0.569425 0.268209
O O7 0.765416 0.364117 0.390561
O O8 0.000000 0.000000 0.500000
O O9 0.402460 0.440641 0.288665
O O10 0.645352 0.600563 0.388660
O O11 0.395604 0.550020 0.377843
O O12 0.321178 0.415883 0.139641
O O13 0.261820 0.897499 0.943256
O O14 0.031693 0.171205 0.672697
O O15 0.876501 0.383343 0.665640
O O16 0.541967 0.919509 0.427171
O O17 0.000000 0.500000 0.500000
#
# Coordination Sequence:
#
# PCOD9010125 Si02
#       8
#     2   2   2   2   2   2   2   2
#     4   9  19  35  61  90 120 164 202 252 292 354
#     4  11  25  44  68  85 114 162 216 250 294 375
#     4   9  16  37  64  87 119 169 202 246 291 349
#     4  12  21  37  62  89 128 157 190 262 320 349
#     4  11  24  39  60  96 124 156 198 257 312 352
#     4   9  18  35  63  87 120 166 209 237 294 358
#     4  10  21  40  62  87 123 158 205 251 303 357
#     4   9  20  39  64  91 123 160 214 240 285 375
#
# _framework density 22.003958000000001
#
# number of rings (size 3 to 8) (size 9 to 14) (size 15 to 20)
#    0.000    2.000    2.500    3.000    1.750    0.500 
#    0.000   10.000    2.750    0.000    0.000    0.000 
#    0.000    0.000    0.000    0.000    0.000    0.000 
#
# Total GULP energy -89113.255295 kJ/mol
# GULP energy per Si atom -5569.578456 kJ/mol
# Density = 2.195388 g / cm^3
# Si number density = 22.003958 Si / 1000 Ang^3
#
#
#
# Elastic Constant Matrix: (Units=GPa)
#
#
# Indices 1 2 3 4 5 6 
#
# 1 133.0569 22.6961 37.2653 2.3754 5.5828 10.1230
# 2 22.6961 34.7423 19.7643 12.9257 6.0215 7.1042
# 3 37.2653 19.7643 103.2969 12.8920 17.8136 10.6041
# 4 2.3754 12.9257 12.8920 31.4346 9.9524 3.0906
# 5 5.5828 6.0215 17.8136 9.9524 36.3908 5.8076
# 6 10.1230 7.1042 10.6041 3.0906 5.8076 34.3952
#
#
#
# Elastic Compliance Matrix: (Units=1/GPa)
#
#
# Indices 1 2 3 4 5 6 
#
# 1 0.009159 -0.005315 -0.002529 0.002580 0.000179 -0.001080
# 2 -0.005315 0.040559 -0.003673 -0.014515 0.000586 -0.004475
# 3 -0.002529 -0.003673 0.012426 -0.001879 -0.004346 -0.001425
# 4 0.002580 -0.014515 -0.001879 0.040949 -0.008361 0.000550
# 5 0.000179 0.000586 -0.004346 -0.008361 0.032334 -0.003542
# 6 -0.001080 -0.004475 -0.001425 0.000550 -0.003542 0.031304
#
#
# Mechanical properties :
#
#
# Convention : Reuss Voigt Hill
#
# Bulk Modulus (GPa) = 25.56893 47.83862 36.70378
# Shear Modulus (GPa) = 24.65454 33.20215 28.92835
#
# Velocity S-wave (km/s) = 3.35096 3.88869 3.62980
# Velocity P-wave (km/s) = 5.15919 6.47693 5.85525
#
# Compressibility (1/GPa) = 0.03910996
#
# Stress axis : x y z
#
# Youngs Moduli (GPa) = 109.18084 24.65572 80.47414
#
# Poissons Ratio (x) = 0.13103 0.20355
# Poissons Ratio (y) = 0.58024 0.29559
# Poissons Ratio (z) = 0.27616 0.09056
#
# Static dielectric constant tensor:
#      x y z
#    x 1.885130 0.002250 -0.020040 
#    y 0.002250 1.979550 0.083690 
#    z -0.020040 0.083690 1.819840 
# 
# From -- ./inp_files/343773.got.cif
#   From: 2010.05.17/outbox.cif.g08.bks.cpg/sg2_172_cif.got.tgz:343773.got - 2010.06.03 11:33:40.
