data_PCOD9010529
_publ_section_title
;
Structure prediction by ZEFSAII (Michael W. Deem and Ramdas Pophale) SiO2 
 PCOD9010529
Probable space group: P -1
;
_chemical_formula_sum "Si O2"
_cell_formula_units_Z 16
_cell_length_a 11.907380
_cell_length_b 16.495985
_cell_length_c 8.416611
_cell_angle_alpha 131.566232
_cell_angle_beta 119.250814
_cell_angle_gamma 33.065068
_cell_volume 665.592053
_symmetry_space_group_name_H-M "P -1"
_symmetry_group_IT_number 2
_symmetry_cell_setting 'triclinic'
loop_
_space_group_symop_operation_xyz
x,y,z
-x,-y,-z
loop_
_atom_site_type_symbol
_atom_site_label
_atom_site_fract_x
_atom_site_fract_y
_atom_site_fract_z
Si Si1 0.283912 0.127756 0.429220
Si Si2 0.087521 0.640614 0.312026
Si Si3 0.963945 0.973110 0.614714
Si Si4 0.027780 0.134728 0.063121
Si Si5 0.925043 0.401270 0.108390
Si Si6 0.379046 0.527534 0.596776
Si Si7 0.486765 0.717544 0.393061
Si Si8 0.643887 0.812961 0.777198
O O1 0.295872 0.193701 0.368838
O O2 0.118898 0.268643 0.632554
O O3 0.201306 0.069065 0.217516
O O4 0.500000 0.000000 0.500000
O O5 0.259071 0.511669 0.398968
O O6 0.132400 0.568527 0.075868
O O7 0.049005 0.795778 0.462987
O O8 0.711332 0.136619 0.666025
O O9 0.059371 0.994938 0.833662
O O10 0.000000 0.000000 0.500000
O O11 0.002047 0.237187 0.031589
O O12 0.806821 0.285816 0.200565
O O13 0.712576 0.568399 0.271740
O O14 0.128728 0.343075 0.187388
O O15 0.500000 0.500000 0.500000
O O16 0.526889 0.384987 0.651412
O O17 0.498661 0.805042 0.644377
O O18 0.500000 0.000000 0.000000
#
# Coordination Sequence:
#
# PCOD9010529 Si02
#       8
#     2   2   2   2   2   2   2   2
#     4  10  21  40  63  93 131 164 212 278 338 379
#     4  11  23  42  66  97 133 173 218 284 336 388
#     4  12  23  40  67 100 132 176 236 270 326 408
#     4   9  22  38  64  93 130 176 219 271 327 399
#     4  10  21  41  67  93 130 175 224 273 333 403
#     4  10  23  42  62  96 139 172 213 274 338 395
#     4  11  25  42  69  96 129 181 227 267 339 407
#     4  11  23  44  69  96 131 177 228 278 331 403
#
# _framework density 24.038747000000001
#
# number of rings (size 3 to 8) (size 9 to 14) (size 15 to 20)
#    0.000    1.500    1.250    4.125    3.500    3.000 
#    2.250    3.750    0.000    0.000    0.000    0.000 
#    0.000    0.000    0.000    0.000    0.000    0.000 
#
# Total GULP energy -89459.466537 kJ/mol
# GULP energy per Si atom -5591.216659 kJ/mol
# Density = 2.398403 g / cm^3
# Si number density = 24.038747 Si / 1000 Ang^3
#
#
#
# Elastic Constant Matrix: (Units=GPa)
#
#
# Indices 1 2 3 4 5 6 
#
# 1 73.2128 1.5714 15.2255 21.6699 -11.1480 -4.6711
# 2 1.5714 92.6403 14.0035 -5.3495 10.7894 -13.4506
# 3 15.2255 14.0035 93.5782 -6.6899 -6.0571 9.2026
# 4 21.6699 -5.3495 -6.6899 13.9445 -1.8416 -8.0901
# 5 -11.1480 10.7894 -6.0571 -1.8416 41.9860 -5.1870
# 6 -4.6711 -13.4506 9.2026 -8.0901 -5.1870 41.3262
#
#
#
# Elastic Compliance Matrix: (Units=1/GPa)
#
#
# Indices 1 2 3 4 5 6 
#
# 1 0.034487 -0.004675 -0.008329 -0.062956 0.005480 -0.007405
# 2 -0.004675 0.013243 -0.000992 0.015246 -0.003307 0.006572
# 3 -0.008329 -0.000992 0.013642 0.018921 0.000779 -0.000500
# 4 -0.062956 0.015246 0.018921 0.202794 -0.004968 0.032709
# 5 0.005480 -0.003307 0.000779 -0.004968 0.026226 0.001689
# 6 -0.007405 0.006572 -0.000500 0.032709 0.001689 0.032226
#
#
# Mechanical properties :
#
#
# Convention : Reuss Voigt Hill
#
# Bulk Modulus (GPa) = 29.95688 35.67023 32.81355
# Shear Modulus (GPa) = 13.82217 34.69340 24.25778
#
# Velocity S-wave (km/s) = 2.40051 3.80311 3.18010
# Velocity P-wave (km/s) = 4.49135 5.84429 5.21190
#
# Compressibility (1/GPa) = 0.03338131
#
# Stress axis : x y z
#
# Youngs Moduli (GPa) = 28.99611 75.50949 73.30191
#
# Poissons Ratio (x) = 0.35299 0.61056
# Poissons Ratio (y) = 0.13555 0.07269
# Poissons Ratio (z) = 0.24152 0.07488
#
# Static dielectric constant tensor:
#      x y z
#    x 2.081680 -0.282460 0.007560 
#    y -0.282460 2.545990 0.106220 
#    z 0.007560 0.106220 1.912150 
# 
# From -- ./inp_files/279955.got.cif
#   From: 2010.05.17/outbox.cif.g08.bks.cpg/sg2_140_cif.got.tgz:279955.got - 2010.06.03 11:33:40.
