data_PCOD9010901
_publ_section_title
;
Structure prediction by ZEFSAII (Michael W. Deem and Ramdas Pophale) SiO2 
 PCOD9010901
Probable space group: P -1
;
_chemical_formula_sum "Si O2"
_cell_formula_units_Z 12
_cell_length_a 5.020267
_cell_length_b 13.567833
_cell_length_c 9.903734
_cell_angle_alpha 52.432866
_cell_angle_beta 120.473497
_cell_angle_gamma 111.530492
_cell_volume 459.188176
_symmetry_space_group_name_H-M "P -1"
_symmetry_group_IT_number 2
_symmetry_cell_setting 'triclinic'
loop_
_space_group_symop_operation_xyz
x,y,z
-x,-y,-z
loop_
_atom_site_type_symbol
_atom_site_label
_atom_site_fract_x
_atom_site_fract_y
_atom_site_fract_z
Si Si1 0.637010 0.759003 0.432879
Si Si2 0.808445 0.886681 0.621895
Si Si3 0.251488 0.092595 0.913623
Si Si4 0.093266 0.562923 0.830985
Si Si5 0.451417 0.781811 0.860494
Si Si6 0.818600 0.432408 0.630993
O O1 0.577818 0.834542 0.488770
O O2 0.317007 0.705984 0.326227
O O3 0.847648 0.654108 0.631360
O O4 0.828498 0.837314 0.302540
O O5 0.617084 0.883657 0.713831
O O6 0.095770 0.802297 0.790091
O O7 0.000000 0.000000 0.500000
O O8 0.375782 0.195891 0.971086
O O9 0.500000 0.000000 0.000000
O O10 0.000000 0.000000 0.000000
O O11 0.403085 0.653176 0.867499
O O12 0.044383 0.454036 0.797663
O O13 0.000000 0.500000 0.000000
O O14 0.500000 0.500000 0.500000
O O15 0.000000 0.500000 0.500000
#
# Coordination Sequence:
#
# PCOD9010901 Si02
#       6
#     2   2   2   2   2   2
#     4  10  23  42  66  97 131 172 215 265 322 382
#     4  11  22  40  65  94 128 169 214 263 317 379
#     4  12  26  44  67  97 132 171 215 265 321 384
#     4  10  22  43  68  97 130 170 216 268 322 382
#     4  11  23  41  63  94 128 168 212 263 319 381
#     4  10  21  40  64  95 129 168 213 264 319 380
#
# _framework density 26.133074000000001
#
# number of rings (size 3 to 8) (size 9 to 14) (size 15 to 20)
#    0.000    1.333    0.000    5.500    0.000    6.667 
#    0.000   23.333    0.000    0.000    0.000    0.000 
#    0.000    0.000    0.000    0.000    0.000    0.000 
#
# Total GULP energy -67080.579276 kJ/mol
# GULP energy per Si atom -5590.048273 kJ/mol
# Density = 2.607359 g / cm^3
# Si number density = 26.133074 Si / 1000 Ang^3
#
#
#
# Elastic Constant Matrix: (Units=GPa)
#
#
# Indices 1 2 3 4 5 6 
#
# 1 151.5484 23.7833 48.9008 2.8326 -20.7353 15.4259
# 2 23.7833 97.0345 46.2285 30.8048 15.3454 16.5004
# 3 48.9008 46.2285 189.3840 14.9457 -33.7004 5.4453
# 4 2.8326 30.8048 14.9457 54.7590 5.5866 -15.3052
# 5 -20.7353 15.3454 -33.7004 5.5866 49.4079 2.8283
# 6 15.4259 16.5004 5.4453 -15.3052 2.8283 25.5649
#
#
#
# Elastic Compliance Matrix: (Units=1/GPa)
#
#
# Indices 1 2 3 4 5 6 
#
# 1 0.008103 -0.000390 -0.001084 -0.001896 0.003335 -0.005911
# 2 -0.000390 0.023629 -0.004904 -0.017830 -0.007468 -0.023819
# 3 -0.001084 -0.004904 0.007761 0.000575 0.006193 0.001825
# 4 -0.001896 -0.017830 0.000575 0.038310 -0.001236 0.035602
# 5 0.003335 -0.007468 0.006193 -0.001236 0.028460 -0.002400
# 6 -0.005911 -0.023819 0.001825 0.035602 -0.002400 0.079247
#
#
# Mechanical properties :
#
#
# Convention : Reuss Voigt Hill
#
# Bulk Modulus (GPa) = 37.40062 75.08801 56.24431
# Shear Modulus (GPa) = 24.13370 47.21665 35.67518
#
# Velocity S-wave (km/s) = 3.04220 4.25523 3.69878
# Velocity P-wave (km/s) = 5.16552 7.27585 6.30954
#
# Compressibility (1/GPa) = 0.02673753
#
# Stress axis : x y z
#
# Youngs Moduli (GPa) = 123.41159 42.32048 128.84280
#
# Poissons Ratio (x) = 0.01650 0.13967
# Poissons Ratio (y) = 0.04811 0.63187
# Poissons Ratio (z) = 0.13378 0.20755
#
# Static dielectric constant tensor:
#      x y z
#    x 2.042060 -0.094460 0.080440 
#    y -0.094460 2.257400 -0.047610 
#    z 0.080440 -0.047610 1.958250 
# 
# From -- ./inp_files/68057.got.cif
#   From: 2010.05.17/outbox.cif.g08.bks.cpg/sg2_35_cif.got.tgz:68057.got - 2010.06.03 11:33:40.
