data_PCOD9010240
_publ_section_title
;
Structure prediction by ZEFSAII (Michael W. Deem and Ramdas Pophale) SiO2 
 PCOD9010240
Probable space group: P -1
;
_chemical_formula_sum "Si O2"
_cell_formula_units_Z 16
_cell_length_a 25.789560
_cell_length_b 6.552408
_cell_length_c 7.448862
_cell_angle_alpha 113.493385
_cell_angle_beta 38.467346
_cell_angle_gamma 104.387984
_cell_volume 713.631314
_symmetry_space_group_name_H-M "P -1"
_symmetry_group_IT_number 2
_symmetry_cell_setting 'triclinic'
loop_
_space_group_symop_operation_xyz
x,y,z
-x,-y,-z
loop_
_atom_site_type_symbol
_atom_site_label
_atom_site_fract_x
_atom_site_fract_y
_atom_site_fract_z
Si Si1 0.092258 0.030971 0.569595
Si Si2 0.404240 0.074922 0.240268
Si Si3 0.535434 0.763388 0.230154
Si Si4 0.040711 0.315234 0.124281
Si Si5 0.223082 0.673946 0.266735
Si Si6 0.111112 0.313764 0.294538
Si Si7 0.362705 0.555020 0.585889
Si Si8 0.675406 0.379839 0.693487
O O1 0.116787 0.092708 0.323696
O O2 0.163342 0.892545 0.447862
O O3 0.067443 0.256334 0.828963
O O4 0.016278 0.877892 0.725454
O O5 0.374081 0.292910 0.514219
O O6 0.352737 0.867847 0.318621
O O7 0.409819 0.158426 0.052949
O O8 0.500000 0.000000 0.000000
O O9 0.453101 0.646956 0.354402
O O10 0.500000 0.000000 0.500000
O O11 0.601539 0.555326 0.046878
O O12 0.114691 0.297575 0.063857
O O13 0.981129 0.548292 0.375714
O O14 0.178967 0.467716 0.235455
O O15 0.243478 0.631621 0.404801
O O16 0.309220 0.686679 0.930331
O O17 0.317071 0.572797 0.522357
#
# Coordination Sequence:
#
# PCOD9010240 Si02
#       8
#     2   2   2   2   2   2   2   2
#     4  10  21  40  62  93 124 156 204 243 296 361
#     4  11  20  39  65  83 107 155 212 262 306 356
#     4  11  23  38  64  91 112 154 213 260 311 369
#     4   9  20  39  68  93 115 160 205 246 288 350
#     4  11  27  38  56  93 127 161 196 242 315 380
#     4  10  21  40  63  91 126 158 200 245 296 359
#     4  11  24  42  60  88 120 160 210 256 311 367
#     4  11  24  43  61  86 124 159 207 263 308 365
#
# _framework density 22.420542999999999
#
# number of rings (size 3 to 8) (size 9 to 14) (size 15 to 20)
#    0.000    1.500    2.500    2.250    1.750    8.000 
#    0.000    2.500    0.000    0.000    0.000    0.000 
#    0.000    0.000    0.000    0.000    0.000    0.000 
#
# Total GULP energy -89317.705846 kJ/mol
# GULP energy per Si atom -5582.356615 kJ/mol
# Density = 2.236951 g / cm^3
# Si number density = 22.420543 Si / 1000 Ang^3
#
#
#
# Elastic Constant Matrix: (Units=GPa)
#
#
# Indices 1 2 3 4 5 6 
#
# 1 113.5541 18.7473 -15.7307 6.3345 -13.5937 -9.7414
# 2 18.7473 75.1966 -1.4596 13.0881 -5.5201 -1.8642
# 3 -15.7307 -1.4596 13.6291 6.4850 1.8830 1.3433
# 4 6.3345 13.0881 6.4850 25.5509 1.2571 7.6707
# 5 -13.5937 -5.5201 1.8830 1.2571 26.5795 5.1746
# 6 -9.7414 -1.8642 1.3433 7.6707 5.1746 28.5894
#
#
#
# Elastic Compliance Matrix: (Units=1/GPa)
#
#
# Indices 1 2 3 4 5 6 
#
# 1 0.012944 -0.000821 0.018059 -0.009138 0.004604 0.005127
# 2 -0.000821 0.015573 0.004850 -0.009946 0.002408 0.002741
# 3 0.018059 0.004850 0.111827 -0.038825 0.001962 0.011277
# 4 -0.009138 -0.009946 -0.038825 0.061902 -0.003426 -0.017926
# 5 0.004604 0.002408 0.001962 -0.003426 0.041465 -0.004952
# 6 0.005127 0.002741 0.011277 -0.017926 -0.004952 0.042080
#
#
# Mechanical properties :
#
#
# Convention : Reuss Voigt Hill
#
# Bulk Modulus (GPa) = 5.41950 22.83265 14.12607
# Shear Modulus (GPa) = 16.49500 29.53215 23.01357
#
# Velocity S-wave (km/s) = 2.71534 3.63325 3.20730
# Velocity P-wave (km/s) = 3.50046 5.27320 4.47548
#
# Compressibility (1/GPa) = 0.18451888
#
# Stress axis : x y z
#
# Youngs Moduli (GPa) = 77.25363 64.21353 8.94239
#
# Poissons Ratio (x) = 0.05273 -0.16149
# Poissons Ratio (y) = 0.06344 -0.04337
# Poissons Ratio (z) = -1.39511 -0.31141
#
# Static dielectric constant tensor:
#      x y z
#    x 1.412440 0.180530 -0.005130 
#    y 0.180530 1.745010 0.064720 
#    z -0.005130 0.064720 1.870930 
# 
# From -- ./inp_files/55255.got.cif
#   From: 2010.05.17/outbox.cif.g08.bks.cpg/sg2_28_cif.got.tgz:55255.got - 2010.06.03 11:33:40.
