data_PCOD9010542
_publ_section_title
;
Structure prediction by ZEFSAII (Michael W. Deem and Ramdas Pophale) SiO2 
 PCOD9010542
Probable space group: P -1
;
_chemical_formula_sum "Si O2"
_cell_formula_units_Z 16
_cell_length_a 10.202439
_cell_length_b 10.624787
_cell_length_c 8.989468
_cell_angle_alpha 59.331931
_cell_angle_beta 133.283169
_cell_angle_gamma 106.252080
_cell_volume 606.350073
_symmetry_space_group_name_H-M "P -1"
_symmetry_group_IT_number 2
_symmetry_cell_setting 'triclinic'
loop_
_space_group_symop_operation_xyz
x,y,z
-x,-y,-z
loop_
_atom_site_type_symbol
_atom_site_label
_atom_site_fract_x
_atom_site_fract_y
_atom_site_fract_z
Si Si1 0.048959 0.654852 0.873825
Si Si2 0.281781 0.416104 0.675718
Si Si3 0.768635 0.071883 0.089785
Si Si4 0.267655 0.204681 0.321393
Si Si5 0.409142 0.708228 0.631977
Si Si6 0.074690 0.442422 0.803138
Si Si7 0.097520 0.936625 0.263761
Si Si8 0.498545 0.133426 0.090445
O O1 0.854286 0.753157 0.654590
O O2 0.144647 0.591748 0.835375
O O3 0.173662 0.763474 0.988306
O O4 0.000000 0.500000 0.000000
O O5 0.419487 0.533708 0.749584
O O6 0.139184 0.500329 0.399472
O O7 0.155626 0.402857 0.729524
O O8 0.388259 0.257645 0.824446
O O9 0.685109 0.079545 0.185085
O O10 0.948396 0.961705 0.261518
O O11 0.618076 0.004689 0.912349
O O12 0.466431 0.249452 0.432553
O O13 0.253605 0.038565 0.365226
O O14 0.148735 0.303585 0.044732
O O15 0.200494 0.776847 0.416680
O O16 0.482834 0.780968 0.793435
O O17 0.000000 0.000000 0.000000
#
# Coordination Sequence:
#
# PCOD9010542 Si02
#       8
#     2   2   2   2   2   2   2   2
#     4   9  20  40  68  90 127 173 215 263 322 383
#     4  11  24  38  67  97 130 171 213 276 322 384
#     4  10  24  44  65  95 130 175 211 272 329 384
#     4  10  21  40  63  94 126 167 217 265 315 386
#     4  12  24  40  69  98 126 174 219 269 325 382
#     4  10  21  41  65  94 130 169 219 262 331 383
#     4  11  24  43  65  90 131 172 215 265 324 391
#     4  11  24  44  64  98 136 165 220 273 322 388
#
# _framework density 26.387397
#
# number of rings (size 3 to 8) (size 9 to 14) (size 15 to 20)
#    0.000    1.500    1.250    3.000    7.000    0.500 
#   11.250    0.625    0.000    0.000    0.000    0.000 
#    0.000    0.000    0.000    0.000    0.000    0.000 
#
# Total GULP energy -89450.565042 kJ/mol
# GULP energy per Si atom -5590.660315 kJ/mol
# Density = 2.632734 g / cm^3
# Si number density = 26.387397 Si / 1000 Ang^3
#
#
#
# Elastic Constant Matrix: (Units=GPa)
#
#
# Indices 1 2 3 4 5 6 
#
# 1 95.1749 18.9946 24.9747 -2.3117 35.1114 7.8736
# 2 18.9946 163.1769 25.6214 -6.7326 3.6117 9.3820
# 3 24.9747 25.6214 113.7824 -17.1482 9.3022 -4.2937
# 4 -2.3117 -6.7326 -17.1482 35.1204 -5.6202 6.5861
# 5 35.1114 3.6117 9.3022 -5.6202 30.7301 2.9359
# 6 7.8736 9.3820 -4.2937 6.5861 2.9359 40.5968
#
#
#
# Elastic Compliance Matrix: (Units=1/GPa)
#
#
# Indices 1 2 3 4 5 6 
#
# 1 0.019674 -0.001418 -0.002801 -0.003555 -0.021960 -0.001619
# 2 -0.001418 0.006589 -0.001191 0.001155 0.001577 -0.001675
# 3 -0.002801 -0.001191 0.010325 0.004574 0.000946 0.001100
# 4 -0.003555 0.001155 0.004574 0.033109 0.009086 -0.005122
# 5 -0.021960 0.001577 0.000946 0.009086 0.058989 -0.001745
# 6 -0.001619 -0.001675 0.001100 -0.005122 -0.001745 0.026407
#
#
# Mechanical properties :
#
#
# Convention : Reuss Voigt Hill
#
# Bulk Modulus (GPa) = 38.80496 56.81282 47.80889
# Shear Modulus (GPa) = 28.65316 41.45903 35.05609
#
# Velocity S-wave (km/s) = 3.29882 3.96810 3.64884
# Velocity P-wave (km/s) = 5.40809 6.52468 5.99245
#
# Compressibility (1/GPa) = 0.02576990
#
# Stress axis : x y z
#
# Youngs Moduli (GPa) = 50.82941 151.75931 96.85183
#
# Poissons Ratio (x) = 0.21518 0.27124
# Poissons Ratio (y) = 0.07207 0.11532
# Poissons Ratio (z) = 0.14235 0.18069
#
# Static dielectric constant tensor:
#      x y z
#    x 2.143400 -0.027250 -0.078700 
#    y -0.027250 2.068520 0.080620 
#    z -0.078700 0.080620 2.136780 
# 
# From -- ./inp_files/425339.got.cif
#   From: 2010.05.17/outbox.cif.g08.bks.cpg/sg2_213_cif.got.tgz:425339.got - 2010.06.03 11:33:40.
