data_PCOD9010459
_publ_section_title
;
Structure prediction by ZEFSAII (Michael W. Deem and Ramdas Pophale) SiO2 
 PCOD9010459
Probable space group: P -1
;
_chemical_formula_sum "Si O2"
_cell_formula_units_Z 14
_cell_length_a 23.962015
_cell_length_b 8.515120
_cell_length_c 10.393802
_cell_angle_alpha 43.257578
_cell_angle_beta 36.144226
_cell_angle_gamma 30.473542
_cell_volume 630.652312
_symmetry_space_group_name_H-M "P -1"
_symmetry_group_IT_number 2
_symmetry_cell_setting 'triclinic'
loop_
_space_group_symop_operation_xyz
x,y,z
-x,-y,-z
loop_
_atom_site_type_symbol
_atom_site_label
_atom_site_fract_x
_atom_site_fract_y
_atom_site_fract_z
Si Si1 0.872151 0.223238 0.509412
Si Si2 0.076601 0.107180 0.814650
Si Si3 0.892062 0.588991 0.052091
Si Si4 0.376418 0.097727 0.341761
Si Si5 0.854139 0.815342 0.617803
Si Si6 0.282340 0.822113 0.826659
Si Si7 0.635497 0.830330 0.966183
O O1 0.873857 0.372579 0.284139
O O2 0.755786 0.542029 0.609464
O O3 0.843789 0.021362 0.624661
O O4 0.000000 0.000000 0.500000
O O5 0.166595 0.023539 0.578013
O O6 0.167288 0.964792 0.854570
O O7 0.958417 0.465824 0.863789
O O8 0.000000 0.000000 0.000000
O O9 0.776670 0.957547 0.068576
O O10 0.000000 0.500000 0.000000
O O11 0.368900 0.880195 0.569331
O O12 0.503923 0.037535 0.168610
O O13 0.386064 0.016574 0.222620
O O14 0.000000 0.500000 0.500000
O O15 0.755904 0.764158 0.843510
O O16 0.339162 0.476738 0.935688
#
# Coordination Sequence:
#
# PCOD9010459 Si02
#       7
#     2   2   2   2   2   2   2
#     4  11  24  41  65  93 127 166 214 267 325 384
#     4  11  20  37  58  93 131 165 209 264 321 372
#     4   9  21  35  59  90 123 167 204 260 311 379
#     4  10  23  42  67  92 128 172 216 264 311 397
#     4  12  25  38  63  98 131 167 213 270 324 380
#     4  10  21  40  63  91 128 170 217 260 312 386
#     4  11  23  42  65  95 127 171 217 261 327 373
#
# _framework density 22.199235000000002
#
# number of rings (size 3 to 8) (size 9 to 14) (size 15 to 20)
#    0.000    1.429    2.857    2.143   10.000    0.571 
#    0.000    0.714    0.000    0.857    0.000    0.000 
#    0.000    0.000    0.000    0.000    0.000    0.000 
#
# Total GULP energy -78005.452462 kJ/mol
# GULP energy per Si atom -5571.818033 kJ/mol
# Density = 2.214871 g / cm^3
# Si number density = 22.199235 Si / 1000 Ang^3
#
#
#
# Elastic Constant Matrix: (Units=GPa)
#
#
# Indices 1 2 3 4 5 6 
#
# 1 78.3036 25.5560 40.3725 5.9313 -17.9073 13.5868
# 2 25.5560 88.4847 43.5820 -4.9690 -12.7132 8.6796
# 3 40.3725 43.5820 134.3529 9.7180 -25.4360 10.1347
# 4 5.9313 -4.9690 9.7180 33.9807 -1.0159 -5.8338
# 5 -17.9073 -12.7132 -25.4360 -1.0159 44.6065 3.8075
# 6 13.5868 8.6796 10.1347 -5.8338 3.8075 30.4871
#
#
#
# Elastic Compliance Matrix: (Units=1/GPa)
#
#
# Indices 1 2 3 4 5 6 
#
# 1 0.017867 -0.002523 -0.002632 -0.003910 0.005530 -0.007808
# 2 -0.002523 0.014401 -0.003879 0.003490 0.001057 -0.001150
# 3 -0.002632 -0.003879 0.010698 -0.003466 0.004069 -0.002451
# 4 -0.003910 0.003490 -0.003466 0.033002 -0.002529 0.008532
# 5 0.005530 0.001057 0.004069 -0.002529 0.027892 -0.008085
# 6 -0.007808 -0.001150 -0.002451 0.008532 -0.008085 0.040065
#
#
# Mechanical properties :
#
#
# Convention : Reuss Voigt Hill
#
# Bulk Modulus (GPa) = 40.16229 57.79579 48.97904
# Shear Modulus (GPa) = 29.36127 34.59024 31.97575
#
# Velocity S-wave (km/s) = 3.64074 3.95165 3.79938
# Velocity P-wave (km/s) = 5.98367 6.84925 6.43104
#
# Compressibility (1/GPa) = 0.02489898
#
# Stress axis : x y z
#
# Youngs Moduli (GPa) = 55.96947 69.43798 93.47582
#
# Poissons Ratio (x) = 0.17521 0.24599
# Poissons Ratio (y) = 0.14122 0.36257
# Poissons Ratio (z) = 0.14729 0.26934
#
# Static dielectric constant tensor:
#      x y z
#    x 1.843780 -0.053390 0.013210 
#    y -0.053390 1.927380 0.008720 
#    z 0.013210 0.008720 1.796170 
# 
# From -- ./inp_files/358577.got.cif
#   From: 2010.05.17/outbox.cif.g08.bks.cpg/sg2_180_cif.got.tgz:358577.got - 2010.06.03 11:33:40.
