data_PCOD9010665
_publ_section_title
;
Structure prediction by ZEFSAII (Michael W. Deem and Ramdas Pophale) SiO2 
 PCOD9010665
Probable space group: P -1
;
_chemical_formula_sum "Si O2"
_cell_formula_units_Z 16
_cell_length_a 9.380686
_cell_length_b 6.768570
_cell_length_c 15.491586
_cell_angle_alpha 106.051652
_cell_angle_beta 114.632970
_cell_angle_gamma 78.738506
_cell_volume 855.634137
_symmetry_space_group_name_H-M "P -1"
_symmetry_group_IT_number 2
_symmetry_cell_setting 'triclinic'
loop_
_space_group_symop_operation_xyz
x,y,z
-x,-y,-z
loop_
_atom_site_type_symbol
_atom_site_label
_atom_site_fract_x
_atom_site_fract_y
_atom_site_fract_z
Si Si1 0.455332 0.642866 0.088603
Si Si2 0.607615 0.517205 0.759063
Si Si3 0.960363 0.426766 0.844933
Si Si4 0.439697 0.142436 0.580385
Si Si5 0.349564 0.843645 0.671729
Si Si6 0.889864 0.204807 0.974125
Si Si7 0.208138 0.246352 0.746804
Si Si8 0.173027 0.447768 0.571260
O O1 0.405661 0.522123 0.146737
O O2 0.618793 0.728174 0.167573
O O3 0.500000 0.500000 0.000000
O O4 0.297302 0.798647 0.053816
O O5 0.789501 0.521499 0.780966
O O6 0.539363 0.325681 0.665775
O O7 0.501350 0.730239 0.743007
O O8 0.052359 0.604899 0.933539
O O9 0.070563 0.323795 0.786150
O O10 0.921465 0.263621 0.889592
O O11 0.271432 0.258506 0.526323
O O12 0.500000 0.000000 0.500000
O O13 0.413306 0.986473 0.632015
O O14 0.260489 0.649654 0.598124
O O15 0.220871 0.000658 0.705800
O O16 0.000000 0.000000 0.000000
O O17 0.186066 0.376870 0.667229
O O18 0.000000 0.500000 0.500000
#
# Coordination Sequence:
#
# PCOD9010665 Si02
#       8
#     2   2   2   2   2   2   2   2
#     4  11  20  40  65  85 128 163 201 259 297 359
#     4  10  22  40  60  90 126 162 203 257 300 367
#     4  10  23  38  57  89 127 159 204 259 304 356
#     4  10  22  39  62  90 122 159 208 252 305 369
#     4  10  21  40  64  86 123 161 203 249 315 359
#     4  10  23  39  57  88 125 164 208 253 305 362
#     4  11  22  40  61  94 123 161 208 250 303 371
#     4  10  23  41  62  91 125 155 202 260 301 363
#
# _framework density 18.699580000000001
#
# number of rings (size 3 to 8) (size 9 to 14) (size 15 to 20)
#    0.000    1.750    5.000    0.000    1.750    9.000 
#    0.000    1.250    0.000    0.000    0.000    0.000 
#    0.000    0.000    0.000    0.000    0.000    0.000 
#
# Total GULP energy -89141.438464 kJ/mol
# GULP energy per Si atom -5571.339904 kJ/mol
# Density = 1.865702 g / cm^3
# Si number density = 18.699580 Si / 1000 Ang^3
#
#
#
# Elastic Constant Matrix: (Units=GPa)
#
#
# Indices 1 2 3 4 5 6 
#
# 1 112.8816 13.5260 31.0288 -0.0636 -0.6576 -28.4419
# 2 13.5260 76.8310 20.7735 -6.5661 -3.3687 -16.6350
# 3 31.0288 20.7735 63.5231 3.2199 -1.7397 -18.2360
# 4 -0.0636 -6.5661 3.2199 15.8776 -19.4161 3.1950
# 5 -0.6576 -3.3687 -1.7397 -19.4161 39.2042 3.1280
# 6 -28.4419 -16.6350 -18.2360 3.1950 3.1280 30.0564
#
#
#
# Elastic Compliance Matrix: (Units=1/GPa)
#
#
# Indices 1 2 3 4 5 6 
#
# 1 0.012396 0.000268 -0.002659 -0.006492 -0.004010 0.011373
# 2 0.000268 0.017743 -0.006052 0.023695 0.012792 0.002552
# 3 -0.002659 -0.006052 0.023660 -0.026702 -0.013757 0.012760
# 4 -0.006492 0.023695 -0.026702 0.236096 0.121417 -0.046963
# 5 -0.004010 0.012792 -0.013757 0.121417 0.088228 -0.027150
# 6 0.011373 0.002552 0.012760 -0.046963 -0.027150 0.061005
#
#
# Mechanical properties :
#
#
# Convention : Reuss Voigt Hill
#
# Bulk Modulus (GPa) = 27.08906 42.65471 34.87188
# Shear Modulus (GPa) = 10.67653 29.55479 20.11566
#
# Velocity S-wave (km/s) = 2.39205 3.97987 3.28339
# Velocity P-wave (km/s) = 4.70607 6.63168 5.75006
#
# Compressibility (1/GPa) = 0.03691527
#
# Stress axis : x y z
#
# Youngs Moduli (GPa) = 80.67105 56.35990 42.26581
#
# Poissons Ratio (x) = -0.01512 0.11237
# Poissons Ratio (y) = -0.02164 0.25577
# Poissons Ratio (z) = 0.21447 0.34106
#
# Static dielectric constant tensor:
#      x y z
#    x 1.635600 -0.138410 0.000330 
#    y -0.138410 1.336590 -0.033960 
#    z 0.000330 -0.033960 1.680540 
# 
# From -- ./inp_files/39445.got.cif
#   From: 2010.05.17/outbox.cif.g08.bks.cpg/sg2_20_cif.got.tgz:39445.got - 2010.06.03 11:33:40.
