data_PCOD9010754
_publ_section_title
;
Structure prediction by ZEFSAII (Michael W. Deem and Ramdas Pophale) SiO2 
 PCOD9010754
Probable space group: P -1
;
_chemical_formula_sum "Si O2"
_cell_formula_units_Z 16
_cell_length_a 12.905846
_cell_length_b 5.049467
_cell_length_c 15.784043
_cell_angle_alpha 109.598493
_cell_angle_beta 134.094205
_cell_angle_gamma 75.835470
_cell_volume 695.848192
_symmetry_space_group_name_H-M "P -1"
_symmetry_group_IT_number 2
_symmetry_cell_setting 'triclinic'
loop_
_space_group_symop_operation_xyz
x,y,z
-x,-y,-z
loop_
_atom_site_type_symbol
_atom_site_label
_atom_site_fract_x
_atom_site_fract_y
_atom_site_fract_z
Si Si1 0.133507 0.326276 0.647882
Si Si2 0.717932 0.113094 0.190026
Si Si3 0.520387 0.248740 0.229496
Si Si4 0.384418 0.818548 0.290181
Si Si5 0.394032 0.762844 0.484845
Si Si6 0.251218 0.986748 0.001092
Si Si7 0.129184 0.609425 0.025244
Si Si8 0.812329 0.155691 0.485852
O O1 0.165213 0.650909 0.699007
O O2 0.967083 0.276185 0.567048
O O3 0.230815 0.166965 0.759063
O O4 0.170931 0.174571 0.563533
O O5 0.567178 0.237907 0.155658
O O6 0.719063 0.085588 0.086888
O O7 0.448308 0.521559 0.261380
O O8 0.678477 0.238649 0.358999
O O9 0.404695 0.995559 0.140720
O O10 0.360915 0.860377 0.381876
O O11 0.226502 0.817599 0.159894
O O12 0.513248 0.038493 0.379062
O O13 0.500000 0.500000 0.500000
O O14 0.242739 0.740616 0.443412
O O15 0.133580 0.791034 0.959737
O O16 0.203084 0.312562 0.011124
O O17 0.000000 0.500000 0.000000
#
# Coordination Sequence:
#
# PCOD9010754 Si02
#       8
#     2   2   2   2   2   2   2   2
#     4  10  24  41  64  94 133 178 210 268 329 407
#     4  11  23  42  66  98 132 168 222 266 331 382
#     4  10  21  41  67  95 132 175 210 279 326 394
#     4  10  23  38  63  92 127 167 220 264 337 386
#     4  11  21  38  61  94 125 163 220 276 319 384
#     4  11  24  43  69  97 129 165 229 266 327 390
#     4  11  25  46  67  93 130 178 212 273 327 397
#     4  10  21  40  64  90 131 169 218 261 336 387
#
# _framework density 22.993518000000002
#
# number of rings (size 3 to 8) (size 9 to 14) (size 15 to 20)
#    0.000    1.500    1.250    3.000    1.750   10.500 
#    2.250    6.250    0.000    0.000    0.000    0.000 
#    0.000    0.000    0.000    0.000    0.000    0.000 
#
# Total GULP energy -89155.693454 kJ/mol
# GULP energy per Si atom -5572.230841 kJ/mol
# Density = 2.294118 g / cm^3
# Si number density = 22.993518 Si / 1000 Ang^3
#
#
#
# Elastic Constant Matrix: (Units=GPa)
#
#
# Indices 1 2 3 4 5 6 
#
# 1 151.3684 15.0519 48.8689 12.8577 -9.3933 -4.4836
# 2 15.0519 47.6228 3.8509 10.3901 -3.3413 11.6555
# 3 48.8689 3.8509 70.5842 14.9246 -2.6669 2.5926
# 4 12.8577 10.3901 14.9246 27.3175 4.9358 -0.6521
# 5 -9.3933 -3.3413 -2.6669 4.9358 32.2491 1.7320
# 6 -4.4836 11.6555 2.5926 -0.6521 1.7320 32.9069
#
#
#
# Elastic Compliance Matrix: (Units=1/GPa)
#
#
# Indices 1 2 3 4 5 6 
#
# 1 0.009064 -0.002885 -0.006139 -0.000059 0.001700 0.002650
# 2 -0.002885 0.027233 0.003646 -0.012102 0.004716 -0.010814
# 3 -0.006139 0.003646 0.020609 -0.010230 0.002078 -0.004064
# 4 -0.000059 -0.012102 -0.010230 0.048778 -0.009936 0.006574
# 5 0.001700 0.004716 0.002078 -0.009936 0.033877 -0.003582
# 6 0.002650 -0.010814 -0.004064 0.006574 -0.003582 0.035219
#
#
# Mechanical properties :
#
#
# Convention : Reuss Voigt Hill
#
# Bulk Modulus (GPa) = 21.66768 45.01321 33.34044
# Shear Modulus (GPa) = 24.88536 31.94829 28.41682
#
# Velocity S-wave (km/s) = 3.29337 3.73157 3.51930
# Velocity P-wave (km/s) = 4.88933 6.17941 5.57184
#
# Compressibility (1/GPa) = 0.04615168
#
# Stress axis : x y z
#
# Youngs Moduli (GPa) = 110.32464 36.71966 48.52144
#
# Poissons Ratio (x) = 0.10593 0.29786
# Poissons Ratio (y) = 0.31826 -0.17690
# Poissons Ratio (z) = 0.67725 -0.13387
#
# Static dielectric constant tensor:
#      x y z
#    x 2.040060 0.078820 -0.032810 
#    y 0.078820 1.942450 -0.073220 
#    z -0.032810 -0.073220 1.895560 
# 
# From -- ./inp_files/364099.got.cif
#   From: 2010.05.17/outbox.cif.g08.bks.cpg/sg2_183_cif.got.tgz:364099.got - 2010.06.03 11:33:40.
