data_PCOD9010878
_publ_section_title
;
Structure prediction by ZEFSAII (Michael W. Deem and Ramdas Pophale) SiO2 
 PCOD9010878
Probable space group: P -1
;
_chemical_formula_sum "Si O2"
_cell_formula_units_Z 14
_cell_length_a 23.319804
_cell_length_b 24.307537
_cell_length_c 5.399598
_cell_angle_alpha 122.550326
_cell_angle_beta 124.005077
_cell_angle_gamma 12.019138
_cell_volume 527.654669
_symmetry_space_group_name_H-M "P -1"
_symmetry_group_IT_number 2
_symmetry_cell_setting 'triclinic'
loop_
_space_group_symop_operation_xyz
x,y,z
-x,-y,-z
loop_
_atom_site_type_symbol
_atom_site_label
_atom_site_fract_x
_atom_site_fract_y
_atom_site_fract_z
Si Si1 0.454484 0.172623 0.151136
Si Si2 0.755220 0.119025 0.079568
Si Si3 0.769025 0.746908 0.371708
Si Si4 0.187764 0.471446 0.719950
Si Si5 0.824726 0.938238 0.506219
Si Si6 0.634922 0.564511 0.700652
Si Si7 0.388766 0.567824 0.144617
O O1 0.354082 0.301000 0.463696
O O2 0.777717 0.903051 0.276305
O O3 0.337503 0.205794 0.981677
O O4 0.320721 0.316998 0.914846
O O5 0.809137 0.992504 0.855273
O O6 0.601361 0.263557 0.323405
O O7 0.526221 0.369832 0.982822
O O8 0.055022 0.873514 0.129377
O O9 0.000000 0.500000 0.500000
O O10 0.890555 0.707752 0.525159
O O11 0.500000 0.000000 0.500000
O O12 0.216081 0.522702 0.952595
O O13 0.102111 0.704755 0.462251
O O14 0.553300 0.217426 0.396795
O O15 0.500000 0.500000 0.500000
O O16 0.500000 0.500000 0.000000
#
# Coordination Sequence:
#
# PCOD9010878 Si02
#       7
#     2   2   2   2   2   2   2
#     4  10  21  42  64  99 138 186 239 297 352 417
#     4  12  26  48  78 107 146 190 234 290 352 425
#     4  10  21  40  64  94 134 188 238 295 357 413
#     4  10  21  42  64  99 138 186 239 297 352 417
#     4  11  24  43  70 105 145 189 240 295 353 420
#     4  11  24  43  70 105 145 189 240 295 353 420
#     4  12  30  52  80 110 148 187 234 287 350 426
#
# _framework density 26.532502999999998
#
# number of rings (size 3 to 8) (size 9 to 14) (size 15 to 20)
#    0.000    1.143    1.429    3.857    6.000    0.000 
#    0.000   20.000    0.000    0.000    0.000    0.000 
#    0.000    0.000    0.000    0.000    0.000    0.000 
#
# Total GULP energy -78205.159102 kJ/mol
# GULP energy per Si atom -5586.082793 kJ/mol
# Density = 2.647211 g / cm^3
# Si number density = 26.532503 Si / 1000 Ang^3
#
#
#
# Elastic Constant Matrix: (Units=GPa)
#
#
# Indices 1 2 3 4 5 6 
#
# 1 102.5931 27.5668 16.1182 -2.2175 -17.9863 -4.4199
# 2 27.5668 162.3203 36.3039 19.2172 -2.4740 -27.8355
# 3 16.1182 36.3039 132.2991 8.3111 -2.3858 -4.2585
# 4 -2.2175 19.2172 8.3111 35.5271 -10.1115 4.8760
# 5 -17.9863 -2.4740 -2.3858 -10.1115 34.1186 9.6882
# 6 -4.4199 -27.8355 -4.2585 4.8760 9.6882 56.0603
#
#
#
# Elastic Compliance Matrix: (Units=1/GPa)
#
#
# Indices 1 2 3 4 5 6 
#
# 1 0.012098 -0.002722 -0.000976 0.005143 0.008305 -0.002355
# 2 -0.002722 0.008546 -0.001523 -0.006372 -0.004289 0.005208
# 3 -0.000976 -0.001523 0.008166 -0.001263 -0.000420 -0.000030
# 4 0.005143 -0.006372 -0.001263 0.037972 0.015945 -0.008913
# 5 0.008305 -0.004289 -0.000420 0.015945 0.040901 -0.009962
# 6 -0.002355 0.005208 -0.000030 -0.008913 -0.009962 0.022733
#
#
# Mechanical properties :
#
#
# Convention : Reuss Voigt Hill
#
# Bulk Modulus (GPa) = 54.44389 61.91002 58.17696
# Shear Modulus (GPa) = 34.01813 46.28945 40.15379
#
# Velocity S-wave (km/s) = 3.58457 4.18141 3.89444
# Velocity P-wave (km/s) = 6.13974 6.83349 6.49588
#
# Compressibility (1/GPa) = 0.01836753
#
# Stress axis : x y z
#
# Youngs Moduli (GPa) = 82.66029 117.01783 122.45633
#
# Poissons Ratio (x) = 0.31856 0.11951
# Poissons Ratio (y) = 0.22503 0.18647
# Poissons Ratio (z) = 0.08067 0.17819
#
# Static dielectric constant tensor:
#      x y z
#    x 2.566480 -0.132880 0.239490 
#    y -0.132880 2.061080 -0.083330 
#    z 0.239490 -0.083330 2.223660 
# 
# From -- ./inp_files/12344.got.cif
#   From: 2010.05.17/outbox.cif.g08.bks.cpg/sg2_7_cif.got.tgz:12344.got - 2010.06.03 11:33:40.
