data_PCOD9010828
_publ_section_title
;
Structure prediction by ZEFSAII (Michael W. Deem and Ramdas Pophale) SiO2 
 PCOD9010828
Probable space group: P -1
;
_chemical_formula_sum "Si O2"
_cell_formula_units_Z 16
_cell_length_a 5.224103
_cell_length_b 25.146475
_cell_length_c 7.174669
_cell_angle_alpha 108.087818
_cell_angle_beta 135.053732
_cell_angle_gamma 72.758396
_cell_volume 628.795341
_symmetry_space_group_name_H-M "P -1"
_symmetry_group_IT_number 2
_symmetry_cell_setting 'triclinic'
loop_
_space_group_symop_operation_xyz
x,y,z
-x,-y,-z
loop_
_atom_site_type_symbol
_atom_site_label
_atom_site_fract_x
_atom_site_fract_y
_atom_site_fract_z
Si Si1 0.143071 0.199539 0.785372
Si Si2 0.663323 0.278353 0.346938
Si Si3 0.100960 0.130037 0.004168
Si Si4 0.434412 0.499526 0.745229
Si Si5 0.343413 0.619508 0.826833
Si Si6 0.024148 0.886119 0.665906
Si Si7 0.500492 0.620236 0.344212
Si Si8 0.932010 0.992769 0.241248
O O1 0.978658 0.237474 0.569264
O O2 0.209577 0.139396 0.645067
O O3 0.405887 0.235390 0.077831
O O4 0.916636 0.178045 0.821891
O O5 0.637013 0.324075 0.216388
O O6 0.601349 0.323127 0.533754
O O7 0.543369 0.122947 0.181840
O O8 0.036103 0.143226 0.200809
O O9 0.945827 0.070898 0.822399
O O10 0.550343 0.559229 0.799514
O O11 0.628909 0.438687 0.713552
O O12 0.000000 0.500000 0.500000
O O13 0.500000 0.500000 0.000000
O O14 0.928070 0.610824 0.579087
O O15 0.416331 0.627934 0.091257
O O16 0.917922 0.953218 0.715473
O O17 0.000000 0.000000 0.500000
O O18 0.500000 0.000000 0.000000
#
# Coordination Sequence:
#
# PCOD9010828 Si02
#       8
#     2   2   2   2   2   2   2   2
#     4  12  26  47  62  99 134 186 234 290 338 418
#     4  12  26  43  64  95 126 180 232 268 342 404
#     4  11  25  49  75 108 144 186 236 297 359 423
#     4   8  16  33  60  91 124 160 208 267 344 401
#     4  10  21  40  64  93 128 168 214 279 336 406
#     4  11  25  49  75 108 144 186 236 297 359 423
#     4  10  21  40  64  93 128 168 214 279 336 406
#     4  10  21  44  74 109 143 181 230 294 362 427
#
# _framework density 25.44548
#
# number of rings (size 3 to 8) (size 9 to 14) (size 15 to 20)
#    0.000    1.500    2.500    1.875    0.000    4.500 
#    4.500    2.500    0.000   10.500    0.000    0.000 
#    0.000    0.000    0.000    0.000    0.000    0.000 
#
# Total GULP energy -89223.007580 kJ/mol
# GULP energy per Si atom -5576.437974 kJ/mol
# Density = 2.538757 g / cm^3
# Si number density = 25.445480 Si / 1000 Ang^3
#
#
#
# Elastic Constant Matrix: (Units=GPa)
#
#
# Indices 1 2 3 4 5 6 
#
# 1 63.5201 29.6497 37.1545 4.6864 -3.0947 2.5385
# 2 29.6497 202.9998 42.6468 17.6281 -3.9628 18.9323
# 3 37.1545 42.6468 234.4786 1.8481 -8.5317 9.0882
# 4 4.6864 17.6281 1.8481 59.4439 5.9717 -9.8709
# 5 -3.0947 -3.9628 -8.5317 5.9717 46.3667 -7.6696
# 6 2.5385 18.9323 9.0882 -9.8709 -7.6696 30.4826
#
#
#
# Elastic Compliance Matrix: (Units=1/GPa)
#
#
# Indices 1 2 3 4 5 6 
#
# 1 0.018259 -0.002110 -0.002495 -0.000731 0.000754 0.000487
# 2 -0.002110 0.005928 -0.000572 -0.002241 -0.000128 -0.004094
# 3 -0.002495 -0.000572 0.004812 0.000042 0.000545 -0.000720
# 4 -0.000731 -0.002241 0.000042 0.018885 -0.001476 0.007184
# 5 0.000754 -0.000128 0.000545 -0.001476 0.022740 0.005098
# 6 0.000487 -0.004094 -0.000720 0.007184 0.005098 0.039131
#
#
# Mechanical properties :
#
#
# Convention : Reuss Voigt Hill
#
# Bulk Modulus (GPa) = 53.63604 79.98895 66.81249
# Shear Modulus (GPa) = 39.58086 53.36181 46.47133
#
# Velocity S-wave (km/s) = 3.94828 4.58438 4.27817
# Velocity P-wave (km/s) = 6.47378 7.71529 7.12164
#
# Compressibility (1/GPa) = 0.01864418
#
# Stress axis : x y z
#
# Youngs Moduli (GPa) = 54.76895 168.68098 207.82859
#
# Poissons Ratio (x) = 0.35588 0.51855
# Poissons Ratio (y) = 0.11555 0.11893
# Poissons Ratio (z) = 0.13665 0.09653
#
# Static dielectric constant tensor:
#      x y z
#    x 2.162990 0.015000 -0.023980 
#    y 0.015000 2.241610 -0.036870 
#    z -0.023980 -0.036870 1.977530 
# 
# From -- ./inp_files/13493.got.cif
#   From: 2010.05.17/outbox.cif.g08.bks.cpg/sg2_7_cif.got.tgz:13493.got - 2010.06.03 11:33:40.
