data_PCOD9010912
_publ_section_title
;
Structure prediction by ZEFSAII (Michael W. Deem and Ramdas Pophale) SiO2 
 PCOD9010912
Probable space group: P -1
;
_chemical_formula_sum "Si O2"
_cell_formula_units_Z 14
_cell_length_a 8.602705
_cell_length_b 10.547892
_cell_length_c 13.187193
_cell_angle_alpha 57.044770
_cell_angle_beta 86.475782
_cell_angle_gamma 42.692395
_cell_volume 547.346001
_symmetry_space_group_name_H-M "P -1"
_symmetry_group_IT_number 2
_symmetry_cell_setting 'triclinic'
loop_
_space_group_symop_operation_xyz
x,y,z
-x,-y,-z
loop_
_atom_site_type_symbol
_atom_site_label
_atom_site_fract_x
_atom_site_fract_y
_atom_site_fract_z
Si Si1 0.832341 0.708028 0.610282
Si Si2 0.745475 0.390054 0.101315
Si Si3 0.640930 0.138030 0.764687
Si Si4 0.207168 0.687863 0.632822
Si Si5 0.685838 0.653769 0.816402
Si Si6 0.765361 0.816823 0.288522
Si Si7 0.048006 0.138228 0.925747
O O1 0.889636 0.601986 0.769845
O O2 0.003704 0.719190 0.592546
O O3 0.935414 0.512036 0.602455
O O4 0.500000 0.000000 0.500000
O O5 0.693391 0.427047 0.206153
O O6 0.500000 0.500000 0.000000
O O7 0.765741 0.532824 0.977971
O O8 0.066599 0.065580 0.217101
O O9 0.477100 0.430232 0.662079
O O10 0.455225 0.146445 0.728636
O O11 0.744574 0.992245 0.932956
O O12 0.000000 0.000000 0.500000
O O13 0.743418 0.465950 0.820292
O O14 0.370179 0.977353 0.703837
O O15 0.806945 0.911668 0.157874
O O16 0.000000 0.000000 0.000000
#
# Coordination Sequence:
#
# PCOD9010912 Si02
#       7
#     2   2   2   2   2   2   2
#     4  10  24  45  66  99 137 184 237 287 350 428
#     4  11  26  43  69 108 139 178 239 295 350 422
#     4  10  23  41  67  96 139 183 233 286 354 423
#     4  11  26  45  72 100 142 187 230 292 363 423
#     4  10  23  40  69  95 136 174 231 285 345 411
#     4  10  21  40  64  95 133 185 232 283 351 422
#     4  10  22  35  60  99 137 172 221 287 350 412
#
# _framework density 25.577971999999999
#
# number of rings (size 3 to 8) (size 9 to 14) (size 15 to 20)
#    0.000    1.714    0.000    2.143   10.000    9.714 
#    0.000    0.000    0.000    0.000    0.000    0.000 
#    0.000    0.000    0.000    0.000    0.000    0.000 
#
# Total GULP energy -78089.317697 kJ/mol
# GULP energy per Si atom -5577.808407 kJ/mol
# Density = 2.551976 g / cm^3
# Si number density = 25.577972 Si / 1000 Ang^3
#
#
#
# Elastic Constant Matrix: (Units=GPa)
#
#
# Indices 1 2 3 4 5 6 
#
# 1 69.3780 38.0502 29.7736 -13.0032 0.1988 8.3788
# 2 38.0502 199.8920 48.1515 -41.9401 -4.4274 -5.6416
# 3 29.7736 48.1515 84.7108 -24.8374 -3.9691 13.2960
# 4 -13.0032 -41.9401 -24.8374 65.2226 7.2229 4.0014
# 5 0.1988 -4.4274 -3.9691 7.2229 44.2102 -6.7529
# 6 8.3788 -5.6416 13.2960 4.0014 -6.7529 24.2319
#
#
#
# Elastic Compliance Matrix: (Units=1/GPa)
#
#
# Indices 1 2 3 4 5 6 
#
# 1 0.018337 -0.002509 -0.003937 0.001061 -0.001687 -0.005410
# 2 -0.002509 0.006802 -0.002809 0.002507 0.000603 0.003747
# 3 -0.003937 -0.002809 0.017768 0.004910 -0.001019 -0.010137
# 4 0.001061 0.002507 0.004910 0.019837 -0.003585 -0.006752
# 5 -0.001687 0.000603 -0.001019 -0.003585 0.024511 0.008705
# 6 -0.005410 0.003747 -0.010137 -0.006752 0.008705 0.053114
#
#
# Mechanical properties :
#
#
# Convention : Reuss Voigt Hill
#
# Bulk Modulus (GPa) = 40.99076 65.10349 53.04713
# Shear Modulus (GPa) = 29.93780 42.60000 36.26890
#
# Velocity S-wave (km/s) = 3.42490 4.08548 3.76968
# Velocity P-wave (km/s) = 5.63032 6.91108 6.30331
#
# Compressibility (1/GPa) = 0.02439574
#
# Stress axis : x y z
#
# Youngs Moduli (GPa) = 54.53503 147.00995 56.27969
#
# Poissons Ratio (x) = 0.36890 0.22159
# Poissons Ratio (y) = 0.13685 0.15810
# Poissons Ratio (z) = 0.21472 0.41299
#
# Static dielectric constant tensor:
#      x y z
#    x 2.050850 -0.012410 -0.022640 
#    y -0.012410 2.160330 -0.133910 
#    z -0.022640 -0.133910 2.289760 
# 
# From -- ./inp_files/559766.got.cif
#   From: 2010.05.17/outbox.cif.g08.bks.cpg/sg2_280_cif.got.tgz:559766.got - 2010.06.03 11:33:40.
