data_PCOD9010219
_publ_section_title
;
Structure prediction by ZEFSAII (Michael W. Deem and Ramdas Pophale) SiO2 
 PCOD9010219
Probable space group: P -1
;
_chemical_formula_sum "Si O2"
_cell_formula_units_Z 10
_cell_length_a 16.370284
_cell_length_b 5.462405
_cell_length_c 9.778343
_cell_angle_alpha 131.658248
_cell_angle_beta 33.666249
_cell_angle_gamma 122.285225
_cell_volume 361.762727
_symmetry_space_group_name_H-M "P -1"
_symmetry_group_IT_number 2
_symmetry_cell_setting 'triclinic'
loop_
_space_group_symop_operation_xyz
x,y,z
-x,-y,-z
loop_
_atom_site_type_symbol
_atom_site_label
_atom_site_fract_x
_atom_site_fract_y
_atom_site_fract_z
Si Si1 0.656808 0.049288 0.615175
Si Si2 0.652928 0.035309 0.922082
Si Si3 0.639276 0.748982 0.240477
Si Si4 0.905118 0.352827 0.239778
Si Si5 0.139706 0.862666 0.075545
O O1 0.767165 0.328049 0.523111
O O2 0.484373 0.149599 0.897631
O O3 0.672470 0.788025 0.370924
O O4 0.698350 0.943085 0.671775
O O5 0.581881 0.406610 0.146168
O O6 0.771453 0.109010 0.897973
O O7 0.500000 0.000000 0.500000
O O8 0.791764 0.812229 0.971004
O O9 0.994296 0.678241 0.260196
O O10 0.847456 0.343665 0.161175
O O11 0.000000 0.000000 0.000000
#
# Coordination Sequence:
#
# PCOD9010219 Si02
#       5
#     2   2   2   2   2
#     4  10  23  42  63  95 128 166 206 265 310 375
#     4  11  23  42  64  95 129 160 218 258 312 375
#     4  11  22  38  66  91 125 167 205 260 315 363
#     4  10  22  40  65  92 127 165 214 256 315 378
#     4  10  21  40  62  92 121 169 212 251 317 372
#
# _framework density 27.642424999999999
#
# number of rings (size 3 to 8) (size 9 to 14) (size 15 to 20)
#    0.000    1.600    2.000    3.000    2.800    1.600 
#    0.000    2.000    0.000    0.000    0.000    0.000 
#    0.000    0.000    0.000    0.000    0.000    0.000 
#
# Total GULP energy -55777.212673 kJ/mol
# GULP energy per Si atom -5577.721267 kJ/mol
# Density = 2.757951 g / cm^3
# Si number density = 27.642425 Si / 1000 Ang^3
#
#
#
# Elastic Constant Matrix: (Units=GPa)
#
#
# Indices 1 2 3 4 5 6 
#
# 1 234.9173 37.6534 70.2214 -12.2530 34.3071 28.0747
# 2 37.6534 152.5489 79.6368 -38.4532 -5.6246 30.2459
# 3 70.2214 79.6368 139.6828 -38.8725 9.5317 1.5521
# 4 -12.2530 -38.4532 -38.8725 79.6543 4.6563 -15.9789
# 5 34.3071 -5.6246 9.5317 4.6563 46.1337 -6.6312
# 6 28.0747 30.2459 1.5521 -15.9789 -6.6312 44.8301
#
#
#
# Elastic Compliance Matrix: (Units=1/GPa)
#
#
# Indices 1 2 3 4 5 6 
#
# 1 0.006554 0.001071 -0.003875 -0.001263 -0.004653 -0.005832
# 2 0.001071 0.011741 -0.006986 0.000780 0.000857 -0.007946
# 3 -0.003875 -0.006986 0.014318 0.004694 -0.000211 0.008286
# 4 -0.001263 0.000780 0.004694 0.016229 -0.000743 0.005778
# 5 -0.004653 0.000857 -0.000211 -0.000743 0.026216 0.005956
# 6 -0.005832 -0.007946 0.008286 0.005778 0.005956 0.033973
#
#
# Mechanical properties :
#
#
# Convention : Reuss Voigt Hill
#
# Bulk Modulus (GPa) = 76.71711 100.24137 88.47924
# Shear Modulus (GPa) = 37.60652 56.76612 47.18632
#
# Velocity S-wave (km/s) = 3.69245 4.53657 4.13610
# Velocity P-wave (km/s) = 6.78178 7.98642 7.40863
#
# Compressibility (1/GPa) = 0.01303490
#
# Stress axis : x y z
#
# Youngs Moduli (GPa) = 152.57859 85.16915 69.83998
#
# Poissons Ratio (x) = -0.09125 0.27062
# Poissons Ratio (y) = -0.16347 0.48789
# Poissons Ratio (z) = 0.59123 0.59498
#
# Static dielectric constant tensor:
#      x y z
#    x 2.137100 -0.133660 -0.140310 
#    y -0.133660 2.223570 0.036470 
#    z -0.140310 0.036470 2.270030 
# 
# From -- ./inp_files/25316.got.cif
#   From: 2010.05.17/outbox.cif.g08.bks.cpg/sg2_13_cif.got.tgz:25316.got - 2010.06.03 11:33:40.
