data_PCOD9010207
_publ_section_title
;
Structure prediction by ZEFSAII (Michael W. Deem and Ramdas Pophale) SiO2 
 PCOD9010207
Probable space group: P -1
;
_chemical_formula_sum "Si O2"
_cell_formula_units_Z 12
_cell_length_a 12.138706
_cell_length_b 5.151645
_cell_length_c 10.760332
_cell_angle_alpha 110.875462
_cell_angle_beta 49.751473
_cell_angle_gamma 84.561449
_cell_volume 427.138152
_symmetry_space_group_name_H-M "P -1"
_symmetry_group_IT_number 2
_symmetry_cell_setting 'triclinic'
loop_
_space_group_symop_operation_xyz
x,y,z
-x,-y,-z
loop_
_atom_site_type_symbol
_atom_site_label
_atom_site_fract_x
_atom_site_fract_y
_atom_site_fract_z
Si Si1 0.303123 0.241674 0.344566
Si Si2 0.135904 0.117479 0.943492
Si Si3 0.531080 0.441659 0.319676
Si Si4 0.104500 0.172826 0.704441
Si Si5 0.588173 0.629868 0.054397
Si Si6 0.895597 0.994155 0.691618
O O1 0.355202 0.493254 0.401327
O O2 0.220178 0.153366 0.503619
O O3 0.191037 0.227381 0.309951
O O4 0.490124 0.985319 0.144434
O O5 0.192631 0.131500 0.763827
O O6 0.293657 0.877963 0.862475
O O7 0.038748 0.469218 0.123602
O O8 0.000000 0.000000 0.000000
O O9 0.500000 0.500000 0.500000
O O10 0.565760 0.641513 0.222401
O O11 0.018401 0.946753 0.706662
O O12 0.500000 0.500000 0.000000
O O13 0.762892 0.349669 0.859764
O O14 0.000000 0.000000 0.500000
#
# Coordination Sequence:
#
# PCOD9010207 Si02
#       6
#     2   2   2   2   2   2
#     4  10  22  40  64  92 127 167 213 267 321 382
#     4  11  23  38  62  92 129 170 214 265 322 386
#     4  12  25  40  65 100 131 167 217 268 323 387
#     4  10  21  40  62  91 128 170 213 263 324 383
#     4  10  22  41  65  92 128 169 212 263 323 383
#     4   9  19  38  63  88 120 165 213 257 312 378
#
# _framework density 28.093952999999999
#
# number of rings (size 3 to 8) (size 9 to 14) (size 15 to 20)
#    0.000    1.667    0.000    4.000    0.000    8.000 
#    0.000    5.000    0.000   25.000    0.000    0.000 
#    0.000    0.000    0.000    0.000    0.000    0.000 
#
# Total GULP energy -66927.149175 kJ/mol
# GULP energy per Si atom -5577.262431 kJ/mol
# Density = 2.803001 g / cm^3
# Si number density = 28.093953 Si / 1000 Ang^3
#
#
#
# Elastic Constant Matrix: (Units=GPa)
#
#
# Indices 1 2 3 4 5 6 
#
# 1 211.1713 51.1665 36.7622 7.2447 -14.9531 20.1404
# 2 51.1665 59.5947 9.8404 -12.3375 6.0931 -13.2966
# 3 36.7622 9.8404 129.7853 -7.2912 -3.6557 -16.3380
# 4 7.2447 -12.3375 -7.2912 31.8707 -17.0078 -4.6281
# 5 -14.9531 6.0931 -3.6557 -17.0078 53.0958 -1.0538
# 6 20.1404 -13.2966 -16.3380 -4.6281 -1.0538 56.1918
#
#
#
# Elastic Compliance Matrix: (Units=1/GPa)
#
#
# Indices 1 2 3 4 5 6 
#
# 1 0.008632 -0.010005 -0.002912 -0.006957 0.001014 -0.006862
# 2 -0.010005 0.031345 0.003049 0.016717 -0.000587 0.013255
# 3 -0.002912 0.003049 0.009256 0.005358 0.001281 0.004922
# 4 -0.006957 0.016717 0.005358 0.049088 0.012459 0.012284
# 5 0.001014 -0.000587 0.001281 0.012459 0.023292 0.001333
# 6 -0.006862 0.013255 0.004922 0.012284 0.001333 0.025860
#
#
# Mechanical properties :
#
#
# Convention : Reuss Voigt Hill
#
# Bulk Modulus (GPa) = 33.90443 66.23215 50.06829
# Shear Modulus (GPa) = 28.24201 48.41714 38.32957
#
# Velocity S-wave (km/s) = 3.17404 4.15589 3.69770
# Velocity P-wave (km/s) = 5.05244 6.83044 6.00758
#
# Compressibility (1/GPa) = 0.02949467
#
# Stress axis : x y z
#
# Youngs Moduli (GPa) = 115.85355 31.90312 108.04377
#
# Poissons Ratio (x) = 0.31919 0.31467
# Poissons Ratio (y) = 1.15910 -0.32939
# Poissons Ratio (z) = 0.33742 -0.09726
#
# Static dielectric constant tensor:
#      x y z
#    x 2.221160 0.353820 0.221410 
#    y 0.353820 3.120590 1.015640 
#    z 0.221410 1.015640 3.355590 
# 
# From -- ./inp_files/28690.got.cif
#   From: 2010.05.17/outbox.cif.g08.bks.cpg/sg2_15_cif.got.tgz:28690.got - 2010.06.03 11:33:40.
