data_PCOD9010156
_publ_section_title
;
Structure prediction by ZEFSAII (Michael W. Deem and Ramdas Pophale) SiO2 
 PCOD9010156
Probable space group: P -1
;
_chemical_formula_sum "Si O2"
_cell_formula_units_Z 12
_cell_length_a 10.099468
_cell_length_b 10.357739
_cell_length_c 9.348964
_cell_angle_alpha 67.072050
_cell_angle_beta 62.864209
_cell_angle_gamma 40.202566
_cell_volume 560.340157
_symmetry_space_group_name_H-M "P -1"
_symmetry_group_IT_number 2
_symmetry_cell_setting 'triclinic'
loop_
_space_group_symop_operation_xyz
x,y,z
-x,-y,-z
loop_
_atom_site_type_symbol
_atom_site_label
_atom_site_fract_x
_atom_site_fract_y
_atom_site_fract_z
Si Si1 0.992849 0.787679 0.757340
Si Si2 0.194067 0.781863 0.932615
Si Si3 0.662776 0.588944 0.808666
Si Si4 0.422328 0.747830 0.304597
Si Si5 0.304815 0.513161 0.464054
Si Si6 0.309708 0.236821 0.021059
O O1 0.133156 0.781761 0.801143
O O2 0.120160 0.660946 0.607254
O O3 0.787734 0.018667 0.714645
O O4 0.901849 0.711822 0.916759
O O5 0.411454 0.723204 0.862483
O O6 0.230281 0.614713 0.075707
O O7 0.000000 0.000000 0.000000
O O8 0.749244 0.538111 0.627048
O O9 0.692539 0.704433 0.841904
O O10 0.373349 0.622968 0.332376
O O11 0.501338 0.683183 0.456293
O O12 0.617487 0.682943 0.147846
O O13 0.500000 0.000000 0.000000
#
# Coordination Sequence:
#
# PCOD9010156 Si02
#       6
#     2   2   2   2   2   2
#     4  11  23  40  64  91 122 163 207 249 304 367
#     4  11  22  39  65  92 121 163 212 254 296 362
#     4  11  23  39  60  92 127 159 204 256 307 363
#     4  10  21  40  62  89 124 161 203 251 306 364
#     4  11  22  37  62  92 125 160 198 254 313 363
#     4  10  22  43  64  87 124 166 208 253 303 363
#
# _framework density 21.415562000000001
#
# number of rings (size 3 to 8) (size 9 to 14) (size 15 to 20)
#    0.000    1.333    0.000    8.500    0.000    4.667 
#    0.000    3.333    0.000    0.000    0.000    0.000 
#    0.000    0.000    0.000    0.000    0.000    0.000 
#
# Total GULP energy -67128.790901 kJ/mol
# GULP energy per Si atom -5594.065908 kJ/mol
# Density = 2.136682 g / cm^3
# Si number density = 21.415562 Si / 1000 Ang^3
#
#
#
# Elastic Constant Matrix: (Units=GPa)
#
#
# Indices 1 2 3 4 5 6 
#
# 1 80.2553 30.5374 25.3631 7.0301 3.9544 -3.5125
# 2 30.5374 120.2700 38.5369 10.7111 13.3803 -17.7352
# 3 25.3631 38.5369 89.2870 12.2144 7.3330 3.3590
# 4 7.0301 10.7111 12.2144 38.0645 6.0965 5.6849
# 5 3.9544 13.3803 7.3330 6.0965 47.6273 5.4866
# 6 -3.5125 -17.7352 3.3590 5.6849 5.4866 38.4753
#
#
#
# Elastic Compliance Matrix: (Units=1/GPa)
#
#
# Indices 1 2 3 4 5 6 
#
# 1 0.014467 -0.002581 -0.002867 -0.001113 0.000046 0.000539
# 2 -0.002581 0.011676 -0.004030 -0.001977 -0.002907 0.006205
# 3 -0.002867 -0.004030 0.014211 -0.002425 -0.000164 -0.002979
# 4 -0.001113 -0.001977 -0.002425 0.028863 -0.002125 -0.004763
# 5 0.000046 -0.002907 -0.000164 -0.002125 0.022594 -0.004229
# 6 0.000539 0.006205 -0.002979 -0.004763 -0.004229 0.030467
#
#
# Mechanical properties :
#
#
# Convention : Reuss Voigt Hill
#
# Bulk Modulus (GPa) = 46.73612 53.18744 49.96178
# Shear Modulus (GPa) = 33.69999 37.85843 35.77921
#
# Velocity S-wave (km/s) = 3.97119 4.20908 4.09187
# Velocity P-wave (km/s) = 6.54966 6.96503 6.76053
#
# Compressibility (1/GPa) = 0.02139673
#
# Stress axis : x y z
#
# Youngs Moduli (GPa) = 69.12101 85.64696 70.36671
#
# Poissons Ratio (x) = 0.22105 0.20177
# Poissons Ratio (y) = 0.17840 0.28361
# Poissons Ratio (z) = 0.19820 0.34520
#
# Static dielectric constant tensor:
#      x y z
#    x 1.767710 0.006540 -0.021220 
#    y 0.006540 1.792700 -0.012000 
#    z -0.021220 -0.012000 1.798350 
# 
# From -- ./inp_files/157077.got.cif
#   From: 2010.05.17/outbox.cif.g08.bks.cpg/sg2_79_cif.got.tgz:157077.got - 2010.06.03 11:33:40.
