data_PCOD9010286
_publ_section_title
;
Structure prediction by ZEFSAII (Michael W. Deem and Ramdas Pophale) SiO2 
 PCOD9010286
Probable space group: P -1
;
_chemical_formula_sum "Si O2"
_cell_formula_units_Z 16
_cell_length_a 14.013740
_cell_length_b 11.370714
_cell_length_c 8.742607
_cell_angle_alpha 66.925436
_cell_angle_beta 37.006835
_cell_angle_gamma 54.845452
_cell_volume 679.025903
_symmetry_space_group_name_H-M "P -1"
_symmetry_group_IT_number 2
_symmetry_cell_setting 'triclinic'
loop_
_space_group_symop_operation_xyz
x,y,z
-x,-y,-z
loop_
_atom_site_type_symbol
_atom_site_label
_atom_site_fract_x
_atom_site_fract_y
_atom_site_fract_z
Si Si1 0.410476 0.260710 0.666126
Si Si2 0.755296 0.874115 0.580301
Si Si3 0.890181 0.388440 0.744815
Si Si4 0.555157 0.620621 0.904140
Si Si5 0.692541 0.190054 0.119284
Si Si6 0.828929 0.864856 0.126636
Si Si7 0.444298 0.850538 0.145541
Si Si8 0.114627 0.559630 0.919492
O O1 0.614587 0.199474 0.382399
O O2 0.310199 0.184078 0.744256
O O3 0.422364 0.215148 0.849015
O O4 0.313661 0.435354 0.688190
O O5 0.795594 0.877194 0.347243
O O6 0.913893 0.721738 0.513036
O O7 0.733056 0.011057 0.638931
O O8 0.559835 0.886179 0.854732
O O9 0.762608 0.527933 0.735238
O O10 0.798625 0.281884 0.926352
O O11 0.902338 0.440226 0.874386
O O12 0.491136 0.725811 0.787152
O O13 0.500000 0.500000 0.000000
O O14 0.431647 0.718752 0.150512
O O15 0.797525 0.020701 0.029344
O O16 0.026213 0.730393 0.909148
O O17 0.000000 0.500000 0.000000
#
# Coordination Sequence:
#
# PCOD9010286 Si02
#       8
#     2   2   2   2   2   2   2   2
#     4  11  21  39  64  97 127 158 213 267 310 371
#     4  10  23  39  66  93 124 161 210 266 314 373
#     4  10  22  45  62  90 128 171 214 250 320 380
#     4  10  23  44  62  89 129 171 211 252 313 383
#     4  11  23  39  67  89 129 174 205 257 318 374
#     4  10  21  40  62  96 128 161 210 258 323 372
#     4  11  22  40  66  94 121 163 216 262 314 369
#     4   9  20  39  62  92 129 153 207 268 311 368
#
# _framework density 23.563168000000001
#
# number of rings (size 3 to 8) (size 9 to 14) (size 15 to 20)
#    0.000    1.750    2.500    1.125    3.500    3.000 
#    6.750    2.500    0.000    0.000    0.000    0.000 
#    0.000    0.000    0.000    0.000    0.000    0.000 
#
# Total GULP energy -89288.476210 kJ/mol
# GULP energy per Si atom -5580.529763 kJ/mol
# Density = 2.350954 g / cm^3
# Si number density = 23.563168 Si / 1000 Ang^3
#
#
#
# Elastic Constant Matrix: (Units=GPa)
#
#
# Indices 1 2 3 4 5 6 
#
# 1 81.0484 49.2662 16.9692 12.5407 15.3992 6.2444
# 2 49.2662 175.7507 46.1704 39.3240 -2.5501 3.5700
# 3 16.9692 46.1704 53.2475 29.1830 1.7913 15.9587
# 4 12.5407 39.3240 29.1830 48.8263 5.2742 3.7734
# 5 15.3992 -2.5501 1.7913 5.2742 20.9223 7.8390
# 6 6.2444 3.5700 15.9587 3.7734 7.8390 42.5885
#
#
#
# Elastic Compliance Matrix: (Units=1/GPa)
#
#
# Indices 1 2 3 4 5 6 
#
# 1 0.018509 -0.005348 -0.002572 0.002634 -0.015191 0.001261
# 2 -0.005348 0.009420 -0.004691 -0.004151 0.006163 0.000986
# 3 -0.002572 -0.004691 0.036766 -0.017339 0.007349 -0.012823
# 4 0.002634 -0.004151 -0.017339 0.034345 -0.011705 0.005571
# 5 -0.015191 0.006163 0.007349 -0.011705 0.066648 -0.012273
# 6 0.001261 0.000986 -0.012823 0.005571 -0.012273 0.029784
#
#
# Mechanical properties :
#
#
# Convention : Reuss Voigt Hill
#
# Bulk Modulus (GPa) = 25.33365 59.42868 42.38116
# Shear Modulus (GPa) = 21.38106 35.64347 28.51226
#
# Velocity S-wave (km/s) = 3.01556 3.89353 3.48233
# Velocity P-wave (km/s) = 4.78535 6.74452 5.84757
#
# Compressibility (1/GPa) = 0.03947319
#
# Stress axis : x y z
#
# Youngs Moduli (GPa) = 54.02631 106.16103 27.19886
#
# Poissons Ratio (x) = 0.56779 0.06995
# Poissons Ratio (y) = 0.28895 0.12759
# Poissons Ratio (z) = 0.13894 0.49801
#
# Static dielectric constant tensor:
#      x y z
#    x 1.968870 0.005910 0.037320 
#    y 0.005910 1.989470 0.017530 
#    z 0.037320 0.017530 1.949520 
# 
# From -- ./inp_files/305046.got.cif
#   From: 2010.05.17/outbox.cif.g08.bks.cpg/sg2_153_cif.got.tgz:305046.got - 2010.06.03 11:33:40.
