data_PCOD9010201
_publ_section_title
;
Structure prediction by ZEFSAII (Michael W. Deem and Ramdas Pophale) SiO2 
 PCOD9010201
Probable space group: P -1
;
_chemical_formula_sum "Si O2"
_cell_formula_units_Z 14
_cell_length_a 17.324663
_cell_length_b 9.583535
_cell_length_c 12.093786
_cell_angle_alpha 139.053239
_cell_angle_beta 129.654381
_cell_angle_gamma 29.063783
_cell_volume 637.718212
_symmetry_space_group_name_H-M "P -1"
_symmetry_group_IT_number 2
_symmetry_cell_setting 'triclinic'
loop_
_space_group_symop_operation_xyz
x,y,z
-x,-y,-z
loop_
_atom_site_type_symbol
_atom_site_label
_atom_site_fract_x
_atom_site_fract_y
_atom_site_fract_z
Si Si1 0.104382 0.661140 0.459865
Si Si2 0.950375 0.517126 0.342692
Si Si3 0.539192 0.435665 0.250861
Si Si4 0.633619 0.908649 0.185587
Si Si5 0.566524 0.835326 0.643095
Si Si6 0.780499 0.224140 0.919789
Si Si7 0.719282 0.387745 0.217703
O O1 0.262505 0.358948 0.351699
O O2 0.157169 0.688454 0.638715
O O3 0.010687 0.601810 0.366467
O O4 0.000000 0.000000 0.500000
O O5 0.762702 0.797462 0.321640
O O6 0.000000 0.500000 0.500000
O O7 0.049916 0.140680 0.181851
O O8 0.555434 0.617303 0.451113
O O9 0.358760 0.706168 0.205991
O O10 0.655780 0.287154 0.165308
O O11 0.591860 0.143388 0.193389
O O12 0.478748 0.103831 0.232890
O O13 0.722359 0.547415 0.013145
O O14 0.433015 0.206087 0.690053
O O15 0.775816 0.245895 0.061393
#
# Coordination Sequence:
#
# PCOD9010201 Si02
#       7
#     2   2   2   2   2   2   2
#     4  11  23  41  65  95 125 160 207 258 307 361
#     4  12  24  43  66  90 121 166 208 253 312 374
#     4  11  20  37  63  92 122 161 207 256 305 360
#     4  11  24  40  60  94 128 159 206 262 307 356
#     4  10  21  41  65  90 123 165 208 251 302 372
#     4  11  23  40  60  88 125 167 205 251 310 373
#     4  10  21  40  62  91 125 164 208 253 305 372
#
# _framework density 21.95327
#
# number of rings (size 3 to 8) (size 9 to 14) (size 15 to 20)
#    0.000    1.143    0.000    9.429    0.000    2.286 
#    0.000    7.143    0.000    0.000    0.000    0.000 
#    0.000    0.000    0.000    0.000    0.000    0.000 
#
# Total GULP energy -78393.657287 kJ/mol
# GULP energy per Si atom -5599.546949 kJ/mol
# Density = 2.190330 g / cm^3
# Si number density = 21.953270 Si / 1000 Ang^3
#
#
#
# Elastic Constant Matrix: (Units=GPa)
#
#
# Indices 1 2 3 4 5 6 
#
# 1 91.9562 16.5114 17.5990 12.5388 0.4320 19.1337
# 2 16.5114 68.8572 20.5727 1.2743 -20.5325 16.5447
# 3 17.5990 20.5727 50.4201 17.0635 -17.1189 10.0357
# 4 12.5388 1.2743 17.0635 22.7501 -8.4549 12.2098
# 5 0.4320 -20.5325 -17.1189 -8.4549 31.6903 0.9956
# 6 19.1337 16.5447 10.0357 12.2098 0.9956 45.0596
#
#
#
# Elastic Compliance Matrix: (Units=1/GPa)
#
#
# Indices 1 2 3 4 5 6 
#
# 1 0.013256 -0.003386 -0.002600 -0.006046 -0.005328 -0.002051
# 2 -0.003386 0.025269 -0.007011 0.018697 0.017988 -0.011742
# 3 -0.002600 -0.007011 0.032938 -0.021062 0.007607 0.001881
# 4 -0.006046 0.018697 -0.021062 0.082968 0.023665 -0.022612
# 5 -0.005328 0.017988 0.007607 0.023665 0.054134 -0.013645
# 6 -0.002051 -0.011742 0.001881 -0.022612 -0.013645 0.033385
#
#
# Mechanical properties :
#
#
# Convention : Reuss Voigt Hill
#
# Bulk Modulus (GPa) = 21.99345 35.62218 28.80781
# Shear Modulus (GPa) = 17.66153 30.33668 23.99911
#
# Velocity S-wave (km/s) = 2.83946 3.72139 3.30993
# Velocity P-wave (km/s) = 4.55961 5.89293 5.26862
#
# Compressibility (1/GPa) = 0.04546809
#
# Stress axis : x y z
#
# Youngs Moduli (GPa) = 75.43476 39.57475 30.36013
#
# Poissons Ratio (x) = 0.13400 0.07894
# Poissons Ratio (y) = 0.25542 0.21286
# Poissons Ratio (z) = 0.19615 0.27747
#
# Static dielectric constant tensor:
#      x y z
#    x 1.830690 -0.004550 0.016890 
#    y -0.004550 1.760340 -0.025820 
#    z 0.016890 -0.025820 1.823090 
# 
# From -- ./inp_files/154980.got.cif
#   From: 2010.05.17/outbox.cif.g08.bks.cpg/sg2_78_cif.got.tgz:154980.got - 2010.06.03 11:33:40.
