data_PCOD9010278
_publ_section_title
;
Structure prediction by ZEFSAII (Michael W. Deem and Ramdas Pophale) SiO2 
 PCOD9010278
Probable space group: P -1
;
_chemical_formula_sum "Si O2"
_cell_formula_units_Z 14
_cell_length_a 10.757952
_cell_length_b 16.913677
_cell_length_c 19.910783
_cell_angle_alpha 21.091122
_cell_angle_beta 141.588308
_cell_angle_gamma 151.268886
_cell_volume 614.045510
_symmetry_space_group_name_H-M "P -1"
_symmetry_group_IT_number 2
_symmetry_cell_setting 'triclinic'
loop_
_space_group_symop_operation_xyz
x,y,z
-x,-y,-z
loop_
_atom_site_type_symbol
_atom_site_label
_atom_site_fract_x
_atom_site_fract_y
_atom_site_fract_z
Si Si1 0.244199 0.981657 0.480657
Si Si2 0.545437 0.807115 0.130489
Si Si3 0.417374 0.747013 0.835104
Si Si4 0.607569 0.034865 0.827595
Si Si5 0.862955 0.833343 0.892812
Si Si6 0.320065 0.282706 0.534069
Si Si7 0.808746 0.465771 0.286502
O O1 0.532671 0.290670 0.346643
O O2 0.265183 0.849867 0.661426
O O3 0.192610 0.766002 0.570475
O O4 0.989986 0.954033 0.393714
O O5 0.341815 0.481076 0.327765
O O6 0.830304 0.909377 0.189192
O O7 0.500000 0.000000 0.000000
O O8 0.554102 0.871656 0.004533
O O9 0.671015 0.899410 0.771932
O O10 0.512540 0.838697 0.877851
O O11 0.246245 0.406445 0.020282
O O12 0.446112 0.144640 0.675974
O O13 0.919946 0.311789 0.734559
O O14 0.827068 0.662886 0.080186
O O15 0.500000 0.500000 0.500000
#
# Coordination Sequence:
#
# PCOD9010278 Si02
#       7
#     2   2   2   2   2   2   2
#     4  10  21  40  62  95 136 168 223 268 325 405
#     4  11  22  42  70  98 133 177 227 265 325 413
#     4  10  22  41  65  97 136 167 225 279 333 388
#     4  11  24  43  68 102 134 172 225 281 323 392
#     4   9  21  42  68  93 128 183 217 271 342 392
#     4  12  23  42  71  96 131 183 219 267 342 394
#     4   9  19  38  66  94 126 173 221 273 319 395
#
# _framework density 22.799612
#
# number of rings (size 3 to 8) (size 9 to 14) (size 15 to 20)
#    0.000    1.714    2.857    1.714    2.000    5.714 
#    5.143    2.857    0.000    0.000    0.000    0.000 
#    0.000    0.000    0.000    0.000    0.000    0.000 
#
# Total GULP energy -78356.140847 kJ/mol
# GULP energy per Si atom -5596.867203 kJ/mol
# Density = 2.274772 g / cm^3
# Si number density = 22.799612 Si / 1000 Ang^3
#
#
#
# Elastic Constant Matrix: (Units=GPa)
#
#
# Indices 1 2 3 4 5 6 
#
# 1 77.4798 79.7988 40.5136 -10.0039 -10.0165 4.5844
# 2 79.7988 149.9477 32.1059 6.2321 -3.8597 7.2286
# 3 40.5136 32.1059 70.9660 8.7145 -12.6466 5.7303
# 4 -10.0039 6.2321 8.7145 17.4965 5.0474 -1.8094
# 5 -10.0165 -3.8597 -12.6466 5.0474 35.2228 0.6016
# 6 4.5844 7.2286 5.7303 -1.8094 0.6016 61.9547
#
#
#
# Elastic Compliance Matrix: (Units=1/GPa)
#
#
# Indices 1 2 3 4 5 6 
#
# 1 0.096820 -0.045692 -0.048921 0.099288 -0.009363 0.005682
# 2 -0.045692 0.028989 0.019874 -0.047912 0.004240 -0.003280
# 3 -0.048921 0.019874 0.043060 -0.060572 0.012484 -0.004572
# 4 0.099288 -0.047912 -0.060572 0.168752 -0.023098 0.008998
# 5 -0.009363 0.004240 0.012484 -0.023098 0.034019 -0.001961
# 6 0.005682 -0.003280 -0.004572 0.008998 -0.001961 0.016808
#
#
# Mechanical properties :
#
#
# Convention : Reuss Voigt Hill
#
# Bulk Modulus (GPa) = 51.57213 67.02557 59.29885
# Shear Modulus (GPa) = 9.18460 32.66647 20.92554
#
# Velocity S-wave (km/s) = 2.00927 3.78929 3.03281
# Velocity P-wave (km/s) = 5.29639 6.97184 6.19105
#
# Compressibility (1/GPa) = 0.01939032
#
# Stress axis : x y z
#
# Youngs Moduli (GPa) = 10.32844 34.49630 23.22314
#
# Poissons Ratio (x) = 1.57621 1.13611
# Poissons Ratio (y) = 0.47193 -0.46154
# Poissons Ratio (z) = 0.50528 -0.68559
#
# Static dielectric constant tensor:
#      x y z
#    x 1.874480 0.025680 -0.010980 
#    y 0.025680 1.859260 0.018140 
#    z -0.010980 0.018140 1.852360 
# 
# From -- ./inp_files/595944.got.cif
#   From: 2010.05.17/outbox.cif.g08.bks.cpg/sg2_298_cif.got.tgz:595944.got - 2010.06.03 11:33:40.
