data_PCOD9010514
_publ_section_title
;
Structure prediction by ZEFSAII (Michael W. Deem and Ramdas Pophale) SiO2 
 PCOD9010514
Probable space group: P -1
;
_chemical_formula_sum "Si O2"
_cell_formula_units_Z 14
_cell_length_a 8.713402
_cell_length_b 18.149031
_cell_length_c 20.360535
_cell_angle_alpha 21.365984
_cell_angle_beta 137.939603
_cell_angle_gamma 124.846430
_cell_volume 684.236863
_symmetry_space_group_name_H-M "P -1"
_symmetry_group_IT_number 2
_symmetry_cell_setting 'triclinic'
loop_
_space_group_symop_operation_xyz
x,y,z
-x,-y,-z
loop_
_atom_site_type_symbol
_atom_site_label
_atom_site_fract_x
_atom_site_fract_y
_atom_site_fract_z
Si Si1 0.193606 0.391618 0.745323
Si Si2 0.776990 0.876221 0.153307
Si Si3 0.039640 0.322037 0.220194
Si Si4 0.211069 0.659706 0.247959
Si Si5 0.485218 0.426399 0.927398
Si Si6 0.567606 0.074690 0.528361
Si Si7 0.053115 0.404925 0.901238
O O1 0.267320 0.236840 0.832438
O O2 0.431952 0.345700 0.907221
O O3 0.017684 0.662470 0.444713
O O4 0.998671 0.338883 0.769620
O O5 0.500000 0.000000 0.000000
O O6 0.843928 0.079669 0.993127
O O7 0.332524 0.120642 0.465767
O O8 0.025324 0.434680 0.192772
O O9 0.000000 0.500000 0.000000
O O10 0.788654 0.284434 0.164331
O O11 0.500000 0.500000 0.500000
O O12 0.174324 0.552630 0.257374
O O13 0.420593 0.691779 0.674915
O O14 0.282180 0.423305 0.918481
O O15 0.500000 0.000000 0.500000
O O16 0.829050 0.858913 0.817558
#
# Coordination Sequence:
#
# PCOD9010514 Si02
#       7
#     2   2   2   2   2   2   2
#     4  10  23  43  62  93 128 167 208 265 311 374
#     4  11  22  41  66  90 124 168 214 259 320 364
#     4  10  21  40  63  93 125 158 206 253 306 377
#     4  11  23  44  65  93 129 166 214 264 312 374
#     4  10  22  42  62  92 130 158 211 254 306 380
#     4  11  22  41  63  90 127 168 201 254 314 366
#     4  11  23  43  64  90 127 168 203 259 315 363
#
# _framework density 20.460750000000001
#
# number of rings (size 3 to 8) (size 9 to 14) (size 15 to 20)
#    0.000    1.429    4.286    1.714    0.000    2.857 
#   10.286    0.000    0.000    0.000    0.000    0.000 
#    0.000    0.000    0.000    0.000    0.000    0.000 
#
# Total GULP energy -78235.057527 kJ/mol
# GULP energy per Si atom -5588.218395 kJ/mol
# Density = 2.041418 g / cm^3
# Si number density = 20.460750 Si / 1000 Ang^3
#
#
#
# Elastic Constant Matrix: (Units=GPa)
#
#
# Indices 1 2 3 4 5 6 
#
# 1 60.3308 36.0484 41.4031 -9.6427 -4.3790 -24.2312
# 2 36.0484 104.3261 51.3059 7.3422 8.2938 -19.6934
# 3 41.4031 51.3059 62.0222 -2.1109 -3.3698 -0.8619
# 4 -9.6427 7.3422 -2.1109 31.7844 7.2244 -9.7145
# 5 -4.3790 8.2938 -3.3698 7.2244 33.8108 -13.6068
# 6 -24.2312 -19.6934 -0.8619 -9.7145 -13.6068 39.8232
#
#
#
# Elastic Compliance Matrix: (Units=1/GPa)
#
#
# Indices 1 2 3 4 5 6 
#
# 1 0.115079 0.013756 -0.083430 0.048806 0.032196 0.097926
# 2 0.013756 0.021024 -0.026134 0.003248 0.001124 0.019378
# 3 -0.083430 -0.026134 0.090241 -0.032195 -0.019162 -0.076136
# 4 0.048806 0.003248 -0.032195 0.055721 0.009504 0.047446
# 5 0.032196 0.001124 -0.019162 0.009504 0.044526 0.037264
# 6 0.097926 0.019378 -0.076136 0.047446 0.037264 0.116937
#
#
# Mechanical properties :
#
#
# Convention : Reuss Voigt Hill
#
# Bulk Modulus (GPa) = 28.79397 53.79932 41.29665
# Shear Modulus (GPa) = 7.73132 27.61179 17.67155
#
# Velocity S-wave (km/s) = 1.94597 3.67754 2.94203
# Velocity P-wave (km/s) = 4.37635 6.66209 5.63630
#
# Compressibility (1/GPa) = 0.03472950
#
# Stress axis : x y z
#
# Youngs Moduli (GPa) = 8.68966 47.56432 11.08148
#
# Poissons Ratio (x) = -0.65431 0.92453
# Poissons Ratio (y) = -0.11954 0.28960
# Poissons Ratio (z) = 0.72498 1.24304
#
# Static dielectric constant tensor:
#      x y z
#    x 1.720190 0.006450 -0.015440 
#    y 0.006450 1.735400 0.027110 
#    z -0.015440 0.027110 1.752450 
# 
# From -- ./inp_files/141674.got.cif
#   From: 2010.05.17/outbox.cif.g08.bks.cpg/sg2_71_cif.got.tgz:141674.got - 2010.06.03 11:33:40.
