data_PCOD9010710
_publ_section_title
;
Structure prediction by ZEFSAII (Michael W. Deem and Ramdas Pophale) SiO2 
 PCOD9010710
Probable space group: P -1
;
_chemical_formula_sum "Si O2"
_cell_formula_units_Z 14
_cell_length_a 14.061717
_cell_length_b 11.302541
_cell_length_c 5.090981
_cell_angle_alpha 70.175965
_cell_angle_beta 82.813869
_cell_angle_gamma 125.573512
_cell_volume 561.484265
_symmetry_space_group_name_H-M "P -1"
_symmetry_group_IT_number 2
_symmetry_cell_setting 'triclinic'
loop_
_space_group_symop_operation_xyz
x,y,z
-x,-y,-z
loop_
_atom_site_type_symbol
_atom_site_label
_atom_site_fract_x
_atom_site_fract_y
_atom_site_fract_z
Si Si1 0.162241 0.566677 0.126643
Si Si2 0.174724 0.015811 0.785895
Si Si3 0.569547 0.768922 0.230284
Si Si4 0.538858 0.117535 0.148457
Si Si5 0.971660 0.631028 0.197028
Si Si6 0.603228 0.533750 0.148231
Si Si7 0.856683 0.861513 0.774577
O O1 0.100845 0.415178 0.468849
O O2 0.084089 0.625359 0.180873
O O3 0.311024 0.719543 0.006193
O O4 0.125224 0.501629 0.891720
O O5 0.302220 0.058425 0.819994
O O6 0.213781 0.101680 0.424613
O O7 0.139168 0.087521 0.966272
O O8 0.048254 0.821301 0.945267
O O9 0.607698 0.656844 0.252229
O O10 0.450319 0.639777 0.567126
O O11 0.528825 0.809546 0.957976
O O12 0.500000 0.000000 0.500000
O O13 0.500000 0.000000 0.000000
O O14 0.500000 0.500000 0.000000
O O15 0.755506 0.656835 0.930574
O O16 0.000000 0.000000 0.500000
#
# Coordination Sequence:
#
# PCOD9010710 Si02
#       7
#     2   2   2   2   2   2   2
#     4  10  22  41  63  92 130 171 220 270 334 390
#     4  11  22  41  66  95 128 176 223 268 344 404
#     4  10  24  42  69  99 131 181 229 277 334 415
#     4  12  27  44  68 102 139 175 225 284 337 397
#     4  10  21  40  64  89 126 173 219 268 327 410
#     4  10  21  44  70  93 133 180 226 277 338 407
#     4  11  24  41  64  98 136 166 223 284 343 401
#
# _framework density 24.933911999999999
#
# number of rings (size 3 to 8) (size 9 to 14) (size 15 to 20)
#    0.000    1.429    1.429    3.000    2.000    5.714 
#    5.143    0.000    0.000    0.000    0.000    0.000 
#    0.000    0.000    0.000    0.000    0.000    0.000 
#
# Total GULP energy -78236.286526 kJ/mol
# GULP energy per Si atom -5588.306180 kJ/mol
# Density = 2.487716 g / cm^3
# Si number density = 24.933912 Si / 1000 Ang^3
#
#
#
# Elastic Constant Matrix: (Units=GPa)
#
#
# Indices 1 2 3 4 5 6 
#
# 1 109.0101 20.9125 32.1658 -11.6558 -8.4868 32.3674
# 2 20.9125 75.1680 10.5432 -8.7019 -15.8741 33.1824
# 3 32.1658 10.5432 126.1267 -13.3472 11.2652 14.8846
# 4 -11.6558 -8.7019 -13.3472 48.0562 11.3381 -8.1892
# 5 -8.4868 -15.8741 11.2652 11.3381 37.7706 -10.1229
# 6 32.3674 33.1824 14.8846 -8.1892 -10.1229 48.3043
#
#
#
# Elastic Compliance Matrix: (Units=1/GPa)
#
#
# Indices 1 2 3 4 5 6 
#
# 1 0.012136 0.000615 -0.002317 0.000808 0.001451 -0.007399
# 2 0.000615 0.020028 -0.000784 0.000122 0.005324 -0.012792
# 3 -0.002317 -0.000784 0.009488 0.002854 -0.004905 -0.001376
# 4 0.000808 0.000122 0.002854 0.023750 -0.007493 0.000952
# 5 0.001451 0.005324 -0.004905 -0.007493 0.033454 0.002623
# 6 -0.007399 -0.012792 -0.001376 0.000952 0.002623 0.035583
#
#
# Mechanical properties :
#
#
# Convention : Reuss Voigt Hill
#
# Bulk Modulus (GPa) = 27.26385 48.61640 37.94013
# Shear Modulus (GPa) = 32.97368 43.27178 38.12273
#
# Velocity S-wave (km/s) = 3.64049 4.17040 3.91442
# Velocity P-wave (km/s) = 5.35061 6.53683 5.97324
#
# Compressibility (1/GPa) = 0.03667860
#
# Stress axis : x y z
#
# Youngs Moduli (GPa) = 82.40285 49.93037 105.40064
#
# Poissons Ratio (x) = -0.03071 0.24423
# Poissons Ratio (y) = -0.05068 0.08263
# Poissons Ratio (z) = 0.19094 0.03915
#
# Static dielectric constant tensor:
#      x y z
#    x 2.103800 -0.049360 -0.011260 
#    y -0.049360 1.972490 -0.028010 
#    z -0.011260 -0.028010 2.049310 
# 
# From -- ./inp_files/94467.got.cif
#   From: 2010.05.17/outbox.cif.g08.bks.cpg/sg2_48_cif.got.tgz:94467.got - 2010.06.03 11:33:40.
