data_PCOD9010824
_publ_section_title
;
Structure prediction by ZEFSAII (Michael W. Deem and Ramdas Pophale) SiO2 
 PCOD9010824
Probable space group: P -1
;
_chemical_formula_sum "Si O2"
_cell_formula_units_Z 14
_cell_length_a 13.265189
_cell_length_b 21.355627
_cell_length_c 26.708520
_cell_angle_alpha 11.183723
_cell_angle_beta 27.232145
_cell_angle_gamma 26.175187
_cell_volume 643.943195
_symmetry_space_group_name_H-M "P -1"
_symmetry_group_IT_number 2
_symmetry_cell_setting 'triclinic'
loop_
_space_group_symop_operation_xyz
x,y,z
-x,-y,-z
loop_
_atom_site_type_symbol
_atom_site_label
_atom_site_fract_x
_atom_site_fract_y
_atom_site_fract_z
Si Si1 0.734292 0.046398 0.585636
Si Si2 0.024407 0.825336 0.265921
Si Si3 0.814590 0.678385 0.268034
Si Si4 0.696477 0.687820 0.681291
Si Si5 0.506167 0.971336 0.400134
Si Si6 0.423479 0.665286 0.293708
Si Si7 0.577953 0.277431 0.971903
O O1 0.621418 0.013556 0.607840
O O2 0.610817 0.407843 0.379502
O O3 0.662357 0.795538 0.852984
O O4 0.000000 0.000000 0.500000
O O5 0.762834 0.004621 0.256226
O O6 0.000000 0.500000 0.500000
O O7 0.184573 0.716030 0.329277
O O8 0.143416 0.074175 0.988461
O O9 0.611565 0.504291 0.504781
O O10 0.040734 0.360178 0.411999
O O11 0.758042 0.949607 0.126271
O O12 0.500000 0.000000 0.500000
O O13 0.646585 0.756011 0.708069
O O14 0.662112 0.368274 0.917305
O O15 0.544084 0.597407 0.700157
O O16 0.500000 0.000000 0.000000
#
# Coordination Sequence:
#
# PCOD9010824 Si02
#       7
#     2   2   2   2   2   2   2
#     4  11  25  42  65  91 129 180 221 270 337 398
#     4  12  23  42  75 101 126 176 230 276 329 398
#     4  11  23  40  69  96 134 179 221 272 334 395
#     4  10  22  36  63 101 135 167 212 283 336 393
#     4  11  23  42  64 100 134 166 222 281 330 393
#     4  11  26  45  67  98 136 175 226 279 329 399
#     4  10  21  40  64  93 127 173 223 268 333 394
#
# _framework density 21.741049
#
# number of rings (size 3 to 8) (size 9 to 14) (size 15 to 20)
#    0.000    1.143    2.857    3.000    2.000    8.000 
#    0.000    1.429    0.000    0.000    0.000    0.000 
#    0.000    0.000    0.000    0.000    0.000    0.000 
#
# Total GULP energy -78096.542906 kJ/mol
# GULP energy per Si atom -5578.324493 kJ/mol
# Density = 2.169157 g / cm^3
# Si number density = 21.741049 Si / 1000 Ang^3
#
#
#
# Elastic Constant Matrix: (Units=GPa)
#
#
# Indices 1 2 3 4 5 6 
#
# 1 75.1196 49.9914 42.8223 8.1113 12.0380 6.2336
# 2 49.9914 188.0782 34.7764 7.9537 0.9022 27.1009
# 3 42.8223 34.7764 128.2581 15.2558 21.8197 22.1854
# 4 8.1113 7.9537 15.2558 38.8272 2.7543 -2.5784
# 5 12.0380 0.9022 21.8197 2.7543 25.8693 -2.9572
# 6 6.2336 27.1009 22.1854 -2.5784 -2.9572 36.3812
#
#
#
# Elastic Compliance Matrix: (Units=1/GPa)
#
#
# Indices 1 2 3 4 5 6 
#
# 1 0.019842 -0.004693 -0.004970 -0.000732 -0.004490 0.002710
# 2 -0.004693 0.007225 0.000352 -0.001040 0.001200 -0.004769
# 3 -0.004970 0.000352 0.012785 -0.003965 -0.009001 -0.008220
# 4 -0.000732 -0.001040 -0.003965 0.027941 0.001365 0.005409
# 5 -0.004490 0.001200 -0.009001 0.001365 0.049232 0.009462
# 6 0.002710 -0.004769 -0.008220 0.005409 0.009462 0.036740
#
#
# Mechanical properties :
#
#
# Convention : Reuss Voigt Hill
#
# Bulk Modulus (GPa) = 47.10250 71.84844 59.47547
# Shear Modulus (GPa) = 27.86078 37.80659 32.83369
#
# Velocity S-wave (km/s) = 3.58366 4.17460 3.89037
# Velocity P-wave (km/s) = 6.23184 7.50703 6.89896
#
# Compressibility (1/GPa) = 0.02123030
#
# Stress axis : x y z
#
# Youngs Moduli (GPa) = 50.39733 138.41681 78.21401
#
# Poissons Ratio (x) = 0.64961 0.38874
# Poissons Ratio (y) = 0.23652 -0.02756
# Poissons Ratio (z) = 0.25049 -0.04877
#
# Static dielectric constant tensor:
#      x y z
#    x 1.921610 0.004550 0.085300 
#    y 0.004550 1.771390 0.012950 
#    z 0.085300 0.012950 1.909900 
# 
# From -- ./inp_files/623702.got.cif
#   From: 2010.05.17/outbox.cif.g08.bks.cpg/sg2_312_cif.got.tgz:623702.got - 2010.06.03 11:33:40.
