data_PCOD9010274
_publ_section_title
;
Structure prediction by ZEFSAII (Michael W. Deem and Ramdas Pophale) SiO2 
 PCOD9010274
Probable space group: P -1
;
_chemical_formula_sum "Si O2"
_cell_formula_units_Z 16
_cell_length_a 11.506707
_cell_length_b 18.563117
_cell_length_c 17.623417
_cell_angle_alpha 31.810710
_cell_angle_beta 28.289213
_cell_angle_gamma 21.481176
_cell_volume 643.203003
_symmetry_space_group_name_H-M "P -1"
_symmetry_group_IT_number 2
_symmetry_cell_setting 'triclinic'
loop_
_space_group_symop_operation_xyz
x,y,z
-x,-y,-z
loop_
_atom_site_type_symbol
_atom_site_label
_atom_site_fract_x
_atom_site_fract_y
_atom_site_fract_z
Si Si1 0.318308 0.056335 0.804633
Si Si2 0.042683 0.429156 0.952199
Si Si3 0.297153 0.013134 0.018367
Si Si4 0.861605 0.323225 0.371808
Si Si5 0.244974 0.404454 0.577611
Si Si6 0.876298 0.788502 0.375335
Si Si7 0.944789 0.910639 0.384685
Si Si8 0.807268 0.460281 0.904186
O O1 0.301454 0.226338 0.678750
O O2 0.099187 0.132537 0.785133
O O3 0.184172 0.034800 0.976112
O O4 0.730017 0.849061 0.739337
O O5 0.248334 0.474841 0.756233
O O6 0.743650 0.525076 0.971509
O O7 0.287208 0.195327 0.030101
O O8 0.000000 0.500000 0.000000
O O9 0.106138 0.994471 0.205528
O O10 0.161200 0.221177 0.921853
O O11 0.605470 0.324583 0.473505
O O12 0.880356 0.261167 0.501510
O O13 0.117909 0.556031 0.448306
O O14 0.938686 0.524600 0.712932
O O15 0.961459 0.838878 0.356213
O O16 0.464133 0.911172 0.511970
O O17 0.500000 0.500000 0.000000
#
# Coordination Sequence:
#
# PCOD9010274 Si02
#       8
#     2   2   2   2   2   2   2   2
#     4  10  23  41  61  96 139 175 221 285 345 403
#     4  12  25  47  72 103 141 184 232 289 347 412
#     4  11  23  45  67 104 136 185 228 284 347 416
#     4  11  23  44  69  97 132 179 232 286 333 410
#     4  11  22  42  69  97 133 179 234 276 345 406
#     4  10  21  40  62  95 132 176 225 284 338 406
#     4  10  22  40  68  93 130 178 230 276 342 409
#     4  11  26  47  72 104 145 185 230 285 352 418
#
# _framework density 24.875506999999999
#
# number of rings (size 3 to 8) (size 9 to 14) (size 15 to 20)
#    0.000    1.250    1.250    4.125    0.000    5.000 
#   15.750    0.000    0.000    0.000    0.000    0.000 
#    0.000    0.000    0.000    0.000    0.000    0.000 
#
# Total GULP energy -89437.782651 kJ/mol
# GULP energy per Si atom -5589.861416 kJ/mol
# Density = 2.481889 g / cm^3
# Si number density = 24.875507 Si / 1000 Ang^3
#
#
#
# Elastic Constant Matrix: (Units=GPa)
#
#
# Indices 1 2 3 4 5 6 
#
# 1 156.1131 23.5817 24.7793 -4.1188 29.2094 -21.7826
# 2 23.5817 76.5981 10.9576 -7.0309 7.6141 -7.4275
# 3 24.7793 10.9576 83.7794 -21.6754 26.5812 -15.5641
# 4 -4.1188 -7.0309 -21.6754 28.6535 -5.1596 7.7065
# 5 29.2094 7.6141 26.5812 -5.1596 49.8568 -10.2889
# 6 -21.7826 -7.4275 -15.5641 7.7065 -10.2889 30.2765
#
#
#
# Elastic Compliance Matrix: (Units=1/GPa)
#
#
# Indices 1 2 3 4 5 6 
#
# 1 0.007944 -0.001752 -0.000686 -0.001532 -0.003313 0.004197
# 2 -0.001752 0.014034 -0.000283 0.002566 -0.000446 0.001232
# 3 -0.000686 -0.000283 0.018030 0.011252 -0.007310 0.003357
# 4 -0.001532 0.002566 0.011252 0.045294 -0.002246 -0.006981
# 5 -0.003313 -0.000446 -0.007310 -0.002246 0.026412 0.003296
# 6 0.004197 0.001232 0.003357 -0.006981 0.003296 0.040974
#
#
# Mechanical properties :
#
#
# Convention : Reuss Voigt Hill
#
# Bulk Modulus (GPa) = 28.92934 48.34755 38.63844
# Shear Modulus (GPa) = 29.47189 38.90215 34.18702
#
# Velocity S-wave (km/s) = 3.44579 3.95887 3.71121
# Velocity P-wave (km/s) = 5.24273 6.35413 5.82499
#
# Compressibility (1/GPa) = 0.03456698
#
# Stress axis : x y z
#
# Youngs Moduli (GPa) = 125.87648 71.25369 55.46242
#
# Poissons Ratio (x) = 0.12483 0.03805
# Poissons Ratio (y) = 0.22052 0.01570
# Poissons Ratio (z) = 0.08635 0.02017
#
# Static dielectric constant tensor:
#      x y z
#    x 2.038570 0.019080 0.035070 
#    y 0.019080 2.024910 0.008900 
#    z 0.035070 0.008900 1.914370 
# 
# From -- ./inp_files/419104.got.cif
#   From: 2010.05.17/outbox.cif.g08.bks.cpg/sg2_210_cif.got.tgz:419104.got - 2010.06.03 11:33:40.
