data_PCOD9010718
_publ_section_title
;
Structure prediction by ZEFSAII (Michael W. Deem and Ramdas Pophale) SiO2 
 PCOD9010718
Probable space group: P -1
;
_chemical_formula_sum "Si O2"
_cell_formula_units_Z 16
_cell_length_a 12.802221
_cell_length_b 9.490037
_cell_length_c 7.158473
_cell_angle_alpha 89.660111
_cell_angle_beta 128.422258
_cell_angle_gamma 101.732080
_cell_volume 658.866968
_symmetry_space_group_name_H-M "P -1"
_symmetry_group_IT_number 2
_symmetry_cell_setting 'triclinic'
loop_
_space_group_symop_operation_xyz
x,y,z
-x,-y,-z
loop_
_atom_site_type_symbol
_atom_site_label
_atom_site_fract_x
_atom_site_fract_y
_atom_site_fract_z
Si Si1 0.296041 0.543868 0.291059
Si Si2 0.413088 0.284967 0.997054
Si Si3 0.209213 0.996011 0.148038
Si Si4 0.151491 0.406230 0.770552
Si Si5 0.717541 0.344670 0.326600
Si Si6 0.422074 0.278280 0.455638
Si Si7 0.034159 0.877835 0.292161
Si Si8 0.272244 0.965245 0.804409
O O1 0.256429 0.620680 0.426795
O O2 0.351932 0.407281 0.431585
O O3 0.418343 0.660582 0.317664
O O4 0.186469 0.471739 0.016106
O O5 0.275872 0.341395 0.825857
O O6 0.380389 0.119055 0.891767
O O7 0.565999 0.367615 0.102975
O O8 0.427301 0.281303 0.236546
O O9 0.262656 0.938884 0.018073
O O10 0.127447 0.883385 0.209947
O O11 0.099490 0.077985 0.938127
O O12 0.328928 0.116423 0.387761
O O13 0.162229 0.543703 0.650637
O O14 0.021965 0.271821 0.658900
O O15 0.704465 0.177306 0.266081
O O16 0.131152 0.982126 0.549233
#
# Coordination Sequence:
#
# PCOD9010718 Si02
#       8
#     2   2   2   2   2   2   2   2
#     4   9  18  35  57  86 121 153 188 244 299 351
#     4   9  19  40  63  90 120 153 204 251 290 353
#     4  10  21  40  64  90 113 157 207 257 289 339
#     4  11  22  40  62  92 119 156 207 251 284 354
#     4  11  24  37  62  92 126 160 188 242 319 355
#     4   8  15  34  61  87 114 147 199 252 290 337
#     4  11  23  39  64  89 114 160 210 245 295 345
#     4  11  23  41  61  91 126 157 195 247 299 368
#
# _framework density 24.284113999999999
#
# number of rings (size 3 to 8) (size 9 to 14) (size 15 to 20)
#    0.000    2.000    3.750    1.875    0.000    4.500 
#    0.000    1.250    0.000    6.000    0.000    0.000 
#    0.000    0.000    0.000    0.000    0.000    0.000 
#
# Total GULP energy -89359.226521 kJ/mol
# GULP energy per Si atom -5584.951658 kJ/mol
# Density = 2.422884 g / cm^3
# Si number density = 24.284114 Si / 1000 Ang^3
#
#
#
# Elastic Constant Matrix: (Units=GPa)
#
#
# Indices 1 2 3 4 5 6 
#
# 1 104.7799 44.4167 14.6331 1.5629 -13.2297 6.8650
# 2 44.4167 96.4156 29.7582 20.7920 -5.8408 3.5836
# 3 14.6331 29.7582 85.1684 44.8513 -12.4394 22.8648
# 4 1.5629 20.7920 44.8513 53.2929 -7.1680 13.1152
# 5 -13.2297 -5.8408 -12.4394 -7.1680 45.1962 11.1857
# 6 6.8650 3.5836 22.8648 13.1152 11.1857 48.7754
#
#
#
# Elastic Compliance Matrix: (Units=1/GPa)
#
#
# Indices 1 2 3 4 5 6 
#
# 1 0.012955 -0.006239 -0.000698 0.003956 0.004179 -0.003060
# 2 -0.006239 0.014820 -0.003048 -0.003992 -0.002068 0.002766
# 3 -0.000698 -0.003048 0.024818 -0.016960 0.005527 -0.008019
# 4 0.003956 -0.003992 -0.016960 0.035337 0.002150 -0.002308
# 5 0.004179 -0.002068 0.005527 0.002150 0.027391 -0.009887
# 6 -0.003060 0.002766 -0.008019 -0.002308 -0.009887 0.027377
#
#
# Mechanical properties :
#
#
# Convention : Reuss Voigt Hill
#
# Bulk Modulus (GPa) = 30.65319 51.55335 41.10327
# Shear Modulus (GPa) = 28.81152 42.62329 35.71740
#
# Velocity S-wave (km/s) = 3.44820 4.19405 3.83928
# Velocity P-wave (km/s) = 5.33888 6.68795 6.05113
#
# Compressibility (1/GPa) = 0.03262303
#
# Stress axis : x y z
#
# Youngs Moduli (GPa) = 77.18932 67.47758 40.29300
#
# Poissons Ratio (x) = 0.42101 0.02811
# Poissons Ratio (y) = 0.48160 0.12283
# Poissons Ratio (z) = 0.05384 0.20569
#
# Static dielectric constant tensor:
#      x y z
#    x 1.963920 -0.055560 0.036830 
#    y -0.055560 1.846980 -0.101480 
#    z 0.036830 -0.101480 1.902130 
# 
# From -- ./inp_files/295875.got.cif
#   From: 2010.05.17/outbox.cif.g08.bks.cpg/sg2_148_cif.got.tgz:295875.got - 2010.06.03 11:33:40.
