data_PCOD9010445
_publ_section_title
;
Structure prediction by ZEFSAII (Michael W. Deem and Ramdas Pophale) SiO2 
 PCOD9010445
Probable space group: P -1
;
_chemical_formula_sum "Si O2"
_cell_formula_units_Z 12
_cell_length_a 10.949618
_cell_length_b 5.616123
_cell_length_c 8.208217
_cell_angle_alpha 66.577025
_cell_angle_beta 99.138931
_cell_angle_gamma 105.354934
_cell_volume 445.812498
_symmetry_space_group_name_H-M "P -1"
_symmetry_group_IT_number 2
_symmetry_cell_setting 'triclinic'
loop_
_space_group_symop_operation_xyz
x,y,z
-x,-y,-z
loop_
_atom_site_type_symbol
_atom_site_label
_atom_site_fract_x
_atom_site_fract_y
_atom_site_fract_z
Si Si1 0.769569 0.073704 0.120743
Si Si2 0.342613 0.668139 0.543431
Si Si3 0.253517 0.402822 0.962737
Si Si4 0.620494 0.701541 0.655020
Si Si5 0.904994 0.733988 0.434689
Si Si6 0.963956 0.370074 0.806000
O O1 0.861122 0.218502 0.953378
O O2 0.692450 0.279434 0.115603
O O3 0.701654 0.802822 0.092552
O O4 0.841062 0.977849 0.315411
O O5 0.469563 0.632701 0.670389
O O6 0.355537 0.510233 0.418191
O O7 0.200002 0.513508 0.597040
O O8 0.350075 0.982171 0.460468
O O9 0.100579 0.377233 0.917157
O O10 0.293735 0.325137 0.167618
O O11 0.934751 0.639899 0.646249
O O12 0.022563 0.778055 0.322294
#
# Coordination Sequence:
#
# PCOD9010445 Si02
#       6
#     2   2   2   2   2   2
#     4  11  24  40  60  91 127 163 200 248 305 357
#     4  10  22  39  63  92 121 161 204 250 305 360
#     4  11  21  38  61  87 120 162 202 245 304 358
#     4  10  21  40  64  90 123 159 202 254 306 358
#     4  10  21  40  63  91 124 161 208 247 297 370
#     4  10  22  39  62  91 126 164 200 250 305 356
#
# _framework density 26.917142999999999
#
# number of rings (size 3 to 8) (size 9 to 14) (size 15 to 20)
#    0.000    1.667    0.000    5.500    0.000    4.667 
#    0.000    7.500    0.000    0.000    0.000    0.000 
#    0.000    0.000    0.000    0.000    0.000    0.000 
#
# Total GULP energy -66993.856143 kJ/mol
# GULP energy per Si atom -5582.821345 kJ/mol
# Density = 2.685588 g / cm^3
# Si number density = 26.917143 Si / 1000 Ang^3
#
#
#
# Elastic Constant Matrix: (Units=GPa)
#
#
# Indices 1 2 3 4 5 6 
#
# 1 83.7952 49.0327 70.0717 9.6273 -7.2380 -7.7316
# 2 49.0327 158.8720 32.8134 5.9072 -33.9061 -18.2807
# 3 70.0717 32.8134 185.4295 -17.6501 17.2574 7.3075
# 4 9.6273 5.9072 -17.6501 30.7954 8.8232 9.2008
# 5 -7.2380 -33.9061 17.2574 8.8232 31.5405 -0.9641
# 6 -7.7316 -18.2807 7.3075 9.2008 -0.9641 54.5116
#
#
#
# Elastic Compliance Matrix: (Units=1/GPa)
#
#
# Indices 1 2 3 4 5 6 
#
# 1 0.041949 0.006511 -0.026724 -0.048947 0.045575 0.020783
# 2 0.006511 0.015365 -0.010775 -0.023606 0.030879 0.012051
# 3 -0.026724 -0.010775 0.026596 0.044391 -0.045275 -0.019263
# 4 -0.048947 -0.023606 0.044391 0.117645 -0.095102 -0.042348
# 5 0.045575 0.030879 -0.045275 -0.095102 0.127995 0.041205
# 6 0.020783 0.012051 -0.019263 -0.042348 0.041205 0.035793
#
#
# Mechanical properties :
#
#
# Convention : Reuss Voigt Hill
#
# Bulk Modulus (GPa) = 45.59071 81.32581 63.45826
# Shear Modulus (GPa) = 11.50405 41.78143 26.64274
#
# Velocity S-wave (km/s) = 2.06958 3.94410 3.14953
# Velocity P-wave (km/s) = 4.76288 7.14284 6.07064
#
# Compressibility (1/GPa) = 0.02193429
#
# Stress axis : x y z
#
# Youngs Moduli (GPa) = 23.83850 65.08353 37.59925
#
# Poissons Ratio (x) = -0.42374 1.00479
# Poissons Ratio (y) = -0.15521 0.40513
# Poissons Ratio (z) = 0.63705 0.70127
#
# Static dielectric constant tensor:
#      x y z
#    x 2.105550 -0.040910 -0.055320 
#    y -0.040910 2.213620 0.009200 
#    z -0.055320 0.009200 2.214050 
# 
# From -- ./inp_files/286202.got.cif
#   From: 2010.05.17/outbox.cif.g08.bks.cpg/sg2_144_cif.got.tgz:286202.got - 2010.06.03 11:33:40.
