data_PCOD9010173
_publ_section_title
;
Structure prediction by ZEFSAII (Michael W. Deem and Ramdas Pophale) SiO2 
 PCOD9010173
Probable space group: P -1
;
_chemical_formula_sum "Si O2"
_cell_formula_units_Z 16
_cell_length_a 5.313011
_cell_length_b 7.318086
_cell_length_c 29.018140
_cell_angle_alpha 48.658944
_cell_angle_beta 123.815234
_cell_angle_gamma 130.225738
_cell_volume 629.919105
_symmetry_space_group_name_H-M "P -1"
_symmetry_group_IT_number 2
_symmetry_cell_setting 'triclinic'
loop_
_space_group_symop_operation_xyz
x,y,z
-x,-y,-z
loop_
_atom_site_type_symbol
_atom_site_label
_atom_site_fract_x
_atom_site_fract_y
_atom_site_fract_z
Si Si1 0.980215 0.663120 0.834668
Si Si2 0.970283 0.372565 0.733981
Si Si3 0.811902 0.649795 0.927049
Si Si4 0.483477 0.350520 0.571571
Si Si5 0.188535 0.071015 0.457664
Si Si6 0.428118 0.806843 0.185077
Si Si7 0.790876 0.897993 0.042131
Si Si8 0.570655 0.937385 0.696340
O O1 0.907434 0.683804 0.877607
O O2 0.785538 0.340776 0.857523
O O3 0.794052 0.786623 0.759943
O O4 0.373701 0.875393 0.834380
O O5 0.831240 0.348534 0.774983
O O6 0.647238 0.159493 0.707747
O O7 0.249272 0.260224 0.774870
O O8 0.195999 0.691798 0.693278
O O9 0.962906 0.945836 0.916604
O O10 0.424512 0.425275 0.928560
O O11 0.000000 0.500000 0.000000
O O12 0.500000 0.500000 0.500000
O O13 0.649341 0.601003 0.582328
O O14 0.657681 0.145199 0.627340
O O15 0.089816 0.134682 0.571798
O O16 0.500000 0.000000 0.500000
O O17 0.000000 0.000000 0.500000
O O18 0.500000 0.000000 0.000000
O O19 0.000000 0.000000 0.000000
#
# Coordination Sequence:
#
# PCOD9010173 Si02
#       8
#     2   2   2   2   2   2   2   2
#     4  10  21  40  65  93 127 168 212 264 318 378
#     4  10  21  40  62  90 124 162 206 256 310 372
#     4  10  21  40  62  93 128 168 214 264 318 378
#     4  10  21  40  65  93 127 165 209 260 314 376
#     4  10  21  40  62  90 122 160 202 250 304 364
#     4  10  21  40  62  90 122 162 206 256 312 372
#     4  10  21  40  62  90 124 164 208 258 312 372
#     4  10  21  40  62  93 125 165 210 260 316 376
#
# _framework density 25.400085000000001
#
# number of rings (size 3 to 8) (size 9 to 14) (size 15 to 20)
#    0.000    2.000    0.000    3.000    0.000    0.000 
#    0.000   60.000    0.000    0.000    0.000    0.000 
#    0.000    0.000    0.000    0.000    0.000    0.000 
#
# Total GULP energy -89282.156655 kJ/mol
# GULP energy per Si atom -5580.134791 kJ/mol
# Density = 2.534227 g / cm^3
# Si number density = 25.400085 Si / 1000 Ang^3
#
#
#
# Elastic Constant Matrix: (Units=GPa)
#
#
# Indices 1 2 3 4 5 6 
#
# 1 78.0748 29.6505 14.8619 -16.2914 -2.3571 -6.3961
# 2 29.6505 299.2012 53.8643 1.7914 16.9977 -16.4146
# 3 14.8619 53.8643 103.1351 -16.9280 14.6685 -7.8718
# 4 -16.2914 1.7914 -16.9280 59.7421 -3.8580 5.8961
# 5 -2.3571 16.9977 14.6685 -3.8580 25.1362 8.7492
# 6 -6.3961 -16.4146 -7.8718 5.8961 8.7492 45.1428
#
#
#
# Elastic Compliance Matrix: (Units=1/GPa)
#
#
# Indices 1 2 3 4 5 6 
#
# 1 0.014513 -0.001442 -0.001203 0.003880 0.003593 0.000119
# 2 -0.001442 0.004026 -0.001596 -0.001307 -0.002711 0.001678
# 3 -0.001203 -0.001596 0.012234 0.002530 -0.006596 0.002330
# 4 0.003880 -0.001307 0.002530 0.019051 0.003626 -0.002675
# 5 0.003593 -0.002711 -0.006596 0.003626 0.050497 -0.011888
# 6 0.000119 0.001678 0.002330 -0.002675 -0.011888 0.025839
#
#
# Mechanical properties :
#
#
# Convention : Reuss Voigt Hill
#
# Bulk Modulus (GPa) = 44.86143 75.24048 60.05096
# Shear Modulus (GPa) = 35.19325 51.47318 43.33321
#
# Velocity S-wave (km/s) = 3.72634 4.50655 4.13489
# Velocity P-wave (km/s) = 6.01784 7.53426 6.81834
#
# Compressibility (1/GPa) = 0.02229086
#
# Stress axis : x y z
#
# Youngs Moduli (GPa) = 68.90424 248.36354 81.73856
#
# Poissons Ratio (x) = 0.35825 0.09833
# Poissons Ratio (y) = 0.09939 0.13044
# Poissons Ratio (z) = 0.08289 0.39635
#
# Static dielectric constant tensor:
#      x y z
#    x 1.970740 -0.085790 0.220880 
#    y -0.085790 2.103140 -0.112880 
#    z 0.220880 -0.112880 2.314850 
# 
# From -- ./inp_files/142292.got.cif
#   From: 2010.05.17/outbox.cif.g08.bks.cpg/sg2_72_cif.got.tgz:142292.got - 2010.06.03 11:33:40.
