data_PCOD9010138
_publ_section_title
;
Structure prediction by ZEFSAII (Michael W. Deem and Ramdas Pophale) SiO2 
 PCOD9010138
Probable space group: P -1
;
_chemical_formula_sum "Si O2"
_cell_formula_units_Z 12
_cell_length_a 4.976350
_cell_length_b 21.782106
_cell_length_c 5.338815
_cell_angle_alpha 54.973701
_cell_angle_beta 93.936396
_cell_angle_gamma 69.302925
_cell_volume 414.532412
_symmetry_space_group_name_H-M "P -1"
_symmetry_group_IT_number 2
_symmetry_cell_setting 'triclinic'
loop_
_space_group_symop_operation_xyz
x,y,z
-x,-y,-z
loop_
_atom_site_type_symbol
_atom_site_label
_atom_site_fract_x
_atom_site_fract_y
_atom_site_fract_z
Si Si1 0.336387 0.929609 0.762084
Si Si2 0.339840 0.761523 0.651712
Si Si3 0.355384 0.118473 0.606008
Si Si4 0.123497 0.515115 0.186260
Si Si5 0.470536 0.267900 0.767410
Si Si6 0.149023 0.596886 0.448401
O O1 0.568773 0.920157 0.575777
O O2 0.431443 0.940917 0.019125
O O3 0.364742 0.835009 0.993479
O O4 0.000000 0.000000 0.500000
O O5 0.561867 0.804179 0.577575
O O6 0.440566 0.704438 0.547818
O O7 0.996919 0.839144 0.440944
O O8 0.393688 0.711188 0.028858
O O9 0.108820 0.599480 0.132404
O O10 0.489824 0.448388 0.371334
O O11 0.000000 0.500000 0.500000
O O12 0.943912 0.455862 0.202088
O O13 0.109190 0.310442 0.689758
#
# Coordination Sequence:
#
# PCOD9010138 Si02
#       6
#     2   2   2   2   2   2
#     4  10  21  41  65  95 133 174 221 273 327 388
#     4  10  22  40  63  90 130 162 218 268 322 385
#     4  10  21  40  62  88 123 171 215 269 324 382
#     4  10  22  43  66  96 130 172 215 274 337 404
#     4  10  23  42  63  99 129 176 219 274 328 395
#     4  10  23  40  65  97 131 169 223 271 333 403
#
# _framework density 28.948276
#
# number of rings (size 3 to 8) (size 9 to 14) (size 15 to 20)
#    0.000    2.000    0.000    2.000    2.333    5.333 
#    0.000   20.000    0.000    0.000    0.000    0.000 
#    0.000    0.000    0.000    0.000    0.000    0.000 
#
# Total GULP energy -67107.261217 kJ/mol
# GULP energy per Si atom -5592.271768 kJ/mol
# Density = 2.888239 g / cm^3
# Si number density = 28.948276 Si / 1000 Ang^3
#
#
#
# Elastic Constant Matrix: (Units=GPa)
#
#
# Indices 1 2 3 4 5 6 
#
# 1 143.4051 72.6576 56.8916 5.8011 16.1884 -34.4136
# 2 72.6576 214.5276 78.0486 35.4081 24.5182 -32.1710
# 3 56.8916 78.0486 171.5507 49.5513 28.9104 -11.1242
# 4 5.8011 35.4081 49.5513 86.6782 5.2431 6.4374
# 5 16.1884 24.5182 28.9104 5.2431 49.8307 -5.0859
# 6 -34.4136 -32.1710 -11.1242 6.4374 -5.0859 66.6414
#
#
#
# Elastic Compliance Matrix: (Units=1/GPa)
#
#
# Indices 1 2 3 4 5 6 
#
# 1 0.009822 -0.002096 -0.002364 0.001325 -0.000571 0.003494
# 2 -0.002096 0.006646 -0.001451 -0.001808 -0.001358 0.001955
# 3 -0.002364 -0.001451 0.009029 -0.004189 -0.003343 -0.000264
# 4 0.001325 -0.001808 -0.004189 0.014679 0.001119 -0.002221
# 5 -0.000571 -0.001358 -0.003343 0.001119 0.022756 0.000120
# 6 0.003494 0.001955 -0.000264 -0.002221 0.000120 0.017933
#
#
# Mechanical properties :
#
#
# Convention : Reuss Voigt Hill
#
# Bulk Modulus (GPa) = 73.11741 104.96434 89.04088
# Shear Modulus (GPa) = 51.41632 62.08910 56.75271
#
# Velocity S-wave (km/s) = 4.21901 4.63625 4.43254
# Velocity P-wave (km/s) = 7.00329 8.06212 7.55129
#
# Compressibility (1/GPa) = 0.01367663
#
# Stress axis : x y z
#
# Youngs Moduli (GPa) = 101.80782 150.46927 110.75081
#
# Poissons Ratio (x) = 0.31542 0.26178
# Poissons Ratio (y) = 0.21341 0.16065
# Poissons Ratio (z) = 0.24064 0.21826
#
# Static dielectric constant tensor:
#      x y z
#    x 1.809230 -0.157300 -0.135070 
#    y -0.157300 2.073870 0.096460 
#    z -0.135070 0.096460 2.409640 
# 
# From -- ./inp_files/13829.got.cif
#   From: 2010.05.17/outbox.cif.g08.bks.cpg/sg2_7_cif.got.tgz:13829.got - 2010.06.03 11:33:40.
