data_PCOD9010047
_publ_section_title
;
Structure prediction by ZEFSAII (Michael W. Deem and Ramdas Pophale) SiO2 
 PCOD9010047
Probable space group: P -1
;
_chemical_formula_sum "Si O2"
_cell_formula_units_Z 12
_cell_length_a 13.422134
_cell_length_b 8.573186
_cell_length_c 13.692767
_cell_angle_alpha 125.087801
_cell_angle_beta 28.514306
_cell_angle_gamma 106.903134
_cell_volume 514.542168
_symmetry_space_group_name_H-M "P -1"
_symmetry_group_IT_number 2
_symmetry_cell_setting 'triclinic'
loop_
_space_group_symop_operation_xyz
x,y,z
-x,-y,-z
loop_
_atom_site_type_symbol
_atom_site_label
_atom_site_fract_x
_atom_site_fract_y
_atom_site_fract_z
Si Si1 0.686668 0.993018 0.259439
Si Si2 0.226559 0.775030 0.274300
Si Si3 0.775389 0.485516 0.648639
Si Si4 0.825565 0.498881 0.938911
Si Si5 0.321341 0.619125 0.516438
Si Si6 0.226115 0.372627 0.676327
O O1 0.802038 0.111931 0.263874
O O2 0.492640 0.165982 0.408353
O O3 0.500000 0.000000 0.500000
O O4 0.823983 0.730078 0.015809
O O5 0.201899 0.729270 0.391782
O O6 0.222390 0.574297 0.148641
O O7 0.504896 0.711227 0.990313
O O8 0.000000 0.000000 0.500000
O O9 0.769373 0.449042 0.525274
O O10 0.000000 0.500000 0.500000
O O11 0.089257 0.309001 0.690911
O O12 0.608050 0.529048 0.208705
O O13 0.293275 0.525641 0.609773
O O14 0.000000 0.500000 0.000000
#
# Coordination Sequence:
#
# PCOD9010047 Si02
#       6
#     2   2   2   2   2   2
#     4  10  21  40  61  93 134 169 214 271 333 404
#     4  10  23  44  72  99 133 176 228 285 336 399
#     4  10  22  44  68 100 136 176 227 279 339 406
#     4  10  23  43  62  95 135 169 217 275 339 402
#     4  10  22  40  64  96 134 172 222 269 334 405
#     4  12  22  38  64  94 131 177 218 268 334 405
#
# _framework density 23.321705000000001
#
# number of rings (size 3 to 8) (size 9 to 14) (size 15 to 20)
#    0.000    1.667    3.333    1.500    0.000    6.667 
#    0.000    6.667    0.000    0.000    0.000    0.000 
#    0.000    0.000    0.000    0.000    0.000    0.000 
#
# Total GULP energy -66862.130772 kJ/mol
# GULP energy per Si atom -5571.844231 kJ/mol
# Density = 2.326862 g / cm^3
# Si number density = 23.321705 Si / 1000 Ang^3
#
#
#
# Elastic Constant Matrix: (Units=GPa)
#
#
# Indices 1 2 3 4 5 6 
#
# 1 117.4268 30.6169 30.0261 0.4299 -22.5395 7.5512
# 2 30.6169 116.2214 39.1540 -6.6219 10.6312 -17.6227
# 3 30.0261 39.1540 106.6837 -4.0862 -15.7775 -12.9938
# 4 0.4299 -6.6219 -4.0862 36.5070 -12.1720 -0.4485
# 5 -22.5395 10.6312 -15.7775 -12.1720 35.9540 -7.4519
# 6 7.5512 -17.6227 -12.9938 -0.4485 -7.4519 47.2662
#
#
#
# Elastic Compliance Matrix: (Units=1/GPa)
#
#
# Indices 1 2 3 4 5 6 
#
# 1 0.011349 -0.003649 -0.000874 0.001732 0.007952 -0.002144
# 2 -0.003649 0.012015 -0.004151 -0.000645 -0.007308 0.002763
# 3 -0.000874 -0.004151 0.012922 0.003499 0.008256 0.003479
# 4 0.001732 -0.000645 0.003499 0.032499 0.014442 0.003030
# 5 0.007952 -0.007308 0.008256 0.014442 0.044599 0.005443
# 6 -0.002144 0.002763 0.003479 0.003030 0.005443 0.024373
#
#
# Mechanical properties :
#
#
# Convention : Reuss Voigt Hill
#
# Bulk Modulus (GPa) = 52.80678 59.99177 56.39928
# Shear Modulus (GPa) = 30.97581 39.98109 35.47845
#
# Velocity S-wave (km/s) = 3.64840 4.14494 3.90457
# Velocity P-wave (km/s) = 6.35922 6.97759 6.67557
#
# Compressibility (1/GPa) = 0.01893696
#
# Stress axis : x y z
#
# Youngs Moduli (GPa) = 88.11646 83.23036 77.38965
#
# Poissons Ratio (x) = 0.30372 0.06760
# Poissons Ratio (y) = 0.32155 0.32128
# Poissons Ratio (z) = 0.07697 0.34552
#
# Static dielectric constant tensor:
#      x y z
#    x 1.792270 0.107810 0.128700 
#    y 0.107810 1.852950 -0.129420 
#    z 0.128700 -0.129420 1.808880 
# 
# From -- ./inp_files/528868.got.cif
#   From: 2010.05.17/outbox.cif.g08.bks.cpg/sg2_265_cif.got.tgz:528868.got - 2010.06.03 11:33:40.
