data_PCOD9010317
_publ_section_title
;
Structure prediction by ZEFSAII (Michael W. Deem and Ramdas Pophale) SiO2 
 PCOD9010317
Probable space group: P -1
;
_chemical_formula_sum "Si O2"
_cell_formula_units_Z 15
_cell_length_a 18.298356
_cell_length_b 7.526581
_cell_length_c 7.964453
_cell_angle_alpha 71.062172
_cell_angle_beta 52.512329
_cell_angle_gamma 108.355353
_cell_volume 601.519886
_symmetry_space_group_name_H-M "P -1"
_symmetry_group_IT_number 2
_symmetry_cell_setting 'triclinic'
loop_
_space_group_symop_operation_xyz
x,y,z
-x,-y,-z
loop_
_atom_site_type_symbol
_atom_site_label
_atom_site_fract_x
_atom_site_fract_y
_atom_site_fract_z
Si Si1 0.723771 0.124550 0.907082
Si Si2 0.804316 0.851722 0.509021
Si Si3 0.621570 0.344209 0.144962
Si Si4 0.245296 0.546392 0.538181
Si Si5 0.591009 0.748389 0.674807
Si Si6 0.549168 0.372956 0.606118
Si Si7 0.000000 0.500000 0.500000
Si Si8 0.042645 0.400598 0.103293
O O1 0.760629 0.299729 0.638475
O O2 0.853721 0.215692 0.754791
O O3 0.674154 0.209641 0.084453
O O4 0.601654 0.836184 0.116123
O O5 0.819458 0.725475 0.373996
O O6 0.725421 0.919409 0.524447
O O7 0.719046 0.620296 0.832415
O O8 0.935127 0.093152 0.330118
O O9 0.488680 0.178910 0.279772
O O10 0.597790 0.380516 0.354204
O O11 0.388118 0.685728 0.333889
O O12 0.172903 0.499646 0.821534
O O13 0.598260 0.640705 0.524325
O O14 0.500000 0.500000 0.000000
O O15 0.046195 0.485666 0.257629
O O16 0.000000 0.500000 0.000000
#
# Coordination Sequence:
#
# PCOD9010317 Si02
#       8
#     2   2   2   2   2   2   1   2
#     4  11  24  43  66  94 143 174 227 280 333 407
#     4   9  22  42  69  95 142 176 219 288 338 413
#     4  10  21  40  63 102 135 168 228 276 341 401
#     4  10  22  45  68 103 128 180 235 272 352 406
#     4   9  20  37  62  95 128 167 222 264 340 402
#     4  11  22  39  69  99 133 175 217 288 340 399
#     4  12  28  46  64 106 136 180 236 272 344 412
#     4  12  25  46  70  96 141 181 232 276 341 409
#
# _framework density 24.936831000000002
#
# number of rings (size 3 to 8) (size 9 to 14) (size 15 to 20)
#    0.000    1.600    1.333    3.200    3.733    2.133 
#    4.800    3.333    0.000    0.000    0.000    0.000 
#    0.000    0.000    0.000    0.000    0.000    0.000 
#
# Total GULP energy -83743.190894 kJ/mol
# GULP energy per Si atom -5582.879393 kJ/mol
# Density = 2.488007 g / cm^3
# Si number density = 24.936831 Si / 1000 Ang^3
#
#
#
# Elastic Constant Matrix: (Units=GPa)
#
#
# Indices 1 2 3 4 5 6 
#
# 1 20.2601 14.4119 15.9030 -7.1393 -13.3002 8.9582
# 2 14.4119 121.5642 43.1919 29.1361 9.9508 21.8668
# 3 15.9030 43.1919 110.8423 12.3509 -9.3883 10.7758
# 4 -7.1393 29.1361 12.3509 59.0643 10.3855 -0.4582
# 5 -13.3002 9.9508 -9.3883 10.3855 30.3033 0.7889
# 6 8.9582 21.8668 10.7758 -0.4582 0.7889 28.5986
#
#
#
# Elastic Compliance Matrix: (Units=1/GPa)
#
#
# Indices 1 2 3 4 5 6 
#
# 1 0.108448 -0.013707 -0.005487 0.012640 0.046653 -0.022507
# 2 -0.013707 0.014206 -0.003135 -0.006411 -0.009319 -0.005232
# 3 -0.005487 -0.003135 0.011538 -0.002043 0.002905 -0.000344
# 4 0.012640 -0.006411 -0.002043 0.022176 -0.000634 0.002085
# 5 0.046653 -0.009319 0.002905 -0.000634 0.057918 -0.010191
# 6 -0.022507 -0.005232 -0.000344 0.002085 -0.010191 0.046462
#
#
# Mechanical properties :
#
#
# Convention : Reuss Voigt Hill
#
# Bulk Modulus (GPa) = 11.16914 44.40891 27.78903
# Shear Modulus (GPa) = 14.91424 35.53721 25.22573
#
# Velocity S-wave (km/s) = 2.44822 3.77913 3.18399
# Velocity P-wave (km/s) = 3.53276 6.07369 4.96840
#
# Compressibility (1/GPa) = 0.08953237
#
# Stress axis : x y z
#
# Youngs Moduli (GPa) = 9.22104 70.39480 86.67097
#
# Poissons Ratio (x) = 0.96491 0.47557
# Poissons Ratio (y) = 0.12639 0.27173
# Poissons Ratio (z) = 0.05060 0.22070
#
# Static dielectric constant tensor:
#      x y z
#    x 2.023400 -0.037460 0.005050 
#    y -0.037460 1.978400 -0.009120 
#    z 0.005050 -0.009120 1.959090 
# 
# From -- ./inp_files/343524.got.cif
#   From: 2010.05.17/outbox.cif.g08.bks.cpg/sg2_172_cif.got.tgz:343524.got - 2010.06.03 11:33:40.
