data_PCOD9010428
_publ_section_title
;
Structure prediction by ZEFSAII (Michael W. Deem and Ramdas Pophale) SiO2 
 PCOD9010428
Probable space group: P -1
;
_chemical_formula_sum "Si O2"
_cell_formula_units_Z 16
_cell_length_a 14.205060
_cell_length_b 12.079648
_cell_length_c 19.325693
_cell_angle_alpha 152.786501
_cell_angle_beta 33.172262
_cell_angle_gamma 149.841754
_cell_volume 727.636370
_symmetry_space_group_name_H-M "P -1"
_symmetry_group_IT_number 2
_symmetry_cell_setting 'triclinic'
loop_
_space_group_symop_operation_xyz
x,y,z
-x,-y,-z
loop_
_atom_site_type_symbol
_atom_site_label
_atom_site_fract_x
_atom_site_fract_y
_atom_site_fract_z
Si Si1 0.379102 0.439558 0.665455
Si Si2 0.382611 0.836216 0.617738
Si Si3 0.258817 0.051766 0.042183
Si Si4 0.379559 0.571450 0.170106
Si Si5 0.975505 0.137022 0.776482
Si Si6 0.788220 0.443414 0.294336
Si Si7 0.387337 0.946285 0.112337
Si Si8 0.980104 0.339106 0.595498
O O1 0.458503 0.255766 0.552116
O O2 0.295990 0.404809 0.618969
O O3 0.558600 0.746773 0.725619
O O4 0.188173 0.397851 0.802172
O O5 0.368921 0.765421 0.669285
O O6 0.163033 0.623587 0.611116
O O7 0.462321 0.156600 0.735372
O O8 0.258666 0.301171 0.140211
O O9 0.143588 0.987064 0.149233
O O10 0.174665 0.768692 0.893074
O O11 0.490513 0.148906 0.967034
O O12 0.222506 0.655125 0.282750
O O13 0.500000 0.500000 0.000000
O O14 0.841847 0.207945 0.847132
O O15 0.017613 0.909679 0.586072
O O16 0.960211 0.647633 0.353042
O O17 0.500000 0.000000 0.000000
#
# Coordination Sequence:
#
# PCOD9010428 Si02
#       8
#     2   2   2   2   2   2   2   2
#     4  11  20  38  64  96 125 163 202 259 320 367
#     4  10  21  40  63  90 125 160 205 265 302 358
#     4  10  23  40  63  93 126 170 201 258 311 368
#     4  12  23  43  66  86 126 170 211 251 312 372
#     4  11  22  40  66  94 129 158 210 256 314 374
#     4   9  21  39  63  91 127 158 208 258 310 362
#     4   9  20  39  62  89 130 159 198 257 305 369
#     4  10  23  41  63  94 124 161 210 260 304 365
#
# _framework density 21.989004000000001
#
# number of rings (size 3 to 8) (size 9 to 14) (size 15 to 20)
#    0.750    1.000    3.750    0.375    0.000    8.500 
#    0.000    5.625    0.000    0.000    0.000    0.000 
#    0.000    0.000    0.000    0.000    0.000    0.000 
#
# Total GULP energy -89205.696942 kJ/mol
# GULP energy per Si atom -5575.356059 kJ/mol
# Density = 2.193896 g / cm^3
# Si number density = 21.989004 Si / 1000 Ang^3
#
#
#
# Elastic Constant Matrix: (Units=GPa)
#
#
# Indices 1 2 3 4 5 6 
#
# 1 42.0752 5.0702 23.1541 -5.8656 3.6563 7.4239
# 2 5.0702 84.6022 10.1504 -3.9912 -1.8808 9.8463
# 3 23.1541 10.1504 86.0299 -3.0360 -6.2041 11.1316
# 4 -5.8656 -3.9912 -3.0360 34.5161 7.1947 -2.5527
# 5 3.6563 -1.8808 -6.2041 7.1947 24.3717 -3.9762
# 6 7.4239 9.8463 11.1316 -2.5527 -3.9762 32.7234
#
#
#
# Elastic Compliance Matrix: (Units=1/GPa)
#
#
# Indices 1 2 3 4 5 6 
#
# 1 0.030738 -0.000233 -0.008077 0.006060 -0.009259 -0.004808
# 2 -0.000233 0.012378 -0.000943 0.001088 -0.000106 -0.003279
# 3 -0.008077 -0.000943 0.014513 -0.001392 0.004863 -0.002339
# 4 0.006060 0.001088 -0.001392 0.032234 -0.010698 -0.000014
# 5 -0.009259 -0.000106 0.004863 -0.010698 0.047695 0.005439
# 6 -0.004808 -0.003279 -0.002339 -0.000014 0.005439 0.034092
#
#
# Mechanical properties :
#
#
# Convention : Reuss Voigt Hill
#
# Bulk Modulus (GPa) = 25.56071 32.16187 28.86129
# Shear Modulus (GPa) = 24.60675 29.94441 27.27558
#
# Velocity S-wave (km/s) = 3.34885 3.69425 3.52578
# Velocity P-wave (km/s) = 5.15777 5.73190 5.45240
#
# Compressibility (1/GPa) = 0.03912254
#
# Stress axis : x y z
#
# Youngs Moduli (GPa) = 32.53341 80.79061 68.90344
#
# Poissons Ratio (x) = 0.01886 0.55653
# Poissons Ratio (y) = 0.00759 0.06495
# Poissons Ratio (z) = 0.26277 0.07615
#
# Static dielectric constant tensor:
#      x y z
#    x 1.800010 0.032540 0.027700 
#    y 0.032540 1.835140 -0.008810 
#    z 0.027700 -0.008810 1.864810 
# 
# From -- ./inp_files/597878.got.cif
#   From: 2010.05.17/outbox.cif.g08.bks.cpg/sg2_299_cif.got.tgz:597878.got - 2010.06.03 11:33:40.
