data_PCOD9010281
_publ_section_title
;
Structure prediction by ZEFSAII (Michael W. Deem and Ramdas Pophale) SiO2 
 PCOD9010281
Probable space group: P -1
;
_chemical_formula_sum "Si O2"
_cell_formula_units_Z 16
_cell_length_a 18.618296
_cell_length_b 9.017361
_cell_length_c 7.402209
_cell_angle_alpha 51.570590
_cell_angle_beta 58.931458
_cell_angle_gamma 40.671955
_cell_volume 632.046588
_symmetry_space_group_name_H-M "P -1"
_symmetry_group_IT_number 2
_symmetry_cell_setting 'triclinic'
loop_
_space_group_symop_operation_xyz
x,y,z
-x,-y,-z
loop_
_atom_site_type_symbol
_atom_site_label
_atom_site_fract_x
_atom_site_fract_y
_atom_site_fract_z
Si Si1 0.689715 0.926195 0.338336
Si Si2 0.925683 0.705817 0.089969
Si Si3 0.436574 0.286859 0.812407
Si Si4 0.395430 0.742577 0.143576
Si Si5 0.992564 0.807617 0.251324
Si Si6 0.111894 0.825076 0.372104
Si Si7 0.736983 0.160413 0.404557
Si Si8 0.358450 0.397853 0.429515
O O1 0.642001 0.789083 0.548312
O O2 0.688948 0.076027 0.389562
O O3 0.816890 0.749360 0.242743
O O4 0.627975 0.074425 0.120944
O O5 0.881568 0.978557 0.879763
O O6 0.001196 0.633220 0.222543
O O7 0.000000 0.500000 0.000000
O O8 0.506271 0.341267 0.789065
O O9 0.312932 0.559010 0.798231
O O10 0.429274 0.285715 0.605281
O O11 0.500000 0.000000 0.000000
O O12 0.300678 0.851218 0.338175
O O13 0.398686 0.536537 0.191148
O O14 0.086633 0.695368 0.361126
O O15 0.869157 0.970151 0.366771
O O16 0.000000 0.000000 0.000000
O O17 0.226998 0.613100 0.479620
O O18 0.000000 0.000000 0.500000
#
# Coordination Sequence:
#
# PCOD9010281 Si02
#       8
#     2   2   2   2   2   2   2   2
#     4  11  23  44  66 103 139 180 239 290 355 419
#     4  10  21  40  62  95 138 181 228 286 345 415
#     4  11  23  46  72 103 139 188 233 294 361 418
#     4  11  23  47  70  97 141 182 231 297 352 414
#     4   9  21  41  64 102 137 182 234 278 351 427
#     4  11  20  36  64  96 131 181 224 284 345 412
#     4  10  23  44  72 102 143 184 237 291 351 429
#     4  11  22  41  66  98 136 174 232 286 343 422
#
# _framework density 25.314591
#
# number of rings (size 3 to 8) (size 9 to 14) (size 15 to 20)
#    0.000    1.500    2.500    3.750    0.000    2.500 
#    4.500    3.125    0.000    0.000    0.000    0.000 
#    0.000    0.000    0.000    0.000    0.000    0.000 
#
# Total GULP energy -89413.524345 kJ/mol
# GULP energy per Si atom -5588.345272 kJ/mol
# Density = 2.525697 g / cm^3
# Si number density = 25.314591 Si / 1000 Ang^3
#
#
#
# Elastic Constant Matrix: (Units=GPa)
#
#
# Indices 1 2 3 4 5 6 
#
# 1 181.7251 36.0048 13.4371 -5.2640 -0.8596 15.2589
# 2 36.0048 114.1171 7.3621 -2.3466 -5.4118 12.5398
# 3 13.4371 7.3621 52.6215 -18.5193 -4.8532 -0.0624
# 4 -5.2640 -2.3466 -18.5193 34.0531 7.9671 -1.9134
# 5 -0.8596 -5.4118 -4.8532 7.9671 43.2815 -4.4407
# 6 15.2589 12.5398 -0.0624 -1.9134 -4.4407 37.5890
#
#
#
# Elastic Compliance Matrix: (Units=1/GPa)
#
#
# Indices 1 2 3 4 5 6 
#
# 1 0.006093 -0.001638 -0.001337 0.000097 -0.000455 -0.001978
# 2 -0.001638 0.009650 -0.001026 -0.000495 0.000896 -0.002475
# 3 -0.001337 -0.001026 0.024027 0.012799 0.000349 0.001618
# 4 0.000097 -0.000495 0.012799 0.037653 -0.005410 0.001425
# 5 -0.000455 0.000896 0.000349 -0.005410 0.024500 0.002505
# 6 -0.001978 -0.002475 0.001618 0.001425 0.002505 0.028603
#
#
# Mechanical properties :
#
#
# Convention : Reuss Voigt Hill
#
# Bulk Modulus (GPa) = 31.47872 51.34129 41.41000
# Shear Modulus (GPa) = 33.53049 42.42870 37.97960
#
# Velocity S-wave (km/s) = 3.64339 4.09841 3.87758
# Velocity P-wave (km/s) = 5.49191 6.53615 6.03665
#
# Compressibility (1/GPa) = 0.03176750
#
# Stress axis : x y z
#
# Youngs Moduli (GPa) = 164.12281 103.62280 41.61998
#
# Poissons Ratio (x) = 0.16977 0.05563
# Poissons Ratio (y) = 0.26890 0.04272
# Poissons Ratio (z) = 0.21938 0.10635
#
# Static dielectric constant tensor:
#      x y z
#    x 1.977180 0.055080 -0.035780 
#    y 0.055080 2.127890 -0.118070 
#    z -0.035780 -0.118070 2.126880 
# 
# From -- ./inp_files/327091.got.cif
#   From: 2010.05.17/outbox.cif.g08.bks.cpg/sg2_164_cif.got.tgz:327091.got - 2010.06.03 11:33:40.
