data_PCOD9010711
_publ_section_title
;
Structure prediction by ZEFSAII (Michael W. Deem and Ramdas Pophale) SiO2 
 PCOD9010711
Probable space group: P -1
;
_chemical_formula_sum "Si O2"
_cell_formula_units_Z 16
_cell_length_a 20.441113
_cell_length_b 8.918472
_cell_length_c 6.689910
_cell_angle_alpha 83.289233
_cell_angle_beta 94.417791
_cell_angle_gamma 40.362505
_cell_volume 757.825339
_symmetry_space_group_name_H-M "P -1"
_symmetry_group_IT_number 2
_symmetry_cell_setting 'triclinic'
loop_
_space_group_symop_operation_xyz
x,y,z
-x,-y,-z
loop_
_atom_site_type_symbol
_atom_site_label
_atom_site_fract_x
_atom_site_fract_y
_atom_site_fract_z
Si Si1 0.590503 0.752137 0.681235
Si Si2 0.170965 0.961308 0.884792
Si Si3 0.414418 0.530169 0.530589
Si Si4 0.982333 0.205414 0.516244
Si Si5 0.359156 0.409725 0.865657
Si Si6 0.261724 0.353262 0.532159
Si Si7 0.238129 0.062897 0.562087
Si Si8 0.069751 0.268719 0.193096
O O1 0.595826 0.571264 0.633553
O O2 0.696820 0.646194 0.660920
O O3 0.500000 0.000000 0.500000
O O4 0.577505 0.775270 0.909661
O O5 0.262714 0.677705 0.899738
O O6 0.205282 0.055850 0.770061
O O7 0.065768 0.100040 0.722493
O O8 0.143238 0.040835 0.095573
O O9 0.500000 0.500000 0.500000
O O10 0.428620 0.399324 0.750301
O O11 0.310622 0.808325 0.514935
O O12 0.862459 0.431541 0.515793
O O13 0.005550 0.270602 0.320602
O O14 0.000000 0.000000 0.500000
O O15 0.309143 0.374615 0.712808
O O16 0.296192 0.117545 0.586600
O O17 0.137935 0.247732 0.364488
O O18 0.000000 0.500000 0.000000
#
# Coordination Sequence:
#
# PCOD9010711 Si02
#       8
#     2   2   2   2   2   2   2   2
#     4  11  25  44  66  93 128 165 207 266 320 377
#     4  10  21  40  64  89 127 168 215 259 310 373
#     4  10  22  43  68  93 121 158 209 264 321 378
#     4  11  23  39  61  94 133 172 212 266 314 372
#     4  10  23  41  65  94 123 166 210 256 321 382
#     4  11  23  40  63  93 131 165 211 260 316 376
#     4  10  22  41  63  91 129 166 208 265 311 369
#     4  11  23  38  61  91 128 172 219 258 314 374
#
# _framework density 21.113042
#
# number of rings (size 3 to 8) (size 9 to 14) (size 15 to 20)
#    0.000    1.500    1.250    3.000    3.500    8.000 
#    0.000    5.000    0.000    0.000    0.000    0.000 
#    0.000    0.000    0.000    0.000    0.000    0.000 
#
# Total GULP energy -89455.444625 kJ/mol
# GULP energy per Si atom -5590.965289 kJ/mol
# Density = 2.106499 g / cm^3
# Si number density = 21.113042 Si / 1000 Ang^3
#
#
#
# Elastic Constant Matrix: (Units=GPa)
#
#
# Indices 1 2 3 4 5 6 
#
# 1 152.6230 27.3704 56.4719 6.1648 -26.2208 10.9887
# 2 27.3704 69.5332 28.6459 8.8607 -5.7291 9.5194
# 3 56.4719 28.6459 112.2602 -8.2551 -21.2645 -8.6881
# 4 6.1648 8.8607 -8.2551 32.3829 -1.9342 -2.6252
# 5 -26.2208 -5.7291 -21.2645 -1.9342 13.4160 6.5359
# 6 10.9887 9.5194 -8.6881 -2.6252 6.5359 40.6926
#
#
#
# Elastic Compliance Matrix: (Units=1/GPa)
#
#
# Indices 1 2 3 4 5 6 
#
# 1 0.012086 -0.000668 -0.002245 -0.001912 0.023118 -0.007423
# 2 -0.000668 0.018476 -0.005327 -0.006752 -0.000051 -0.005707
# 3 -0.002245 -0.005327 0.015445 0.007093 0.017476 0.002801
# 4 -0.001912 -0.006752 0.007093 0.035729 0.007478 0.004714
# 5 0.023118 -0.000051 0.017476 0.007478 0.162148 -0.028061
# 6 -0.007423 -0.005707 0.002801 0.004714 -0.028061 0.033323
#
#
# Mechanical properties :
#
#
# Convention : Reuss Voigt Hill
#
# Bulk Modulus (GPa) = 33.86590 62.15475 48.01032
# Shear Modulus (GPa) = 16.47284 32.09350 24.28317
#
# Velocity S-wave (km/s) = 2.79627 3.90305 3.39507
# Velocity P-wave (km/s) = 5.14788 7.05795 6.17719
#
# Compressibility (1/GPa) = 0.02952823
#
# Stress axis : x y z
#
# Youngs Moduli (GPa) = 82.73954 54.12326 64.74443
#
# Poissons Ratio (x) = 0.03614 0.14538
# Poissons Ratio (y) = 0.05525 0.34487
# Poissons Ratio (z) = 0.18579 0.28829
#
# Static dielectric constant tensor:
#      x y z
#    x 1.731150 -0.007300 -0.019130 
#    y -0.007300 1.845290 -0.008000 
#    z -0.019130 -0.008000 1.735930 
# 
# From -- ./inp_files/39447.got.cif
#   From: 2010.05.17/outbox.cif.g08.bks.cpg/sg2_20_cif.got.tgz:39447.got - 2010.06.03 11:33:40.
