data_PCOD9010308
_publ_section_title
;
Structure prediction by ZEFSAII (Michael W. Deem and Ramdas Pophale) SiO2 
 PCOD9010308
Probable space group: P -1
;
_chemical_formula_sum "Si O2"
_cell_formula_units_Z 16
_cell_length_a 11.602459
_cell_length_b 13.738350
_cell_length_c 8.391302
_cell_angle_alpha 123.369039
_cell_angle_beta 72.840043
_cell_angle_gamma 60.077155
_cell_volume 597.699848
_symmetry_space_group_name_H-M "P -1"
_symmetry_group_IT_number 2
_symmetry_cell_setting 'triclinic'
loop_
_space_group_symop_operation_xyz
x,y,z
-x,-y,-z
loop_
_atom_site_type_symbol
_atom_site_label
_atom_site_fract_x
_atom_site_fract_y
_atom_site_fract_z
Si Si1 0.995667 0.681863 0.821610
Si Si2 0.335908 0.794733 0.276176
Si Si3 0.727430 0.753782 0.197440
Si Si4 0.741029 0.328977 0.179669
Si Si5 0.719314 0.960629 0.911615
Si Si6 0.004019 0.101435 0.439310
Si Si7 0.626849 0.711001 0.881977
Si Si8 0.568518 0.684815 0.399344
O O1 0.085907 0.741437 0.843356
O O2 0.199180 0.447458 0.467141
O O3 0.903392 0.711015 0.052665
O O4 0.808453 0.811474 0.883752
O O5 0.120955 0.023386 0.491612
O O6 0.418193 0.784315 0.395958
O O7 0.509597 0.685625 0.969940
O O8 0.242164 0.741809 0.305845
O O9 0.713788 0.680104 0.287568
O O10 0.500000 0.000000 0.500000
O O11 0.737088 0.665922 0.957313
O O12 0.500000 0.500000 0.500000
O O13 0.694377 0.466068 0.189568
O O14 0.855907 0.117231 0.892020
O O15 0.563313 0.058545 0.913884
O O16 0.580628 0.164930 0.253924
O O17 0.937676 0.834967 0.631299
#
# Coordination Sequence:
#
# PCOD9010308 Si02
#       8
#     2   2   2   2   2   2   2   2
#     4  12  25  44  74 100 136 190 228 280 352 401
#     4   9  21  41  62  92 140 172 228 284 331 405
#     4  11  25  47  72 101 139 178 230 293 340 407
#     4  12  24  40  68 101 141 177 230 286 334 412
#     4  11  22  43  70 102 136 185 230 275 350 408
#     4  10  21  40  62  98 136 185 226 278 338 414
#     4  10  23  48  67 100 140 171 238 286 333 419
#     4  11  22  43  65  99 135 179 222 290 339 399
#
# _framework density 26.769288
#
# number of rings (size 3 to 8) (size 9 to 14) (size 15 to 20)
#    0.000    1.250    3.750    1.875    3.500    2.500 
#   13.500    0.000    0.000    0.000    0.000    0.000 
#    0.000    0.000    0.000    0.000    0.000    0.000 
#
# Total GULP energy -89453.176624 kJ/mol
# GULP energy per Si atom -5590.823539 kJ/mol
# Density = 2.670836 g / cm^3
# Si number density = 26.769288 Si / 1000 Ang^3
#
#
#
# Elastic Constant Matrix: (Units=GPa)
#
#
# Indices 1 2 3 4 5 6 
#
# 1 86.5716 12.6502 25.7082 -3.1108 -21.9623 -5.4568
# 2 12.6502 102.2804 7.0415 -0.8135 -15.8584 1.9432
# 3 25.7082 7.0415 113.0413 -2.6634 -28.5222 15.6566
# 4 -3.1108 -0.8135 -2.6634 45.9171 9.5127 -9.1056
# 5 -21.9623 -15.8584 -28.5222 9.5127 43.4681 -7.5710
# 6 -5.4568 1.9432 15.6566 -9.1056 -7.5710 50.1095
#
#
#
# Elastic Compliance Matrix: (Units=1/GPa)
#
#
# Indices 1 2 3 4 5 6 
#
# 1 0.013983 -0.000723 -0.002063 0.000203 0.005948 0.003131
# 2 -0.000723 0.010433 0.000504 -0.000675 0.003889 -0.000176
# 3 -0.002063 0.000504 0.011267 -0.001391 0.006305 -0.003065
# 4 0.000203 -0.000675 -0.001391 0.023629 -0.005541 0.003940
# 5 0.005948 0.003889 0.006305 -0.005541 0.033222 0.002539
# 6 0.003131 -0.000176 -0.003065 0.003940 0.002539 0.022361
#
#
# Mechanical properties :
#
#
# Convention : Reuss Voigt Hill
#
# Bulk Modulus (GPa) = 32.13487 43.63255 37.88371
# Shear Modulus (GPa) = 38.51172 44.99851 41.75511
#
# Velocity S-wave (km/s) = 3.79707 4.10442 3.95373
# Velocity P-wave (km/s) = 5.59054 6.22869 5.91822
#
# Compressibility (1/GPa) = 0.03111885
#
# Stress axis : x y z
#
# Youngs Moduli (GPa) = 71.51478 95.85254 88.75746
#
# Poissons Ratio (x) = 0.06930 0.18311
# Poissons Ratio (y) = 0.05171 -0.04476
# Poissons Ratio (z) = 0.14754 -0.04833
#
# Static dielectric constant tensor:
#      x y z
#    x 2.194850 0.014750 -0.009200 
#    y 0.014750 2.095190 -0.034330 
#    z -0.009200 -0.034330 2.077690 
# 
# From -- ./inp_files/274061.got.cif
#   From: 2010.05.17/outbox.cif.g08.bks.cpg/sg2_138_cif.got.tgz:274061.got - 2010.06.03 11:33:40.
