data_PCOD9010971
_publ_section_title
;
Structure prediction by ZEFSAII (Michael W. Deem and Ramdas Pophale) SiO2 
 PCOD9010971
Probable space group: P -1
;
_chemical_formula_sum "Si O2"
_cell_formula_units_Z 16
_cell_length_a 15.544943
_cell_length_b 9.012432
_cell_length_c 11.927299
_cell_angle_alpha 110.871663
_cell_angle_beta 52.196986
_cell_angle_gamma 66.504270
_cell_volume 677.292907
_symmetry_space_group_name_H-M "P -1"
_symmetry_group_IT_number 2
_symmetry_cell_setting 'triclinic'
loop_
_space_group_symop_operation_xyz
x,y,z
-x,-y,-z
loop_
_atom_site_type_symbol
_atom_site_label
_atom_site_fract_x
_atom_site_fract_y
_atom_site_fract_z
Si Si1 0.639096 0.449157 0.942750
Si Si2 0.412356 0.901621 0.434453
Si Si3 0.517933 0.079174 0.121447
Si Si4 0.089439 0.618832 0.729379
Si Si5 0.187737 0.003572 0.148088
Si Si6 0.295138 0.395515 0.716106
Si Si7 0.993482 0.642067 0.203445
Si Si8 0.115112 0.577317 0.319291
O O1 0.777673 0.385927 0.736057
O O2 0.767747 0.203034 0.867470
O O3 0.500000 0.500000 0.000000
O O4 0.506682 0.730545 0.197285
O O5 0.536416 0.700490 0.390381
O O6 0.393872 0.115244 0.510910
O O7 0.192293 0.103075 0.660280
O O8 0.299742 0.346404 0.421489
O O9 0.607898 0.146338 0.057571
O O10 0.708118 0.760790 0.940485
O O11 0.500000 0.000000 0.000000
O O12 0.151952 0.632413 0.797318
O O13 0.015835 0.533037 0.804284
O O14 0.919804 0.892629 0.856600
O O15 0.023579 0.296719 0.432639
O O16 0.178100 0.474915 0.939568
O O17 0.985100 0.743143 0.355100
#
# Coordination Sequence:
#
# PCOD9010971 Si02
#       8
#     2   2   2   2   2   2   2   2
#     4  12  26  45  68  98 140 184 222 271 340 414
#     4  10  21  40  64  98 130 170 224 274 329 385
#     4  12  23  41  65  98 139 174 225 279 340 394
#     4  11  23  39  65  99 138 174 219 284 338 392
#     4  12  26  42  63 100 142 180 219 272 346 406
#     4  10  22  41  71 103 130 171 235 288 328 382
#     4  11  21  39  72 105 130 168 228 290 333 383
#     4  12  22  43  69  99 134 178 226 282 330 402
#
# _framework density 23.623456000000001
#
# number of rings (size 3 to 8) (size 9 to 14) (size 15 to 20)
#    0.000    0.750    3.750    6.000    1.750    1.000 
#    0.000    0.625    0.000    5.250    0.000    0.000 
#    0.000    0.000    0.000    0.000    0.000    0.000 
#
# Total GULP energy -89422.694439 kJ/mol
# GULP energy per Si atom -5588.918402 kJ/mol
# Density = 2.356969 g / cm^3
# Si number density = 23.623456 Si / 1000 Ang^3
#
#
#
# Elastic Constant Matrix: (Units=GPa)
#
#
# Indices 1 2 3 4 5 6 
#
# 1 132.4792 3.9068 2.2254 0.1750 -15.7522 -45.6700
# 2 3.9068 52.7449 2.6257 -3.5768 -14.0447 -20.0249
# 3 2.2254 2.6257 36.6800 2.0317 -10.8156 -7.4170
# 4 0.1750 -3.5768 2.0317 19.1249 -7.7404 -0.3097
# 5 -15.7522 -14.0447 -10.8156 -7.7404 36.2285 4.9801
# 6 -45.6700 -20.0249 -7.4170 -0.3097 4.9801 44.7827
#
#
#
# Elastic Compliance Matrix: (Units=1/GPa)
#
#
# Indices 1 2 3 4 5 6 
#
# 1 0.014874 0.008803 0.004901 0.005295 0.009883 0.018855
# 2 0.008803 0.032150 0.006254 0.012840 0.017809 0.022498
# 3 0.004901 0.006254 0.032658 0.003264 0.013389 0.011737
# 4 0.005295 0.012840 0.003264 0.062665 0.020288 0.009859
# 5 0.009883 0.017809 0.013389 0.020288 0.045019 0.015393
# 6 0.018855 0.022498 0.011737 0.009859 0.015393 0.051919
#
#
# Mechanical properties :
#
#
# Convention : Reuss Voigt Hill
#
# Bulk Modulus (GPa) = 8.36138 26.60222 17.48180
# Shear Modulus (GPa) = 20.89989 34.23696 27.56843
#
# Velocity S-wave (km/s) = 2.97763 3.81107 3.41984
# Velocity P-wave (km/s) = 3.92031 5.53634 4.79687
#
# Compressibility (1/GPa) = 0.11959744
#
# Stress axis : x y z
#
# Youngs Moduli (GPa) = 67.22989 31.10423 30.62017
#
# Poissons Ratio (x) = -0.27381 -0.15006
# Poissons Ratio (y) = -0.59183 -0.19149
# Poissons Ratio (z) = -0.32947 -0.19452
#
# Static dielectric constant tensor:
#      x y z
#    x 1.913850 -0.044010 0.000710 
#    y -0.044010 1.944200 0.058390 
#    z 0.000710 0.058390 1.941930 
# 
# From -- ./inp_files/447782.got.cif
#   From: 2010.05.17/outbox.cif.g08.bks.cpg/sg2_224_cif.got.tgz:447782.got - 2010.06.03 11:33:40.
