data_PCOD9010713
_publ_section_title
;
Structure prediction by ZEFSAII (Michael W. Deem and Ramdas Pophale) SiO2 
 PCOD9010713
Probable space group: P -1
;
_chemical_formula_sum "Si O2"
_cell_formula_units_Z 16
_cell_length_a 14.454016
_cell_length_b 13.115278
_cell_length_c 13.727656
_cell_angle_alpha 43.369606
_cell_angle_beta 28.294407
_cell_angle_gamma 35.676518
_cell_volume 718.752295
_symmetry_space_group_name_H-M "P -1"
_symmetry_group_IT_number 2
_symmetry_cell_setting 'triclinic'
loop_
_space_group_symop_operation_xyz
x,y,z
-x,-y,-z
loop_
_atom_site_type_symbol
_atom_site_label
_atom_site_fract_x
_atom_site_fract_y
_atom_site_fract_z
Si Si1 0.164051 0.262492 0.609008
Si Si2 0.431051 0.047744 0.220437
Si Si3 0.139088 0.560372 0.763894
Si Si4 0.365443 0.745757 0.428964
Si Si5 0.931706 0.582267 0.734551
Si Si6 0.347220 0.955746 0.794797
Si Si7 0.726671 0.336698 0.853085
Si Si8 0.549392 0.297897 0.846799
O O1 0.112615 0.420778 0.616634
O O2 0.409896 0.178500 0.388645
O O3 0.949042 0.333496 0.686891
O O4 0.186898 0.107459 0.763589
O O5 0.203169 0.235123 0.324853
O O6 0.352163 0.925973 0.332490
O O7 0.584077 0.968177 0.229880
O O8 0.561286 0.114186 0.983934
O O9 0.159763 0.721331 0.671422
O O10 0.400871 0.397613 0.634615
O O11 0.030879 0.603952 0.727571
O O12 0.000000 0.500000 0.000000
O O13 0.393471 0.701778 0.318371
O O14 0.719074 0.560311 0.979273
O O15 0.252544 0.840427 0.004007
O O16 0.689950 0.330528 0.775399
O O17 0.500000 0.500000 0.000000
#
# Coordination Sequence:
#
# PCOD9010713 Si02
#       8
#     2   2   2   2   2   2   2   2
#     4  11  22  41  64  90 127 172 207 262 316 379
#     4   9  20  40  62  92 126 164 211 263 310 377
#     4  11  23  40  62  93 124 165 210 258 313 380
#     4  11  22  40  66  87 128 167 208 258 319 379
#     4  10  21  40  64  89 128 160 212 265 318 370
#     4  10  23  40  63  94 128 165 217 257 317 374
#     4  11  21  40  63  93 129 165 213 264 312 373
#     4   9  20  38  62  95 124 164 213 260 312 379
#
# _framework density 22.260798999999999
#
# number of rings (size 3 to 8) (size 9 to 14) (size 15 to 20)
#    0.750    1.000    2.500    1.500    0.000    4.500 
#    0.000    7.500    0.000    0.000    0.000    0.000 
#    0.000    0.000    0.000    0.000    0.000    0.000 
#
# Total GULP energy -89373.066916 kJ/mol
# GULP energy per Si atom -5585.816682 kJ/mol
# Density = 2.221013 g / cm^3
# Si number density = 22.260799 Si / 1000 Ang^3
#
#
#
# Elastic Constant Matrix: (Units=GPa)
#
#
# Indices 1 2 3 4 5 6 
#
# 1 82.6765 11.3826 23.0281 -1.2349 -16.1691 -5.1327
# 2 11.3826 59.4421 9.2275 -2.4383 -6.8816 2.2440
# 3 23.0281 9.2275 65.8302 -12.4495 -14.5966 3.3673
# 4 -1.2349 -2.4383 -12.4495 24.0272 -1.4554 -10.9142
# 5 -16.1691 -6.8816 -14.5966 -1.4554 34.2744 -2.8616
# 6 -5.1327 2.2440 3.3673 -10.9142 -2.8616 35.1956
#
#
#
# Elastic Compliance Matrix: (Units=1/GPa)
#
#
# Indices 1 2 3 4 5 6 
#
# 1 0.014609 -0.001708 -0.003814 0.000339 0.005201 0.003132
# 2 -0.001708 0.017655 -0.001186 0.000851 0.002202 -0.000818
# 3 -0.003814 -0.001186 0.020384 0.011466 0.007274 0.001716
# 4 0.000339 0.000851 0.011466 0.055918 0.009005 0.016971
# 5 0.005201 0.002202 0.007274 0.009005 0.036023 0.005644
# 6 0.003132 -0.000818 0.001716 0.016971 0.005644 0.034479
#
#
# Mechanical properties :
#
#
# Convention : Reuss Voigt Hill
#
# Bulk Modulus (GPa) = 25.48904 32.80277 29.14590
# Shear Modulus (GPa) = 24.32341 29.65349 26.98845
#
# Velocity S-wave (km/s) = 3.30912 3.65375 3.48570
# Velocity P-wave (km/s) = 5.10641 5.70679 5.41493
#
# Compressibility (1/GPa) = 0.03923255
#
# Stress axis : x y z
#
# Youngs Moduli (GPa) = 68.44887 56.64130 49.05692
#
# Poissons Ratio (x) = 0.09673 0.18711
# Poissons Ratio (y) = 0.11689 0.05820
# Poissons Ratio (z) = 0.26107 0.06720
#
# Static dielectric constant tensor:
#      x y z
#    x 1.786200 0.000790 -0.003770 
#    y 0.000790 1.820240 -0.024210 
#    z -0.003770 -0.024210 1.889870 
# 
# From -- ./inp_files/533656.got.cif
#   From: 2010.05.17/outbox.cif.g08.bks.cpg/sg2_267_cif.got.tgz:533656.got - 2010.06.03 11:33:40.
