data_PCOD9010880
_publ_section_title
;
Structure prediction by ZEFSAII (Michael W. Deem and Ramdas Pophale) SiO2 
 PCOD9010880
Probable space group: P -1
;
_chemical_formula_sum "Si O2"
_cell_formula_units_Z 16
_cell_length_a 21.136006
_cell_length_b 21.514356
_cell_length_c 8.700697
_cell_angle_alpha 31.273267
_cell_angle_beta 29.834650
_cell_angle_gamma 21.163398
_cell_volume 687.190976
_symmetry_space_group_name_H-M "P -1"
_symmetry_group_IT_number 2
_symmetry_cell_setting 'triclinic'
loop_
_space_group_symop_operation_xyz
x,y,z
-x,-y,-z
loop_
_atom_site_type_symbol
_atom_site_label
_atom_site_fract_x
_atom_site_fract_y
_atom_site_fract_z
Si Si1 0.287783 0.747050 0.244569
Si Si2 0.125644 0.672603 0.920666
Si Si3 0.029757 0.140845 0.837600
Si Si4 0.720989 0.944787 0.075794
Si Si5 0.343802 0.281582 0.308261
Si Si6 0.723654 0.368030 0.793398
Si Si7 0.620463 0.642295 0.615464
Si Si8 0.361309 0.992985 0.244064
O O1 0.256951 0.697594 0.569775
O O2 0.233326 0.687594 0.354461
O O3 0.501866 0.636253 0.990494
O O4 0.155202 0.953052 0.056117
O O5 0.227593 0.476432 0.078875
O O6 0.058720 0.715317 0.147466
O O7 0.934166 0.834673 0.888873
O O8 0.165363 0.120452 0.480599
O O9 0.862153 0.196286 0.974494
O O10 0.718495 0.807004 0.426510
O O11 0.564372 0.127344 0.117649
O O12 0.665867 0.987242 0.922935
O O13 0.315912 0.306169 0.500953
O O14 0.757198 0.475864 0.565990
O O15 0.500000 0.500000 0.000000
O O16 0.468954 0.800060 0.482871
O O17 0.500000 0.000000 0.000000
#
# Coordination Sequence:
#
# PCOD9010880 Si02
#       8
#     2   2   2   2   2   2   2   2
#     4  10  23  40  65  97 135 175 226 274 349 400
#     4  12  25  44  68 103 139 181 227 278 345 413
#     4  11  23  43  67  97 139 178 227 285 337 409
#     4  11  25  44  69  99 136 179 227 282 340 404
#     4  11  24  45  69  95 141 176 227 278 339 404
#     4  10  21  40  64  94 135 176 222 278 336 403
#     4  10  21  44  64 100 131 175 229 280 335 409
#     4  11  23  43  72  95 131 181 228 285 347 394
#
# _framework density 23.283193000000001
#
# number of rings (size 3 to 8) (size 9 to 14) (size 15 to 20)
#    0.000    1.250    2.500    3.375    3.500    2.500 
#    2.250    1.250    0.000    0.000    0.000    0.000 
#    0.000    0.000    0.000    0.000    0.000    0.000 
#
# Total GULP energy -89320.981022 kJ/mol
# GULP energy per Si atom -5582.561314 kJ/mol
# Density = 2.323020 g / cm^3
# Si number density = 23.283193 Si / 1000 Ang^3
#
#
#
# Elastic Constant Matrix: (Units=GPa)
#
#
# Indices 1 2 3 4 5 6 
#
# 1 80.6044 15.8176 -5.4411 3.2342 9.9867 3.2570
# 2 15.8176 126.9049 25.8150 0.4801 -3.0812 16.6877
# 3 -5.4411 25.8150 68.6166 4.0709 3.0830 -0.1431
# 4 3.2342 0.4801 4.0709 20.4646 -5.5772 -1.1187
# 5 9.9867 -3.0812 3.0830 -5.5772 21.6261 -3.5755
# 6 3.2570 16.6877 -0.1431 -1.1187 -3.5755 47.3038
#
#
#
# Elastic Compliance Matrix: (Units=1/GPa)
#
#
# Indices 1 2 3 4 5 6 
#
# 1 0.014423 -0.002436 0.002770 -0.005252 -0.008910 -0.000923
# 2 -0.002436 0.009442 -0.003980 0.001606 0.002970 -0.002913
# 3 0.002770 -0.003980 0.016842 -0.005141 -0.005452 0.000731
# 4 -0.005252 0.001606 -0.005141 0.055769 0.018178 0.002473
# 5 -0.008910 0.002970 -0.005452 0.018178 0.056951 0.004284
# 6 -0.000923 -0.002913 0.000731 0.002473 0.004284 0.022616
#
#
# Mechanical properties :
#
#
# Convention : Reuss Voigt Hill
#
# Bulk Modulus (GPa) = 29.92655 38.72321 34.32488
# Shear Modulus (GPa) = 25.71023 33.87453 29.79238
#
# Velocity S-wave (km/s) = 3.32662 3.81844 3.58098
# Velocity P-wave (km/s) = 5.25703 6.00901 5.64555
#
# Compressibility (1/GPa) = 0.03341514
#
# Stress axis : x y z
#
# Youngs Moduli (GPa) = 69.33238 105.90564 59.37386
#
# Poissons Ratio (x) = 0.25803 -0.16448
# Poissons Ratio (y) = 0.16892 0.23633
# Poissons Ratio (z) = -0.19207 0.42155
#
# Static dielectric constant tensor:
#      x y z
#    x 1.927360 -0.031340 -0.017420 
#    y -0.031340 1.940500 -0.043080 
#    z -0.017420 -0.043080 1.900140 
# 
# From -- ./inp_files/274275.got.cif
#   From: 2010.05.17/outbox.cif.g08.bks.cpg/sg2_138_cif.got.tgz:274275.got - 2010.06.03 11:33:40.
