data_PCOD9010030
_publ_section_title
;
Structure prediction by ZEFSAII (Michael W. Deem and Ramdas Pophale) SiO2 
 PCOD9010030
Probable space group: P -1
;
_chemical_formula_sum "Si O2"
_cell_formula_units_Z 14
_cell_length_a 5.277070
_cell_length_b 11.677873
_cell_length_c 13.369477
_cell_angle_alpha 124.627643
_cell_angle_beta 108.557593
_cell_angle_gamma 93.439071
_cell_volume 611.303901
_symmetry_space_group_name_H-M "P -1"
_symmetry_group_IT_number 2
_symmetry_cell_setting 'triclinic'
loop_
_space_group_symop_operation_xyz
x,y,z
-x,-y,-z
loop_
_atom_site_type_symbol
_atom_site_label
_atom_site_fract_x
_atom_site_fract_y
_atom_site_fract_z
Si Si1 0.415134 0.088401 0.390110
Si Si2 0.142327 0.319222 0.431504
Si Si3 0.909240 0.133385 0.603598
Si Si4 0.567132 0.368877 0.323253
Si Si5 0.649702 0.672132 0.099504
Si Si6 0.577922 0.086917 0.886784
Si Si7 0.196391 0.185557 0.012612
O O1 0.188736 0.174283 0.408821
O O2 0.709508 0.178491 0.521687
O O3 0.289324 0.941923 0.365889
O O4 0.455255 0.040390 0.259806
O O5 0.327831 0.346649 0.366613
O O6 0.293684 0.457509 0.589218
O O7 0.830103 0.319659 0.369579
O O8 0.161079 0.260989 0.747064
O O9 0.000000 0.000000 0.500000
O O10 0.420911 0.281506 0.165085
O O11 0.442974 0.770296 0.105436
O O12 0.500000 0.500000 0.000000
O O13 0.821255 0.716705 0.038728
O O14 0.326252 0.064690 0.922682
O O15 0.888202 0.122563 0.987706
#
# Coordination Sequence:
#
# PCOD9010030 Si02
#       7
#     2   2   2   2   2   2   2
#     4  11  23  41  66  95 129 178 219 271 333 389
#     4  10  24  41  70  91 130 165 223 274 328 393
#     4  11  22  41  65  93 137 171 225 266 328 395
#     4  10  22  45  62  99 126 167 218 279 329 389
#     4  10  23  39  62  96 131 175 217 270 328 391
#     4  10  21  40  61  91 132 164 213 271 312 397
#     4  10  21  40  66  85 135 164 205 275 325 379
#
# _framework density 22.901864
#
# number of rings (size 3 to 8) (size 9 to 14) (size 15 to 20)
#    0.857    0.857    2.857    0.857    2.000    2.857 
#    2.571    4.286    0.000    0.000    0.000    0.000 
#    0.000    0.000    0.000    0.000    0.000    0.000 
#
# Total GULP energy -78233.720871 kJ/mol
# GULP energy per Si atom -5588.122919 kJ/mol
# Density = 2.284974 g / cm^3
# Si number density = 22.901864 Si / 1000 Ang^3
#
#
#
# Elastic Constant Matrix: (Units=GPa)
#
#
# Indices 1 2 3 4 5 6 
#
# 1 102.5963 7.2799 30.4621 6.6182 11.6147 -5.3116
# 2 7.2799 50.7784 26.3352 14.9384 3.2976 -9.6037
# 3 30.4621 26.3352 163.0065 -4.2331 22.5688 -13.7542
# 4 6.6182 14.9384 -4.2331 22.7603 -4.8966 -2.6809
# 5 11.6147 3.2976 22.5688 -4.8966 33.2467 -4.3779
# 6 -5.3116 -9.6037 -13.7542 -2.6809 -4.3779 30.8041
#
#
#
# Elastic Compliance Matrix: (Units=1/GPa)
#
#
# Indices 1 2 3 4 5 6 
#
# 1 0.010939 0.001163 -0.001855 -0.004947 -0.003338 0.000516
# 2 0.001163 0.028988 -0.004662 -0.020156 -0.002419 0.005058
# 3 -0.001855 -0.004662 0.007967 0.004549 -0.003405 0.001696
# 4 -0.004947 -0.020156 0.004549 0.061792 0.009963 0.001688
# 5 -0.003338 -0.002419 -0.003405 0.009963 0.035669 0.003086
# 6 0.000516 0.005058 0.001696 0.001688 0.003086 0.035472
#
#
# Mechanical properties :
#
#
# Convention : Reuss Voigt Hill
#
# Bulk Modulus (GPa) = 26.89150 49.39285 38.14217
# Shear Modulus (GPa) = 24.51811 34.18248 29.35030
#
# Velocity S-wave (km/s) = 3.27551 3.86756 3.58378
# Velocity P-wave (km/s) = 5.10616 6.44655 5.81510
#
# Compressibility (1/GPa) = 0.03718648
#
# Stress axis : x y z
#
# Youngs Moduli (GPa) = 91.41702 34.49684 125.51410
#
# Poissons Ratio (x) = -0.04013 0.23282
# Poissons Ratio (y) = -0.10635 0.58519
# Poissons Ratio (z) = 0.16957 0.16084
#
# Static dielectric constant tensor:
#      x y z
#    x 1.886590 0.038130 0.001380 
#    y 0.038130 1.908870 -0.012410 
#    z 0.001380 -0.012410 1.826090 
# 
# From -- ./inp_files/483059.got.cif
#   From: 2010.05.17/outbox.cif.g08.bks.cpg/sg2_242_cif.got.tgz:483059.got - 2010.06.03 11:33:40.
