data_PCOD9010699
_publ_section_title
;
Structure prediction by ZEFSAII (Michael W. Deem and Ramdas Pophale) SiO2 
 PCOD9010699
Probable space group: P -1
;
_chemical_formula_sum "Si O2"
_cell_formula_units_Z 13
_cell_length_a 6.759429
_cell_length_b 8.527683
_cell_length_c 17.153136
_cell_angle_alpha 38.646394
_cell_angle_beta 47.056943
_cell_angle_gamma 52.671311
_cell_volume 446.006960
_symmetry_space_group_name_H-M "P -1"
_symmetry_group_IT_number 2
_symmetry_cell_setting 'triclinic'
loop_
_space_group_symop_operation_xyz
x,y,z
-x,-y,-z
loop_
_atom_site_type_symbol
_atom_site_label
_atom_site_fract_x
_atom_site_fract_y
_atom_site_fract_z
Si Si1 0.312601 0.769193 0.957022
Si Si2 0.500000 0.500000 0.500000
Si Si3 0.715311 0.053815 0.664283
Si Si4 0.901295 0.925201 0.863795
Si Si5 0.422215 0.959789 0.626146
Si Si6 0.923616 0.489170 0.251193
Si Si7 0.536347 0.596497 0.163009
O O1 0.526802 0.963607 0.817121
O O2 0.117898 0.846648 0.905586
O O3 0.500000 0.500000 0.000000
O O4 0.121322 0.702864 0.104059
O O5 0.739504 0.540456 0.355435
O O6 0.247504 0.660401 0.444783
O O7 0.530063 0.131980 0.599762
O O8 0.931504 0.808717 0.677504
O O9 0.097856 0.965516 0.723469
O O10 0.701153 0.181186 0.836610
O O11 0.715669 0.701925 0.006115
O O12 0.552035 0.672308 0.726886
O O13 0.500000 0.000000 0.500000
O O14 0.735763 0.533531 0.207555
#
# Coordination Sequence:
#
# PCOD9010699 Si02
#       7
#     2   1   2   2   2   2   2
#     4   8  17  39  63  85 116 152 198 246 289 346
#     4  12  24  38  60  88 124 158 196 248 298 356
#     4  10  23  41  61  88 119 159 203 246 296 351
#     4   9  20  38  62  92 119 153 200 243 296 355
#     4  11  23  39  62  89 122 159 196 247 301 351
#     4  10  22  40  62  89 120 156 198 244 300 356
#     4  10  21  40  64  89 120 158 199 245 294 354
#
# _framework density 29.14753
#
# number of rings (size 3 to 8) (size 9 to 14) (size 15 to 20)
#    0.000    2.154    0.000    1.846    0.000    6.154 
#    0.000   20.000    0.000    0.000    0.000    0.000 
#    0.000    0.000    0.000    0.000    0.000    0.000 
#
# Total GULP energy -72730.658685 kJ/mol
# GULP energy per Si atom -5594.666053 kJ/mol
# Density = 2.908119 g / cm^3
# Si number density = 29.147530 Si / 1000 Ang^3
#
#
#
# Elastic Constant Matrix: (Units=GPa)
#
#
# Indices 1 2 3 4 5 6 
#
# 1 97.9840 45.0689 23.0685 9.9700 14.5068 5.2350
# 2 45.0689 214.7157 94.8261 -0.7254 16.2434 -28.4465
# 3 23.0685 94.8261 262.6756 32.1993 20.0014 -9.9472
# 4 9.9700 -0.7254 32.1993 88.5141 -10.0043 12.3329
# 5 14.5068 16.2434 20.0014 -10.0043 49.9781 -6.0008
# 6 5.2350 -28.4465 -9.9472 12.3329 -6.0008 39.5638
#
#
#
# Elastic Compliance Matrix: (Units=1/GPa)
#
#
# Indices 1 2 3 4 5 6 
#
# 1 0.012359 -0.002959 0.000272 -0.001379 -0.003466 -0.003790
# 2 -0.002959 0.006808 -0.002098 0.000526 0.000146 0.004617
# 3 0.000272 -0.002098 0.004929 -0.002050 -0.001772 0.000065
# 4 -0.001379 0.000526 -0.002050 0.013062 0.003240 -0.003535
# 5 -0.003466 0.000146 -0.001772 0.003240 0.022630 0.002540
# 6 -0.003790 0.004617 0.000065 -0.003535 0.002540 0.030600
#
#
# Mechanical properties :
#
#
# Convention : Reuss Voigt Hill
#
# Bulk Modulus (GPa) = 68.84525 100.14469 84.49497
# Shear Modulus (GPa) = 47.71006 63.10532 55.40769
#
# Velocity S-wave (km/s) = 4.05019 4.65804 4.36471
# Velocity P-wave (km/s) = 6.74855 7.96004 7.37920
#
# Compressibility (1/GPa) = 0.01452533
#
# Stress axis : x y z
#
# Youngs Moduli (GPa) = 80.91580 146.89657 202.86700
#
# Poissons Ratio (x) = 0.43465 -0.05522
# Poissons Ratio (y) = 0.23942 0.42569
# Poissons Ratio (z) = -0.02203 0.30824
#
# Static dielectric constant tensor:
#      x y z
#    x 2.620590 0.314770 -0.279700 
#    y 0.314770 3.530800 -0.958750 
#    z -0.279700 -0.958750 2.912600 
# 
# From -- ./inp_files/68322.got.cif
#   From: 2010.05.17/outbox.cif.g08.bks.cpg/sg2_35_cif.got.tgz:68322.got - 2010.06.03 11:33:40.
