data_PCOD9010269
_publ_section_title
;
Structure prediction by ZEFSAII (Michael W. Deem and Ramdas Pophale) SiO2 
 PCOD9010269
Probable space group: P -1
;
_chemical_formula_sum "Si O2"
_cell_formula_units_Z 16
_cell_length_a 9.480282
_cell_length_b 14.377336
_cell_length_c 11.783342
_cell_angle_alpha 41.617964
_cell_angle_beta 71.581032
_cell_angle_gamma 48.508622
_cell_volume 745.305055
_symmetry_space_group_name_H-M "P -1"
_symmetry_group_IT_number 2
_symmetry_cell_setting 'triclinic'
loop_
_space_group_symop_operation_xyz
x,y,z
-x,-y,-z
loop_
_atom_site_type_symbol
_atom_site_label
_atom_site_fract_x
_atom_site_fract_y
_atom_site_fract_z
Si Si1 0.827916 0.565334 0.291643
Si Si2 0.525989 0.732883 0.418511
Si Si3 0.578432 0.498084 0.269618
Si Si4 0.860427 0.819142 0.899641
Si Si5 0.840018 0.180572 0.298371
Si Si6 0.551963 0.331864 0.064604
Si Si7 0.659433 0.795961 0.773604
Si Si8 0.717665 0.789911 0.499677
O O1 0.694523 0.667265 0.344701
O O2 0.697113 0.544940 0.262051
O O3 0.046112 0.359039 0.452383
O O4 0.866153 0.692580 0.106987
O O5 0.483862 0.593780 0.553271
O O6 0.614369 0.719591 0.531811
O O7 0.325138 0.953004 0.245630
O O8 0.716655 0.338926 0.282720
O O9 0.395534 0.669173 0.078572
O O10 0.819423 0.762972 0.844337
O O11 0.055135 0.787711 0.851621
O O12 0.709705 0.160842 0.268317
O O13 0.000000 0.000000 0.500000
O O14 0.357881 0.357907 0.078361
O O15 0.500000 0.500000 0.000000
O O16 0.703312 0.802378 0.627323
O O17 0.440145 0.989143 0.698004
#
# Coordination Sequence:
#
# PCOD9010269 Si02
#       8
#     2   2   2   2   2   2   2   2
#     4  12  25  41  65  92 126 171 222 252 294 384
#     4  11  24  45  62  87 131 178 207 252 315 371
#     4  11  23  41  63  92 128 163 210 260 318 368
#     4  11  24  41  65  94 127 162 211 264 317 370
#     4  11  23  39  66  97 126 158 204 263 325 375
#     4  10  22  37  60  91 130 160 196 253 326 376
#     4  10  21  40  62  95 128 156 199 271 331 365
#     4  10  23  37  66  92 123 162 210 263 318 370
#
# _framework density 21.467718999999999
#
# number of rings (size 3 to 8) (size 9 to 14) (size 15 to 20)
#    0.000    1.250    2.500    3.375   10.500    1.000 
#    0.000    0.000    0.000    1.500    0.000    0.000 
#    0.000    0.000    0.000    0.000    0.000    0.000 
#
# Total GULP energy -89216.160240 kJ/mol
# GULP energy per Si atom -5576.010015 kJ/mol
# Density = 2.141886 g / cm^3
# Si number density = 21.467719 Si / 1000 Ang^3
#
#
#
# Elastic Constant Matrix: (Units=GPa)
#
#
# Indices 1 2 3 4 5 6 
#
# 1 65.0023 1.7075 1.8050 -0.1561 -0.5345 3.9635
# 2 1.7075 77.0060 1.3914 5.8026 1.0255 -22.1303
# 3 1.8050 1.3914 54.8491 6.7532 -4.4911 -7.5230
# 4 -0.1561 5.8026 6.7532 20.2814 -9.8374 -5.3437
# 5 -0.5345 1.0255 -4.4911 -9.8374 36.8031 1.3035
# 6 3.9635 -22.1303 -7.5230 -5.3437 1.3035 25.1567
#
#
#
# Elastic Compliance Matrix: (Units=1/GPa)
#
#
# Indices 1 2 3 4 5 6 
#
# 1 0.015707 -0.001519 -0.001016 -0.000064 0.000276 -0.004143
# 2 -0.001519 0.017792 0.001959 -0.002216 -0.001441 0.016081
# 3 -0.001016 0.001959 0.019817 -0.005029 0.000767 0.006702
# 4 -0.000064 -0.002216 -0.005029 0.061489 0.015571 0.008811
# 5 0.000276 -0.001441 0.000767 0.015571 0.031450 0.000597
# 6 -0.004143 0.016081 0.006702 0.008811 0.000597 0.058395
#
#
# Mechanical properties :
#
#
# Convention : Reuss Voigt Hill
#
# Bulk Modulus (GPa) = 19.17078 22.96278 21.06678
# Shear Modulus (GPa) = 22.40250 29.24513 25.82381
#
# Velocity S-wave (km/s) = 3.23390 3.69492 3.47207
# Velocity P-wave (km/s) = 4.78472 5.37800 5.09001
#
# Compressibility (1/GPa) = 0.05216272
#
# Stress axis : x y z
#
# Youngs Moduli (GPa) = 63.66611 56.20574 50.46220
#
# Poissons Ratio (x) = 0.08540 0.05128
# Poissons Ratio (y) = 0.09674 -0.09886
# Poissons Ratio (z) = 0.06469 -0.11012
#
# Static dielectric constant tensor:
#      x y z
#    x 1.789960 -0.022980 0.036230 
#    y -0.022980 1.791820 -0.080740 
#    z 0.036230 -0.080740 2.023670 
# 
# From -- ./inp_files/199755.got.cif
#   From: 2010.05.17/outbox.cif.g08.bks.cpg/sg2_100_cif.got.tgz:199755.got - 2010.06.03 11:33:40.
