data_PCOD9010875
_publ_section_title
;
Structure prediction by ZEFSAII (Michael W. Deem and Ramdas Pophale) SiO2 
 PCOD9010875
Probable space group: P -1
;
_chemical_formula_sum "Si O2"
_cell_formula_units_Z 14
_cell_length_a 12.506361
_cell_length_b 19.135852
_cell_length_c 8.541752
_cell_angle_alpha 30.233293
_cell_angle_beta 131.397778
_cell_angle_gamma 142.420495
_cell_volume 625.904042
_symmetry_space_group_name_H-M "P -1"
_symmetry_group_IT_number 2
_symmetry_cell_setting 'triclinic'
loop_
_space_group_symop_operation_xyz
x,y,z
-x,-y,-z
loop_
_atom_site_type_symbol
_atom_site_label
_atom_site_fract_x
_atom_site_fract_y
_atom_site_fract_z
Si Si1 0.390714 0.432644 0.182133
Si Si2 0.491791 0.657677 0.125626
Si Si3 0.171609 0.688394 0.337898
Si Si4 0.857819 0.023286 0.747192
Si Si5 0.985779 0.139170 0.297901
Si Si6 0.665170 0.370768 0.675543
Si Si7 0.955879 0.360322 0.362373
O O1 0.424273 0.585131 0.027169
O O2 0.184835 0.304113 0.200210
O O3 0.485668 0.352720 0.503846
O O4 0.500000 0.500000 0.000000
O O5 0.500000 0.500000 0.500000
O O6 0.374547 0.687806 0.067507
O O7 0.675965 0.839304 0.944589
O O8 0.306409 0.711580 0.288414
O O9 0.179474 0.680175 0.549584
O O10 0.000000 0.500000 0.500000
O O11 0.124013 0.818643 0.996699
O O12 0.884279 0.182170 0.555863
O O13 0.895193 0.074522 0.503052
O O14 0.000000 0.000000 0.000000
O O15 0.000000 0.000000 0.500000
O O16 0.853483 0.556751 0.524768
O O17 0.000000 0.500000 0.000000
#
# Coordination Sequence:
#
# PCOD9010875 Si02
#       7
#     2   2   2   2   2   2   2
#     4  11  21  39  65  96 135 177 219 280 342 401
#     4  10  22  39  60  94 133 174 222 279 339 395
#     4  10  22  42  66  97 133 175 224 274 338 414
#     4  12  22  39  66  96 130 178 231 280 331 405
#     4  12  25  43  67 101 136 178 230 282 341 416
#     4  10  21  40  64  94 131 175 224 275 334 404
#     4  11  23  42  68  98 134 179 222 276 343 415
#
# _framework density 22.367645
#
# number of rings (size 3 to 8) (size 9 to 14) (size 15 to 20)
#    0.000    1.143    0.000    9.429    0.000    2.286 
#    0.000    5.714    0.000    1.714    0.000    1.000 
#    0.000    0.000    0.000    0.000    0.000    0.000 
#
# Total GULP energy -78064.545405 kJ/mol
# GULP energy per Si atom -5576.038957 kJ/mol
# Density = 2.231674 g / cm^3
# Si number density = 22.367645 Si / 1000 Ang^3
#
#
#
# Elastic Constant Matrix: (Units=GPa)
#
#
# Indices 1 2 3 4 5 6 
#
# 1 218.2686 68.7140 63.5145 -10.9140 -15.7517 -37.4707
# 2 68.7140 106.5393 41.2680 -26.2905 -4.0857 -14.3790
# 3 63.5145 41.2680 114.3710 -6.4094 0.3104 -17.4296
# 4 -10.9140 -26.2905 -6.4094 43.0687 0.9251 0.5181
# 5 -15.7517 -4.0857 0.3104 0.9251 46.0624 -2.0340
# 6 -37.4707 -14.3790 -17.4296 0.5181 -2.0340 60.0533
#
#
#
# Elastic Compliance Matrix: (Units=1/GPa)
#
#
# Indices 1 2 3 4 5 6 
#
# 1 0.006895 -0.003255 -0.002248 -0.000657 0.002228 0.002952
# 2 -0.003255 0.014586 -0.002945 0.007632 0.000071 0.000543
# 3 -0.002248 -0.002945 0.011187 -0.000693 -0.001042 0.001110
# 4 -0.000657 0.007632 -0.000693 0.027597 -0.000054 0.000976
# 5 0.002228 0.000071 -0.001042 -0.000054 0.022568 0.001869
# 6 0.002952 0.000543 0.001110 0.000976 0.001869 0.019001
#
#
# Mechanical properties :
#
#
# Convention : Reuss Voigt Hill
#
# Bulk Modulus (GPa) = 63.39923 87.35244 75.37583
# Shear Modulus (GPa) = 40.32678 47.54903 43.93791
#
# Velocity S-wave (km/s) = 4.25067 4.61564 4.43691
# Velocity P-wave (km/s) = 7.24546 8.21847 7.74726
#
# Compressibility (1/GPa) = 0.01577306
#
# Stress axis : x y z
#
# Youngs Moduli (GPa) = 145.03734 68.56049 89.38560
#
# Poissons Ratio (x) = 0.22314 0.20091
# Poissons Ratio (y) = 0.47205 0.26325
# Poissons Ratio (z) = 0.32599 0.20192
#
# Static dielectric constant tensor:
#      x y z
#    x 1.885830 -0.040340 -0.035060 
#    y -0.040340 1.892160 0.128650 
#    z -0.035060 0.128650 1.903110 
# 
# From -- ./inp_files/278715.got.cif
#   From: 2010.05.17/outbox.cif.g08.bks.cpg/sg2_140_cif.got.tgz:278715.got - 2010.06.03 11:33:40.
