data_PCOD9010836
_publ_section_title
;
Structure prediction by ZEFSAII (Michael W. Deem and Ramdas Pophale) SiO2 
 PCOD9010836
Probable space group: P -1
;
_chemical_formula_sum "Si O2"
_cell_formula_units_Z 13
_cell_length_a 7.271713
_cell_length_b 7.768292
_cell_length_c 10.780808
_cell_angle_alpha 59.200435
_cell_angle_beta 67.293765
_cell_angle_gamma 93.323083
_cell_volume 456.763866
_symmetry_space_group_name_H-M "P -1"
_symmetry_group_IT_number 2
_symmetry_cell_setting 'triclinic'
loop_
_space_group_symop_operation_xyz
x,y,z
-x,-y,-z
loop_
_atom_site_type_symbol
_atom_site_label
_atom_site_fract_x
_atom_site_fract_y
_atom_site_fract_z
Si Si1 0.448348 0.293444 0.848831
Si Si2 0.686407 0.461643 0.392346
Si Si3 0.886090 0.510375 0.726173
Si Si4 0.586900 0.937627 0.805138
Si Si5 0.150359 0.724409 0.931596
Si Si6 0.972849 0.049646 0.321657
Si Si7 0.500000 0.000000 0.500000
O O1 0.285181 0.385693 0.791168
O O2 0.674353 0.473027 0.722131
O O3 0.487862 0.103875 0.830823
O O4 0.401956 0.226759 0.028451
O O5 0.500000 0.500000 0.500000
O O6 0.907875 0.509332 0.384662
O O7 0.616784 0.221352 0.457913
O O8 0.940527 0.726479 0.709963
O O9 0.833826 0.319699 0.912278
O O10 0.406767 0.818852 0.792128
O O11 0.835608 0.042527 0.674282
O O12 0.058400 0.896882 0.834665
O O13 0.000000 0.500000 0.000000
O O14 0.732694 0.943422 0.462308
#
# Coordination Sequence:
#
# PCOD9010836 Si02
#       7
#     2   2   2   2   2   2   1
#     4  10  23  42  64 100 136 164 222 277 332 405
#     4  11  25  45  68  91 136 184 222 276 330 392
#     4   9  21  40  61  97 125 168 225 272 335 390
#     4  10  22  39  68 102 130 174 215 275 347 390
#     4   9  19  36  65  95 131 169 218 277 334 391
#     4  10  21  40  64  93 133 172 223 275 327 396
#     4  10  26  46  62 100 130 178 238 264 324 406
#
# _framework density 28.461095
#
# number of rings (size 3 to 8) (size 9 to 14) (size 15 to 20)
#    0.000    2.154    0.000    0.923    4.308   11.077 
#    0.000    6.923    0.000    0.000    0.000    0.000 
#    0.000    0.000    0.000    0.000    0.000    0.000 
#
# Total GULP energy -72593.107396 kJ/mol
# GULP energy per Si atom -5584.085184 kJ/mol
# Density = 2.839632 g / cm^3
# Si number density = 28.461095 Si / 1000 Ang^3
#
#
#
# Elastic Constant Matrix: (Units=GPa)
#
#
# Indices 1 2 3 4 5 6 
#
# 1 231.4855 33.6462 44.4168 -7.5523 -26.4466 2.2002
# 2 33.6462 79.0285 18.4248 -9.5610 -17.0764 -2.8036
# 3 44.4168 18.4248 74.9569 -5.8006 0.0865 -10.4476
# 4 -7.5523 -9.5610 -5.8006 38.3385 -3.9295 -3.2143
# 5 -26.4466 -17.0764 0.0865 -3.9295 66.2127 -1.6957
# 6 2.2002 -2.8036 -10.4476 -3.2143 -1.6957 46.4649
#
#
#
# Elastic Compliance Matrix: (Units=1/GPa)
#
#
# Indices 1 2 3 4 5 6 
#
# 1 0.005281 -0.001151 -0.002939 0.000421 0.001819 -0.000885
# 2 -0.001151 0.015000 -0.002631 0.003552 0.003642 0.000747
# 3 -0.002939 -0.002631 0.016352 0.001374 -0.001698 0.003690
# 4 0.000421 0.003552 0.001374 0.027758 0.002794 0.002526
# 5 0.001819 0.003642 -0.001698 0.002794 0.016951 0.000564
# 6 -0.000885 0.000747 0.003690 0.002526 0.000564 0.022634
#
#
# Mechanical properties :
#
#
# Convention : Reuss Voigt Hill
#
# Bulk Modulus (GPa) = 43.11809 64.27184 53.69497
# Shear Modulus (GPa) = 39.95264 49.46877 44.71071
#
# Velocity S-wave (km/s) = 3.75075 4.17360 3.96781
# Velocity P-wave (km/s) = 5.82582 6.77175 6.31652
#
# Compressibility (1/GPa) = 0.02319212
#
# Stress axis : x y z
#
# Youngs Moduli (GPa) = 189.35416 66.66641 61.15427
#
# Poissons Ratio (x) = 0.07671 0.17976
# Poissons Ratio (y) = 0.21787 0.16087
# Poissons Ratio (z) = 0.55660 0.17537
#
# Static dielectric constant tensor:
#      x y z
#    x 2.246320 -0.095190 -0.269780 
#    y -0.095190 2.206250 0.227590 
#    z -0.269780 0.227590 2.358240 
# 
# From -- ./inp_files/360532.got.cif
#   From: 2010.05.17/outbox.cif.g08.bks.cpg/sg2_181_cif.got.tgz:360532.got - 2010.06.03 11:33:40.
