data_PCOD9010118
_publ_section_title
;
Structure prediction by ZEFSAII (Michael W. Deem and Ramdas Pophale) SiO2 
 PCOD9010118
Probable space group: P -1
;
_chemical_formula_sum "Si O2"
_cell_formula_units_Z 16
_cell_length_a 16.882502
_cell_length_b 22.245193
_cell_length_c 7.286123
_cell_angle_alpha 50.092929
_cell_angle_beta 124.872649
_cell_angle_gamma 162.380656
_cell_volume 625.998299
_symmetry_space_group_name_H-M "P -1"
_symmetry_group_IT_number 2
_symmetry_cell_setting 'triclinic'
loop_
_space_group_symop_operation_xyz
x,y,z
-x,-y,-z
loop_
_atom_site_type_symbol
_atom_site_label
_atom_site_fract_x
_atom_site_fract_y
_atom_site_fract_z
Si Si1 0.553373 0.769155 0.118237
Si Si2 0.081902 0.973248 0.211589
Si Si3 0.322314 0.733960 0.099771
Si Si4 0.952824 0.840747 0.720872
Si Si5 0.268736 0.868383 0.619818
Si Si6 0.092612 0.785597 0.917989
Si Si7 0.880888 0.316999 0.561393
Si Si8 0.572846 0.500270 0.420397
O O1 0.372515 0.703233 0.078564
O O2 0.433375 0.594176 0.346246
O O3 0.825049 0.976460 0.191956
O O4 0.640956 0.838127 0.887411
O O5 0.069908 0.953977 0.453204
O O6 0.860005 0.749424 0.263854
O O7 0.000000 0.000000 0.000000
O O8 0.106753 0.542354 0.336613
O O9 0.606898 0.963993 0.118640
O O10 0.249866 0.761732 0.857724
O O11 0.671981 0.670747 0.707206
O O12 0.906353 0.712488 0.890205
O O13 0.108724 0.793042 0.707303
O O14 0.158012 0.786415 0.428725
O O15 0.581930 0.125169 0.544099
O O16 0.043699 0.664915 0.181876
O O17 0.500000 0.500000 0.500000
#
# Coordination Sequence:
#
# PCOD9010118 Si02
#       8
#     2   2   2   2   2   2   2   2
#     4  11  23  42  63  91 130 159 204 261 302 368
#     4  11  23  43  66  88 124 163 205 257 314 361
#     4  10  22  40  63  94 124 160 209 252 302 367
#     4  10  23  42  61  94 129 158 211 252 304 370
#     4  10  22  40  65  90 126 162 206 254 301 362
#     4  10  23  41  60  93 129 160 204 259 295 366
#     4  10  21  40  62  86 126 162 205 247 315 350
#     4  10  21  40  64  90 121 161 205 251 303 372
#
# _framework density 25.559173999999999
#
# number of rings (size 3 to 8) (size 9 to 14) (size 15 to 20)
#    0.000    1.750    2.500    2.250    0.000   11.500 
#    4.500    0.000    0.000    0.000    0.000    0.000 
#    0.000    0.000    0.000    0.000    0.000    0.000 
#
# Total GULP energy -89682.798685 kJ/mol
# GULP energy per Si atom -5605.174918 kJ/mol
# Density = 2.550100 g / cm^3
# Si number density = 25.559174 Si / 1000 Ang^3
#
#
#
# Elastic Constant Matrix: (Units=GPa)
#
#
# Indices 1 2 3 4 5 6 
#
# 1 97.7361 16.2623 30.0112 -16.4650 11.1839 -0.9035
# 2 16.2623 90.3494 36.2520 -9.3070 1.5865 11.1525
# 3 30.0112 36.2520 132.3307 -29.8820 -5.8647 13.2949
# 4 -16.4650 -9.3070 -29.8820 40.7721 -8.2682 -6.5083
# 5 11.1839 1.5865 -5.8647 -8.2682 39.4452 1.3036
# 6 -0.9035 11.1525 13.2949 -6.5083 1.3036 29.7014
#
#
#
# Elastic Compliance Matrix: (Units=1/GPa)
#
#
# Indices 1 2 3 4 5 6 
#
# 1 0.011945 -0.001267 -0.002141 0.002728 -0.003166 0.002534
# 2 -0.001267 0.012916 -0.003021 -0.000474 -0.000589 -0.003614
# 3 -0.002141 -0.003021 0.010812 0.006755 0.003833 -0.002459
# 4 0.002728 -0.000474 0.006755 0.032525 0.006933 0.004060
# 5 -0.003166 -0.000589 0.003833 0.006933 0.028340 -0.001315
# 6 0.002534 -0.003614 -0.002459 0.004060 -0.001315 0.037150
#
#
# Mechanical properties :
#
#
# Convention : Reuss Voigt Hill
#
# Bulk Modulus (GPa) = 43.83014 53.94079 48.88547
# Shear Modulus (GPa) = 32.43560 37.84313 35.13936
#
# Velocity S-wave (km/s) = 3.56622 3.85204 3.71188
# Velocity P-wave (km/s) = 5.84320 6.39800 6.12688
#
# Compressibility (1/GPa) = 0.02281535
#
# Stress axis : x y z
#
# Youngs Moduli (GPa) = 83.71607 77.42312 92.48813
#
# Poissons Ratio (x) = 0.09812 0.19799
# Poissons Ratio (y) = 0.10609 0.27940
# Poissons Ratio (z) = 0.17921 0.23389
#
# Static dielectric constant tensor:
#      x y z
#    x 2.021300 -0.030050 -0.016110 
#    y -0.030050 2.059320 0.002050 
#    z -0.016110 0.002050 1.983800 
# 
# From -- ./inp_files/338438.got.cif
#   From: 2010.05.17/outbox.cif.g08.bks.cpg/sg2_170_cif.got.tgz:338438.got - 2010.06.03 11:33:40.
