data_PCOD9010356
_publ_section_title
;
Structure prediction by ZEFSAII (Michael W. Deem and Ramdas Pophale) SiO2 
 PCOD9010356
Probable space group: P -1
;
_chemical_formula_sum "Si O2"
_cell_formula_units_Z 15
_cell_length_a 11.577635
_cell_length_b 9.396170
_cell_length_c 6.875087
_cell_angle_alpha 66.920904
_cell_angle_beta 98.093852
_cell_angle_gamma 107.931412
_cell_volume 654.455787
_symmetry_space_group_name_H-M "P -1"
_symmetry_group_IT_number 2
_symmetry_cell_setting 'triclinic'
loop_
_space_group_symop_operation_xyz
x,y,z
-x,-y,-z
loop_
_atom_site_type_symbol
_atom_site_label
_atom_site_fract_x
_atom_site_fract_y
_atom_site_fract_z
Si Si1 0.134944 0.047030 0.592075
Si Si2 0.316007 0.014876 0.339632
Si Si3 0.158157 0.386062 0.568163
Si Si4 0.381495 0.626120 0.266814
Si Si5 0.433100 0.747932 0.615010
Si Si6 0.500000 0.500000 0.000000
Si Si7 0.004588 0.462876 0.794445
Si Si8 0.789047 0.162159 0.962896
O O1 0.226886 0.081384 0.414861
O O2 0.157118 0.202354 0.651720
O O3 0.000000 0.000000 0.500000
O O4 0.165355 0.906841 0.799056
O O5 0.447513 0.141855 0.308341
O O6 0.334712 0.848537 0.520140
O O7 0.264890 0.976187 0.132931
O O8 0.276150 0.496736 0.429542
O O9 0.043871 0.406279 0.402798
O O10 0.128681 0.446242 0.740068
O O11 0.464042 0.723501 0.409112
O O12 0.449792 0.546238 0.173432
O O13 0.314140 0.745778 0.083179
O O14 0.407067 0.584950 0.815640
O O15 0.904318 0.292325 0.828771
O O16 0.000000 0.500000 0.000000
#
# Coordination Sequence:
#
# PCOD9010356 Si02
#       8
#     2   2   2   2   2   1   2   2
#     4  12  24  39  64  97 131 167 212 268 322 385
#     4  10  23  44  63  89 132 173 210 263 330 383
#     4  10  23  39  59  91 126 161 208 262 312 374
#     4  10  23  42  64  95 133 171 215 267 323 387
#     4  10  23  42  66  93 127 171 219 269 319 384
#     4  12  22  38  66  94 124 168 218 266 318 374
#     4  10  21  40  63  87 122 167 209 255 316 380
#     4  10  23  41  63  93 128 171 216 260 321 390
#
# _framework density 22.919806000000001
#
# number of rings (size 3 to 8) (size 9 to 14) (size 15 to 20)
#    0.000    1.600    0.000    3.600    0.000   11.733 
#    0.000    4.000    0.000    0.000    0.000    0.000 
#    0.000    0.000    0.000    0.000    0.000    0.000 
#
# Total GULP energy -83637.992375 kJ/mol
# GULP energy per Si atom -5575.866158 kJ/mol
# Density = 2.286764 g / cm^3
# Si number density = 22.919806 Si / 1000 Ang^3
#
#
#
# Elastic Constant Matrix: (Units=GPa)
#
#
# Indices 1 2 3 4 5 6 
#
# 1 70.4439 47.8938 37.8559 22.8476 -1.3041 -19.1152
# 2 47.8938 62.4590 29.1968 19.1300 -10.9977 -10.4058
# 3 37.8559 29.1968 99.4509 21.0758 8.3362 -9.9942
# 4 22.8476 19.1300 21.0758 33.9512 -14.0600 -2.0662
# 5 -1.3041 -10.9977 8.3362 -14.0600 39.3921 17.5112
# 6 -19.1152 -10.4058 -9.9942 -2.0662 17.5112 29.5373
#
#
#
# Elastic Compliance Matrix: (Units=1/GPa)
#
#
# Indices 1 2 3 4 5 6 
#
# 1 0.070144 -0.041794 0.006248 -0.046464 -0.054832 0.062041
# 2 -0.041794 0.046601 -0.008018 0.019213 0.034646 -0.032539
# 3 0.006248 -0.008018 0.017095 -0.017346 -0.019572 0.017393
# 4 -0.046464 0.019213 -0.017346 0.083760 0.064845 -0.061754
# 5 -0.054832 0.034646 -0.019572 0.064845 0.097502 -0.083170
# 6 0.062041 -0.032539 0.017393 -0.061754 -0.083170 0.113415
#
#
# Mechanical properties :
#
#
# Convention : Reuss Voigt Hill
#
# Bulk Modulus (GPa) = 21.40814 51.36077 36.38446
# Shear Modulus (GPa) = 9.41235 28.40327 18.90781
#
# Velocity S-wave (km/s) = 2.02868 3.52411 2.87532
# Velocity P-wave (km/s) = 3.85333 6.24633 5.18965
#
# Compressibility (1/GPa) = 0.04671121
#
# Stress axis : x y z
#
# Youngs Moduli (GPa) = 14.25645 21.45854 58.49510
#
# Poissons Ratio (x) = 0.89685 -0.36545
# Poissons Ratio (y) = 0.59584 0.46900
# Poissons Ratio (z) = -0.08907 0.17205
#
# Static dielectric constant tensor:
#      x y z
#    x 1.842210 0.033930 -0.004130 
#    y 0.033930 1.908100 -0.014840 
#    z -0.004130 -0.014840 1.870040 
# 
# From -- ./inp_files/60531.got.cif
#   From: 2010.05.17/outbox.cif.g08.bks.cpg/sg2_31_cif.got.tgz:60531.got - 2010.06.03 11:33:40.
