data_PCOD9010674
_publ_section_title
;
Structure prediction by ZEFSAII (Michael W. Deem and Ramdas Pophale) SiO2 
 PCOD9010674
Probable space group: P -1
;
_chemical_formula_sum "Si O2"
_cell_formula_units_Z 15
_cell_length_a 9.439172
_cell_length_b 13.262031
_cell_length_c 14.370153
_cell_angle_alpha 151.039643
_cell_angle_beta 118.826573
_cell_angle_gamma 79.621809
_cell_volume 627.084244
_symmetry_space_group_name_H-M "P -1"
_symmetry_group_IT_number 2
_symmetry_cell_setting 'triclinic'
loop_
_space_group_symop_operation_xyz
x,y,z
-x,-y,-z
loop_
_atom_site_type_symbol
_atom_site_label
_atom_site_fract_x
_atom_site_fract_y
_atom_site_fract_z
Si Si1 0.994792 0.805153 0.211091
Si Si2 0.000000 0.000000 0.000000
Si Si3 0.113505 0.514717 0.707657
Si Si4 0.915139 0.223712 0.582437
Si Si5 0.723792 0.470684 0.538112
Si Si6 0.184991 0.094042 0.325349
Si Si7 0.393466 0.475817 0.250114
Si Si8 0.472757 0.052761 0.885838
O O1 0.063037 0.733316 0.266191
O O2 0.139643 0.925295 0.266154
O O3 0.967792 0.024072 0.413818
O O4 0.783415 0.595811 0.932712
O O5 0.218323 0.281184 0.300439
O O6 0.044362 0.937527 0.067589
O O7 0.129740 0.292189 0.495170
O O8 0.068764 0.467191 0.765128
O O9 0.915847 0.473061 0.573129
O O10 0.308755 0.776775 0.949522
O O11 0.698212 0.099737 0.370248
O O12 0.671548 0.517480 0.661523
O O13 0.557355 0.167491 0.234201
O O14 0.413490 0.262163 0.509829
O O15 0.431562 0.253893 0.075587
#
# Coordination Sequence:
#
# PCOD9010674 Si02
#       8
#     2   1   2   2   2   2   2   2
#     4   9  16  34  59  93 125 158 199 249 294 357
#     4  12  26  42  64  92 118 158 210 252 308 366
#     4   9  20  41  63  89 127 160 199 249 303 358
#     4   8  16  31  63  92 123 161 198 240 302 354
#     4  11  24  40  64  89 120 162 200 255 306 357
#     4  10  22  41  62  90 124 162 203 255 301 356
#     4  10  21  40  64  87 125 161 201 249 302 354
#     4   9  20  40  61  93 125 160 199 248 295 366
#
# _framework density 23.920231000000001
#
# number of rings (size 3 to 8) (size 9 to 14) (size 15 to 20)
#    0.000    2.400    1.333    0.800    1.867    2.133 
#    0.000    9.333    0.000    4.800    0.000    0.000 
#    0.000    0.000    0.000    0.000    0.000    0.000 
#
# Total GULP energy -83580.283536 kJ/mol
# GULP energy per Si atom -5572.018902 kJ/mol
# Density = 2.386579 g / cm^3
# Si number density = 23.920231 Si / 1000 Ang^3
#
#
#
# Elastic Constant Matrix: (Units=GPa)
#
#
# Indices 1 2 3 4 5 6 
#
# 1 115.6894 32.6758 44.5093 20.1204 18.9727 16.2715
# 2 32.6758 111.0155 42.7269 -0.2740 20.3624 24.4956
# 3 44.5093 42.7269 118.1176 17.0472 17.9756 24.4054
# 4 20.1204 -0.2740 17.0472 33.4594 9.9903 -1.4840
# 5 18.9727 20.3624 17.9756 9.9903 51.6004 12.8297
# 6 16.2715 24.4956 24.4054 -1.4840 12.8297 29.9905
#
#
#
# Elastic Compliance Matrix: (Units=1/GPa)
#
#
# Indices 1 2 3 4 5 6 
#
# 1 0.011524 -0.001759 -0.002126 -0.005705 -0.000963 -0.002956
# 2 -0.001759 0.012259 -0.002652 0.002979 -0.002422 -0.005717
# 3 -0.002126 -0.002652 0.012468 -0.005524 0.000358 -0.007253
# 4 -0.005705 0.002979 -0.005524 0.038750 -0.007178 0.010146
# 5 -0.000963 -0.002422 0.000358 -0.007178 0.024052 -0.008434
# 6 -0.002956 -0.005717 -0.007253 0.010146 -0.008434 0.049630
#
#
# Mechanical properties :
#
#
# Convention : Reuss Voigt Hill
#
# Bulk Modulus (GPa) = 43.14277 64.96073 54.05175
# Shear Modulus (GPa) = 29.50156 38.00408 33.75282
#
# Velocity S-wave (km/s) = 3.51569 3.99028 3.76048
# Velocity P-wave (km/s) = 5.87838 6.96031 6.44210
#
# Compressibility (1/GPa) = 0.02317885
#
# Stress axis : x y z
#
# Youngs Moduli (GPa) = 86.77239 81.57111 80.20659
#
# Poissons Ratio (x) = 0.14349 0.17048
# Poissons Ratio (y) = 0.15264 0.21268
# Poissons Ratio (z) = 0.18444 0.21630
#
# Static dielectric constant tensor:
#      x y z
#    x 1.951910 -0.079810 -0.060410 
#    y -0.079810 2.049310 0.113350 
#    z -0.060410 0.113350 2.090760 
# 
# From -- ./inp_files/505920.got.cif
#   From: 2010.05.17/outbox.cif.g08.bks.cpg/sg2_253_cif.got.tgz:505920.got - 2010.06.03 11:33:40.
