data_PCOD9010357
_publ_section_title
;
Structure prediction by ZEFSAII (Michael W. Deem and Ramdas Pophale) SiO2 
 PCOD9010357
Probable space group: P -1
;
_chemical_formula_sum "Si O2"
_cell_formula_units_Z 16
_cell_length_a 7.510555
_cell_length_b 11.860763
_cell_length_c 7.832908
_cell_angle_alpha 81.729356
_cell_angle_beta 98.068471
_cell_angle_gamma 76.635205
_cell_volume 660.793770
_symmetry_space_group_name_H-M "P -1"
_symmetry_group_IT_number 2
_symmetry_cell_setting 'triclinic'
loop_
_space_group_symop_operation_xyz
x,y,z
-x,-y,-z
loop_
_atom_site_type_symbol
_atom_site_label
_atom_site_fract_x
_atom_site_fract_y
_atom_site_fract_z
Si Si1 0.929169 0.893895 0.096491
Si Si2 0.601536 0.526346 0.778251
Si Si3 0.368621 0.691284 0.940049
Si Si4 0.595862 0.960749 0.835494
Si Si5 0.736667 0.402859 0.504850
Si Si6 0.955780 0.198090 0.378121
Si Si7 0.668740 0.206304 0.746233
Si Si8 0.240616 0.001884 0.584374
O O1 0.837628 0.941130 0.254374
O O2 0.116194 0.796845 0.182716
O O3 0.782997 0.869250 0.946306
O O4 0.000000 0.000000 0.000000
O O5 0.536981 0.651546 0.836605
O O6 0.742774 0.487369 0.647591
O O7 0.399824 0.523429 0.671689
O O8 0.661582 0.427075 0.951698
O O9 0.174988 0.762208 0.813513
O O10 0.427815 0.758838 0.091762
O O11 0.643855 0.077859 0.736994
O O12 0.450201 0.938603 0.682838
O O13 0.500000 0.000000 0.000000
O O14 0.916467 0.317137 0.459487
O O15 0.622214 0.309152 0.579353
O O16 0.166821 0.116543 0.427160
O O17 0.853802 0.101251 0.460800
#
# Coordination Sequence:
#
# PCOD9010357 Si02
#       8
#     2   2   2   2   2   2   2   2
#     4   9  16  28  47  67  95 130 164 197 232 272
#     4   8  16  28  47  77  99 112 157 217 255 281
#     4   9  16  28  48  76  99 120 157 206 252 292
#     4   9  18  30  45  68 102 134 171 194 227 283
#     4   9  16  29  48  74 100 120 157 211 252 285
#     4  10  18  29  49  69 105 134 162 196 239 288
#     4  10  17  29  51  72  98 129 164 198 244 285
#     4  10  19  31  45  70 103 140 163 194 230 284
#
# _framework density 24.213304000000001
#
# number of rings (size 3 to 8) (size 9 to 14) (size 15 to 20)
#    0.000    2.750    1.250    2.250    0.000    0.000 
#    0.000    0.625    0.000    0.000    0.000   33.250 
#    0.000    0.000    0.000    0.000    0.000    0.000 
#
# Total GULP energy -89083.446362 kJ/mol
# GULP energy per Si atom -5567.715398 kJ/mol
# Density = 2.415819 g / cm^3
# Si number density = 24.213304 Si / 1000 Ang^3
#
#
#
# Elastic Constant Matrix: (Units=GPa)
#
#
# Indices 1 2 3 4 5 6 
#
# 1 47.8314 13.3337 14.1271 -6.4198 19.5322 -7.8065
# 2 13.3337 94.9639 13.8060 -1.5763 10.3159 -29.5253
# 3 14.1271 13.8060 126.7813 -20.6808 8.8170 -4.5636
# 4 -6.4198 -1.5763 -20.6808 49.2154 -10.2197 1.3603
# 5 19.5322 10.3159 8.8170 -10.2197 35.7905 -2.0344
# 6 -7.8065 -29.5253 -4.5636 1.3603 -2.0344 17.8911
#
#
#
# Elastic Compliance Matrix: (Units=1/GPa)
#
#
# Indices 1 2 3 4 5 6 
#
# 1 0.029524 0.002348 -0.002030 -0.000573 -0.015628 0.014506
# 2 0.002348 0.022683 -0.001256 -0.001754 -0.005873 0.037604
# 3 -0.002030 -0.001256 0.008763 0.003454 0.000243 -0.000958
# 4 -0.000573 -0.001754 0.003454 0.023052 0.006362 -0.003293
# 5 -0.015628 -0.005873 0.000243 0.006362 0.039210 -0.012475
# 6 0.014506 0.037604 -0.000958 -0.003293 -0.012475 0.122867
#
#
# Mechanical properties :
#
#
# Convention : Reuss Voigt Hill
#
# Bulk Modulus (GPa) = 16.92211 39.12336 28.02273
# Shear Modulus (GPa) = 18.67955 35.80006 27.23980
#
# Velocity S-wave (km/s) = 2.78053 3.84934 3.35773
# Velocity P-wave (km/s) = 4.16081 5.99578 5.16051
#
# Compressibility (1/GPa) = 0.05909430
#
# Stress axis : x y z
#
# Youngs Moduli (GPa) = 33.87046 44.08495 114.12143
#
# Poissons Ratio (x) = -0.10350 0.23166
# Poissons Ratio (y) = -0.07952 0.14332
# Poissons Ratio (z) = 0.06876 0.05536
#
# Static dielectric constant tensor:
#      x y z
#    x 1.978440 -0.088720 -0.076290 
#    y -0.088720 2.001020 0.045850 
#    z -0.076290 0.045850 2.050260 
# 
# From -- ./inp_files/201487.got.cif
#   From: 2010.05.17/outbox.cif.g08.bks.cpg/sg2_101_cif.got.tgz:201487.got - 2010.06.03 11:33:40.
