data_PCOD9010296
_publ_section_title
;
Structure prediction by ZEFSAII (Michael W. Deem and Ramdas Pophale) SiO2 
 PCOD9010296
Probable space group: P -1
;
_chemical_formula_sum "Si O2"
_cell_formula_units_Z 15
_cell_length_a 20.775929
_cell_length_b 5.164838
_cell_length_c 4.872234
_cell_angle_alpha 87.379387
_cell_angle_beta 84.881044
_cell_angle_gamma 82.211397
_cell_volume 515.623022
_symmetry_space_group_name_H-M "P -1"
_symmetry_group_IT_number 2
_symmetry_cell_setting 'triclinic'
loop_
_space_group_symop_operation_xyz
x,y,z
-x,-y,-z
loop_
_atom_site_type_symbol
_atom_site_label
_atom_site_fract_x
_atom_site_fract_y
_atom_site_fract_z
Si Si1 0.578129 0.734446 0.932496
Si Si2 0.257637 0.983146 0.684598
Si Si3 0.124116 0.180487 0.884550
Si Si4 0.600075 0.230001 0.267508
Si Si5 0.500000 0.500000 0.500000
Si Si6 0.146482 0.514168 0.347682
Si Si7 0.723164 0.668575 0.836529
Si Si8 0.011637 0.758198 0.311284
O O1 0.532216 0.707818 0.697835
O O2 0.650677 0.617839 0.816925
O O3 0.562691 0.524615 0.185737
O O4 0.586826 0.994815 0.087607
O O5 0.321666 0.779997 0.737305
O O6 0.220258 0.558881 0.264042
O O7 0.181243 0.956370 0.767047
O O8 0.267350 0.087634 0.373716
O O9 0.134696 0.423557 0.664205
O O10 0.046083 0.185665 0.889997
O O11 0.267211 0.231316 0.865822
O O12 0.562087 0.250449 0.567097
O O13 0.139645 0.256592 0.181065
O O14 0.088911 0.715239 0.231890
O O15 0.000000 0.500000 0.500000
O O16 0.000000 0.000000 0.500000
#
# Coordination Sequence:
#
# PCOD9010296 Si02
#       8
#     2   2   2   2   1   2   2   2
#     4  11  27  48  71 106 141 181 235 290 349 424
#     4   9  20  41  70 100 138 179 230 282 343 406
#     4   9  18  38  65  97 133 179 225 281 338 403
#     4  11  27  48  71 106 141 181 235 290 349 424
#     4  12  28  46  80 100 142 186 232 284 368 406
#     4   9  18  38  65  97 133 179 225 281 338 403
#     4   9  20  41  70 100 138 179 230 282 343 406
#     4  10  21  40  62  96 134 178 226 280 338 400
#
# _framework density 29.091018999999999
#
# number of rings (size 3 to 8) (size 9 to 14) (size 15 to 20)
#    0.000    2.133    0.000    1.200    7.467    1.067 
#    2.400   18.667    0.000    0.000    0.000    0.000 
#    0.000    0.000    0.000    0.000    0.000    0.000 
#
# Total GULP energy -83840.649298 kJ/mol
# GULP energy per Si atom -5589.376620 kJ/mol
# Density = 2.902481 g / cm^3
# Si number density = 29.091019 Si / 1000 Ang^3
#
#
#
# Elastic Constant Matrix: (Units=GPa)
#
#
# Indices 1 2 3 4 5 6 
#
# 1 275.6172 53.4177 32.6203 9.4246 -4.1333 -52.0954
# 2 53.4177 123.8394 46.5430 12.1120 -0.1624 -15.3634
# 3 32.6203 46.5430 106.8867 -1.1698 12.9123 7.4675
# 4 9.4246 12.1120 -1.1698 30.1228 -10.3054 -3.7481
# 5 -4.1333 -0.1624 12.9123 -10.3054 44.0564 6.2735
# 6 -52.0954 -15.3634 7.4675 -3.7481 6.2735 64.3840
#
#
#
# Elastic Compliance Matrix: (Units=1/GPa)
#
#
# Indices 1 2 3 4 5 6 
#
# 1 0.004690 -0.001040 -0.001257 -0.000594 0.000147 0.003643
# 2 -0.001040 0.010906 -0.004628 -0.003955 0.000081 0.002059
# 3 -0.001257 -0.004628 0.012353 0.001313 -0.002995 -0.003186
# 4 -0.000594 -0.003955 0.001313 0.037886 0.008434 -0.000193
# 5 0.000147 0.000081 -0.002995 0.008434 0.025782 -0.001536
# 6 0.003643 0.002059 -0.003186 -0.000193 -0.001536 0.019479
#
#
# Mechanical properties :
#
#
# Convention : Reuss Voigt Hill
#
# Bulk Modulus (GPa) = 70.93295 85.72282 78.32788
# Shear Modulus (GPa) = 38.56664 52.63014 45.59839
#
# Velocity S-wave (km/s) = 3.64500 4.25803 3.96338
# Velocity P-wave (km/s) = 6.49236 7.32840 6.92301
#
# Compressibility (1/GPa) = 0.01409782
#
# Stress axis : x y z
#
# Youngs Moduli (GPa) = 213.23038 91.69679 80.94930
#
# Poissons Ratio (x) = 0.09538 0.10176
# Poissons Ratio (y) = 0.22179 0.37465
# Poissons Ratio (z) = 0.26805 0.42439
#
# Static dielectric constant tensor:
#      x y z
#    x 2.384940 -0.170450 -0.226710 
#    y -0.170450 2.240020 -0.177310 
#    z -0.226710 -0.177310 2.202800 
# 
# From -- ./inp_files/114243.got.cif
#   From: 2010.05.17/outbox.cif.g08.bks.cpg/sg2_58_cif.got.tgz:114243.got - 2010.06.03 11:33:40.
