data_PCOD9010091
_publ_section_title
;
Structure prediction by ZEFSAII (Michael W. Deem and Ramdas Pophale) SiO2 
 PCOD9010091
Probable space group: P -1
;
_chemical_formula_sum "Si O2"
_cell_formula_units_Z 16
_cell_length_a 6.805991
_cell_length_b 24.467400
_cell_length_c 26.703056
_cell_angle_alpha 10.466331
_cell_angle_beta 116.551194
_cell_angle_gamma 115.035538
_cell_volume 718.908929
_symmetry_space_group_name_H-M "P -1"
_symmetry_group_IT_number 2
_symmetry_cell_setting 'triclinic'
loop_
_space_group_symop_operation_xyz
x,y,z
-x,-y,-z
loop_
_atom_site_type_symbol
_atom_site_label
_atom_site_fract_x
_atom_site_fract_y
_atom_site_fract_z
Si Si1 0.252993 0.225540 0.983327
Si Si2 0.127911 0.546407 0.398289
Si Si3 0.051909 0.201244 0.608626
Si Si4 0.206464 0.678974 0.850656
Si Si5 0.084354 0.256873 0.374423
Si Si6 0.815450 0.121671 0.804076
Si Si7 0.384574 0.702149 0.740986
Si Si8 0.275098 0.881453 0.826320
O O1 0.133626 0.543233 0.664145
O O2 0.469384 0.238240 0.029675
O O3 0.073980 0.053041 0.148613
O O4 0.323263 0.020719 0.126673
O O5 0.280074 0.685114 0.332886
O O6 0.196138 0.363002 0.520898
O O7 0.975540 0.330730 0.605038
O O8 0.968516 0.833856 0.101968
O O9 0.190271 0.055681 0.709809
O O10 0.274449 0.613136 0.860715
O O11 0.146938 0.028230 0.541710
O O12 0.419563 0.549434 0.023866
O O13 0.000000 0.500000 0.000000
O O14 0.823494 0.246635 0.365254
O O15 0.224370 0.113421 0.566128
O O16 0.138071 0.591857 0.066456
O O17 0.500000 0.000000 0.500000
#
# Coordination Sequence:
#
# PCOD9010091 Si02
#       8
#     2   2   2   2   2   2   2   2
#     4  10  21  40  62  84 122 170 207 261 315 362
#     4   8  14  27  52  83 112 151 199 259 314 361
#     4  10  21  40  62  85 125 167 209 261 312 361
#     4  11  24  46  71 100 132 161 199 255 320 376
#     4  12  27  45  67  96 131 164 205 257 300 371
#     4   8  14  27  52  83 111 149 205 253 314 370
#     4  11  25  44  73  99 126 161 202 254 319 378
#     4  12  27  43  60  94 128 168 218 249 295 372
#
# _framework density 22.255949000000001
#
# number of rings (size 3 to 8) (size 9 to 14) (size 15 to 20)
#    0.000    1.750    1.250    2.625    3.500    3.000 
#    0.000    0.625    0.000    0.000    0.000   19.250 
#    0.000    0.000    0.000    0.000    0.000    0.000 
#
# Total GULP energy -89382.330258 kJ/mol
# GULP energy per Si atom -5586.395641 kJ/mol
# Density = 2.220529 g / cm^3
# Si number density = 22.255949 Si / 1000 Ang^3
#
#
#
# Elastic Constant Matrix: (Units=GPa)
#
#
# Indices 1 2 3 4 5 6 
#
# 1 57.1805 11.3599 10.6091 -0.6699 9.4071 -5.3257
# 2 11.3599 70.2050 -6.0592 3.8714 4.4019 2.5286
# 3 10.6091 -6.0592 87.3592 1.3139 -1.7585 -3.4039
# 4 -0.6699 3.8714 1.3139 38.0947 -6.7695 5.3629
# 5 9.4071 4.4019 -1.7585 -6.7695 36.5275 2.0622
# 6 -5.3257 2.5286 -3.4039 5.3629 2.0622 41.5644
#
#
#
# Elastic Compliance Matrix: (Units=1/GPa)
#
#
# Indices 1 2 3 4 5 6 
#
# 1 0.019690 -0.003164 -0.002595 -0.000542 -0.005074 0.002825
# 2 -0.003164 0.015080 0.001396 -0.001719 -0.001202 -0.000927
# 3 -0.002595 0.001396 0.011908 -0.000511 0.000946 0.000577
# 4 -0.000542 -0.001719 -0.000511 0.028001 0.005732 -0.003904
# 5 -0.005074 -0.001202 0.000946 0.005732 0.030090 -0.002732
# 6 0.002825 -0.000927 0.000577 -0.003904 -0.002732 0.025164
#
#
# Mechanical properties :
#
#
# Convention : Reuss Voigt Hill
#
# Bulk Modulus (GPa) = 26.34842 27.39602 26.87222
# Shear Modulus (GPa) = 33.04486 36.49300 34.76893
#
# Velocity S-wave (km/s) = 3.85745 4.05371 3.95679
# Velocity P-wave (km/s) = 5.63066 5.85204 5.74242
#
# Compressibility (1/GPa) = 0.03795294
#
# Stress axis : x y z
#
# Youngs Moduli (GPa) = 50.78740 66.31344 83.97655
#
# Poissons Ratio (x) = 0.20979 0.21788
# Poissons Ratio (y) = 0.16067 -0.11721
# Poissons Ratio (z) = 0.13177 -0.09255
#
# Static dielectric constant tensor:
#      x y z
#    x 1.800070 -0.013060 0.026060 
#    y -0.013060 1.907270 -0.002780 
#    z 0.026060 -0.002780 1.786280 
# 
# From -- ./inp_files/614864.got.cif
#   From: 2010.05.17/outbox.cif.g08.bks.cpg/sg2_308_cif.got.tgz:614864.got - 2010.06.03 11:33:40.
