data_PCOD9010162
_publ_section_title
;
Structure prediction by ZEFSAII (Michael W. Deem and Ramdas Pophale) SiO2 
 PCOD9010162
Probable space group: P -1
;
_chemical_formula_sum "Si O2"
_cell_formula_units_Z 16
_cell_length_a 22.556967
_cell_length_b 14.254731
_cell_length_c 10.281200
_cell_angle_alpha 45.919629
_cell_angle_beta 142.987765
_cell_angle_gamma 159.647403
_cell_volume 669.606728
_symmetry_space_group_name_H-M "P -1"
_symmetry_group_IT_number 2
_symmetry_cell_setting 'triclinic'
loop_
_space_group_symop_operation_xyz
x,y,z
-x,-y,-z
loop_
_atom_site_type_symbol
_atom_site_label
_atom_site_fract_x
_atom_site_fract_y
_atom_site_fract_z
Si Si1 0.233004 0.489603 0.816802
Si Si2 0.964535 0.591777 0.777427
Si Si3 0.525884 0.973241 0.215518
Si Si4 0.101359 0.756535 0.378936
Si Si5 0.922741 0.653695 0.906307
Si Si6 0.642357 0.855288 0.154162
Si Si7 0.368325 0.619815 0.672397
Si Si8 0.202414 0.251209 0.518533
O O1 0.197036 0.383502 0.714713
O O2 0.023541 0.274442 0.735998
O O3 0.343012 0.762363 0.733600
O O4 0.432846 0.642071 0.076118
O O5 0.012265 0.748608 0.826607
O O6 0.725388 0.348206 0.558179
O O7 0.136717 0.812725 0.752201
O O8 0.000000 0.500000 0.000000
O O9 0.297079 0.681264 0.151911
O O10 0.655317 0.990414 0.421023
O O11 0.500000 0.000000 0.000000
O O12 0.000000 0.500000 0.500000
O O13 0.060853 0.746070 0.168059
O O14 0.863805 0.736964 0.731882
O O15 0.692091 0.761581 0.321390
O O16 0.571017 0.833465 0.909598
O O17 0.360630 0.520504 0.629002
O O18 0.000000 0.000000 0.500000
#
# Coordination Sequence:
#
# PCOD9010162 Si02
#       8
#     2   2   2   2   2   2   2   2
#     4   9  21  38  64  93 121 163 212 247 328 360
#     4  11  23  36  61  98 132 157 205 260 324 377
#     4  11  21  40  65  91 126 169 203 258 317 374
#     4  10  21  40  62  89 128 165 207 259 310 377
#     4  11  23  38  62  97 124 165 215 250 313 387
#     4  10  21  41  64  89 126 172 199 269 306 375
#     4   9  22  38  61  89 125 164 210 253 316 374
#     4  11  21  45  63  91 125 174 213 255 318 367
#
# _framework density 23.894624
#
# number of rings (size 3 to 8) (size 9 to 14) (size 15 to 20)
#    0.750    1.000    5.000    1.125    3.500    3.500 
#    2.250    0.625    0.000    1.500    0.000    0.000 
#    0.000    0.000    0.000    0.000    0.000    0.000 
#
# Total GULP energy -89073.753491 kJ/mol
# GULP energy per Si atom -5567.109593 kJ/mol
# Density = 2.384024 g / cm^3
# Si number density = 23.894624 Si / 1000 Ang^3
#
#
#
# Elastic Constant Matrix: (Units=GPa)
#
#
# Indices 1 2 3 4 5 6 
#
# 1 77.2753 3.5311 35.0616 3.0302 20.2971 8.8452
# 2 3.5311 28.6686 23.2470 6.3915 6.9983 0.7129
# 3 35.0616 23.2470 172.7072 3.2298 23.0583 -2.7212
# 4 3.0302 6.3915 3.2298 35.8349 6.5774 12.8110
# 5 20.2971 6.9983 23.0583 6.5774 59.4199 -0.4756
# 6 8.8452 0.7129 -2.7212 12.8110 -0.4756 24.6713
#
#
#
# Elastic Compliance Matrix: (Units=1/GPa)
#
#
# Indices 1 2 3 4 5 6 
#
# 1 0.016280 0.001296 -0.002990 0.002216 -0.004858 -0.007448
# 2 0.001296 0.041164 -0.005326 -0.007007 -0.002438 0.001350
# 3 -0.002990 -0.005326 0.007301 0.000052 -0.001175 0.001981
# 4 0.002216 -0.007007 0.000052 0.036802 -0.004184 -0.019777
# 5 -0.004858 -0.002438 -0.001175 -0.004184 0.019729 0.004236
# 6 -0.007448 0.001350 0.001981 -0.019777 0.004236 0.053734
#
#
# Mechanical properties :
#
#
# Convention : Reuss Voigt Hill
#
# Bulk Modulus (GPa) = 19.72161 44.70338 32.21250
# Shear Modulus (GPa) = 24.27765 38.43934 31.35849
#
# Velocity S-wave (km/s) = 3.19098 4.01521 3.62659
# Velocity P-wave (km/s) = 4.67418 6.34390 5.57194
#
# Compressibility (1/GPa) = 0.05070579
#
# Stress axis : x y z
#
# Youngs Moduli (GPa) = 61.42606 24.29292 136.96625
#
# Poissons Ratio (x) = -0.03149 0.40947
# Poissons Ratio (y) = -0.07962 0.72952
# Poissons Ratio (z) = 0.18364 0.12939
#
# Static dielectric constant tensor:
#      x y z
#    x 2.096070 -0.019280 0.022790 
#    y -0.019280 1.953870 0.004970 
#    z 0.022790 0.004970 2.002770 
# 
# From -- ./inp_files/477010.got.cif
#   From: 2010.05.17/outbox.cif.g08.bks.cpg/sg2_239_cif.got.tgz:477010.got - 2010.06.03 11:33:40.
