data_PCOD9010581
_publ_section_title
;
Structure prediction by ZEFSAII (Michael W. Deem and Ramdas Pophale) SiO2 
 PCOD9010581
Probable space group: P -1
;
_chemical_formula_sum "Si O2"
_cell_formula_units_Z 14
_cell_length_a 18.550983
_cell_length_b 9.428954
_cell_length_c 4.854313
_cell_angle_alpha 79.502876
_cell_angle_beta 91.427668
_cell_angle_gamma 134.153385
_cell_volume 592.720400
_symmetry_space_group_name_H-M "P -1"
_symmetry_group_IT_number 2
_symmetry_cell_setting 'triclinic'
loop_
_space_group_symop_operation_xyz
x,y,z
-x,-y,-z
loop_
_atom_site_type_symbol
_atom_site_label
_atom_site_fract_x
_atom_site_fract_y
_atom_site_fract_z
Si Si1 0.894552 0.435863 0.037108
Si Si2 0.249011 0.836325 0.373387
Si Si3 0.226736 0.118418 0.092048
Si Si4 0.605222 0.198056 0.810786
Si Si5 0.685558 0.466412 0.260537
Si Si6 0.089810 0.287621 0.664466
Si Si7 0.084979 0.958454 0.647624
O O1 0.810782 0.255663 0.311525
O O2 0.919440 0.628131 0.097615
O O3 0.835512 0.342025 0.781013
O O4 0.000000 0.500000 0.000000
O O5 0.343731 0.865282 0.320350
O O6 0.145262 0.967565 0.897317
O O7 0.275033 0.037137 0.225113
O O8 0.296829 0.343921 0.897238
O O9 0.165681 0.093481 0.358076
O O10 0.599699 0.313129 0.533014
O O11 0.668618 0.349250 0.024112
O O12 0.500000 0.000000 0.000000
O O13 0.788372 0.559143 0.395207
O O14 0.010916 0.241828 0.452507
O O15 0.057209 0.074687 0.730062
#
# Coordination Sequence:
#
# PCOD9010581 Si02
#       7
#     2   2   2   2   2   2   2
#     4  12  25  40  67  96 142 185 235 268 343 407
#     4  12  25  46  66 101 141 182 221 294 344 398
#     4  11  24  42  65  98 141 184 225 270 351 398
#     4  12  25  47  75 104 128 175 237 295 349 406
#     4  11  23  44  70  98 134 181 227 284 342 415
#     4  10  21  40  63  95 134 182 236 267 329 386
#     4  10  23  37  63  95 140 184 234 273 317 411
#
# _framework density 23.619906
#
# number of rings (size 3 to 8) (size 9 to 14) (size 15 to 20)
#    0.000    0.857    2.857    4.286    0.000    8.571 
#    0.000    1.429    0.000    0.000    0.000    0.000 
#    0.000    0.000    0.000    0.000    0.000    0.000 
#
# Total GULP energy -78301.917735 kJ/mol
# GULP energy per Si atom -5592.994124 kJ/mol
# Density = 2.356615 g / cm^3
# Si number density = 23.619906 Si / 1000 Ang^3
#
#
#
# Elastic Constant Matrix: (Units=GPa)
#
#
# Indices 1 2 3 4 5 6 
#
# 1 49.9017 33.9026 10.9631 -16.5201 -9.9142 -20.9579
# 2 33.9026 117.7493 39.6064 -14.5549 -11.9779 -23.9038
# 3 10.9631 39.6064 137.7671 -19.8038 -6.2825 -9.4612
# 4 -16.5201 -14.5549 -19.8038 51.4120 0.4784 6.6686
# 5 -9.9142 -11.9779 -6.2825 0.4784 38.1007 2.1636
# 6 -20.9579 -23.9038 -9.4612 6.6686 2.1636 33.8503
#
#
#
# Elastic Compliance Matrix: (Units=1/GPa)
#
#
# Indices 1 2 3 4 5 6 
#
# 1 0.033774 -0.005421 0.001341 0.007762 0.006326 0.015524
# 2 -0.005421 0.011981 -0.002635 0.000069 0.001679 0.004247
# 3 0.001341 -0.002635 0.008402 0.002822 0.000830 0.000709
# 4 0.007762 0.000069 0.002822 0.022902 0.002163 0.000993
# 5 0.006326 0.001679 0.000830 0.002163 0.028354 0.003097
# 6 0.015524 0.004247 0.000709 0.000993 0.003097 0.041957
#
#
# Mechanical properties :
#
#
# Convention : Reuss Voigt Hill
#
# Bulk Modulus (GPa) = 24.55349 52.70692 38.63021
# Shear Modulus (GPa) = 28.67370 39.40232 34.03801
#
# Velocity S-wave (km/s) = 3.48798 4.08877 3.80027
# Velocity P-wave (km/s) = 5.16131 6.68235 5.97047
#
# Compressibility (1/GPa) = 0.04072740
#
# Stress axis : x y z
#
# Youngs Moduli (GPa) = 29.60852 83.46388 119.02535
#
# Poissons Ratio (x) = 0.45246 -0.15964
# Poissons Ratio (y) = 0.16051 0.31363
# Poissons Ratio (z) = -0.03971 0.21993
#
# Static dielectric constant tensor:
#      x y z
#    x 1.936010 -0.053350 0.049430 
#    y -0.053350 1.987090 -0.109340 
#    z 0.049430 -0.109340 1.946130 
# 
# From -- ./inp_files/117128.got.cif
#   From: 2010.05.17/outbox.cif.g08.bks.cpg/sg2_59_cif.got.tgz:117128.got - 2010.06.03 11:33:40.
