data_PCOD9010502
_publ_section_title
;
Structure prediction by ZEFSAII (Michael W. Deem and Ramdas Pophale) SiO2 
 PCOD9010502
Probable space group: P -1
;
_chemical_formula_sum "Si O2"
_cell_formula_units_Z 14
_cell_length_a 13.754421
_cell_length_b 7.760012
_cell_length_c 18.318940
_cell_angle_alpha 70.054586
_cell_angle_beta 158.648091
_cell_angle_gamma 98.226664
_cell_volume 575.547355
_symmetry_space_group_name_H-M "P -1"
_symmetry_group_IT_number 2
_symmetry_cell_setting 'triclinic'
loop_
_space_group_symop_operation_xyz
x,y,z
-x,-y,-z
loop_
_atom_site_type_symbol
_atom_site_label
_atom_site_fract_x
_atom_site_fract_y
_atom_site_fract_z
Si Si1 0.287957 0.134470 0.653611
Si Si2 0.540891 0.264753 0.430943
Si Si3 0.710792 0.261780 0.843262
Si Si4 0.703962 0.758118 0.204914
Si Si5 0.763606 0.350360 0.146825
Si Si6 0.424152 0.912205 0.370535
Si Si7 0.132864 0.300384 0.833184
O O1 0.503261 0.222173 0.760859
O O2 0.128935 0.254688 0.600961
O O3 0.037550 0.166291 0.413185
O O4 0.530445 0.892032 0.880848
O O5 0.341171 0.501641 0.224463
O O6 0.422605 0.239990 0.431021
O O7 0.873542 0.244775 0.678680
O O8 0.564961 0.065691 0.431477
O O9 0.597187 0.218629 0.692405
O O10 0.071059 0.083744 0.122939
O O11 0.899303 0.653691 0.283603
O O12 0.432191 0.705637 0.035784
O O13 0.500000 0.000000 0.000000
O O14 0.895975 0.487970 0.183927
O O15 0.500000 0.500000 0.000000
#
# Coordination Sequence:
#
# PCOD9010502 Si02
#       7
#     2   2   2   2   2   2   2
#     4  11  22  42  65  91 133 170 213 272 317 392
#     4  11  21  43  66  94 127 172 215 275 327 394
#     4  11  22  42  64  95 129 169 220 268 333 390
#     4   9  22  40  63  93 129 169 211 263 320 386
#     4  10  22  41  62  92 127 170 216 260 324 387
#     4  10  24  41  66  94 130 166 219 275 333 381
#     4  10  21  40  63  92 131 165 219 263 323 392
#
# _framework density 24.324670999999999
#
# number of rings (size 3 to 8) (size 9 to 14) (size 15 to 20)
#    0.000    1.714    2.857    0.857    0.000    9.714 
#    2.571    1.429    0.000    0.000    0.000    0.000 
#    0.000    0.000    0.000    0.000    0.000    0.000 
#
# Total GULP energy -78230.426158 kJ/mol
# GULP energy per Si atom -5587.887583 kJ/mol
# Density = 2.426931 g / cm^3
# Si number density = 24.324671 Si / 1000 Ang^3
#
#
#
# Elastic Constant Matrix: (Units=GPa)
#
#
# Indices 1 2 3 4 5 6 
#
# 1 64.5488 12.7969 7.1649 1.9042 -15.8252 8.5046
# 2 12.7969 91.1720 6.7014 18.1555 0.9207 23.9452
# 3 7.1649 6.7014 95.5979 -6.8087 -1.0806 9.3873
# 4 1.9042 18.1555 -6.8087 40.0305 6.4426 -6.0534
# 5 -15.8252 0.9207 -1.0806 6.4426 33.8099 4.8719
# 6 8.5046 23.9452 9.3873 -6.0534 4.8719 25.3516
#
#
#
# Elastic Compliance Matrix: (Units=1/GPa)
#
#
# Indices 1 2 3 4 5 6 
#
# 1 0.019822 0.000981 -0.000723 -0.005027 0.011737 -0.010764
# 2 0.000981 0.019450 -0.000063 -0.013278 0.005765 -0.022955
# 3 -0.000723 -0.000063 0.010961 0.001360 0.000256 -0.003481
# 4 -0.005027 -0.013278 0.001360 0.037303 -0.012668 0.025066
# 5 0.011737 0.005765 0.000256 -0.012668 0.040252 -0.020238
# 6 -0.010764 -0.022955 -0.003481 0.025066 -0.020238 0.075901
#
#
# Mechanical properties :
#
#
# Convention : Reuss Voigt Hill
#
# Bulk Modulus (GPa) = 19.75438 33.84945 26.80191
# Shear Modulus (GPa) = 22.70930 34.81543 28.76236
#
# Velocity S-wave (km/s) = 3.05879 3.78733 3.44239
# Velocity P-wave (km/s) = 4.54023 5.75074 5.18096
#
# Compressibility (1/GPa) = 0.05062169
#
# Stress axis : x y z
#
# Youngs Moduli (GPa) = 50.44864 51.41391 91.23555
#
# Poissons Ratio (x) = -0.05042 0.06594
# Poissons Ratio (y) = -0.04947 0.00578
# Poissons Ratio (z) = 0.03646 0.00326
#
# Static dielectric constant tensor:
#      x y z
#    x 1.951370 -0.021690 0.054780 
#    y -0.021690 2.013470 -0.004810 
#    z 0.054780 -0.004810 1.951380 
# 
# From -- ./inp_files/597343.got.cif
#   From: 2010.05.17/outbox.cif.g08.bks.cpg/sg2_299_cif.got.tgz:597343.got - 2010.06.03 11:33:40.
