data_PCOD9010136
_publ_section_title
;
Structure prediction by ZEFSAII (Michael W. Deem and Ramdas Pophale) SiO2 
 PCOD9010136
Probable space group: P -1
;
_chemical_formula_sum "Si O2"
_cell_formula_units_Z 14
_cell_length_a 4.745580
_cell_length_b 5.554611
_cell_length_c 19.278553
_cell_angle_alpha 78.465738
_cell_angle_beta 95.129737
_cell_angle_gamma 80.378391
_cell_volume 486.928463
_symmetry_space_group_name_H-M "P -1"
_symmetry_group_IT_number 2
_symmetry_cell_setting 'triclinic'
loop_
_space_group_symop_operation_xyz
x,y,z
-x,-y,-z
loop_
_atom_site_type_symbol
_atom_site_label
_atom_site_fract_x
_atom_site_fract_y
_atom_site_fract_z
Si Si1 0.187347 0.810701 0.209897
Si Si2 0.189614 0.795135 0.654594
Si Si3 0.608778 0.136355 0.636998
Si Si4 0.314958 0.513280 0.064160
Si Si5 0.291304 0.009043 0.063244
Si Si6 0.829918 0.373799 0.192306
Si Si7 0.177248 0.713716 0.509016
O O1 0.399074 0.892226 0.149400
O O2 0.037362 0.581369 0.192144
O O3 0.299799 0.760001 0.293988
O O4 0.978195 0.083943 0.198485
O O5 0.303353 0.055667 0.644201
O O6 0.297376 0.637219 0.733013
O O7 0.292056 0.663594 0.592562
O O8 0.843973 0.874011 0.647828
O O9 0.629728 0.263477 0.555332
O O10 0.124127 0.787034 0.054040
O O11 0.569187 0.439295 0.129506
O O12 0.149940 0.287012 0.065863
O O13 0.500000 0.500000 0.000000
O O14 0.500000 0.000000 0.000000
O O15 0.000000 0.500000 0.500000
O O16 0.000000 0.000000 0.500000
#
# Coordination Sequence:
#
# PCOD9010136 Si02
#       7
#     2   2   2   2   2   2   2
#     4  11  23  41  64  96 130 174 224 278 336 402
#     4  10  22  42  68 100 137 181 228 280 337 400
#     4  10  22  42  68 100 137 181 228 280 337 400
#     4  10  21  40  62  88 122 166 214 272 333 398
#     4  10  21  40  62  88 122 166 214 272 333 398
#     4  11  23  41  64  96 130 174 224 278 336 402
#     4  10  21  42  66 100 140 182 228 280 336 400
#
# _framework density 28.751657000000002
#
# number of rings (size 3 to 8) (size 9 to 14) (size 15 to 20)
#    0.000    1.714    0.000    3.857    0.000    2.286 
#    0.000   40.000    0.000    1.714    0.000    0.000 
#    0.000    0.000    0.000    0.000    0.000    0.000 
#
# Total GULP energy -78257.348912 kJ/mol
# GULP energy per Si atom -5589.810637 kJ/mol
# Density = 2.868622 g / cm^3
# Si number density = 28.751657 Si / 1000 Ang^3
#
#
#
# Elastic Constant Matrix: (Units=GPa)
#
#
# Indices 1 2 3 4 5 6 
#
# 1 94.4540 39.0818 51.1390 6.8025 0.3973 -0.3882
# 2 39.0818 240.3853 39.3664 19.2023 5.8641 13.6768
# 3 51.1390 39.3664 276.6208 -25.6091 8.5561 27.5129
# 4 6.8025 19.2023 -25.6091 53.0108 16.5021 -9.5243
# 5 0.3973 5.8641 8.5561 16.5021 55.3240 8.1349
# 6 -0.3882 13.6768 27.5129 -9.5243 8.1349 63.7353
#
#
#
# Elastic Compliance Matrix: (Units=1/GPa)
#
#
# Indices 1 2 3 4 5 6 
#
# 1 0.012753 -0.001554 -0.002491 -0.002421 0.001035 0.000993
# 2 -0.001554 0.004712 -0.000469 -0.002060 0.000371 -0.001173
# 3 -0.002491 -0.000469 0.004578 0.002876 -0.001308 -0.001294
# 4 -0.002421 -0.002060 0.002876 0.024529 -0.008097 0.003885
# 5 0.001035 0.000371 -0.001308 -0.008097 0.021148 -0.003418
# 6 0.000993 -0.001173 -0.001294 0.003885 -0.003418 0.017523
#
#
# Mechanical properties :
#
#
# Convention : Reuss Voigt Hill
#
# Bulk Modulus (GPa) = 76.83702 96.73716 86.78709
# Shear Modulus (GPa) = 50.70551 66.53891 58.62221
#
# Velocity S-wave (km/s) = 4.20404 4.81590 4.52033
# Velocity P-wave (km/s) = 7.09561 8.04007 7.58256
#
# Compressibility (1/GPa) = 0.01301456
#
# Stress axis : x y z
#
# Youngs Moduli (GPa) = 78.41285 212.24043 218.44855
#
# Poissons Ratio (x) = 0.32976 0.54425
# Poissons Ratio (y) = 0.12183 0.10241
# Poissons Ratio (z) = 0.19536 0.09950
#
# Static dielectric constant tensor:
#      x y z
#    x 2.183430 -0.099540 0.013190 
#    y -0.099540 2.306410 -0.061190 
#    z 0.013190 -0.061190 2.370110 
# 
# From -- ./inp_files/12342.got.cif
#   From: 2010.05.17/outbox.cif.g08.bks.cpg/sg2_7_cif.got.tgz:12342.got - 2010.06.03 11:33:40.
