data_PCOD9010343
_publ_section_title
;
Structure prediction by ZEFSAII (Michael W. Deem and Ramdas Pophale) SiO2 
 PCOD9010343
Probable space group: P -1
;
_chemical_formula_sum "Si O2"
_cell_formula_units_Z 12
_cell_length_a 9.150536
_cell_length_b 14.716758
_cell_length_c 9.000115
_cell_angle_alpha 38.436463
_cell_angle_beta 131.632373
_cell_angle_gamma 134.308235
_cell_volume 520.108882
_symmetry_space_group_name_H-M "P -1"
_symmetry_group_IT_number 2
_symmetry_cell_setting 'triclinic'
loop_
_space_group_symop_operation_xyz
x,y,z
-x,-y,-z
loop_
_atom_site_type_symbol
_atom_site_label
_atom_site_fract_x
_atom_site_fract_y
_atom_site_fract_z
Si Si1 0.984087 0.841276 0.361646
Si Si2 0.602891 0.173045 0.464980
Si Si3 0.188797 0.382017 0.195525
Si Si4 0.831904 0.525152 0.247755
Si Si5 0.809547 0.910529 0.593878
Si Si6 0.404789 0.304799 0.927411
O O1 0.175985 0.843644 0.384098
O O2 0.951126 0.715009 0.637157
O O3 0.760820 0.779162 0.206408
O O4 0.065801 0.018217 0.258877
O O5 0.660295 0.350959 0.331993
O O6 0.407262 0.059746 0.576119
O O7 0.495618 0.184715 0.219758
O O8 0.265143 0.260550 0.313956
O O9 0.388518 0.538838 0.177045
O O10 0.075540 0.424211 0.921697
O O11 0.725795 0.633467 0.119424
O O12 0.000000 0.500000 0.500000
O O13 0.000000 0.000000 0.500000
#
# Coordination Sequence:
#
# PCOD9010343 Si02
#       6
#     2   2   2   2   2   2
#     4  11  24  38  63  95 123 159 201 251 302 358
#     4  11  21  40  63  89 125 159 203 252 301 356
#     4  10  21  42  62  89 127 159 201 250 302 360
#     4  11  20  38  67  90 120 163 204 249 304 361
#     4  10  21  40  63  86 124 167 197 242 308 365
#     4  11  21  39  65  90 120 162 203 252 301 353
#
# _framework density 23.072092999999999
#
# number of rings (size 3 to 8) (size 9 to 14) (size 15 to 20)
#    0.000    1.333    5.000    2.000    0.000    3.333 
#    3.000    0.000    0.000    8.000    0.000    0.000 
#    0.000    0.000    0.000    0.000    0.000    0.000 
#
# Total GULP energy -66807.949384 kJ/mol
# GULP energy per Si atom -5567.329115 kJ/mol
# Density = 2.301958 g / cm^3
# Si number density = 23.072093 Si / 1000 Ang^3
#
#
#
# Elastic Constant Matrix: (Units=GPa)
#
#
# Indices 1 2 3 4 5 6 
#
# 1 91.0367 24.6811 16.0095 -4.3542 -0.5983 15.1249
# 2 24.6811 76.6116 -11.8119 10.2256 -10.0112 11.9278
# 3 16.0095 -11.8119 55.7257 23.9603 -5.8513 27.2210
# 4 -4.3542 10.2256 23.9603 36.3051 3.2374 -1.6562
# 5 -0.5983 -10.0112 -5.8513 3.2374 28.4491 -8.5714
# 6 15.1249 11.9278 27.2210 -1.6562 -8.5714 46.3851
#
#
#
# Elastic Compliance Matrix: (Units=1/GPa)
#
#
# Indices 1 2 3 4 5 6 
#
# 1 0.021776 -0.021866 -0.036327 0.034760 -0.013038 0.018673
# 2 -0.021866 0.050735 0.071403 -0.068444 0.026182 -0.045425
# 3 -0.036327 0.071403 0.147833 -0.129925 0.042415 -0.090073
# 4 0.034760 -0.068444 -0.129925 0.144163 -0.042433 0.079819
# 5 -0.013038 0.026182 0.042415 -0.042433 0.051824 -0.019311
# 6 0.018673 -0.045425 -0.090073 0.079819 -0.019311 0.079292
#
#
# Mechanical properties :
#
#
# Convention : Reuss Voigt Hill
#
# Bulk Modulus (GPa) = 4.05245 31.23682 17.64463
# Shear Modulus (GPa) = 9.06691 35.19420 22.13056
#
# Velocity S-wave (km/s) = 1.98453 3.90988 3.10044
# Velocity P-wave (km/s) = 2.64790 5.82675 4.52562
#
# Compressibility (1/GPa) = 0.24676441
#
# Stress axis : x y z
#
# Youngs Moduli (GPa) = 45.92265 19.71011 6.76441
#
# Poissons Ratio (x) = 0.43099 0.24573
# Poissons Ratio (y) = 1.00416 -0.48300
# Poissons Ratio (z) = 1.66821 -1.40737
#
# Static dielectric constant tensor:
#      x y z
#    x 1.666800 -1.436550 -0.281840 
#    y -1.436550 -6.616750 -1.514960 
#    z -0.281840 -1.514960 1.725250 
# 
# From -- ./inp_files/159630.got.cif
#   From: 2010.05.17/outbox.cif.g08.bks.cpg/sg2_80_cif.got.tgz:159630.got - 2010.06.03 11:33:40.
