data_PCOD9010496
_publ_section_title
;
Structure prediction by ZEFSAII (Michael W. Deem and Ramdas Pophale) SiO2 
 PCOD9010496
Probable space group: P -1
;
_chemical_formula_sum "Si O2"
_cell_formula_units_Z 16
_cell_length_a 8.997654
_cell_length_b 15.823978
_cell_length_c 8.831055
_cell_angle_alpha 112.256796
_cell_angle_beta 47.713893
_cell_angle_gamma 85.459080
_cell_volume 751.491197
_symmetry_space_group_name_H-M "P -1"
_symmetry_group_IT_number 2
_symmetry_cell_setting 'triclinic'
loop_
_space_group_symop_operation_xyz
x,y,z
-x,-y,-z
loop_
_atom_site_type_symbol
_atom_site_label
_atom_site_fract_x
_atom_site_fract_y
_atom_site_fract_z
Si Si1 0.148181 0.553388 0.475050
Si Si2 0.171783 0.878115 0.773285
Si Si3 0.980258 0.268386 0.073226
Si Si4 0.664756 0.821185 0.492775
Si Si5 0.606547 0.420252 0.234057
Si Si6 0.202455 0.850773 0.382093
Si Si7 0.678092 0.001693 0.758656
Si Si8 0.910687 0.329649 0.716601
O O1 0.391331 0.458472 0.297202
O O2 0.144609 0.616516 0.370925
O O3 0.000000 0.500000 0.500000
O O4 0.051125 0.637143 0.734321
O O5 0.406179 0.842415 0.682142
O O6 0.249892 0.849543 0.526406
O O7 0.033312 0.818768 0.876594
O O8 0.000000 0.000000 0.000000
O O9 0.758077 0.311158 0.142516
O O10 0.200388 0.229283 0.789052
O O11 0.823751 0.745801 0.468806
O O12 0.668402 0.930133 0.581706
O O13 0.500000 0.500000 0.500000
O O14 0.799278 0.416645 0.984220
O O15 0.352648 0.889049 0.207991
O O16 0.205751 0.745462 0.253169
O O17 0.934731 0.940057 0.608850
O O18 0.500000 0.000000 0.000000
#
# Coordination Sequence:
#
# PCOD9010496 Si02
#       8
#     2   2   2   2   2   2   2   2
#     4  11  23  42  69 100 127 173 226 276 336 391
#     4  12  24  40  68  96 135 180 215 273 336 392
#     4  10  23  46  64  96 139 171 222 274 332 400
#     4  10  24  41  64  97 131 175 221 271 327 395
#     4   9  21  42  67  91 129 174 212 273 336 392
#     4  10  22  39  61  92 129 172 215 266 327 382
#     4  10  21  40  63  92 128 172 218 265 319 392
#     4  10  21  44  65  94 134 172 221 276 327 400
#
# _framework density 21.291003
#
# number of rings (size 3 to 8) (size 9 to 14) (size 15 to 20)
#    0.000    1.750    1.250    1.875    1.750    8.000 
#    6.750    1.875    0.000    0.000    0.000    0.000 
#    0.000    0.000    0.000    0.000    0.000    0.000 
#
# Total GULP energy -89250.664024 kJ/mol
# GULP energy per Si atom -5578.166502 kJ/mol
# Density = 2.124254 g / cm^3
# Si number density = 21.291003 Si / 1000 Ang^3
#
#
#
# Elastic Constant Matrix: (Units=GPa)
#
#
# Indices 1 2 3 4 5 6 
#
# 1 98.8794 32.1025 29.0908 4.1521 -1.5006 -7.3082
# 2 32.1025 93.9162 33.1684 -11.9601 7.3986 1.0180
# 3 29.0908 33.1684 101.5821 2.2494 3.3990 -4.4978
# 4 4.1521 -11.9601 2.2494 25.6692 -3.4804 6.2273
# 5 -1.5006 7.3986 3.3990 -3.4804 33.5570 -5.2458
# 6 -7.3082 1.0180 -4.4978 6.2273 -5.2458 24.7536
#
#
#
# Elastic Compliance Matrix: (Units=1/GPa)
#
#
# Indices 1 2 3 4 5 6 
#
# 1 0.012790 -0.004567 -0.001894 -0.005042 0.002081 0.005329
# 2 -0.004567 0.015060 -0.003956 0.009049 -0.003063 -0.005612
# 3 -0.001894 -0.003956 0.011872 -0.003232 -0.000360 0.002498
# 4 -0.005042 0.009049 -0.003232 0.047857 0.000833 -0.014311
# 5 0.002081 -0.003063 -0.000360 0.000833 0.031818 0.007208
# 6 0.005329 -0.005612 0.002498 -0.014311 0.007208 0.047784
#
#
# Mechanical properties :
#
#
# Convention : Reuss Voigt Hill
#
# Bulk Modulus (GPa) = 52.93812 53.67790 53.30801
# Shear Modulus (GPa) = 25.73180 30.13034 27.93107
#
# Velocity S-wave (km/s) = 3.48023 3.76595 3.62591
# Velocity P-wave (km/s) = 6.40838 6.64651 6.52853
#
# Compressibility (1/GPa) = 0.01888998
#
# Stress axis : x y z
#
# Youngs Moduli (GPa) = 78.18391 66.39900 84.22839
#
# Poissons Ratio (x) = 0.30324 0.15950
# Poissons Ratio (y) = 0.35706 0.33321
# Poissons Ratio (z) = 0.14806 0.26268
#
# Static dielectric constant tensor:
#      x y z
#    x 1.778860 -0.047350 0.011090 
#    y -0.047350 1.724800 0.023090 
#    z 0.011090 0.023090 1.839790 
# 
# From -- ./inp_files/142537.got.cif
#   From: 2010.05.17/outbox.cif.g08.bks.cpg/sg2_72_cif.got.tgz:142537.got - 2010.06.03 11:33:40.
