data_PCOD9010916
_publ_section_title
;
Structure prediction by ZEFSAII (Michael W. Deem and Ramdas Pophale) SiO2 
 PCOD9010916
Probable space group: P -1
;
_chemical_formula_sum "Si O2"
_cell_formula_units_Z 16
_cell_length_a 17.057366
_cell_length_b 6.833341
_cell_length_c 7.834906
_cell_angle_alpha 64.846952
_cell_angle_beta 78.569348
_cell_angle_gamma 54.232163
_cell_volume 669.149953
_symmetry_space_group_name_H-M "P -1"
_symmetry_group_IT_number 2
_symmetry_cell_setting 'triclinic'
loop_
_space_group_symop_operation_xyz
x,y,z
-x,-y,-z
loop_
_atom_site_type_symbol
_atom_site_label
_atom_site_fract_x
_atom_site_fract_y
_atom_site_fract_z
Si Si1 0.720039 0.269990 0.854224
Si Si2 0.841011 0.308631 0.310359
Si Si3 0.095273 0.227274 0.606146
Si Si4 0.888356 0.693294 0.033200
Si Si5 0.424995 0.095935 0.722405
Si Si6 0.645065 0.464864 0.190493
Si Si7 0.476809 0.391530 0.328572
Si Si8 0.236303 0.358301 0.472868
O O1 0.627073 0.343648 0.755139
O O2 0.735993 0.500207 0.724332
O O3 0.687081 0.319131 0.047262
O O4 0.812701 0.979625 0.879365
O O5 0.848191 0.508812 0.114016
O O6 0.738340 0.347290 0.314628
O O7 0.843133 0.401068 0.463304
O O8 0.914812 0.006539 0.352798
O O9 0.110679 0.225373 0.802172
O O10 0.185759 0.217529 0.485624
O O11 0.000000 0.500000 0.500000
O O12 0.000000 0.500000 0.000000
O O13 0.400131 0.226791 0.870359
O O14 0.468689 0.226692 0.542685
O O15 0.327512 0.178538 0.627164
O O16 0.496986 0.786166 0.788314
O O17 0.564016 0.421940 0.302304
#
# Coordination Sequence:
#
# PCOD9010916 Si02
#       8
#     2   2   2   2   2   2   2   2
#     4  11  24  43  62 101 134 173 214 275 330 378
#     4  10  23  44  67  92 125 177 215 263 328 393
#     4  11  24  42  69  95 119 169 226 271 325 394
#     4  11  27  46  67  92 137 172 212 280 333 380
#     4   9  20  39  66  93 129 181 212 256 325 384
#     4  11  21  39  65  93 135 167 214 263 320 387
#     4  10  21  40  64  95 135 170 217 263 318 393
#     4   9  22  42  64  93 135 166 216 268 318 391
#
# _framework density 23.910934000000001
#
# number of rings (size 3 to 8) (size 9 to 14) (size 15 to 20)
#    0.000    1.750    1.250    1.500    7.000    3.000 
#    2.250    0.000    0.000    0.000    0.000    0.000 
#    0.000    0.000    0.000    0.000    0.000    0.000 
#
# Total GULP energy -89376.634775 kJ/mol
# GULP energy per Si atom -5586.039673 kJ/mol
# Density = 2.385651 g / cm^3
# Si number density = 23.910934 Si / 1000 Ang^3
#
#
#
# Elastic Constant Matrix: (Units=GPa)
#
#
# Indices 1 2 3 4 5 6 
#
# 1 124.2729 27.0755 28.4674 -15.7903 -13.3809 -13.9328
# 2 27.0755 130.5894 21.4836 -27.3541 1.6678 -10.0183
# 3 28.4674 21.4836 35.7680 -14.8342 -4.3207 -4.6517
# 4 -15.7903 -27.3541 -14.8342 34.3383 -8.8675 4.9523
# 5 -13.3809 1.6678 -4.3207 -8.8675 27.9336 -5.9734
# 6 -13.9328 -10.0183 -4.6517 4.9523 -5.9734 37.1238
#
#
#
# Elastic Compliance Matrix: (Units=1/GPa)
#
#
# Indices 1 2 3 4 5 6 
#
# 1 0.011005 -0.000417 -0.005918 0.003225 0.006228 0.003848
# 2 -0.000417 0.009602 -0.002382 0.006539 0.001248 0.001465
# 3 -0.005918 -0.002382 0.041889 0.015574 0.009110 0.001773
# 4 0.003225 0.006539 0.015574 0.047181 0.018899 0.001673
# 5 0.006228 0.001248 0.009110 0.018899 0.048047 0.009025
# 6 0.003848 0.001465 0.001773 0.001673 0.009025 0.030228
#
#
# Mechanical properties :
#
#
# Convention : Reuss Voigt Hill
#
# Bulk Modulus (GPa) = 22.19186 49.40926 35.80056
# Shear Modulus (GPa) = 22.68532 34.11938 28.40235
#
# Velocity S-wave (km/s) = 3.08351 3.78158 3.45024
# Velocity P-wave (km/s) = 4.68813 6.30681 5.55673
#
# Compressibility (1/GPa) = 0.04506157
#
# Stress axis : x y z
#
# Youngs Moduli (GPa) = 90.86687 104.14376 23.87260
#
# Poissons Ratio (x) = 0.04342 0.14128
# Poissons Ratio (y) = 0.03788 0.05687
# Poissons Ratio (z) = 0.53776 0.24811
#
# Static dielectric constant tensor:
#      x y z
#    x 1.931080 -0.016290 -0.009590 
#    y -0.016290 2.011910 -0.004930 
#    z -0.009590 -0.004930 1.959450 
# 
# From -- ./inp_files/323321.got.cif
#   From: 2010.05.17/outbox.cif.g08.bks.cpg/sg2_162_cif.got.tgz:323321.got - 2010.06.03 11:33:40.
