data_PCOD9010347
_publ_section_title
;
Structure prediction by ZEFSAII (Michael W. Deem and Ramdas Pophale) SiO2 
 PCOD9010347
Probable space group: P -1
;
_chemical_formula_sum "Si O2"
_cell_formula_units_Z 12
_cell_length_a 11.244361
_cell_length_b 13.566067
_cell_length_c 8.915858
_cell_angle_alpha 62.739401
_cell_angle_beta 124.707133
_cell_angle_gamma 148.344823
_cell_volume 585.641740
_symmetry_space_group_name_H-M "P -1"
_symmetry_group_IT_number 2
_symmetry_cell_setting 'triclinic'
loop_
_space_group_symop_operation_xyz
x,y,z
-x,-y,-z
loop_
_atom_site_type_symbol
_atom_site_label
_atom_site_fract_x
_atom_site_fract_y
_atom_site_fract_z
Si Si1 0.594182 0.230327 0.455033
Si Si2 0.234385 0.082765 0.034612
Si Si3 0.615500 0.494310 0.958146
Si Si4 0.128942 0.943165 0.481755
Si Si5 0.046795 0.355746 0.643970
Si Si6 0.074612 0.176261 0.256955
O O1 0.403372 0.136676 0.248133
O O2 0.761979 0.444321 0.442403
O O3 0.782980 0.250944 0.534923
O O4 0.417339 0.095683 0.561059
O O5 0.412091 0.275861 0.937586
O O6 0.000000 0.000000 0.000000
O O7 0.127542 0.932422 0.942222
O O8 0.845658 0.586689 0.150830
O O9 0.500000 0.500000 0.000000
O O10 0.693845 0.613266 0.787819
O O11 0.983841 0.779519 0.369077
O O12 0.018566 0.847389 0.631132
O O13 0.113928 0.067224 0.363573
#
# Coordination Sequence:
#
# PCOD9010347 Si02
#       6
#     2   2   2   2   2   2
#     4  10  21  40  63  87 114 156 200 244 290 349
#     4  11  19  37  63  84 114 152 201 242 284 348
#     4  11  20  36  62  85 113 153 202 245 282 342
#     4  11  22  38  57  86 126 154 191 246 299 344
#     4  10  22  39  63  87 114 156 203 240 293 351
#     4  11  23  36  57  91 119 156 196 241 299 344
#
# _framework density 20.490341999999998
#
# number of rings (size 3 to 8) (size 9 to 14) (size 15 to 20)
#    0.000    1.333    3.333    3.500    0.000    1.333 
#    0.000    7.500    0.000    6.000    0.000    0.000 
#    0.000    0.000    0.000    0.000    0.000    0.000 
#
# Total GULP energy -67019.336215 kJ/mol
# GULP energy per Si atom -5584.944685 kJ/mol
# Density = 2.044371 g / cm^3
# Si number density = 20.490342 Si / 1000 Ang^3
#
#
#
# Elastic Constant Matrix: (Units=GPa)
#
#
# Indices 1 2 3 4 5 6 
#
# 1 66.6280 44.1369 35.8344 -3.1943 -1.3243 16.9489
# 2 44.1369 145.1889 36.3047 -24.7093 -14.4612 16.2831
# 3 35.8344 36.3047 61.5577 -0.1114 12.2206 26.5546
# 4 -3.1943 -24.7093 -0.1114 43.0343 15.6033 -3.2230
# 5 -1.3243 -14.4612 12.2206 15.6033 31.1115 -3.4927
# 6 16.9489 16.2831 26.5546 -3.2230 -3.4927 35.6002
#
#
#
# Elastic Compliance Matrix: (Units=1/GPa)
#
#
# Indices 1 2 3 4 5 6 
#
# 1 0.024785 -0.004132 -0.013251 -0.002604 0.005678 0.000295
# 2 -0.004132 0.010564 -0.005932 0.003991 0.005337 0.002445
# 3 -0.013251 -0.005932 0.043316 0.002721 -0.024557 -0.025451
# 4 -0.002604 0.003991 0.002721 0.030622 -0.014828 -0.001298
# 5 0.005678 0.005337 -0.024557 -0.014828 0.053869 0.017116
# 6 0.000295 0.002445 -0.025451 -0.001298 0.017116 0.047377
#
#
# Mechanical properties :
#
#
# Convention : Reuss Voigt Hill
#
# Bulk Modulus (GPa) = 31.21442 56.21407 43.71424
# Shear Modulus (GPa) = 18.66789 32.42246 25.54517
#
# Velocity S-wave (km/s) = 3.02165 3.98216 3.53469
# Velocity P-wave (km/s) = 5.23838 6.97406 6.16758
#
# Compressibility (1/GPa) = 0.03203648
#
# Stress axis : x y z
#
# Youngs Moduli (GPa) = 40.34630 94.66517 23.08622
#
# Poissons Ratio (x) = 0.39116 0.30590
# Poissons Ratio (y) = 0.16671 0.13694
# Poissons Ratio (z) = 0.53461 0.56152
#
# Static dielectric constant tensor:
#      x y z
#    x 1.734010 0.000230 0.027400 
#    y 0.000230 1.793770 -0.024410 
#    z 0.027400 -0.024410 1.794210 
# 
# From -- ./inp_files/260845.got.cif
#   From: 2010.05.17/outbox.cif.g08.bks.cpg/sg2_131_cif.got.tgz:260845.got - 2010.06.03 11:33:40.
