data_PCOD9010696
_publ_section_title
;
Structure prediction by ZEFSAII (Michael W. Deem and Ramdas Pophale) SiO2 
 PCOD9010696
Probable space group: P -1
;
_chemical_formula_sum "Si O2"
_cell_formula_units_Z 14
_cell_length_a 14.946883
_cell_length_b 14.545043
_cell_length_c 14.424273
_cell_angle_alpha 137.560421
_cell_angle_beta 20.198583
_cell_angle_gamma 138.455744
_cell_volume 709.354054
_symmetry_space_group_name_H-M "P -1"
_symmetry_group_IT_number 2
_symmetry_cell_setting 'triclinic'
loop_
_space_group_symop_operation_xyz
x,y,z
-x,-y,-z
loop_
_atom_site_type_symbol
_atom_site_label
_atom_site_fract_x
_atom_site_fract_y
_atom_site_fract_z
Si Si1 0.766648 0.533723 0.879371
Si Si2 0.003047 0.791587 0.203295
Si Si3 0.071123 0.441960 0.057134
Si Si4 0.176815 0.352073 0.286747
Si Si5 0.392408 0.413310 0.448006
Si Si6 0.613279 0.158096 0.972631
Si Si7 0.915784 0.876246 0.646370
O O1 0.797475 0.643173 0.845986
O O2 0.938868 0.423590 0.600125
O O3 0.888241 0.596920 0.905443
O O4 0.456952 0.450450 0.123930
O O5 0.973640 0.690063 0.067664
O O6 0.757173 0.733974 0.469248
O O7 0.247120 0.774130 0.017693
O O8 0.035151 0.954965 0.270752
O O9 0.348365 0.552063 0.843571
O O10 0.831472 0.518510 0.331146
O O11 0.114443 0.201306 0.283644
O O12 0.500000 0.500000 0.500000
O O13 0.846024 0.159279 0.671914
O O14 0.361867 0.187897 0.184584
O O15 0.500000 0.000000 0.000000
#
# Coordination Sequence:
#
# PCOD9010696 Si02
#       7
#     2   2   2   2   2   2   2
#     4  10  21  40  64  89 113 147 198 254 300 343
#     4  12  28  38  59  88 129 164 200 236 292 366
#     4  12  25  40  61  89 124 159 200 245 299 351
#     4  10  21  40  64  89 113 147 198 254 300 343
#     4  12  24  40  60  87 121 161 203 246 287 348
#     4  12  24  40  60  87 121 161 203 246 287 348
#     4  12  25  40  61  89 124 159 200 245 299 351
#
# _framework density 19.736265
#
# number of rings (size 3 to 8) (size 9 to 14) (size 15 to 20)
#    0.000    0.571    2.857    6.000    4.000    0.000 
#    0.000    0.714    0.000    0.000    0.000   10.000 
#    0.000    0.000    0.000    0.000    0.000    0.000 
#
# Total GULP energy -78174.081210 kJ/mol
# GULP energy per Si atom -5583.862944 kJ/mol
# Density = 1.969134 g / cm^3
# Si number density = 19.736265 Si / 1000 Ang^3
#
#
#
# Elastic Constant Matrix: (Units=GPa)
#
#
# Indices 1 2 3 4 5 6 
#
# 1 174.1804 71.4519 32.6881 -1.4542 0.5258 -17.3324
# 2 71.4519 124.7937 23.0033 -3.5853 0.8647 -13.8326
# 3 32.6881 23.0033 115.1525 -14.3464 -23.5005 -7.5046
# 4 -1.4542 -3.5853 -14.3464 28.1510 6.6846 -1.1670
# 5 0.5258 0.8647 -23.5005 6.6846 28.2205 -2.1907
# 6 -17.3324 -13.8326 -7.5046 -1.1670 -2.1907 38.5461
#
#
#
# Elastic Compliance Matrix: (Units=1/GPa)
#
#
# Indices 1 2 3 4 5 6 
#
# 1 0.007863 -0.004026 -0.001615 -0.000600 -0.001095 0.001696
# 2 -0.004026 0.010741 -0.001001 0.001006 -0.001186 0.001812
# 3 -0.001615 -0.001001 0.011790 0.003702 0.009145 0.001842
# 4 -0.000600 0.001006 0.003702 0.039012 -0.006049 0.001650
# 5 -0.001095 -0.001186 0.009145 -0.006049 0.044791 0.003225
# 6 0.001696 0.001812 0.001842 0.001650 0.003225 0.027948
#
#
# Mechanical properties :
#
#
# Convention : Reuss Voigt Hill
#
# Bulk Modulus (GPa) = 58.44859 74.26814 66.35837
# Shear Modulus (GPa) = 31.03046 38.11574 34.57310
#
# Velocity S-wave (km/s) = 3.96947 4.39937 4.18994
# Velocity P-wave (km/s) = 7.11955 7.96981 7.55665
#
# Compressibility (1/GPa) = 0.01710905
#
# Stress axis : x y z
#
# Youngs Moduli (GPa) = 127.18011 93.10246 84.81515
#
# Poissons Ratio (x) = 0.37482 0.13701
# Poissons Ratio (y) = 0.51201 0.08493
# Poissons Ratio (z) = 0.20544 0.09322
#
# Static dielectric constant tensor:
#      x y z
#    x 1.689630 0.007860 -0.013690 
#    y 0.007860 1.689420 -0.017950 
#    z -0.013690 -0.017950 1.741920 
# 
# From -- ./inp_files/533533.got.cif
#   From: 2010.05.17/outbox.cif.g08.bks.cpg/sg2_267_cif.got.tgz:533533.got - 2010.06.03 11:33:40.
