data_PCOD9010903
_publ_section_title
;
Structure prediction by ZEFSAII (Michael W. Deem and Ramdas Pophale) SiO2 
 PCOD9010903
Probable space group: P -1
;
_chemical_formula_sum "Si O2"
_cell_formula_units_Z 14
_cell_length_a 29.930169
_cell_length_b 18.814046
_cell_length_c 5.723041
_cell_angle_alpha 45.381374
_cell_angle_beta 47.715201
_cell_angle_gamma 14.328622
_cell_volume 567.156618
_symmetry_space_group_name_H-M "P -1"
_symmetry_group_IT_number 2
_symmetry_cell_setting 'triclinic'
loop_
_space_group_symop_operation_xyz
x,y,z
-x,-y,-z
loop_
_atom_site_type_symbol
_atom_site_label
_atom_site_fract_x
_atom_site_fract_y
_atom_site_fract_z
Si Si1 0.375380 0.244654 0.064067
Si Si2 0.883503 0.829010 0.224202
Si Si3 0.183157 0.838631 0.404351
Si Si4 0.844230 0.729539 0.207985
Si Si5 0.182171 0.676625 0.414010
Si Si6 0.541425 0.080503 0.240910
Si Si7 0.477453 0.593950 0.609081
O O1 0.497725 0.141387 0.982905
O O2 0.352036 0.189919 0.452840
O O3 0.206071 0.561034 0.813831
O O4 0.500000 0.000000 0.000000
O O5 0.822968 0.859218 0.143673
O O6 0.075840 0.484157 0.417400
O O7 0.731565 0.049490 0.449424
O O8 0.886339 0.940545 0.897307
O O9 0.215384 0.732130 0.289601
O O10 0.364704 0.569174 0.541170
O O11 0.018240 0.032318 0.645487
O O12 0.661539 0.979404 0.155518
O O13 0.000000 0.500000 0.000000
O O14 0.343463 0.395999 0.323856
O O15 0.500000 0.500000 0.500000
O O16 0.500000 0.500000 0.000000
#
# Coordination Sequence:
#
# PCOD9010903 Si02
#       7
#     2   2   2   2   2   2   2
#     4   9  20  39  63  90 124 168 208 272 336 396
#     4  10  24  45  64  97 135 176 227 286 351 409
#     4  10  22  43  67  96 134 173 228 280 346 419
#     4  11  25  40  67  98 131 176 230 287 344 417
#     4  10  21  42  65  97 130 174 223 278 344 411
#     4  10  21  40  64  95 130 167 222 274 346 403
#     4  10  23  45  70 101 136 188 231 286 350 417
#
# _framework density 24.684538
#
# number of rings (size 3 to 8) (size 9 to 14) (size 15 to 20)
#    0.000    2.000    0.000    1.714    4.000    9.143 
#   10.286    1.429    0.000    0.000    0.000    0.000 
#    0.000    0.000    0.000    0.000    0.000    0.000 
#
# Total GULP energy -78249.750537 kJ/mol
# GULP energy per Si atom -5589.267895 kJ/mol
# Density = 2.462836 g / cm^3
# Si number density = 24.684538 Si / 1000 Ang^3
#
#
#
# Elastic Constant Matrix: (Units=GPa)
#
#
# Indices 1 2 3 4 5 6 
#
# 1 228.9887 80.9226 24.4702 16.7829 -1.7560 6.2938
# 2 80.9226 117.7583 11.1363 12.8485 2.1064 0.3590
# 3 24.4702 11.1363 63.3774 -11.5283 -2.7895 11.2660
# 4 16.7829 12.8485 -11.5283 30.3465 11.8440 -5.7276
# 5 -1.7560 2.1064 -2.7895 11.8440 28.8684 -5.5189
# 6 6.2938 0.3590 11.2660 -5.7276 -5.5189 60.8442
#
#
#
# Elastic Compliance Matrix: (Units=1/GPa)
#
#
# Indices 1 2 3 4 5 6 
#
# 1 0.006189 -0.003694 -0.002227 -0.003471 0.001784 -0.000371
# 2 -0.003694 0.011508 -0.001238 -0.003344 0.000236 0.000250
# 3 -0.002227 -0.001238 0.018928 0.009468 -0.002600 -0.002612
# 4 -0.003471 -0.003344 0.009468 0.047243 -0.018162 0.001425
# 5 0.001784 0.000236 -0.002600 -0.018162 0.042396 0.002431
# 6 -0.000371 0.000250 -0.002612 0.001425 0.002431 0.017311
#
#
# Mechanical properties :
#
#
# Convention : Reuss Voigt Hill
#
# Bulk Modulus (GPa) = 44.83253 71.46473 58.14863
# Shear Modulus (GPa) = 30.24274 43.58486 36.91380
#
# Velocity S-wave (km/s) = 3.50404 4.20655 3.87126
# Velocity P-wave (km/s) = 5.87985 7.25310 6.60228
#
# Compressibility (1/GPa) = 0.02230523
#
# Stress axis : x y z
#
# Youngs Moduli (GPa) = 161.58066 86.89826 52.83148
#
# Poissons Ratio (x) = 0.32103 0.11767
# Poissons Ratio (y) = 0.59694 0.06541
# Poissons Ratio (z) = 0.35989 0.10759
#
# Static dielectric constant tensor:
#      x y z
#    x 1.872990 0.019310 -0.007230 
#    y 0.019310 1.898050 -0.025560 
#    z -0.007230 -0.025560 2.113970 
# 
# From -- ./inp_files/124116.got.cif
#   From: 2010.05.17/outbox.cif.g08.bks.cpg/sg2_63_cif.got.tgz:124116.got - 2010.06.03 11:33:40.
