data_PCOD9010600
_publ_section_title
;
Structure prediction by ZEFSAII (Michael W. Deem and Ramdas Pophale) SiO2 
 PCOD9010600
Probable space group: P -1
;
_chemical_formula_sum "Si O2"
_cell_formula_units_Z 16
_cell_length_a 14.035770
_cell_length_b 7.114369
_cell_length_c 13.953362
_cell_angle_alpha 66.397215
_cell_angle_beta 139.124457
_cell_angle_gamma 85.660610
_cell_volume 648.169065
_symmetry_space_group_name_H-M "P -1"
_symmetry_group_IT_number 2
_symmetry_cell_setting 'triclinic'
loop_
_space_group_symop_operation_xyz
x,y,z
-x,-y,-z
loop_
_atom_site_type_symbol
_atom_site_label
_atom_site_fract_x
_atom_site_fract_y
_atom_site_fract_z
Si Si1 0.614716 0.215617 0.092377
Si Si2 0.603854 0.688180 0.650517
Si Si3 0.678565 0.695062 0.296940
Si Si4 0.276079 0.922388 0.466385
Si Si5 0.003457 0.147963 0.644840
Si Si6 0.977899 0.257989 0.006749
Si Si7 0.415025 0.229860 0.586449
Si Si8 0.843051 0.926242 0.011295
O O1 0.639870 0.973227 0.214552
O O2 0.825465 0.078820 0.245133
O O3 0.500000 0.500000 0.000000
O O4 0.489598 0.262015 0.896522
O O5 0.481226 0.669049 0.635849
O O6 0.817415 0.543204 0.871276
O O7 0.602385 0.620322 0.552830
O O8 0.500000 0.000000 0.500000
O O9 0.685686 0.605274 0.428709
O O10 0.871978 0.449795 0.445791
O O11 0.147115 0.897975 0.440253
O O12 0.322974 0.093015 0.519612
O O13 0.153937 0.061579 0.248443
O O14 0.093251 0.138035 0.817158
O O15 0.022447 0.281208 0.927209
O O16 0.858964 0.150454 0.946069
O O17 0.635739 0.021036 0.821378
#
# Coordination Sequence:
#
# PCOD9010600 Si02
#       8
#     2   2   2   2   2   2   2   2
#     4  11  27  53  80 108 143 181 230 310 376 439
#     4  10  22  39  61  96 144 192 236 286 337 403
#     4  11  26  49  78 111 142 185 241 293 372 442
#     4  10  24  41  65 107 141 194 240 287 350 415
#     4  11  24  48  76 107 142 189 242 292 361 440
#     4  10  21  40  63  96 142 191 246 285 340 413
#     4  11  22  43  64 104 147 188 235 298 352 415
#     4  10  21  40  69  99 140 192 237 294 346 412
#
# _framework density 24.684916999999999
#
# number of rings (size 3 to 8) (size 9 to 14) (size 15 to 20)
#    0.000    1.500    2.500    1.125    3.500    3.000 
#   13.500    0.000    0.000    0.000    0.000    0.000 
#    0.000    0.000    0.000    0.000    0.000    0.000 
#
# Total GULP energy -89414.047065 kJ/mol
# GULP energy per Si atom -5588.377942 kJ/mol
# Density = 2.462873 g / cm^3
# Si number density = 24.684917 Si / 1000 Ang^3
#
#
#
# Elastic Constant Matrix: (Units=GPa)
#
#
# Indices 1 2 3 4 5 6 
#
# 1 79.2507 36.2110 -0.3084 -4.0179 31.4771 -7.9185
# 2 36.2110 110.4080 15.7764 -6.2381 12.1749 1.3693
# 3 -0.3084 15.7764 81.7436 -11.4934 23.8861 -10.2266
# 4 -4.0179 -6.2381 -11.4934 47.1641 -7.6797 12.7086
# 5 31.4771 12.1749 23.8861 -7.6797 48.4302 -4.0085
# 6 -7.9185 1.3693 -10.2266 12.7086 -4.0085 38.5688
#
#
#
# Elastic Compliance Matrix: (Units=1/GPa)
#
#
# Indices 1 2 3 4 5 6 
#
# 1 0.022498 -0.006700 0.006506 -0.001432 -0.015927 0.005398
# 2 -0.006700 0.011500 -0.003298 0.001403 0.003081 -0.002800
# 3 0.006506 -0.003298 0.016877 0.001238 -0.011166 0.004359
# 4 -0.001432 0.001403 0.001238 0.024142 0.003163 -0.007642
# 5 -0.015927 0.003081 -0.011166 0.003163 0.035932 -0.003648
# 6 0.005398 -0.002800 0.004359 -0.007642 -0.003648 0.030430
#
#
# Mechanical properties :
#
#
# Convention : Reuss Voigt Hill
#
# Bulk Modulus (GPa) = 22.78407 41.64002 32.21204
# Shear Modulus (GPa) = 30.67613 41.48082 36.07848
#
# Velocity S-wave (km/s) = 3.52903 4.10373 3.82718
# Velocity P-wave (km/s) = 5.08482 6.27370 5.71029
#
# Compressibility (1/GPa) = 0.04389032
#
# Stress axis : x y z
#
# Youngs Moduli (GPa) = 44.44934 86.95485 59.25347
#
# Poissons Ratio (x) = 0.58258 -0.38550
# Poissons Ratio (y) = 0.29780 0.19543
# Poissons Ratio (z) = -0.28918 0.28679
#
# Static dielectric constant tensor:
#      x y z
#    x 2.018480 0.012370 0.022880 
#    y 0.012370 2.217350 -0.078780 
#    z 0.022880 -0.078780 1.987870 
# 
# From -- ./inp_files/529556.got.cif
#   From: 2010.05.17/outbox.cif.g08.bks.cpg/sg2_265_cif.got.tgz:529556.got - 2010.06.03 11:33:40.
