data_PCOD9010004
_publ_section_title
;
Structure prediction by ZEFSAII (Michael W. Deem and Ramdas Pophale) SiO2 
 PCOD9010004
Probable space group: P -1
;
_chemical_formula_sum "Si O2"
_cell_formula_units_Z 16
_cell_length_a 9.483462
_cell_length_b 8.448028
_cell_length_c 17.596123
_cell_angle_alpha 42.033519
_cell_angle_beta 113.054945
_cell_angle_gamma 103.540020
_cell_volume 864.830525
_symmetry_space_group_name_H-M "P -1"
_symmetry_group_IT_number 2
_symmetry_cell_setting 'triclinic'
loop_
_space_group_symop_operation_xyz
x,y,z
-x,-y,-z
loop_
_atom_site_type_symbol
_atom_site_label
_atom_site_fract_x
_atom_site_fract_y
_atom_site_fract_z
Si Si1 0.787889 0.555624 0.780965
Si Si2 0.913256 0.698005 0.118788
Si Si3 0.100717 0.980103 0.292521
Si Si4 0.949546 0.176026 0.041666
Si Si5 0.926418 0.783622 0.461552
Si Si6 0.542901 0.265141 0.396254
Si Si7 0.664559 0.429955 0.521236
Si Si8 0.183505 0.714469 0.665383
O O1 0.833218 0.819885 0.712359
O O2 0.614892 0.575238 0.710091
O O3 0.910513 0.427024 0.793653
O O4 0.822704 0.395418 0.920842
O O5 0.808737 0.506767 0.197074
O O6 0.895802 0.939221 0.076195
O O7 0.909204 0.757246 0.006876
O O8 0.997998 0.117726 0.157617
O O9 0.238938 0.812180 0.343673
O O10 0.003940 0.817514 0.383761
O O11 0.780557 0.632461 0.481791
O O12 0.056634 0.678579 0.585822
O O13 0.872516 0.046264 0.387304
O O14 0.628737 0.370604 0.447633
O O15 0.656656 0.256620 0.352252
O O16 0.500000 0.000000 0.500000
O O17 0.500000 0.500000 0.500000
#
# Coordination Sequence:
#
# PCOD9010004 Si02
#       8
#     2   2   2   2   2   2   2   2
#     4  10  21  40  61  90 117 161 208 245 307 361
#     4   9  20  39  62  92 110 164 208 249 299 350
#     4  12  21  40  65  91 123 160 209 255 300 370
#     4   9  21  37  68  88 118 157 216 257 291 360
#     4  11  23  39  60  94 122 162 206 250 312 360
#     4  12  24  41  60  91 129 164 199 247 324 370
#     4  12  27  37  59  94 130 160 198 261 314 368
#     4  11  22  39  65  87 128 163 200 259 300 378
#
# _framework density 18.500736
#
# number of rings (size 3 to 8) (size 9 to 14) (size 15 to 20)
#    0.750    0.500    3.750    2.250    7.000    0.000 
#    0.000    0.625    2.750    1.500    0.000    0.000 
#    0.000    0.000    0.000    0.000    0.000    0.000 
#
# Total GULP energy -89260.214642 kJ/mol
# GULP energy per Si atom -5578.763415 kJ/mol
# Density = 1.845863 g / cm^3
# Si number density = 18.500736 Si / 1000 Ang^3
#
#
#
# Elastic Constant Matrix: (Units=GPa)
#
#
# Indices 1 2 3 4 5 6 
#
# 1 94.8077 16.4547 25.4564 -10.9080 -0.0243 3.5252
# 2 16.4547 56.7863 13.4079 -9.2375 -4.2996 15.4332
# 3 25.4564 13.4079 78.0439 -6.1929 -4.2895 12.2648
# 4 -10.9080 -9.2375 -6.1929 32.6372 0.1671 0.9822
# 5 -0.0243 -4.2996 -4.2895 0.1671 29.2202 -1.4364
# 6 3.5252 15.4332 12.2648 0.9822 -1.4364 30.3810
#
#
#
# Elastic Compliance Matrix: (Units=1/GPa)
#
#
# Indices 1 2 3 4 5 6 
#
# 1 0.012224 -0.002682 -0.003564 0.002617 -0.000861 0.001257
# 2 -0.002682 0.022664 -0.000695 0.005703 0.002658 -0.010980
# 3 -0.003564 -0.000695 0.015163 0.001640 0.001850 -0.005320
# 4 0.002617 0.005703 0.001640 0.033585 0.000648 -0.004918
# 5 -0.000861 0.002658 0.001850 0.000648 0.034863 -0.000370
# 6 0.001257 -0.010980 -0.005320 -0.004918 -0.000370 0.040637
#
#
# Mechanical properties :
#
#
# Convention : Reuss Voigt Hill
#
# Bulk Modulus (GPa) = 27.64666 37.80842 32.72754
# Shear Modulus (GPa) = 27.01632 30.06895 28.54264
#
# Velocity S-wave (km/s) = 3.82551 4.03585 3.93209
# Velocity P-wave (km/s) = 5.87271 6.49600 6.19220
#
# Compressibility (1/GPa) = 0.03617074
#
# Stress axis : x y z
#
# Youngs Moduli (GPa) = 81.80535 44.12227 65.95000
#
# Poissons Ratio (x) = 0.11833 0.23503
# Poissons Ratio (y) = 0.21939 0.04581
# Poissons Ratio (z) = 0.29154 0.03065
#
# Static dielectric constant tensor:
#      x y z
#    x 1.631600 -0.017830 -0.009620 
#    y -0.017830 1.649800 0.007620 
#    z -0.009620 0.007620 1.662490 
# 
# From -- ./inp_files/292792.got.cif
#   From: 2010.05.17/outbox.cif.g08.bks.cpg/sg2_147_cif.got.tgz:292792.got - 2010.06.03 11:33:40.
