data_PCOD9010078
_publ_section_title
;
Structure prediction by ZEFSAII (Michael W. Deem and Ramdas Pophale) SiO2 
 PCOD9010078
Probable space group: P -1
;
_chemical_formula_sum "Si O2"
_cell_formula_units_Z 12
_cell_length_a 5.111466
_cell_length_b 22.484083
_cell_length_c 8.172303
_cell_angle_alpha 147.134620
_cell_angle_beta 120.330385
_cell_angle_gamma 59.052064
_cell_volume 431.704627
_symmetry_space_group_name_H-M "P -1"
_symmetry_group_IT_number 2
_symmetry_cell_setting 'triclinic'
loop_
_space_group_symop_operation_xyz
x,y,z
-x,-y,-z
loop_
_atom_site_type_symbol
_atom_site_label
_atom_site_fract_x
_atom_site_fract_y
_atom_site_fract_z
Si Si1 0.248029 0.937594 0.657615
Si Si2 0.661827 0.516833 0.857790
Si Si3 0.189689 0.720578 0.285613
Si Si4 0.741108 0.602915 0.719319
Si Si5 0.966825 0.171063 0.177436
Si Si6 0.681379 0.888983 0.158431
O O1 0.931793 0.917345 0.427501
O O2 0.356627 0.820487 0.510754
O O3 0.419272 0.990821 0.689882
O O4 0.153000 0.045902 0.992619
O O5 0.651796 0.577788 0.818417
O O6 0.539079 0.404435 0.508624
O O7 0.425016 0.602552 0.091287
O O8 0.000000 0.500000 0.000000
O O9 0.047608 0.753702 0.494002
O O10 0.922640 0.703078 0.032633
O O11 0.000000 0.500000 0.500000
O O12 0.620312 0.155401 0.989748
O O13 0.132228 0.193439 0.112674
#
# Coordination Sequence:
#
# PCOD9010078 Si02
#       6
#     2   2   2   2   2   2
#     4   9  21  39  63  93 142 186 226 286 333 413
#     4  10  23  47  72  95 138 178 227 298 360 418
#     4  11  23  40  65 105 132 181 234 284 348 422
#     4   9  22  46  67  98 133 174 232 291 363 414
#     4  10  21  40  62 100 138 186 230 282 340 409
#     4   9  21  40  63  92 148 185 232 278 343 398
#
# _framework density 27.796786000000001
#
# number of rings (size 3 to 8) (size 9 to 14) (size 15 to 20)
#    1.000    1.333    0.000    1.000    2.333    4.667 
#   12.000    0.000    0.000    0.000    0.000    0.000 
#    0.000    0.000    0.000    0.000    0.000    0.000 
#
# Total GULP energy -67194.862441 kJ/mol
# GULP energy per Si atom -5599.571870 kJ/mol
# Density = 2.773352 g / cm^3
# Si number density = 27.796786 Si / 1000 Ang^3
#
#
#
# Elastic Constant Matrix: (Units=GPa)
#
#
# Indices 1 2 3 4 5 6 
#
# 1 96.4400 5.9134 36.2523 -0.4828 -10.7302 -10.8292
# 2 5.9134 84.0387 47.0371 -10.4175 11.5232 -13.1429
# 3 36.2523 47.0371 216.6961 -12.7622 -2.5211 -11.2884
# 4 -0.4828 -10.4175 -12.7622 51.3712 1.9859 19.8920
# 5 -10.7302 11.5232 -2.5211 1.9859 68.1600 -5.9369
# 6 -10.8292 -13.1429 -11.2884 19.8920 -5.9369 36.3370
#
#
#
# Elastic Compliance Matrix: (Units=1/GPa)
#
#
# Indices 1 2 3 4 5 6 
#
# 1 0.011818 0.000400 -0.001925 -0.002154 0.002185 0.004604
# 2 0.000400 0.014531 -0.003007 0.000901 -0.002219 0.003585
# 3 -0.001925 -0.003007 0.005628 0.000889 0.000358 -0.000341
# 4 -0.002154 0.000901 0.000889 0.025526 -0.002458 -0.014415
# 5 0.002185 -0.002219 0.000358 -0.002458 0.015814 0.003889
# 6 0.004604 0.003585 -0.000341 -0.014415 0.003889 0.038610
#
#
# Mechanical properties :
#
#
# Convention : Reuss Voigt Hill
#
# Bulk Modulus (GPa) = 43.64660 63.95339 53.79999
# Shear Modulus (GPa) = 38.87119 51.70510 45.28815
#
# Velocity S-wave (km/s) = 3.74358 4.31758 4.04079
# Velocity P-wave (km/s) = 5.86703 6.92190 6.41618
#
# Compressibility (1/GPa) = 0.02291129
#
# Stress axis : x y z
#
# Youngs Moduli (GPa) = 84.61810 68.81953 177.67352
#
# Poissons Ratio (x) = -0.02749 0.34208
# Poissons Ratio (y) = -0.03381 0.53426
# Poissons Ratio (z) = 0.16292 0.20694
#
# Static dielectric constant tensor:
#      x y z
#    x 2.230020 0.034270 0.022520 
#    y 0.034270 2.262980 0.012870 
#    z 0.022520 0.012870 2.152680 
# 
# From -- ./inp_files/143195.got.cif
#   From: 2010.05.17/outbox.cif.g08.bks.cpg/sg2_72_cif.got.tgz:143195.got - 2010.06.03 11:33:40.
