data_PCOD9010233
_publ_section_title
;
Structure prediction by ZEFSAII (Michael W. Deem and Ramdas Pophale) SiO2 
 PCOD9010233
Probable space group: P -1
;
_chemical_formula_sum "Si O2"
_cell_formula_units_Z 14
_cell_length_a 5.128592
_cell_length_b 14.729323
_cell_length_c 25.013431
_cell_angle_alpha 18.577749
_cell_angle_beta 114.696911
_cell_angle_gamma 119.619147
_cell_volume 514.496908
_symmetry_space_group_name_H-M "P -1"
_symmetry_group_IT_number 2
_symmetry_cell_setting 'triclinic'
loop_
_space_group_symop_operation_xyz
x,y,z
-x,-y,-z
loop_
_atom_site_type_symbol
_atom_site_label
_atom_site_fract_x
_atom_site_fract_y
_atom_site_fract_z
Si Si1 0.155919 0.274773 0.542398
Si Si2 0.300270 0.882467 0.274923
Si Si3 0.388835 0.866313 0.482163
Si Si4 0.134141 0.376550 0.030237
Si Si5 0.409825 0.644474 0.248703
Si Si6 0.823221 0.347828 0.303684
Si Si7 0.413152 0.743504 0.016495
O O1 0.146782 0.539433 0.433818
O O2 0.403543 0.125202 0.663281
O O3 0.275948 0.455558 0.396511
O O4 0.819279 0.047633 0.626771
O O5 0.085338 0.020973 0.212741
O O6 0.418452 0.093375 0.114871
O O7 0.365771 0.523335 0.659392
O O8 0.248907 0.846686 0.539595
O O9 0.731097 0.097718 0.388307
O O10 0.937588 0.431603 0.932555
O O11 0.500000 0.500000 0.000000
O O12 0.000000 0.500000 0.000000
O O13 0.155059 0.581424 0.215642
O O14 0.552633 0.986356 0.089542
O O15 0.592082 0.530893 0.172032
#
# Coordination Sequence:
#
# PCOD9010233 Si02
#       7
#     2   2   2   2   2   2   2
#     4   9  21  40  68  96 130 183 221 292 334 417
#     4  10  22  43  66  99 138 175 237 273 351 407
#     4  10  21  40  62  92 133 173 230 277 348 402
#     4  12  26  46  66 100 143 183 226 282 347 417
#     4  10  21  41  65  95 130 176 231 281 340 411
#     4  10  23  39  62  95 132 175 228 281 347 402
#     4  11  24  41  67  98 134 182 224 286 343 410
#
# _framework density 27.211048000000002
#
# number of rings (size 3 to 8) (size 9 to 14) (size 15 to 20)
#    0.000    1.714    1.429    1.714    2.000    4.000 
#    0.000    4.286    0.000    0.000    0.000    0.000 
#    0.000    0.000    0.000    0.000    0.000    0.000 
#
# Total GULP energy -78396.324431 kJ/mol
# GULP energy per Si atom -5599.737459 kJ/mol
# Density = 2.714911 g / cm^3
# Si number density = 27.211048 Si / 1000 Ang^3
#
#
#
# Elastic Constant Matrix: (Units=GPa)
#
#
# Indices 1 2 3 4 5 6 
#
# 1 115.0329 57.9168 44.6827 3.3705 27.0846 -0.2844
# 2 57.9168 165.3029 59.2828 19.9755 20.6119 45.1931
# 3 44.6827 59.2828 137.0769 9.9853 22.5467 -8.5124
# 4 3.3705 19.9755 9.9853 44.6149 -1.7561 14.8677
# 5 27.0846 20.6119 22.5467 -1.7561 63.7057 7.2275
# 6 -0.2844 45.1931 -8.5124 14.8677 7.2275 42.4513
#
#
#
# Elastic Compliance Matrix: (Units=1/GPa)
#
#
# Indices 1 2 3 4 5 6 
#
# 1 0.012715 -0.005471 -0.000606 -0.000803 -0.004214 0.006786
# 2 -0.005471 0.014470 -0.005914 0.001093 0.001730 -0.017305
# 3 -0.000606 -0.005914 0.011461 -0.003438 -0.003152 0.010330
# 4 -0.000803 0.001093 -0.003438 0.026820 0.003284 -0.011810
# 5 -0.004214 0.001730 -0.003152 0.003284 0.018915 -0.006873
# 6 0.006786 -0.017305 0.010330 -0.011810 -0.006873 0.049402
#
#
# Mechanical properties :
#
#
# Convention : Reuss Voigt Hill
#
# Bulk Modulus (GPa) = 68.18592 82.35301 75.26947
# Shear Modulus (GPa) = 30.74055 47.18972 38.96514
#
# Velocity S-wave (km/s) = 3.36476 4.16890 3.78823
# Velocity P-wave (km/s) = 6.34098 7.31459 6.84512
#
# Compressibility (1/GPa) = 0.01466578
#
# Stress axis : x y z
#
# Youngs Moduli (GPa) = 78.64574 69.10722 87.25547
#
# Poissons Ratio (x) = 0.37806 0.05287
# Poissons Ratio (y) = 0.43024 0.51600
# Poissons Ratio (z) = 0.04765 0.40868
#
# Static dielectric constant tensor:
#      x y z
#    x 2.180590 0.028160 -0.064420 
#    y 0.028160 2.143670 -0.035890 
#    z -0.064420 -0.035890 2.084440 
# 
# From -- ./inp_files/71799.got.cif
#   From: 2010.05.17/outbox.cif.g08.bks.cpg/sg2_36_cif.got.tgz:71799.got - 2010.06.03 11:33:40.
