data_PCOD9010040
_publ_section_title
;
Structure prediction by ZEFSAII (Michael W. Deem and Ramdas Pophale) SiO2 
 PCOD9010040
Probable space group: P -1
;
_chemical_formula_sum "Si O2"
_cell_formula_units_Z 16
_cell_length_a 7.909396
_cell_length_b 17.652854
_cell_length_c 7.742473
_cell_angle_alpha 100.239976
_cell_angle_beta 120.686777
_cell_angle_gamma 119.526715
_cell_volume 662.559350
_symmetry_space_group_name_H-M "P -1"
_symmetry_group_IT_number 2
_symmetry_cell_setting 'triclinic'
loop_
_space_group_symop_operation_xyz
x,y,z
-x,-y,-z
loop_
_atom_site_type_symbol
_atom_site_label
_atom_site_fract_x
_atom_site_fract_y
_atom_site_fract_z
Si Si1 0.581221 0.804015 0.914474
Si Si2 0.305134 0.356872 0.656714
Si Si3 0.814519 0.275679 0.834440
Si Si4 0.994155 0.398249 0.328384
Si Si5 0.711380 0.800649 0.592132
Si Si6 0.935249 0.164568 0.652426
Si Si7 0.806899 0.004283 0.288510
Si Si8 0.082398 0.477270 0.860439
O O1 0.295565 0.690714 0.768888
O O2 0.636386 0.814714 0.743800
O O3 0.825532 0.821597 0.133915
O O4 0.589492 0.891915 0.035817
O O5 0.324691 0.301006 0.485287
O O6 0.218026 0.416926 0.568544
O O7 0.082724 0.256923 0.622402
O O8 0.592911 0.438095 0.935348
O O9 0.508801 0.224414 0.667417
O O10 0.816356 0.187802 0.745896
O O11 0.950380 0.359608 0.780469
O O12 0.971176 0.342353 0.115558
O O13 0.030492 0.496533 0.333362
O O14 0.004238 0.906770 0.724400
O O15 0.731225 0.052350 0.400065
O O16 0.000000 0.000000 0.500000
O O17 0.000000 0.500000 0.000000
#
# Coordination Sequence:
#
# PCOD9010040 Si02
#       8
#     2   2   2   2   2   2   2   2
#     4  11  21  41  63  93 126 168 209 261 316 376
#     4  11  21  41  64  90 130 167 209 262 311 370
#     4  11  22  40  63  89 130 166 210 263 314 371
#     4  11  22  41  65  93 128 170 209 260 316 368
#     4  11  21  39  62  94 129 163 211 260 310 377
#     4  10  21  40  61  93 125 167 210 262 314 374
#     4   9  20  39  66  88 127 168 205 262 320 369
#     4  10  21  41  64  90 129 167 213 257 315 367
#
# _framework density 24.148779000000001
#
# number of rings (size 3 to 8) (size 9 to 14) (size 15 to 20)
#    0.000    1.500    3.750    3.375    0.000    2.500 
#    2.250   13.750    0.000    0.000    0.000    0.000 
#    0.000    0.000    0.000    0.000    0.000    0.000 
#
# Total GULP energy -89556.958564 kJ/mol
# GULP energy per Si atom -5597.309910 kJ/mol
# Density = 2.409382 g / cm^3
# Si number density = 24.148779 Si / 1000 Ang^3
#
#
#
# Elastic Constant Matrix: (Units=GPa)
#
#
# Indices 1 2 3 4 5 6 
#
# 1 63.6687 23.7794 30.0614 4.6691 -17.3276 -17.9105
# 2 23.7794 85.0847 32.2466 6.8817 -3.3534 -10.6661
# 3 30.0614 32.2466 80.5960 -8.7037 -16.1608 -17.5620
# 4 4.6691 6.8817 -8.7037 42.9420 -6.3669 -3.0716
# 5 -17.3276 -3.3534 -16.1608 -6.3669 42.3307 -7.7807
# 6 -17.9105 -10.6661 -17.5620 -3.0716 -7.7807 36.3573
#
#
#
# Elastic Compliance Matrix: (Units=1/GPa)
#
#
# Indices 1 2 3 4 5 6 
#
# 1 0.024938 -0.003897 -0.002939 -0.000195 0.010963 0.012052
# 2 -0.003897 0.015121 -0.006055 -0.003862 -0.003565 -0.001498
# 3 -0.002939 -0.006055 0.020548 0.007448 0.008983 0.009253
# 4 -0.000195 -0.003862 0.007448 0.027026 0.007680 0.006295
# 5 0.010963 -0.003565 0.008983 0.007680 0.035528 0.016946
# 6 0.012052 -0.001498 0.009253 0.006295 0.016946 0.041630
#
#
# Mechanical properties :
#
#
# Convention : Reuss Voigt Hill
#
# Bulk Modulus (GPa) = 28.71468 44.61378 36.66423
# Shear Modulus (GPa) = 24.73030 33.87681 29.30355
#
# Velocity S-wave (km/s) = 3.20360 3.74951 3.48725
# Velocity P-wave (km/s) = 5.05970 6.10408 5.60626
#
# Compressibility (1/GPa) = 0.03482539
#
# Stress axis : x y z
#
# Youngs Moduli (GPa) = 40.10009 66.13337 48.66613
#
# Poissons Ratio (x) = 0.25772 0.14303
# Poissons Ratio (y) = 0.15627 0.29466
# Poissons Ratio (z) = 0.11785 0.40042
#
# Static dielectric constant tensor:
#      x y z
#    x 1.945690 -0.027380 -0.038220 
#    y -0.027380 1.915860 -0.019110 
#    z -0.038220 -0.019110 1.927160 
# 
# From -- ./inp_files/217753.got.cif
#   From: 2010.05.17/outbox.cif.g08.bks.cpg/sg2_109_cif.got.tgz:217753.got - 2010.06.03 11:33:40.
