data_PCOD9010869
_publ_section_title
;
Structure prediction by ZEFSAII (Michael W. Deem and Ramdas Pophale) SiO2 
 PCOD9010869
Probable space group: P -1
;
_chemical_formula_sum "Si O2"
_cell_formula_units_Z 16
_cell_length_a 27.367276
_cell_length_b 4.979674
_cell_length_c 5.370985
_cell_angle_alpha 80.830113
_cell_angle_beta 91.851979
_cell_angle_gamma 53.106677
_cell_volume 570.262370
_symmetry_space_group_name_H-M "P -1"
_symmetry_group_IT_number 2
_symmetry_cell_setting 'triclinic'
loop_
_space_group_symop_operation_xyz
x,y,z
-x,-y,-z
loop_
_atom_site_type_symbol
_atom_site_label
_atom_site_fract_x
_atom_site_fract_y
_atom_site_fract_z
Si Si1 0.110038 0.708708 0.848487
Si Si2 0.859349 0.930011 0.843866
Si Si3 0.230733 0.387439 0.716788
Si Si4 0.386577 0.439175 0.172018
Si Si5 0.638588 0.910087 0.166785
Si Si6 0.488310 0.712441 0.712413
Si Si7 0.741119 0.042391 0.704121
Si Si8 0.014899 0.614206 0.240579
O O1 0.130075 0.327742 0.893973
O O2 0.124601 0.829491 0.085578
O O3 0.157054 0.702300 0.667640
O O4 0.035473 0.973933 0.792984
O O5 0.787966 0.136036 0.732158
O O6 0.910978 0.620102 0.718181
O O7 0.289724 0.388123 0.717657
O O8 0.241671 0.154875 0.521278
O O9 0.242360 0.204234 0.016184
O O10 0.458492 0.240433 0.274863
O O11 0.332198 0.671006 0.326250
O O12 0.375078 0.189593 0.081335
O O13 0.371939 0.730471 0.923092
O O14 0.584853 0.980145 0.325915
O O15 0.500000 0.500000 0.500000
O O16 0.500000 0.500000 0.000000
O O17 0.000000 0.500000 0.500000
O O18 0.000000 0.500000 0.000000
#
# Coordination Sequence:
#
# PCOD9010869 Si02
#       8
#     2   2   2   2   2   2   2   2
#     4  10  22  43  66  95 128 168 212 263 318 380
#     4  10  22  43  66  95 128 168 212 263 318 380
#     4  10  22  41  64  93 127 167 212 263 318 378
#     4  10  21  41  64  94 128 169 214 264 318 378
#     4  10  21  41  64  94 128 169 214 264 318 378
#     4  10  21  40  64  94 130 170 214 264 318 378
#     4  10  22  41  64  93 127 167 212 263 318 378
#     4  10  23  42  66  94 128 166 210 260 316 378
#
# _framework density 28.057257
#
# number of rings (size 3 to 8) (size 9 to 14) (size 15 to 20)
#    0.000    2.000    0.000    2.250    0.000    8.000 
#    0.000   40.625    0.000    0.000    0.000    0.000 
#    0.000    0.000    0.000    0.000    0.000    0.000 
#
# Total GULP energy -89555.999320 kJ/mol
# GULP energy per Si atom -5597.249958 kJ/mol
# Density = 2.799340 g / cm^3
# Si number density = 28.057257 Si / 1000 Ang^3
#
#
#
# Elastic Constant Matrix: (Units=GPa)
#
#
# Indices 1 2 3 4 5 6 
#
# 1 171.6325 43.0138 33.6118 9.5772 -20.8195 -33.7344
# 2 43.0138 140.1768 44.2128 4.6537 4.6026 -39.3463
# 3 33.6118 44.2128 129.0688 23.1756 7.0869 -10.0946
# 4 9.5772 4.6537 23.1756 54.5013 -13.0166 -5.0065
# 5 -20.8195 4.6026 7.0869 -13.0166 50.5697 19.7202
# 6 -33.7344 -39.3463 -10.0946 -5.0065 19.7202 68.8132
#
#
#
# Elastic Compliance Matrix: (Units=1/GPa)
#
#
# Indices 1 2 3 4 5 6 
#
# 1 0.007092 -0.001313 -0.001450 0.000271 0.002617 0.001783
# 2 -0.001313 0.010017 -0.002499 0.000179 -0.003266 0.005666
# 3 -0.001450 -0.002499 0.009919 -0.004443 -0.002826 -0.000198
# 4 0.000271 0.000179 -0.004443 0.021680 0.006581 -0.000725
# 5 0.002617 -0.003266 -0.002826 0.006581 0.026392 -0.008083
# 6 0.001783 0.005666 -0.000198 -0.000725 -0.008083 0.020880
#
#
# Mechanical properties :
#
#
# Convention : Reuss Voigt Hill
#
# Bulk Modulus (GPa) = 60.59436 75.83943 68.21690
# Shear Modulus (GPa) = 44.64090 56.11282 50.37686
#
# Velocity S-wave (km/s) = 3.99314 4.47692 4.24193
# Velocity P-wave (km/s) = 6.55010 7.33571 6.95401
#
# Compressibility (1/GPa) = 0.01650318
#
# Stress axis : x y z
#
# Youngs Moduli (GPa) = 140.99797 99.83367 100.81856
#
# Poissons Ratio (x) = 0.13113 0.14619
# Poissons Ratio (y) = 0.18520 0.25193
# Poissons Ratio (z) = 0.20445 0.24947
#
# Static dielectric constant tensor:
#      x y z
#    x 2.309590 -0.184340 -0.141550 
#    y -0.184340 2.443200 -0.119790 
#    z -0.141550 -0.119790 2.312150 
# 
# From -- ./inp_files/127919.got.cif
#   From: 2010.05.17/outbox.cif.g08.bks.cpg/sg2_64_cif.got.tgz:127919.got - 2010.06.03 11:33:40.
