data_PCOD9010750
_publ_section_title
;
Structure prediction by ZEFSAII (Michael W. Deem and Ramdas Pophale) SiO2 
 PCOD9010750
Probable space group: P -1
;
_chemical_formula_sum "Si O2"
_cell_formula_units_Z 14
_cell_length_a 20.746680
_cell_length_b 9.296059
_cell_length_c 6.476698
_cell_angle_alpha 127.766911
_cell_angle_beta 133.339575
_cell_angle_gamma 41.222706
_cell_volume 586.483561
_symmetry_space_group_name_H-M "P -1"
_symmetry_group_IT_number 2
_symmetry_cell_setting 'triclinic'
loop_
_space_group_symop_operation_xyz
x,y,z
-x,-y,-z
loop_
_atom_site_type_symbol
_atom_site_label
_atom_site_fract_x
_atom_site_fract_y
_atom_site_fract_z
Si Si1 0.390106 0.386019 0.139156
Si Si2 0.267972 0.882028 0.753038
Si Si3 0.555497 0.338738 0.727274
Si Si4 0.069903 0.532474 0.518615
Si Si5 0.694586 0.906272 0.358753
Si Si6 0.936751 0.886462 0.207783
Si Si7 0.839835 0.200362 0.915856
O O1 0.442766 0.365687 0.461391
O O2 0.459356 0.437508 0.191584
O O3 0.270512 0.611650 0.044542
O O4 0.379188 0.187307 0.896149
O O5 0.177585 0.014006 0.844516
O O6 0.207300 0.802614 0.409666
O O7 0.288668 0.022706 0.765631
O O8 0.382593 0.714781 0.968748
O O9 0.638345 0.117856 0.573032
O O10 0.184682 0.306993 0.512891
O O11 0.012151 0.650563 0.279872
O O12 0.000000 0.500000 0.500000
O O13 0.091379 0.698145 0.830093
O O14 0.903164 0.964473 0.965100
O O15 0.000000 0.000000 0.500000
#
# Coordination Sequence:
#
# PCOD9010750 Si02
#       7
#     2   2   2   2   2   2   2
#     4  10  22  45  69  96 130 175 219 269 332 385
#     4  12  22  42  65  94 137 170 215 275 324 385
#     4  11  24  45  67  96 134 173 219 270 329 390
#     4  10  21  41  67  99 126 172 220 265 329 383
#     4  11  23  44  66  98 138 164 221 278 318 390
#     4  10  21  40  64  90 128 170 216 262 325 381
#     4  10  22  43  66  95 134 168 218 272 320 395
#
# _framework density 23.871089000000001
#
# number of rings (size 3 to 8) (size 9 to 14) (size 15 to 20)
#    0.000    1.429    4.286    0.429    0.000    3.429 
#    7.714    4.286    0.000    0.000    0.000    0.000 
#    0.000    0.000    0.000    0.000    0.000    0.000 
#
# Total GULP energy -78151.440902 kJ/mol
# GULP energy per Si atom -5582.245779 kJ/mol
# Density = 2.381676 g / cm^3
# Si number density = 23.871089 Si / 1000 Ang^3
#
#
#
# Elastic Constant Matrix: (Units=GPa)
#
#
# Indices 1 2 3 4 5 6 
#
# 1 94.7313 54.3782 42.7845 10.8652 20.5228 0.6625
# 2 54.3782 127.3384 81.7227 -29.4792 8.1310 8.3607
# 3 42.7845 81.7227 168.8411 -5.1312 25.7791 24.3013
# 4 10.8652 -29.4792 -5.1312 61.9759 4.9547 15.6469
# 5 20.5228 8.1310 25.7791 4.9547 37.6050 8.2301
# 6 0.6625 8.3607 24.3013 15.6469 8.2301 37.7538
#
#
#
# Elastic Compliance Matrix: (Units=1/GPa)
#
#
# Indices 1 2 3 4 5 6 
#
# 1 0.019646 -0.010687 0.000115 -0.009814 -0.008939 0.007964
# 2 -0.010687 0.019081 -0.006181 0.011514 0.005759 -0.006087
# 3 0.000115 -0.006181 0.010131 -0.000784 -0.004737 -0.003797
# 4 -0.009814 0.011514 -0.000784 0.026435 0.002865 -0.013454
# 5 -0.008939 0.005759 -0.004737 0.002865 0.034583 -0.006796
# 6 0.007964 -0.006087 -0.003797 -0.013454 -0.006796 0.037197
#
#
# Mechanical properties :
#
#
# Convention : Reuss Voigt Hill
#
# Bulk Modulus (GPa) = 65.13868 83.18684 74.16276
# Shear Modulus (GPa) = 26.92566 41.60197 34.26382
#
# Velocity S-wave (km/s) = 3.36216 4.17919 3.79274
# Velocity P-wave (km/s) = 6.51299 7.62965 7.09333
#
# Compressibility (1/GPa) = 0.01535186
#
# Stress axis : x y z
#
# Youngs Moduli (GPa) = 50.90198 52.40771 98.70542
#
# Poissons Ratio (x) = 0.56010 -0.01135
# Poissons Ratio (y) = 0.54400 0.61007
# Poissons Ratio (z) = -0.00586 0.32392
#
# Static dielectric constant tensor:
#      x y z
#    x 1.920850 -0.048730 -0.021500 
#    y -0.048730 1.935510 -0.003030 
#    z -0.021500 -0.003030 1.997520 
# 
# From -- ./inp_files/115779.got.cif
#   From: 2010.05.17/outbox.cif.g08.bks.cpg/sg2_58_cif.got.tgz:115779.got - 2010.06.03 11:33:40.
