data_PCOD9010319
_publ_section_title
;
Structure prediction by ZEFSAII (Michael W. Deem and Ramdas Pophale) SiO2 
 PCOD9010319
Probable space group: P -1
;
_chemical_formula_sum "Si O2"
_cell_formula_units_Z 16
_cell_length_a 5.469564
_cell_length_b 20.970976
_cell_length_c 10.910920
_cell_angle_alpha 137.429296
_cell_angle_beta 66.590634
_cell_angle_gamma 124.705696
_cell_volume 695.469390
_symmetry_space_group_name_H-M "P -1"
_symmetry_group_IT_number 2
_symmetry_cell_setting 'triclinic'
loop_
_space_group_symop_operation_xyz
x,y,z
-x,-y,-z
loop_
_atom_site_type_symbol
_atom_site_label
_atom_site_fract_x
_atom_site_fract_y
_atom_site_fract_z
Si Si1 0.178430 0.525751 0.874636
Si Si2 0.727869 0.818933 0.364923
Si Si3 0.785419 0.231110 0.165395
Si Si4 0.101983 0.956922 0.074735
Si Si5 0.265473 0.040441 0.644633
Si Si6 0.875872 0.652657 0.976871
Si Si7 0.815761 0.840873 0.736837
Si Si8 0.882958 0.289661 0.516012
O O1 0.526671 0.577961 0.913951
O O2 0.062421 0.596759 0.920051
O O3 0.069242 0.413137 0.672554
O O4 0.000000 0.500000 0.000000
O O5 0.650078 0.853087 0.297046
O O6 0.439712 0.756709 0.419724
O O7 0.882665 0.744372 0.196037
O O8 0.952582 0.936834 0.532520
O O9 0.462219 0.228000 0.221211
O O10 0.879661 0.268988 0.340861
O O11 0.987367 0.301408 0.117294
O O12 0.776335 0.115978 0.985834
O O13 0.790773 0.936855 0.172622
O O14 0.067155 0.918526 0.887731
O O15 0.281457 0.082512 0.211126
O O16 0.500000 0.000000 0.500000
O O17 0.945335 0.772398 0.545297
#
# Coordination Sequence:
#
# PCOD9010319 Si02
#       8
#     2   2   2   2   2   2   2   2
#     4  12  29  52  81 112 147 195 259 314 383 444
#     4  11  25  43  68 107 144 194 245 307 373 449
#     4  11  25  43  73 105 149 194 245 310 375 452
#     4  10  21  40  63 103 142 196 243 295 368 449
#     4  11  24  38  67 104 149 190 247 300 369 452
#     4  12  29  50  82 110 149 199 249 321 378 443
#     4  10  23  40  69  99 148 194 245 301 369 449
#     4  11  26  47  72 105 147 195 256 309 379 439
#
# _framework density 23.006045
#
# number of rings (size 3 to 8) (size 9 to 14) (size 15 to 20)
#    0.000    1.000    2.500    2.250    8.750    4.000 
#    0.000    0.000    0.000    0.000    0.000    0.000 
#    0.000    0.000    0.000    0.000    0.000    0.000 
#
# Total GULP energy -89344.945832 kJ/mol
# GULP energy per Si atom -5584.059114 kJ/mol
# Density = 2.295368 g / cm^3
# Si number density = 23.006045 Si / 1000 Ang^3
#
#
#
# Elastic Constant Matrix: (Units=GPa)
#
#
# Indices 1 2 3 4 5 6 
#
# 1 58.9763 10.2274 13.2530 5.0308 -3.6179 0.2530
# 2 10.2274 105.9494 21.4192 -22.1028 5.7721 -0.5570
# 3 13.2530 21.4192 117.1430 2.2459 -9.7040 -15.8693
# 4 5.0308 -22.1028 2.2459 45.7314 0.6668 -12.7055
# 5 -3.6179 5.7721 -9.7040 0.6668 32.1255 -0.0122
# 6 0.2530 -0.5570 -15.8693 -12.7055 -0.0122 32.3989
#
#
#
# Elastic Compliance Matrix: (Units=1/GPa)
#
#
# Indices 1 2 3 4 5 6 
#
# 1 0.018203 -0.002314 -0.001737 -0.003761 0.002018 -0.002507
# 2 -0.002314 0.011599 -0.001997 0.006500 -0.003082 0.001787
# 3 -0.001737 -0.001997 0.010027 0.000052 0.003193 0.004912
# 4 -0.003761 0.006500 0.000052 0.028615 -0.002166 0.011387
# 5 0.002018 -0.003082 0.003193 -0.002166 0.032919 0.000658
# 6 -0.002507 0.001787 0.004912 0.011387 0.000658 0.037787
#
#
# Mechanical properties :
#
#
# Convention : Reuss Voigt Hill
#
# Bulk Modulus (GPa) = 36.05658 41.31866 38.68762
# Shear Modulus (GPa) = 31.15476 37.86242 34.50859
#
# Velocity S-wave (km/s) = 3.68394 4.06120 3.87716
# Velocity P-wave (km/s) = 5.81394 6.32376 6.07420
#
# Compressibility (1/GPa) = 0.02773419
#
# Stress axis : x y z
#
# Youngs Moduli (GPa) = 54.93627 86.21548 99.72983
#
# Poissons Ratio (x) = 0.19949 0.17319
# Poissons Ratio (y) = 0.12712 0.19914
# Poissons Ratio (z) = 0.09540 0.17216
#
# Static dielectric constant tensor:
#      x y z
#    x 1.973070 -0.031500 0.039820 
#    y -0.031500 1.854350 -0.018410 
#    z 0.039820 -0.018410 1.904810 
# 
# From -- ./inp_files/70300.got.cif
#   From: 2010.05.17/outbox.cif.g08.bks.cpg/sg2_36_cif.got.tgz:70300.got - 2010.06.03 11:33:40.
