data_PCOD9010264
_publ_section_title
;
Structure prediction by ZEFSAII (Michael W. Deem and Ramdas Pophale) SiO2 
 PCOD9010264
Probable space group: P -1
;
_chemical_formula_sum "Si O2"
_cell_formula_units_Z 16
_cell_length_a 25.130365
_cell_length_b 16.781845
_cell_length_c 14.349859
_cell_angle_alpha 147.202808
_cell_angle_beta 21.558264
_cell_angle_gamma 160.590257
_cell_volume 705.029036
_symmetry_space_group_name_H-M "P -1"
_symmetry_group_IT_number 2
_symmetry_cell_setting 'triclinic'
loop_
_space_group_symop_operation_xyz
x,y,z
-x,-y,-z
loop_
_atom_site_type_symbol
_atom_site_label
_atom_site_fract_x
_atom_site_fract_y
_atom_site_fract_z
Si Si1 0.695973 0.558121 0.456818
Si Si2 0.216533 0.110993 0.690892
Si Si3 0.023819 0.113748 0.844186
Si Si4 0.456475 0.572527 0.227060
Si Si5 0.404789 0.867245 0.752187
Si Si6 0.643879 0.112812 0.779372
Si Si7 0.035858 0.633019 0.742259
Si Si8 0.249177 0.717735 0.666831
O O1 0.462798 0.390387 0.603551
O O2 0.920517 0.809145 0.278712
O O3 0.657383 0.591021 0.654853
O O4 0.679992 0.368269 0.314553
O O5 0.159392 0.097624 0.662986
O O6 0.259382 0.970831 0.487582
O O7 0.000000 0.000000 0.000000
O O8 0.099782 0.324316 0.981460
O O9 0.732212 0.854263 0.079385
O O10 0.297655 0.584015 0.467858
O O11 0.500000 0.500000 0.000000
O O12 0.446135 0.991969 0.901966
O O13 0.684674 0.107849 0.492122
O O14 0.228919 0.766482 0.852929
O O15 0.882159 0.408941 0.701332
O O16 0.500000 0.000000 0.000000
O O17 0.057863 0.586933 0.766429
O O18 0.500000 0.000000 0.500000
#
# Coordination Sequence:
#
# PCOD9010264 Si02
#       8
#     2   2   2   2   2   2   2   2
#     4  10  21  40  62  94 125 166 217 263 327 394
#     4  11  22  42  68  95 133 177 217 263 341 399
#     4  12  22  40  68  92 129 174 214 272 333 393
#     4  11  23  41  64  88 129 169 219 272 325 389
#     4   9  18  39  60  90 125 167 211 260 321 392
#     4  11  24  40  61 100 137 163 221 281 322 386
#     4  11  20  38  69  93 125 176 218 267 334 387
#     4   9  18  38  64  88 119 165 219 256 323 399
#
# _framework density 22.694101
#
# number of rings (size 3 to 8) (size 9 to 14) (size 15 to 20)
#    0.000    1.500    5.000    3.000    1.750    0.500 
#    0.000    9.375    0.000    0.000    0.000    0.000 
#    0.000    0.000    0.000    0.000    0.000    0.000 
#
# Total GULP energy -89280.966445 kJ/mol
# GULP energy per Si atom -5580.060403 kJ/mol
# Density = 2.264245 g / cm^3
# Si number density = 22.694101 Si / 1000 Ang^3
#
#
#
# Elastic Constant Matrix: (Units=GPa)
#
#
# Indices 1 2 3 4 5 6 
#
# 1 144.9608 31.6148 14.1958 2.0570 27.2988 0.9399
# 2 31.6148 48.8191 20.7908 3.9338 7.4105 7.9745
# 3 14.1958 20.7908 59.8421 -1.3774 25.5803 -2.4519
# 4 2.0570 3.9338 -1.3774 37.7785 -0.1568 17.1518
# 5 27.2988 7.4105 25.5803 -0.1568 46.8303 0.4820
# 6 0.9399 7.9745 -2.4519 17.1518 0.4820 36.9171
#
#
#
# Elastic Compliance Matrix: (Units=1/GPa)
#
#
# Indices 1 2 3 4 5 6 
#
# 1 0.009102 -0.006330 0.002534 -0.000499 -0.005707 0.001610
# 2 -0.006330 0.029795 -0.011395 0.000092 0.005273 -0.007143
# 3 0.002534 -0.011395 0.026256 -0.000020 -0.014061 0.004333
# 4 -0.000499 0.000092 -0.000020 0.033579 0.000560 -0.015617
# 5 -0.005707 0.005273 -0.014061 0.000560 0.031555 -0.002600
# 6 0.001610 -0.007143 0.004333 -0.015617 -0.002600 0.036167
#
#
# Mechanical properties :
#
#
# Convention : Reuss Voigt Hill
#
# Bulk Modulus (GPa) = 28.75955 42.98051 35.87003
# Shear Modulus (GPa) = 23.98932 36.77322 30.38127
#
# Velocity S-wave (km/s) = 3.25479 4.02977 3.66284
# Velocity P-wave (km/s) = 5.17930 6.37434 5.80764
#
# Compressibility (1/GPa) = 0.03477106
#
# Stress axis : x y z
#
# Youngs Moduli (GPa) = 109.86438 33.56292 38.08682
#
# Poissons Ratio (x) = 0.21246 -0.09651
# Poissons Ratio (y) = 0.69546 0.43398
# Poissons Ratio (z) = -0.27839 0.38243
#
# Static dielectric constant tensor:
#      x y z
#    x 3.274900 0.177430 -1.096910 
#    y 0.177430 1.885670 -0.186270 
#    z -1.096910 -0.186270 2.814720 
# 
# From -- ./inp_files/544288.got.cif
#   From: 2010.05.17/outbox.cif.g08.bks.cpg/sg2_273_cif.got.tgz:544288.got - 2010.06.03 11:33:40.
