data_PCOD9010924
_publ_section_title
;
Structure prediction by ZEFSAII (Michael W. Deem and Ramdas Pophale) SiO2 
 PCOD9010924
Probable space group: P -1
;
_chemical_formula_sum "Si O2"
_cell_formula_units_Z 16
_cell_length_a 9.040914
_cell_length_b 15.380923
_cell_length_c 12.316639
_cell_angle_alpha 109.892476
_cell_angle_beta 50.436462
_cell_angle_gamma 67.468411
_cell_volume 697.003023
_symmetry_space_group_name_H-M "P -1"
_symmetry_group_IT_number 2
_symmetry_cell_setting 'triclinic'
loop_
_space_group_symop_operation_xyz
x,y,z
-x,-y,-z
loop_
_atom_site_type_symbol
_atom_site_label
_atom_site_fract_x
_atom_site_fract_y
_atom_site_fract_z
Si Si1 0.764961 0.934196 0.513497
Si Si2 0.796176 0.309386 0.303238
Si Si3 0.566298 0.031652 0.874743
Si Si4 0.543465 0.139055 0.383835
Si Si5 0.420843 0.363883 0.676080
Si Si6 0.692665 0.698768 0.096046
Si Si7 0.414157 0.765325 0.031615
Si Si8 0.662876 0.198478 0.149680
O O1 0.584889 0.911986 0.548614
O O2 0.106829 0.823327 0.241585
O O3 0.539934 0.118436 0.694976
O O4 0.802451 0.901276 0.611518
O O5 0.500000 0.500000 0.500000
O O6 0.731153 0.292533 0.445306
O O7 0.729568 0.256401 0.224192
O O8 0.182447 0.189796 0.068724
O O9 0.692620 0.084135 0.863810
O O10 0.500000 0.000000 0.000000
O O11 0.378721 0.283652 0.596612
O O12 0.498169 0.185033 0.297006
O O13 0.952137 0.982607 0.141694
O O14 0.448562 0.325846 0.770948
O O15 0.079623 0.558269 0.894216
O O16 0.677769 0.667043 0.966454
O O17 0.527804 0.697303 0.827295
#
# Coordination Sequence:
#
# PCOD9010924 Si02
#       8
#     2   2   2   2   2   2   2   2
#     4  11  22  39  64  95 132 165 220 255 328 377
#     4  11  23  43  69  95 124 174 224 261 327 392
#     4  11  23  38  65  96 133 167 219 271 319 381
#     4  10  21  40  64  96 123 170 216 262 312 384
#     4  10  23  40  67  89 131 169 215 263 322 388
#     4  10  22  42  60  93 132 169 208 264 324 387
#     4  11  24  39  63  96 132 165 212 271 326 377
#     4  10  22  41  66  92 132 162 215 269 318 384
#
# _framework density 22.955427
#
# number of rings (size 3 to 8) (size 9 to 14) (size 15 to 20)
#    0.000    1.500    1.250    4.500    7.000    2.000 
#    2.250    7.500    0.000    0.000    0.000    0.000 
#    0.000    0.000    0.000    0.000    0.000    0.000 
#
# Total GULP energy -89384.625036 kJ/mol
# GULP energy per Si atom -5586.539065 kJ/mol
# Density = 2.290318 g / cm^3
# Si number density = 22.955427 Si / 1000 Ang^3
#
#
#
# Elastic Constant Matrix: (Units=GPa)
#
#
# Indices 1 2 3 4 5 6 
#
# 1 66.4384 35.3706 9.4369 -14.1648 -7.2124 0.1515
# 2 35.3706 106.8176 20.9427 -32.1527 -2.0268 -14.8527
# 3 9.4369 20.9427 46.0084 -19.3424 -9.3576 -1.5305
# 4 -14.1648 -32.1527 -19.3424 51.1314 1.7093 5.8620
# 5 -7.2124 -2.0268 -9.3576 1.7093 26.9007 -15.3014
# 6 0.1515 -14.8527 -1.5305 5.8620 -15.3014 37.5657
#
#
#
# Elastic Compliance Matrix: (Units=1/GPa)
#
#
# Indices 1 2 3 4 5 6 
#
# 1 0.018942 -0.005900 0.000274 0.001619 0.004059 -0.000997
# 2 -0.005900 0.014276 -0.002436 0.005789 0.001214 0.005160
# 3 0.000274 -0.002436 0.028865 0.008684 0.011361 0.003484
# 4 0.001619 0.005789 0.008684 0.026978 0.001668 -0.000894
# 5 0.004059 0.001214 0.011361 0.001668 0.055418 0.023239
# 6 -0.000997 0.005160 0.003484 -0.000894 0.023239 0.038412
#
#
# Mechanical properties :
#
#
# Convention : Reuss Voigt Hill
#
# Bulk Modulus (GPa) = 21.75863 38.97385 30.36624
# Shear Modulus (GPa) = 23.32788 33.35384 28.34086
#
# Velocity S-wave (km/s) = 3.19129 3.81594 3.51750
# Velocity P-wave (km/s) = 4.80399 6.03573 5.45474
#
# Compressibility (1/GPa) = 0.04595877
#
# Stress axis : x y z
#
# Youngs Moduli (GPa) = 52.79279 70.04717 34.64354
#
# Poissons Ratio (x) = 0.41329 -0.00948
# Poissons Ratio (y) = 0.31148 0.08439
# Poissons Ratio (z) = -0.01445 0.17063
#
# Static dielectric constant tensor:
#      x y z
#    x 1.877690 -0.054510 0.015530 
#    y -0.054510 1.962480 0.009010 
#    z 0.015530 0.009010 1.866500 
# 
# From -- ./inp_files/331710.got.cif
#   From: 2010.05.17/outbox.cif.g08.bks.cpg/sg2_166_cif.got.tgz:331710.got - 2010.06.03 11:33:40.
