data_PCOD9010992
_publ_section_title
;
Structure prediction by ZEFSAII (Michael W. Deem and Ramdas Pophale) SiO2 
 PCOD9010992
Probable space group: P -1
;
_chemical_formula_sum "Si O2"
_cell_formula_units_Z 14
_cell_length_a 8.064145
_cell_length_b 12.628242
_cell_length_c 12.550142
_cell_angle_alpha 49.335960
_cell_angle_beta 144.521341
_cell_angle_gamma 131.731399
_cell_volume 535.567583
_symmetry_space_group_name_H-M "P -1"
_symmetry_group_IT_number 2
_symmetry_cell_setting 'triclinic'
loop_
_space_group_symop_operation_xyz
x,y,z
-x,-y,-z
loop_
_atom_site_type_symbol
_atom_site_label
_atom_site_fract_x
_atom_site_fract_y
_atom_site_fract_z
Si Si1 0.488966 0.847236 0.874017
Si Si2 0.262652 0.864477 0.523035
Si Si3 0.288059 0.889974 0.048970
Si Si4 0.072060 0.114863 0.321316
Si Si5 0.409781 0.531948 0.051914
Si Si6 0.321891 0.656729 0.524831
Si Si7 0.240164 0.577552 0.305383
O O1 0.437984 0.821748 0.739636
O O2 0.547318 0.702920 0.042069
O O3 0.173974 0.855438 0.751427
O O4 0.716579 0.002508 0.926544
O O5 0.154130 0.733621 0.469113
O O6 0.500000 0.000000 0.500000
O O7 0.037852 0.943031 0.405293
O O8 0.360124 0.744272 0.215557
O O9 0.980518 0.836655 0.857547
O O10 0.500000 0.000000 0.000000
O O11 0.401677 0.209764 0.464474
O O12 0.046994 0.499783 0.868696
O O13 0.500000 0.500000 0.000000
O O14 0.523304 0.442532 0.260396
O O15 0.143490 0.583629 0.374898
O O16 0.500000 0.500000 0.500000
#
# Coordination Sequence:
#
# PCOD9010992 Si02
#       7
#     2   2   2   2   2   2   2
#     4  11  23  42  70 104 146 191 255 309 370 444
#     4  10  21  40  64  99 138 188 240 302 373 440
#     4  10  23  43  69 110 146 189 247 313 373 437
#     4  10  21  40  73 102 141 191 249 312 368 440
#     4  12  27  49  74 109 155 202 246 313 390 452
#     4  11  24  47  72 103 153 193 250 304 385 449
#     4  12  28  48  80 113 149 202 257 310 379 454
#
# _framework density 26.140492999999999
#
# number of rings (size 3 to 8) (size 9 to 14) (size 15 to 20)
#    0.000    1.143    2.857    3.000    4.000    6.286 
#    0.000    2.857    0.000    0.000    0.000    0.000 
#    0.000    0.000    0.000    0.000    0.000    0.000 
#
# Total GULP energy -78353.443931 kJ/mol
# GULP energy per Si atom -5596.674567 kJ/mol
# Density = 2.608100 g / cm^3
# Si number density = 26.140493 Si / 1000 Ang^3
#
#
#
# Elastic Constant Matrix: (Units=GPa)
#
#
# Indices 1 2 3 4 5 6 
#
# 1 76.3623 22.0382 17.1845 -6.5819 -2.7377 -12.0442
# 2 22.0382 130.6163 64.9832 -27.3735 -3.9542 -8.2534
# 3 17.1845 64.9832 159.9707 -17.7944 -15.9248 -3.4361
# 4 -6.5819 -27.3735 -17.7944 57.2581 -2.4120 4.8193
# 5 -2.7377 -3.9542 -15.9248 -2.4120 33.7079 4.4868
# 6 -12.0442 -8.2534 -3.4361 4.8193 4.4868 38.2680
#
#
#
# Elastic Compliance Matrix: (Units=1/GPa)
#
#
# Indices 1 2 3 4 5 6 
#
# 1 0.014430 -0.001771 -0.000704 0.000257 0.000111 0.004051
# 2 -0.001771 0.010627 -0.003759 0.003600 -0.000550 0.001008
# 3 -0.000704 -0.003759 0.008297 0.000921 0.003597 -0.000825
# 4 0.000257 0.003600 0.000921 0.019764 0.002539 -0.001847
# 5 0.000111 -0.000550 0.003597 0.002539 0.032002 -0.003833
# 6 0.004051 0.001008 -0.000825 -0.001847 -0.003833 0.028232
#
#
# Mechanical properties :
#
#
# Convention : Reuss Voigt Hill
#
# Bulk Modulus (GPa) = 47.88180 63.92901 55.90540
# Shear Modulus (GPa) = 37.65570 43.36303 40.50936
#
# Velocity S-wave (km/s) = 3.79953 4.07731 3.94087
# Velocity P-wave (km/s) = 6.13232 6.83191 6.49155
#
# Compressibility (1/GPa) = 0.02088476
#
# Stress axis : x y z
#
# Youngs Moduli (GPa) = 69.29936 94.10304 120.53101
#
# Poissons Ratio (x) = 0.16669 0.08485
# Poissons Ratio (y) = 0.12275 0.45308
# Poissons Ratio (z) = 0.04878 0.35374
#
# Static dielectric constant tensor:
#      x y z
#    x 2.105070 0.018290 0.041010 
#    y 0.018290 2.090090 0.032020 
#    z 0.041010 0.032020 2.102820 
# 
# From -- ./inp_files/389621.got.cif
#   From: 2010.05.17/outbox.cif.g08.bks.cpg/sg2_195_cif.got.tgz:389621.got - 2010.06.03 11:33:40.
