data_PCOD9010689
_publ_section_title
;
Structure prediction by ZEFSAII (Michael W. Deem and Ramdas Pophale) SiO2 
 PCOD9010689
Probable space group: P -1
;
_chemical_formula_sum "Si O2"
_cell_formula_units_Z 16
_cell_length_a 8.262528
_cell_length_b 21.822644
_cell_length_c 16.102813
_cell_angle_alpha 21.451075
_cell_angle_beta 71.856596
_cell_angle_gamma 59.625615
_cell_volume 790.870112
_symmetry_space_group_name_H-M "P -1"
_symmetry_group_IT_number 2
_symmetry_cell_setting 'triclinic'
loop_
_space_group_symop_operation_xyz
x,y,z
-x,-y,-z
loop_
_atom_site_type_symbol
_atom_site_label
_atom_site_fract_x
_atom_site_fract_y
_atom_site_fract_z
Si Si1 0.642715 0.081354 0.894853
Si Si2 0.760338 0.181180 0.102764
Si Si3 0.307077 0.405944 0.115083
Si Si4 0.688845 0.429330 0.387983
Si Si5 0.693964 0.636366 0.292053
Si Si6 0.997088 0.269872 0.826897
Si Si7 0.011945 0.303029 0.348923
Si Si8 0.767563 0.217597 0.241510
O O1 0.631693 0.266121 0.613708
O O2 0.558153 0.176364 0.880974
O O3 0.500000 0.000000 0.000000
O O4 0.880429 0.873775 0.093114
O O5 0.766478 0.264683 0.085708
O O6 0.865012 0.934619 0.406668
O O7 0.514646 0.347156 0.900907
O O8 0.907183 0.182830 0.009510
O O9 0.196321 0.331600 0.282116
O O10 0.560599 0.223842 0.283998
O O11 0.275015 0.596128 0.930513
O O12 0.173995 0.515240 0.913151
O O13 0.721368 0.495305 0.389302
O O14 0.895101 0.330094 0.420030
O O15 0.835281 0.719648 0.159436
O O16 0.797042 0.497316 0.535565
O O17 0.000000 0.000000 0.500000
#
# Coordination Sequence:
#
# PCOD9010689 Si02
#       8
#     2   2   2   2   2   2   2   2
#     4  10  21  40  64  88 126 174 215 264 321 384
#     4  12  24  40  64  97 128 168 217 269 324 390
#     4  10  24  45  68  94 131 171 219 267 334 389
#     4  12  24  41  64  97 134 168 221 273 321 386
#     4  10  23  41  63  91 126 175 213 264 328 387
#     4  10  22  41  64  90 127 169 217 266 323 384
#     4  11  24  44  64  98 132 170 216 277 324 388
#     4  11  23  43  71  97 128 174 213 267 331 399
#
# _framework density 20.230882999999999
#
# number of rings (size 3 to 8) (size 9 to 14) (size 15 to 20)
#    0.000    1.250    5.000    0.375    1.750    3.000 
#    0.000    1.250    0.000    0.000    0.000    0.000 
#    0.000    0.000    0.000    0.000    0.000    0.000 
#
# Total GULP energy -89206.858699 kJ/mol
# GULP energy per Si atom -5575.428669 kJ/mol
# Density = 2.018484 g / cm^3
# Si number density = 20.230883 Si / 1000 Ang^3
#
#
#
# Elastic Constant Matrix: (Units=GPa)
#
#
# Indices 1 2 3 4 5 6 
#
# 1 63.0688 27.2239 26.4273 -0.2215 6.8731 -18.0817
# 2 27.2239 95.5879 7.4990 -6.8941 -4.1542 -10.2323
# 3 26.4273 7.4990 46.8199 -6.5699 -0.7094 -18.4130
# 4 -0.2215 -6.8941 -6.5699 27.6010 -5.4646 4.0096
# 5 6.8731 -4.1542 -0.7094 -5.4646 27.7251 2.1524
# 6 -18.0817 -10.2323 -18.4130 4.0096 2.1524 34.1602
#
#
#
# Elastic Compliance Matrix: (Units=1/GPa)
#
#
# Indices 1 2 3 4 5 6 
#
# 1 0.027335 -0.007025 -0.012766 -0.007613 -0.010201 0.007020
# 2 -0.007025 0.012860 0.002983 0.004642 0.004589 0.000908
# 3 -0.012766 0.002983 0.033617 0.008082 0.005212 0.010980
# 4 -0.007613 0.004642 0.008082 0.042080 0.011390 -0.003940
# 5 -0.010201 0.004589 0.005212 0.011390 0.042067 -0.005203
# 6 0.007020 0.000908 0.010980 -0.003940 -0.005203 0.039970
#
#
# Mechanical properties :
#
#
# Convention : Reuss Voigt Hill
#
# Bulk Modulus (GPa) = 24.87747 36.41969 30.64858
# Shear Modulus (GPa) = 20.41296 27.51902 23.96599
#
# Velocity S-wave (km/s) = 3.17992 3.69216 3.44557
# Velocity P-wave (km/s) = 5.07996 6.01807 5.56880
#
# Compressibility (1/GPa) = 0.04019702
#
# Stress axis : x y z
#
# Youngs Moduli (GPa) = 36.58354 77.76306 29.74657
#
# Poissons Ratio (x) = 0.54625 0.37974
# Poissons Ratio (y) = 0.25698 -0.08874
# Poissons Ratio (z) = 0.46702 -0.23198
#
# Static dielectric constant tensor:
#      x y z
#    x 1.748880 -0.009780 -0.002900 
#    y -0.009780 1.699820 -0.011480 
#    z -0.002900 -0.011480 1.714190 
# 
# From -- ./inp_files/223513.got.cif
#   From: 2010.05.17/outbox.cif.g08.bks.cpg/sg2_112_cif.got.tgz:223513.got - 2010.06.03 11:33:40.
