data_PCOD9010000
_publ_section_title
;
Structure prediction by ZEFSAII (Michael W. Deem and Ramdas Pophale) SiO2 
 PCOD9010000
Probable space group: P -1
;
_chemical_formula_sum "Si O2"
_cell_formula_units_Z 14
_cell_length_a 7.319896
_cell_length_b 8.844185
_cell_length_c 17.862016
_cell_angle_alpha 55.239267
_cell_angle_beta 139.615849
_cell_angle_gamma 106.571627
_cell_volume 590.877309
_symmetry_space_group_name_H-M "P -1"
_symmetry_group_IT_number 2
_symmetry_cell_setting 'triclinic'
loop_
_space_group_symop_operation_xyz
x,y,z
-x,-y,-z
loop_
_atom_site_type_symbol
_atom_site_label
_atom_site_fract_x
_atom_site_fract_y
_atom_site_fract_z
Si Si1 0.181519 0.539699 0.975637
Si Si2 0.475478 0.794412 0.069535
Si Si3 0.126498 0.748747 0.458668
Si Si4 0.519120 0.688565 0.282736
Si Si5 0.767722 0.938336 0.498013
Si Si6 0.158566 0.555862 0.796599
Si Si7 0.676974 0.272240 0.634111
O O1 0.232377 0.744466 0.953990
O O2 0.518536 0.404414 0.113455
O O3 0.062821 0.529871 0.858584
O O4 0.000000 0.500000 0.000000
O O5 0.416613 0.762127 0.147215
O O6 0.765923 0.630058 0.179879
O O7 0.500000 0.000000 0.000000
O O8 0.326076 0.540314 0.605576
O O9 0.106648 0.764098 0.358482
O O10 0.791257 0.769143 0.370944
O O11 0.274247 0.902029 0.495929
O O12 0.280780 0.736803 0.260700
O O13 0.490415 0.892660 0.386499
O O14 0.929437 0.731735 0.639863
O O15 0.000000 0.000000 0.500000
O O16 0.500000 0.500000 0.500000
#
# Coordination Sequence:
#
# PCOD9010000 Si02
#       7
#     2   2   2   2   2   2   2
#     4   9  21  44  66  86 117 161 209 254 305 353
#     4  10  22  40  66  86 120 160 204 252 310 355
#     4  10  22  38  63  90 125 164 204 246 303 369
#     4  10  21  40  61  89 129 158 199 258 309 355
#     4  12  22  40  65  91 126 167 203 243 311 372
#     4   9  23  42  64  87 127 157 203 261 299 357
#     4  10  23  39  59  94 128 158 203 250 303 363
#
# _framework density 23.693584000000001
#
# number of rings (size 3 to 8) (size 9 to 14) (size 15 to 20)
#    0.857    1.143    1.429    1.286    6.000    2.286 
#    2.571    0.714    0.000    0.000    0.000    0.000 
#    0.000    0.000    0.000    0.000    0.000    0.000 
#
# Total GULP energy -78147.461067 kJ/mol
# GULP energy per Si atom -5581.961505 kJ/mol
# Density = 2.363966 g / cm^3
# Si number density = 23.693584 Si / 1000 Ang^3
#
#
#
# Elastic Constant Matrix: (Units=GPa)
#
#
# Indices 1 2 3 4 5 6 
#
# 1 123.8961 15.0176 22.1120 3.2630 -45.3233 -6.8731
# 2 15.0176 158.4388 25.9895 -1.1645 -21.1321 -6.6176
# 3 22.1120 25.9895 73.0635 0.3519 -33.9289 -22.6434
# 4 3.2630 -1.1645 0.3519 29.5815 -4.1365 -6.7534
# 5 -45.3233 -21.1321 -33.9289 -4.1365 41.9295 14.9871
# 6 -6.8731 -6.6176 -22.6434 -6.7534 14.9871 32.9097
#
#
#
# Elastic Compliance Matrix: (Units=1/GPa)
#
#
# Indices 1 2 3 4 5 6 
#
# 1 0.014580 0.000576 0.003781 0.000436 0.020378 -0.003428
# 2 0.000576 0.006893 -0.001319 0.000505 0.003377 -0.000836
# 3 0.003781 -0.001319 0.025862 0.004378 0.021396 0.009474
# 4 0.000436 0.000505 0.004378 0.036332 0.004829 0.008462
# 5 0.020378 0.003377 0.021396 0.004829 0.069263 -0.010895
# 6 -0.003428 -0.000836 0.009474 0.008462 -0.010895 0.042719
#
#
# Mechanical properties :
#
#
# Convention : Reuss Voigt Hill
#
# Bulk Modulus (GPa) = 18.72301 53.51520 36.11911
# Shear Modulus (GPa) = 24.11094 40.36943 32.24019
#
# Velocity S-wave (km/s) = 3.19347 4.13220 3.69279
# Velocity P-wave (km/s) = 4.63864 6.73812 5.78443
#
# Compressibility (1/GPa) = 0.05341022
#
# Stress axis : x y z
#
# Youngs Moduli (GPa) = 68.58898 145.08196 38.66667
#
# Poissons Ratio (x) = -0.08354 -0.14621
# Poissons Ratio (y) = -0.03949 0.05101
# Poissons Ratio (z) = -0.25936 0.19139
#
# Static dielectric constant tensor:
#      x y z
#    x 1.965680 0.044610 0.050610 
#    y 0.044610 1.965200 0.098120 
#    z 0.050610 0.098120 1.902350 
# 
# From -- ./inp_files/556000.got.cif
#   From: 2010.05.17/outbox.cif.g08.bks.cpg/sg2_278_cif.got.tgz:556000.got - 2010.06.03 11:33:40.
