data_PCOD9010893
_publ_section_title
;
Structure prediction by ZEFSAII (Michael W. Deem and Ramdas Pophale) SiO2 
 PCOD9010893
Probable space group: P -1
;
_chemical_formula_sum "Si O2"
_cell_formula_units_Z 12
_cell_length_a 11.697980
_cell_length_b 6.412638
_cell_length_c 19.249933
_cell_angle_alpha 102.049490
_cell_angle_beta 158.908484
_cell_angle_gamma 75.966153
_cell_volume 503.504067
_symmetry_space_group_name_H-M "P -1"
_symmetry_group_IT_number 2
_symmetry_cell_setting 'triclinic'
loop_
_space_group_symop_operation_xyz
x,y,z
-x,-y,-z
loop_
_atom_site_type_symbol
_atom_site_label
_atom_site_fract_x
_atom_site_fract_y
_atom_site_fract_z
Si Si1 0.281967 0.075985 0.815960
Si Si2 0.849863 0.808785 0.466633
Si Si3 0.341002 0.126011 0.263425
Si Si4 0.745298 0.283503 0.611775
Si Si5 0.168031 0.098329 0.969680
Si Si6 0.576108 0.369556 0.307747
O O1 0.026317 0.276134 0.710719
O O2 0.085171 0.886488 0.664349
O O3 0.500000 0.000000 0.000000
O O4 0.550524 0.086082 0.910583
O O5 0.676947 0.604974 0.373125
O O6 0.068120 0.762619 0.518773
O O7 0.556511 0.997896 0.317111
O O8 0.524271 0.122487 0.440357
O O9 0.375250 0.356874 0.264751
O O10 0.033479 0.017493 0.097271
O O11 0.500000 0.500000 0.500000
O O12 0.935370 0.192571 0.781488
O O13 0.337748 0.294502 0.109484
#
# Coordination Sequence:
#
# PCOD9010893 Si02
#       6
#     2   2   2   2   2   2
#     4   8  17  39  68  88 125 168 211 260 317 373
#     4   9  20  38  65  91 129 167 208 266 321 373
#     4  11  22  38  64  92 129 171 209 263 324 378
#     4  10  22  41  64  91 127 170 216 263 314 380
#     4  10  21  40  65  95 131 166 209 269 319 377
#     4  10  21  40  64  95 127 167 217 258 320 387
#
# _framework density 23.832977
#
# number of rings (size 3 to 8) (size 9 to 14) (size 15 to 20)
#    0.000    2.333    0.000    1.500    2.333    0.667 
#    3.000    0.833   14.667    0.000    0.000    0.000 
#    0.000    0.000    0.000    0.000    0.000    0.000 
#
# Total GULP energy -66845.428949 kJ/mol
# GULP energy per Si atom -5570.452412 kJ/mol
# Density = 2.377873 g / cm^3
# Si number density = 23.832977 Si / 1000 Ang^3
#
#
#
# Elastic Constant Matrix: (Units=GPa)
#
#
# Indices 1 2 3 4 5 6 
#
# 1 145.7350 49.1554 68.9947 15.5425 25.5895 5.8158
# 2 49.1554 61.0418 45.3714 4.3761 27.1834 -3.4203
# 3 68.9947 45.3714 157.8537 8.5809 4.1844 8.0216
# 4 15.5425 4.3761 8.5809 37.6267 2.0941 20.1121
# 5 25.5895 27.1834 4.1844 2.0941 62.1258 4.7751
# 6 5.8158 -3.4203 8.0216 20.1121 4.7751 32.7486
#
#
#
# Elastic Compliance Matrix: (Units=1/GPa)
#
#
# Indices 1 2 3 4 5 6 
#
# 1 0.010713 -0.005374 -0.002938 -0.003332 -0.001795 0.000564
# 2 -0.005374 0.032140 -0.006845 -0.005101 -0.012053 0.010878
# 3 -0.002938 -0.006845 0.009599 0.001884 0.003823 -0.004259
# 4 -0.003332 -0.005101 0.001884 0.042314 0.004125 -0.026991
# 5 -0.001795 -0.012053 0.003823 0.004125 0.022302 -0.007662
# 6 0.000564 0.010878 -0.004259 -0.026991 -0.007662 0.050308
#
#
# Mechanical properties :
#
#
# Convention : Reuss Voigt Hill
#
# Bulk Modulus (GPa) = 45.16969 76.85262 61.01115
# Shear Modulus (GPa) = 24.38204 39.90749 32.14477
#
# Velocity S-wave (km/s) = 3.20197 4.09646 3.67652
# Velocity P-wave (km/s) = 5.71523 7.39534 6.60889
#
# Compressibility (1/GPa) = 0.02213874
#
# Stress axis : x y z
#
# Youngs Moduli (GPa) = 93.34373 31.11396 104.17510
#
# Poissons Ratio (x) = 0.16720 0.30606
# Poissons Ratio (y) = 0.50160 0.71309
# Poissons Ratio (z) = 0.27423 0.21298
#
# Static dielectric constant tensor:
#      x y z
#    x 1.962170 0.003200 -0.011290 
#    y 0.003200 2.033460 -0.060090 
#    z -0.011290 -0.060090 1.928270 
# 
# From -- ./inp_files/229057.got.cif
#   From: 2010.05.17/outbox.cif.g08.bks.cpg/sg2_115_cif.got.tgz:229057.got - 2010.06.03 11:33:40.
