data_PCOD9010831
_publ_section_title
;
Structure prediction by ZEFSAII (Michael W. Deem and Ramdas Pophale) SiO2 
 PCOD9010831
Probable space group: P -1
;
_chemical_formula_sum "Si O2"
_cell_formula_units_Z 16
_cell_length_a 8.488326
_cell_length_b 13.296370
_cell_length_c 14.088156
_cell_angle_alpha 138.762649
_cell_angle_beta 112.708939
_cell_angle_gamma 93.296706
_cell_volume 793.092231
_symmetry_space_group_name_H-M "P -1"
_symmetry_group_IT_number 2
_symmetry_cell_setting 'triclinic'
loop_
_space_group_symop_operation_xyz
x,y,z
-x,-y,-z
loop_
_atom_site_type_symbol
_atom_site_label
_atom_site_fract_x
_atom_site_fract_y
_atom_site_fract_z
Si Si1 0.633165 0.482781 0.597224
Si Si2 0.489575 0.916933 0.724548
Si Si3 0.943984 0.651048 0.101499
Si Si4 0.659048 0.460566 0.053865
Si Si5 0.940199 0.146463 0.091099
Si Si6 0.681662 0.998434 0.096667
Si Si7 0.427434 0.391663 0.139934
Si Si8 0.379344 0.898458 0.304886
O O1 0.500000 0.500000 0.500000
O O2 0.607073 0.295457 0.430498
O O3 0.534532 0.470173 0.668068
O O4 0.872549 0.659967 0.771118
O O5 0.338217 0.958204 0.769541
O O6 0.512378 0.949562 0.642666
O O7 0.723965 0.054878 0.918647
O O8 0.145767 0.828350 0.227369
O O9 0.880142 0.631793 0.184163
O O10 0.753082 0.620124 0.973490
O O11 0.000000 0.500000 0.000000
O O12 0.622298 0.275288 0.864058
O O13 0.500000 0.500000 0.000000
O O14 0.607925 0.437459 0.138197
O O15 0.884640 0.146394 0.188830
O O16 0.000000 0.000000 0.000000
O O17 0.500000 0.000000 0.000000
O O18 0.643017 0.797464 0.953516
O O19 0.500000 0.000000 0.500000
#
# Coordination Sequence:
#
# PCOD9010831 Si02
#       8
#     2   2   2   2   2   2   2   2
#     4  12  24  39  67  99 126 169 225 264 316 390
#     4  11  24  41  64  95 130 169 214 264 329 383
#     4   9  21  39  65  93 120 165 214 256 322 387
#     4   9  20  40  65  90 118 167 212 255 323 389
#     4  11  21  42  67  90 132 169 212 268 323 383
#     4  10  21  40  64  93 129 173 210 260 324 384
#     4  11  20  40  70  89 129 174 209 262 328 385
#     4  11  23  40  62  93 130 160 211 273 318 374
#
# _framework density 20.174198000000001
#
# number of rings (size 3 to 8) (size 9 to 14) (size 15 to 20)
#    0.000    1.500    3.750    1.500    5.250    0.500 
#    0.000    3.750    2.750    0.000    0.000    0.000 
#    0.000    0.000    0.000    0.000    0.000    0.000 
#
# Total GULP energy -89082.844128 kJ/mol
# GULP energy per Si atom -5567.677758 kJ/mol
# Density = 2.012828 g / cm^3
# Si number density = 20.174198 Si / 1000 Ang^3
#
#
#
# Elastic Constant Matrix: (Units=GPa)
#
#
# Indices 1 2 3 4 5 6 
#
# 1 97.8455 13.5443 16.0981 -4.4874 6.2792 29.8527
# 2 13.5443 74.0046 -0.8615 -6.8080 12.5536 20.5177
# 3 16.0981 -0.8615 48.0730 -2.8476 -2.3668 11.0392
# 4 -4.4874 -6.8080 -2.8476 35.1284 0.1352 -10.8087
# 5 6.2792 12.5536 -2.3668 0.1352 6.2114 3.9399
# 6 29.8527 20.5177 11.0392 -10.8087 3.9399 54.1856
#
#
#
# Elastic Compliance Matrix: (Units=1/GPa)
#
#
# Indices 1 2 3 4 5 6 
#
# 1 0.013430 0.001659 -0.003751 -0.000132 -0.014396 -0.006243
# 2 0.001659 0.022443 -0.000894 0.002986 -0.043995 -0.005436
# 3 -0.003751 -0.000894 0.023717 0.000084 0.016945 -0.003642
# 4 -0.000132 0.002986 0.000084 0.030868 -0.010236 0.005827
# 5 -0.014396 -0.043995 0.016945 -0.010236 0.271555 -0.000649
# 6 -0.006243 -0.005436 -0.003642 0.005827 -0.000649 0.025904
#
#
# Mechanical properties :
#
#
# Convention : Reuss Voigt Hill
#
# Bulk Modulus (GPa) = 18.65012 30.83165 24.74088
# Shear Modulus (GPa) = 12.14292 31.84788 21.99540
#
# Velocity S-wave (km/s) = 2.45603 3.97753 3.30551
# Velocity P-wave (km/s) = 4.16022 6.03408 5.18255
#
# Compressibility (1/GPa) = 0.05361896
#
# Stress axis : x y z
#
# Youngs Moduli (GPa) = 74.45944 44.55678 42.16339
#
# Poissons Ratio (x) = -0.07393 0.15814
# Poissons Ratio (y) = -0.12354 0.03771
# Poissons Ratio (z) = 0.27927 0.03985
#
# Static dielectric constant tensor:
#      x y z
#    x 1.697320 0.079640 0.053530 
#    y 0.079640 1.703390 -0.024090 
#    z 0.053530 -0.024090 1.670600 
# 
# From -- ./inp_files/347256.got.cif
#   From: 2010.05.17/outbox.cif.g08.bks.cpg/sg2_174_cif.got.tgz:347256.got - 2010.06.03 11:33:40.
