data_PCOD9010265
_publ_section_title
;
Structure prediction by ZEFSAII (Michael W. Deem and Ramdas Pophale) SiO2 
 PCOD9010265
Probable space group: P -1
;
_chemical_formula_sum "Si O2"
_cell_formula_units_Z 16
_cell_length_a 13.768638
_cell_length_b 13.552238
_cell_length_c 12.058295
_cell_angle_alpha 80.839304
_cell_angle_beta 149.751917
_cell_angle_gamma 119.703595
_cell_volume 776.746967
_symmetry_space_group_name_H-M "P -1"
_symmetry_group_IT_number 2
_symmetry_cell_setting 'triclinic'
loop_
_space_group_symop_operation_xyz
x,y,z
-x,-y,-z
loop_
_atom_site_type_symbol
_atom_site_label
_atom_site_fract_x
_atom_site_fract_y
_atom_site_fract_z
Si Si1 0.396920 0.666378 0.977244
Si Si2 0.715515 0.597551 0.293396
Si Si3 0.702558 0.544029 0.528982
Si Si4 0.649120 0.215639 0.877610
Si Si5 0.863949 0.331872 0.468556
Si Si6 0.492528 0.346551 0.553487
Si Si7 0.085100 0.919054 0.071573
Si Si8 0.359564 0.918077 0.544442
O O1 0.380664 0.698364 0.828403
O O2 0.106157 0.494117 0.727833
O O3 0.656760 0.690186 0.250535
O O4 0.403805 0.754097 0.060781
O O5 0.649402 0.508205 0.352910
O O6 0.000783 0.675603 0.502218
O O7 0.500000 0.500000 0.000000
O O8 0.656546 0.435744 0.587322
O O9 0.503171 0.558102 0.374827
O O10 0.027567 0.693209 0.826345
O O11 0.591190 0.281806 0.719200
O O12 0.460417 0.050244 0.693004
O O13 0.763548 0.216020 0.479589
O O14 0.172506 0.219836 0.225219
O O15 0.142205 0.877550 0.246631
O O16 0.369462 0.019558 0.265180
O O17 0.000000 0.000000 0.000000
#
# Coordination Sequence:
#
# PCOD9010265 Si02
#       8
#     2   2   2   2   2   2   2   2
#     4  10  22  40  65  92 125 165 221 263 313 385
#     4  10  21  40  62  94 129 165 215 272 314 381
#     4  11  23  40  65  97 131 167 216 273 325 379
#     4  12  22  43  63  97 134 163 213 274 323 388
#     4  10  23  43  63  92 128 170 212 265 321 380
#     4  11  24  40  66  94 128 175 214 267 327 382
#     4  11  24  45  63  92 130 171 218 261 316 401
#     4  11  26  42  66  95 132 172 210 266 333 389
#
# _framework density 20.59873
#
# number of rings (size 3 to 8) (size 9 to 14) (size 15 to 20)
#    0.000    1.250    5.000    0.375    3.500    2.500 
#    0.000    0.625    0.000    0.000    0.000    0.000 
#    0.000    0.000    0.000    0.000    0.000    0.000 
#
# Total GULP energy -89360.438531 kJ/mol
# GULP energy per Si atom -5585.027408 kJ/mol
# Density = 2.055185 g / cm^3
# Si number density = 20.598730 Si / 1000 Ang^3
#
#
#
# Elastic Constant Matrix: (Units=GPa)
#
#
# Indices 1 2 3 4 5 6 
#
# 1 92.8471 32.6628 14.0927 -6.3778 -15.7602 0.4240
# 2 32.6628 114.8813 11.0717 -13.9427 -21.6418 15.6667
# 3 14.0927 11.0717 54.1113 -16.7894 -16.2323 5.7341
# 4 -6.3778 -13.9427 -16.7894 15.0527 2.4021 -4.1581
# 5 -15.7602 -21.6418 -16.2323 2.4021 28.7732 -10.4848
# 6 0.4240 15.6667 5.7341 -4.1581 -10.4848 39.5917
#
#
#
# Elastic Compliance Matrix: (Units=1/GPa)
#
#
# Indices 1 2 3 4 5 6 
#
# 1 0.012880 -0.002720 -0.000936 0.001784 0.005304 0.002666
# 2 -0.002720 0.012797 0.005861 0.015231 0.009529 -0.001760
# 3 -0.000936 0.005861 0.037723 0.044299 0.022514 0.002842
# 4 0.001784 0.015231 0.044299 0.128400 0.029970 0.008960
# 5 0.005304 0.009529 0.022514 0.029970 0.059314 0.011767
# 6 0.002666 -0.001760 0.002842 0.008960 0.011767 0.029571
#
#
# Mechanical properties :
#
#
# Convention : Reuss Voigt Hill
#
# Bulk Modulus (GPa) = 14.74718 41.94379 28.34548
# Shear Modulus (GPa) = 16.72929 30.28435 23.50682
#
# Velocity S-wave (km/s) = 2.85292 3.83848 3.38180
# Velocity P-wave (km/s) = 4.24582 6.32865 5.38882
#
# Compressibility (1/GPa) = 0.06780958
#
# Stress axis : x y z
#
# Youngs Moduli (GPa) = 77.64068 78.14531 26.50933
#
# Poissons Ratio (x) = 0.21253 0.02481
# Poissons Ratio (y) = 0.21115 -0.15536
# Poissons Ratio (z) = 0.07266 -0.45798
#
# Static dielectric constant tensor:
#      x y z
#    x 1.799460 -0.058260 0.015300 
#    y -0.058260 1.749630 -0.034290 
#    z 0.015300 -0.034290 1.756300 
# 
# From -- ./inp_files/454788.got.cif
#   From: 2010.05.17/outbox.cif.g08.bks.cpg/sg2_228_cif.got.tgz:454788.got - 2010.06.03 11:33:40.
