data_PCOD9010776
_publ_section_title
;
Structure prediction by ZEFSAII (Michael W. Deem and Ramdas Pophale) SiO2 
 PCOD9010776
Probable space group: P -1
;
_chemical_formula_sum "Si O2"
_cell_formula_units_Z 16
_cell_length_a 27.136574
_cell_length_b 6.467908
_cell_length_c 6.032409
_cell_angle_alpha 71.269735
_cell_angle_beta 136.769795
_cell_angle_gamma 114.615468
_cell_volume 659.030484
_symmetry_space_group_name_H-M "P -1"
_symmetry_group_IT_number 2
_symmetry_cell_setting 'triclinic'
loop_
_space_group_symop_operation_xyz
x,y,z
-x,-y,-z
loop_
_atom_site_type_symbol
_atom_site_label
_atom_site_fract_x
_atom_site_fract_y
_atom_site_fract_z
Si Si1 0.342817 0.964825 0.698922
Si Si2 0.041880 0.895424 0.358751
Si Si3 0.554982 0.241437 0.654058
Si Si4 0.852097 0.188357 0.588609
Si Si5 0.104888 0.200865 0.839721
Si Si6 0.437982 0.300640 0.584872
Si Si7 0.788453 0.440535 0.653560
Si Si8 0.708542 0.814983 0.169931
O O1 0.274113 0.792513 0.410608
O O2 0.414869 0.097531 0.751997
O O3 0.315947 0.159795 0.665677
O O4 0.368144 0.810480 0.018131
O O5 0.085992 0.746119 0.423236
O O6 0.977005 0.780781 0.360197
O O7 0.098756 0.103068 0.605728
O O8 0.000000 0.000000 0.000000
O O9 0.516416 0.314922 0.719521
O O10 0.559206 0.442526 0.424502
O O11 0.500000 0.000000 0.500000
O O12 0.840808 0.374713 0.659881
O O13 0.772720 0.052148 0.266593
O O14 0.875220 0.997075 0.879598
O O15 0.165904 0.429515 0.032635
O O16 0.366171 0.233430 0.204843
O O17 0.747198 0.614280 0.352608
#
# Coordination Sequence:
#
# PCOD9010776 Si02
#       8
#     2   2   2   2   2   2   2   2
#     4  11  23  42  65  94 132 174 222 274 338 397
#     4   9  18  38  62  90 127 171 217 275 331 389
#     4  11  23  43  66  95 131 169 221 278 330 403
#     4   9  20  36  61  89 130 171 216 274 329 392
#     4   9  19  38  62  90 129 169 220 276 327 394
#     4  11  24  41  66  93 128 174 218 275 337 392
#     4  10  21  40  64  91 132 177 218 279 328 395
#     4  10  21  41  60  92 131 167 222 275 322 399
#
# _framework density 24.278085999999998
#
# number of rings (size 3 to 8) (size 9 to 14) (size 15 to 20)
#    0.000    2.000    2.500    0.375    0.000    5.000 
#    0.000   18.125    0.000    0.000    0.000    0.000 
#    0.000    0.000    0.000    0.000    0.000    0.000 
#
# Total GULP energy -89404.459694 kJ/mol
# GULP energy per Si atom -5587.778731 kJ/mol
# Density = 2.422283 g / cm^3
# Si number density = 24.278086 Si / 1000 Ang^3
#
#
#
# Elastic Constant Matrix: (Units=GPa)
#
#
# Indices 1 2 3 4 5 6 
#
# 1 69.2304 17.6201 -0.7753 -13.0568 12.8438 -21.0268
# 2 17.6201 110.3517 35.2330 7.8755 -4.5919 -15.1491
# 3 -0.7753 35.2330 96.7371 19.0402 7.1019 -7.3655
# 4 -13.0568 7.8755 19.0402 41.2402 0.7656 6.7178
# 5 12.8438 -4.5919 7.1019 0.7656 24.5857 -3.6492
# 6 -21.0268 -15.1491 -7.3655 6.7178 -3.6492 35.1113
#
#
#
# Elastic Compliance Matrix: (Units=1/GPa)
#
#
# Indices 1 2 3 4 5 6 
#
# 1 0.021292 -0.003564 0.001991 0.005163 -0.011116 0.009487
# 2 -0.003564 0.011746 -0.004083 -0.002094 0.005757 0.003076
# 3 0.001991 -0.004083 0.013433 -0.005136 -0.005122 0.002699
# 4 0.005163 -0.002094 -0.005136 0.029508 -0.003247 -0.004872
# 5 -0.011116 0.005757 -0.005122 -0.003247 0.049210 0.000488
# 6 0.009487 0.003076 0.002699 -0.004872 0.000488 0.037039
#
#
# Mechanical properties :
#
#
# Convention : Reuss Voigt Hill
#
# Bulk Modulus (GPa) = 28.44266 42.27497 35.35881
# Shear Modulus (GPa) = 26.98941 35.13686 31.06313
#
# Velocity S-wave (km/s) = 3.33780 3.80842 3.58085
# Velocity P-wave (km/s) = 5.15707 6.06543 5.62960
#
# Compressibility (1/GPa) = 0.03515846
#
# Stress axis : x y z
#
# Youngs Moduli (GPa) = 46.96707 85.13659 74.44503
#
# Poissons Ratio (x) = 0.30342 -0.14821
# Poissons Ratio (y) = 0.16739 0.30394
# Poissons Ratio (z) = -0.09350 0.34759
#
# Static dielectric constant tensor:
#      x y z
#    x 1.979490 0.008130 0.001290 
#    y 0.008130 1.964180 -0.026390 
#    z 0.001290 -0.026390 1.998320 
# 
# From -- ./inp_files/125840.got.cif
#   From: 2010.05.17/outbox.cif.g08.bks.cpg/sg2_63_cif.got.tgz:125840.got - 2010.06.03 11:33:40.
