data_PCOD9010291
_publ_section_title
;
Structure prediction by ZEFSAII (Michael W. Deem and Ramdas Pophale) SiO2 
 PCOD9010291
Probable space group: P -1
;
_chemical_formula_sum "Si O2"
_cell_formula_units_Z 16
_cell_length_a 7.160275
_cell_length_b 15.918402
_cell_length_c 9.381891
_cell_angle_alpha 138.284732
_cell_angle_beta 108.909892
_cell_angle_gamma 81.171800
_cell_volume 666.495537
_symmetry_space_group_name_H-M "P -1"
_symmetry_group_IT_number 2
_symmetry_cell_setting 'triclinic'
loop_
_space_group_symop_operation_xyz
x,y,z
-x,-y,-z
loop_
_atom_site_type_symbol
_atom_site_label
_atom_site_fract_x
_atom_site_fract_y
_atom_site_fract_z
Si Si1 0.773270 0.443372 0.998192
Si Si2 0.850079 0.679852 0.945523
Si Si3 0.314431 0.764120 0.809931
Si Si4 0.204261 0.034782 0.184718
Si Si5 0.296602 0.274926 0.319914
Si Si6 0.087236 0.108217 0.550697
Si Si7 0.437764 0.562254 0.789293
Si Si8 0.088907 0.683444 0.381788
O O1 0.582827 0.420698 0.024267
O O2 0.951591 0.376024 0.030350
O O3 0.880851 0.588885 0.194957
O O4 0.754697 0.381229 0.758126
O O5 0.867320 0.738444 0.865300
O O6 0.653351 0.575606 0.782453
O O7 0.801920 0.784560 0.181451
O O8 0.508367 0.752211 0.750014
O O9 0.328198 0.671093 0.827611
O O10 0.136533 0.707316 0.588412
O O11 0.313957 0.912245 0.030072
O O12 0.278815 0.173558 0.313476
O O13 0.193759 0.052270 0.373941
O O14 0.000000 0.000000 0.000000
O O15 0.322385 0.421735 0.556601
O O16 0.925198 0.181343 0.523199
O O17 0.000000 0.000000 0.500000
#
# Coordination Sequence:
#
# PCOD9010291 Si02
#       8
#     2   2   2   2   2   2   2   2
#     4  10  22  39  67  97 132 172 219 270 338 388
#     4  10  23  43  66  97 137 170 216 278 327 389
#     4  11  24  42  67  98 134 168 222 276 328 393
#     4  12  25  42  67  98 129 175 227 264 335 402
#     4  11  24  45  66  98 136 173 216 278 329 392
#     4  11  24  42  65  93 134 175 218 274 329 394
#     4  11  24  42  71 101 131 176 225 268 333 397
#     4  10  21  40  62  96 132 169 217 280 325 390
#
# _framework density 24.006163000000001
#
# number of rings (size 3 to 8) (size 9 to 14) (size 15 to 20)
#    0.000    1.250    1.250    4.875    5.250    2.000 
#    0.000    9.375    0.000    0.000    0.000    0.000 
#    0.000    0.000    0.000    0.000    0.000    0.000 
#
# Total GULP energy -89498.802799 kJ/mol
# GULP energy per Si atom -5593.675175 kJ/mol
# Density = 2.395152 g / cm^3
# Si number density = 24.006163 Si / 1000 Ang^3
#
#
#
# Elastic Constant Matrix: (Units=GPa)
#
#
# Indices 1 2 3 4 5 6 
#
# 1 35.9980 24.8086 -3.3755 3.4926 -11.7771 7.6996
# 2 24.8086 195.6875 48.3304 4.5395 -8.8205 10.7115
# 3 -3.3755 48.3304 82.7150 -4.0230 -8.0033 1.5331
# 4 3.4926 4.5395 -4.0230 46.3132 3.4295 -7.6012
# 5 -11.7771 -8.8205 -8.0033 3.4295 28.4683 -4.2325
# 6 7.6996 10.7115 1.5331 -7.6012 -4.2325 43.3944
#
#
#
# Elastic Compliance Matrix: (Units=1/GPa)
#
#
# Indices 1 2 3 4 5 6 
#
# 1 0.038611 -0.005341 0.006128 -0.003825 0.015776 -0.004880
# 2 -0.005341 0.006871 -0.004382 -0.000690 -0.001355 -0.000846
# 3 0.006128 -0.004382 0.015468 0.000932 0.005435 0.000141
# 4 -0.003825 -0.000690 0.000932 0.023037 -0.003641 0.004496
# 5 0.015776 -0.001355 0.005435 -0.003641 0.043338 0.000933
# 6 -0.004880 -0.000846 0.000141 0.004496 0.000933 0.024993
#
#
# Mechanical properties :
#
#
# Convention : Reuss Voigt Hill
#
# Bulk Modulus (GPa) = 18.60135 50.43640 34.51888
# Shear Modulus (GPa) = 28.18027 39.94431 34.06229
#
# Velocity S-wave (km/s) = 3.42991 4.08354 3.77091
# Velocity P-wave (km/s) = 4.84263 6.57945 5.77669
#
# Compressibility (1/GPa) = 0.05375954
#
# Stress axis : x y z
#
# Youngs Moduli (GPa) = 25.89919 145.54465 64.64772
#
# Poissons Ratio (x) = 0.77741 -0.39613
# Poissons Ratio (y) = 0.13834 0.28326
# Poissons Ratio (z) = -0.15870 0.63771
#
# Static dielectric constant tensor:
#      x y z
#    x 1.991050 -0.039340 0.029280 
#    y -0.039340 1.942800 -0.018190 
#    z 0.029280 -0.018190 1.958520 
# 
# From -- ./inp_files/177945.got.cif
#   From: 2010.05.17/outbox.cif.g08.bks.cpg/sg2_89_cif.got.tgz:177945.got - 2010.06.03 11:33:40.
