data_PCOD9010865
_publ_section_title
;
Structure prediction by ZEFSAII (Michael W. Deem and Ramdas Pophale) SiO2 
 PCOD9010865
Probable space group: P -1
;
_chemical_formula_sum "Si O2"
_cell_formula_units_Z 12
_cell_length_a 21.803656
_cell_length_b 9.374740
_cell_length_c 9.442795
_cell_angle_alpha 133.729137
_cell_angle_beta 26.761102
_cell_angle_gamma 146.752221
_cell_volume 464.296974
_symmetry_space_group_name_H-M "P -1"
_symmetry_group_IT_number 2
_symmetry_cell_setting 'triclinic'
loop_
_space_group_symop_operation_xyz
x,y,z
-x,-y,-z
loop_
_atom_site_type_symbol
_atom_site_label
_atom_site_fract_x
_atom_site_fract_y
_atom_site_fract_z
Si Si1 0.532393 0.691991 0.445564
Si Si2 0.033627 0.322363 0.556942
Si Si3 0.410844 0.302117 0.210117
Si Si4 0.369382 0.901825 0.836163
Si Si5 0.082654 0.189208 0.671859
Si Si6 0.812361 0.124067 0.372007
O O1 0.500000 0.500000 0.500000
O O2 0.557118 0.588082 0.180915
O O3 0.695765 0.983920 0.371399
O O4 0.365669 0.681832 0.762313
O O5 0.066086 0.297698 0.636828
O O6 0.828968 0.366594 0.551086
O O7 0.039608 0.127623 0.320393
O O8 0.828462 0.207168 0.874612
O O9 0.539301 0.849034 0.076430
O O10 0.276876 0.092005 0.468351
O O11 0.286840 0.313769 0.370623
O O12 0.500000 0.000000 0.500000
O O13 0.992398 0.767941 0.008583
#
# Coordination Sequence:
#
# PCOD9010865 Si02
#       6
#     2   2   2   2   2   2
#     4  10  24  42  62  92 130 169 210 257 316 380
#     4  10  23  41  65  96 127 167 215 262 318 377
#     4  10  24  42  65  95 128 170 213 260 320 380
#     4  11  24  44  66  92 128 170 215 264 318 380
#     4  10  21  40  64  94 129 165 211 263 319 378
#     4  11  22  39  66  96 128 167 211 266 317 374
#
# _framework density 25.845526
#
# number of rings (size 3 to 8) (size 9 to 14) (size 15 to 20)
#    0.000    1.667    0.000    3.000    0.000   12.667 
#    0.000    1.667    0.000    0.000    0.000    0.000 
#    0.000    0.000    0.000    0.000    0.000    0.000 
#
# Total GULP energy -67259.105877 kJ/mol
# GULP energy per Si atom -5604.925490 kJ/mol
# Density = 2.578670 g / cm^3
# Si number density = 25.845526 Si / 1000 Ang^3
#
#
#
# Elastic Constant Matrix: (Units=GPa)
#
#
# Indices 1 2 3 4 5 6 
#
# 1 140.5480 53.3865 32.1390 15.2342 -10.9671 -7.6522
# 2 53.3865 144.8125 11.4910 21.5937 0.3935 2.7866
# 3 32.1390 11.4910 65.0873 31.3209 12.5364 -1.9277
# 4 15.2342 21.5937 31.3209 37.0372 4.8543 3.1928
# 5 -10.9671 0.3935 12.5364 4.8543 40.5458 6.0059
# 6 -7.6522 2.7866 -1.9277 3.1928 6.0059 54.5931
#
#
#
# Elastic Compliance Matrix: (Units=1/GPa)
#
#
# Indices 1 2 3 4 5 6 
#
# 1 0.010053 -0.003642 -0.006510 0.002866 0.004317 0.000723
# 2 -0.003642 0.008953 0.003649 -0.006602 -0.001365 -0.000302
# 3 -0.006510 0.003649 0.032067 -0.025603 -0.009020 0.002523
# 4 0.002866 -0.006602 -0.025603 0.051212 0.003144 -0.003506
# 5 0.004317 -0.001365 -0.009020 0.003144 0.028699 -0.002985
# 6 0.000723 -0.000302 0.002523 -0.003506 -0.002985 0.019057
#
#
# Mechanical properties :
#
#
# Convention : Reuss Voigt Hill
#
# Bulk Modulus (GPa) = 26.27051 60.49785 43.38418
# Shear Modulus (GPa) = 28.45195 43.33064 35.89129
#
# Velocity S-wave (km/s) = 3.32150 4.09898 3.73055
# Velocity P-wave (km/s) = 4.98962 6.77204 5.94797
#
# Compressibility (1/GPa) = 0.03806550
#
# Stress axis : x y z
#
# Youngs Moduli (GPa) = 99.47460 111.69680 31.18508
#
# Poissons Ratio (x) = 0.40685 0.20302
# Poissons Ratio (y) = 0.36233 -0.11380
# Poissons Ratio (z) = 0.64759 -0.40760
#
# Static dielectric constant tensor:
#      x y z
#    x 2.042350 0.014130 -0.022200 
#    y 0.014130 2.040900 -0.027610 
#    z -0.022200 -0.027610 2.026220 
# 
# From -- ./inp_files/342068.got.cif
#   From: 2010.05.17/outbox.cif.g08.bks.cpg/sg2_172_cif.got.tgz:342068.got - 2010.06.03 11:33:40.
