data_PCOD9010339
_publ_section_title
;
Structure prediction by ZEFSAII (Michael W. Deem and Ramdas Pophale) SiO2 
 PCOD9010339
Probable space group: P -1
;
_chemical_formula_sum "Si O2"
_cell_formula_units_Z 16
_cell_length_a 10.931862
_cell_length_b 8.672778
_cell_length_c 10.014698
_cell_angle_alpha 63.272584
_cell_angle_beta 62.058806
_cell_angle_gamma 68.934802
_cell_volume 735.762126
_symmetry_space_group_name_H-M "P -1"
_symmetry_group_IT_number 2
_symmetry_cell_setting 'triclinic'
loop_
_space_group_symop_operation_xyz
x,y,z
-x,-y,-z
loop_
_atom_site_type_symbol
_atom_site_label
_atom_site_fract_x
_atom_site_fract_y
_atom_site_fract_z
Si Si1 0.679853 0.001653 0.495185
Si Si2 0.429664 0.676353 0.043511
Si Si3 0.214989 0.575203 0.406306
Si Si4 0.961409 0.666698 0.857831
Si Si5 0.728792 0.368663 0.341445
Si Si6 0.908026 0.717807 0.566299
Si Si7 0.387962 0.982205 0.763804
Si Si8 0.664477 0.738682 0.087920
O O1 0.642648 0.212592 0.442542
O O2 0.704158 0.961452 0.341879
O O3 0.815222 0.911340 0.544516
O O4 0.546355 0.928214 0.646360
O O5 0.326607 0.634586 0.227910
O O6 0.551753 0.761884 0.017722
O O7 0.500000 0.500000 0.000000
O O8 0.350480 0.815273 0.923634
O O9 0.268747 0.561499 0.535995
O O10 0.174286 0.396571 0.441359
O O11 0.064941 0.709717 0.434689
O O12 0.923883 0.628429 0.739039
O O13 0.111378 0.726277 0.743902
O O14 0.816784 0.774421 0.949179
O O15 0.000000 0.500000 0.000000
O O16 0.681120 0.535029 0.205632
O O17 0.383195 0.136769 0.811801
#
# Coordination Sequence:
#
# PCOD9010339 Si02
#       8
#     2   2   2   2   2   2   2   2
#     4  11  23  41  61  86 119 156 198 246 296 348
#     4  12  24  39  61  89 121 156 196 244 297 352
#     4  10  22  39  62  89 116 153 202 240 287 354
#     4   9  20  38  61  89 121 154 195 242 293 346
#     4  10  22  39  62  89 116 156 203 244 289 348
#     4  10  21  40  63  86 120 159 194 242 295 345
#     4  11  25  40  59  88 121 155 197 245 297 352
#     4  11  22  39  62  87 121 159 194 243 299 351
#
# _framework density 21.746157
#
# number of rings (size 3 to 8) (size 9 to 14) (size 15 to 20)
#    0.000    1.500    0.000    4.875    0.000   10.000 
#    0.000    1.250    0.000    0.000    0.000    0.000 
#    0.000    0.000    0.000    0.000    0.000    0.000 
#
# Total GULP energy -89396.106789 kJ/mol
# GULP energy per Si atom -5587.256674 kJ/mol
# Density = 2.169666 g / cm^3
# Si number density = 21.746157 Si / 1000 Ang^3
#
#
#
# Elastic Constant Matrix: (Units=GPa)
#
#
# Indices 1 2 3 4 5 6 
#
# 1 49.7045 6.8745 29.5662 7.4512 11.4128 -4.7550
# 2 6.8745 55.5171 11.3109 4.9244 11.7024 -0.3044
# 3 29.5662 11.3109 114.2499 11.5754 1.7357 -13.4413
# 4 7.4512 4.9244 11.5754 32.2720 0.6095 2.7462
# 5 11.4128 11.7024 1.7357 0.6095 34.2760 9.5012
# 6 -4.7550 -0.3044 -13.4413 2.7462 9.5012 30.2614
#
#
#
# Elastic Compliance Matrix: (Units=1/GPa)
#
#
# Indices 1 2 3 4 5 6 
#
# 1 0.027046 0.000420 -0.005808 -0.004483 -0.010244 0.005297
# 2 0.000420 0.020086 -0.001450 -0.002689 -0.007492 0.002220
# 3 -0.005808 -0.001450 0.011144 -0.002792 0.000798 0.004025
# 4 -0.004483 -0.002689 -0.002792 0.033892 0.003668 -0.006199
# 5 -0.010244 -0.007492 0.000798 0.003668 0.038883 -0.013871
# 6 0.005297 0.002220 0.004025 -0.006199 -0.013871 0.040606
#
#
# Mechanical properties :
#
#
# Convention : Reuss Voigt Hill
#
# Bulk Modulus (GPa) = 22.42104 34.99718 28.70911
# Shear Modulus (GPa) = 24.97527 30.80986 27.89256
#
# Velocity S-wave (km/s) = 3.39262 3.76812 3.58529
# Velocity P-wave (km/s) = 5.06746 5.92115 5.51086
#
# Compressibility (1/GPa) = 0.04460097
#
# Stress axis : x y z
#
# Youngs Moduli (GPa) = 36.97362 49.78662 89.73768
#
# Poissons Ratio (x) = -0.02092 0.52117
# Poissons Ratio (y) = -0.01553 0.13010
# Poissons Ratio (z) = 0.21473 0.07218
#
# Static dielectric constant tensor:
#      x y z
#    x 1.805350 -0.008090 -0.013640 
#    y -0.008090 1.778880 0.007250 
#    z -0.013640 0.007250 1.765020 
# 
# From -- ./inp_files/184940.got.cif
#   From: 2010.05.17/outbox.cif.g08.bks.cpg/sg2_93_cif.got.tgz:184940.got - 2010.06.03 11:33:40.
