data_PCOD9010914
_publ_section_title
;
Structure prediction by ZEFSAII (Michael W. Deem and Ramdas Pophale) SiO2 
 PCOD9010914
Probable space group: P -1
;
_chemical_formula_sum "Si O2"
_cell_formula_units_Z 16
_cell_length_a 15.890867
_cell_length_b 19.148364
_cell_length_c 10.692307
_cell_angle_alpha 35.170319
_cell_angle_beta 35.028751
_cell_angle_gamma 21.497381
_cell_volume 660.058663
_symmetry_space_group_name_H-M "P -1"
_symmetry_group_IT_number 2
_symmetry_cell_setting 'triclinic'
loop_
_space_group_symop_operation_xyz
x,y,z
-x,-y,-z
loop_
_atom_site_type_symbol
_atom_site_label
_atom_site_fract_x
_atom_site_fract_y
_atom_site_fract_z
Si Si1 0.300942 0.024380 0.686989
Si Si2 0.606687 0.265554 0.148605
Si Si3 0.029721 0.316332 0.003579
Si Si4 0.503193 0.746034 0.073508
Si Si5 0.948875 0.391560 0.719732
Si Si6 0.449412 0.463497 0.313118
Si Si7 0.813399 0.222965 0.444523
Si Si8 0.255050 0.351904 0.837720
O O1 0.301294 0.929365 0.710886
O O2 0.500000 0.000000 0.500000
O O3 0.351266 0.905597 0.917585
O O4 0.058356 0.254822 0.666903
O O5 0.330512 0.441461 0.187602
O O6 0.596621 0.311106 0.238896
O O7 0.690591 0.325957 0.874654
O O8 0.772907 0.553233 0.976506
O O9 0.970631 0.235532 0.272841
O O10 0.064346 0.265165 0.891113
O O11 0.240825 0.259701 0.883609
O O12 0.364091 0.715464 0.326957
O O13 0.544343 0.788889 0.092602
O O14 0.000000 0.500000 0.500000
O O15 0.646333 0.366721 0.319920
O O16 0.292108 0.458835 0.572706
O O17 0.000000 0.000000 0.500000
O O18 0.000000 0.500000 0.000000
#
# Coordination Sequence:
#
# PCOD9010914 Si02
#       8
#     2   2   2   2   2   2   2   2
#     4  12  24  41  66 103 132 176 228 274 344 406
#     4  11  23  44  71  97 142 179 222 283 339 413
#     4  11  20  40  65  94 129 177 222 273 344 390
#     4  10  21  40  64  95 134 168 222 284 333 402
#     4  12  22  39  66  97 134 175 224 275 333 404
#     4  10  22  44  69  98 139 182 219 281 352 392
#     4  11  22  40  65  96 132 174 228 274 330 414
#     4   9  21  38  66  99 130 172 229 275 341 401
#
# _framework density 24.240269000000001
#
# number of rings (size 3 to 8) (size 9 to 14) (size 15 to 20)
#    0.000    1.250    3.750    1.875    0.000    3.000 
#    2.250    4.375    2.750    0.000    0.000    0.000 
#    0.000    0.000    0.000    0.000    0.000    0.000 
#
# Total GULP energy -89464.904009 kJ/mol
# GULP energy per Si atom -5591.556501 kJ/mol
# Density = 2.418510 g / cm^3
# Si number density = 24.240269 Si / 1000 Ang^3
#
#
#
# Elastic Constant Matrix: (Units=GPa)
#
#
# Indices 1 2 3 4 5 6 
#
# 1 82.3277 12.7652 22.1216 3.5275 -16.0875 19.3501
# 2 12.7652 68.6909 -2.7167 -3.0446 -10.6813 25.7244
# 3 22.1216 -2.7167 132.6274 11.0761 -20.1481 0.1432
# 4 3.5275 -3.0446 11.0761 22.9651 1.1975 -8.3772
# 5 -16.0875 -10.6813 -20.1481 1.1975 47.2056 -0.9263
# 6 19.3501 25.7244 0.1432 -8.3772 -0.9263 36.2666
#
#
#
# Elastic Compliance Matrix: (Units=1/GPa)
#
#
# Indices 1 2 3 4 5 6 
#
# 1 0.016105 0.001602 -0.001361 -0.005870 0.005204 -0.010947
# 2 0.001602 0.021347 0.001449 -0.004586 0.005779 -0.016914
# 3 -0.001361 0.001449 0.008730 -0.004466 0.003678 -0.001274
# 4 -0.005870 -0.004586 -0.004466 0.053051 -0.005927 0.018505
# 5 0.005204 0.005779 0.003678 -0.005927 0.025836 -0.007600
# 6 -0.010947 -0.016914 -0.001274 0.018505 -0.007600 0.049497
#
#
# Mechanical properties :
#
#
# Convention : Reuss Voigt Hill
#
# Bulk Modulus (GPa) = 20.17648 38.66513 29.42081
# Shear Modulus (GPa) = 26.63726 38.05251 32.34489
#
# Velocity S-wave (km/s) = 3.31854 3.96638 3.65683
# Velocity P-wave (km/s) = 4.79846 6.07960 5.47662
#
# Compressibility (1/GPa) = 0.04956265
#
# Stress axis : x y z
#
# Youngs Moduli (GPa) = 62.09182 46.84464 114.55119
#
# Poissons Ratio (x) = -0.07504 0.15588
# Poissons Ratio (y) = -0.09946 -0.16602
# Poissons Ratio (z) = 0.08450 -0.06789
#
# Static dielectric constant tensor:
#      x y z
#    x 1.686390 -0.059500 -0.038380 
#    y -0.059500 1.921770 -0.002410 
#    z -0.038380 -0.002410 1.981680 
# 
# From -- ./inp_files/427715.got.cif
#   From: 2010.05.17/outbox.cif.g08.bks.cpg/sg2_214_cif.got.tgz:427715.got - 2010.06.03 11:33:40.
