data_PCOD9010702
_publ_section_title
;
Structure prediction by ZEFSAII (Michael W. Deem and Ramdas Pophale) SiO2 
 PCOD9010702
Probable space group: P -1
;
_chemical_formula_sum "Si O2"
_cell_formula_units_Z 16
_cell_length_a 21.122690
_cell_length_b 8.637460
_cell_length_c 8.858171
_cell_angle_alpha 103.377468
_cell_angle_beta 69.147374
_cell_angle_gamma 150.879169
_cell_volume 723.636357
_symmetry_space_group_name_H-M "P -1"
_symmetry_group_IT_number 2
_symmetry_cell_setting 'triclinic'
loop_
_space_group_symop_operation_xyz
x,y,z
-x,-y,-z
loop_
_atom_site_type_symbol
_atom_site_label
_atom_site_fract_x
_atom_site_fract_y
_atom_site_fract_z
Si Si1 0.861035 0.725970 0.158612
Si Si2 0.253245 0.239379 0.057838
Si Si3 0.735217 0.052705 0.524226
Si Si4 0.895079 0.235251 0.697345
Si Si5 0.654464 0.250195 0.961210
Si Si6 0.914155 0.683183 0.423370
Si Si7 0.872570 0.103845 0.208206
Si Si8 0.535965 0.680097 0.861988
O O1 0.726813 0.411120 0.100620
O O2 0.880799 0.662251 0.275789
O O3 0.843721 0.874479 0.255878
O O4 0.000000 0.000000 0.000000
O O5 0.254206 0.429921 0.132482
O O6 0.393059 0.479606 0.908264
O O7 0.136662 0.949797 0.973699
O O8 0.241850 0.105902 0.181907
O O9 0.851799 0.212215 0.568689
O O10 0.774492 0.319200 0.529460
O O11 0.764320 0.015932 0.336939
O O12 0.596220 0.737959 0.665537
O O13 0.984947 0.260726 0.637153
O O14 0.976310 0.532722 0.789742
O O15 0.500000 0.000000 0.000000
O O16 0.645725 0.044755 0.890517
O O17 0.000000 0.000000 0.500000
O O18 0.500000 0.500000 0.000000
#
# Coordination Sequence:
#
# PCOD9010702 Si02
#       8
#     2   2   2   2   2   2   2   2
#     4  11  23  40  69 103 127 170 224 274 321 397
#     4  10  21  40  64  89 121 169 216 271 319 379
#     4  11  24  40  61  92 135 172 211 265 334 392
#     4  11  21  38  62  91 129 174 208 261 335 391
#     4   9  22  42  64  91 127 165 220 271 322 385
#     4  11  23  38  62 100 136 171 209 272 338 388
#     4  10  22  40  58  94 133 158 206 273 336 388
#     4  11  23  41  65  91 120 175 227 263 312 392
#
# _framework density 22.110554
#
# number of rings (size 3 to 8) (size 9 to 14) (size 15 to 20)
#    0.000    1.500    1.250    4.875    5.250    3.500 
#    0.000    0.000    0.000    3.750    0.000    0.000 
#    0.000    0.000    0.000    0.000    0.000    0.000 
#
# Total GULP energy -89152.309527 kJ/mol
# GULP energy per Si atom -5572.019345 kJ/mol
# Density = 2.206023 g / cm^3
# Si number density = 22.110554 Si / 1000 Ang^3
#
#
#
# Elastic Constant Matrix: (Units=GPa)
#
#
# Indices 1 2 3 4 5 6 
#
# 1 78.1802 21.8942 29.0793 1.1105 21.3270 -6.2008
# 2 21.8942 97.4433 38.8031 13.6210 11.0153 -20.2607
# 3 29.0793 38.8031 80.7834 -21.6109 20.2297 -17.7141
# 4 1.1105 13.6210 -21.6109 35.2332 -0.2581 -0.7136
# 5 21.3270 11.0153 20.2297 -0.2581 45.4535 -3.6658
# 6 -6.2008 -20.2607 -17.7141 -0.7136 -3.6658 42.4749
#
#
#
# Elastic Compliance Matrix: (Units=1/GPa)
#
#
# Indices 1 2 3 4 5 6 
#
# 1 0.016400 -0.000525 -0.005494 -0.003735 -0.005197 -0.000658
# 2 -0.000525 0.017361 -0.011379 -0.013598 0.001296 0.003342
# 3 -0.005494 -0.011379 0.028702 0.022239 -0.006867 0.005521
# 4 -0.003735 -0.013598 0.022239 0.047419 -0.004366 0.002663
# 5 -0.005197 0.001296 -0.006867 -0.004366 0.027097 -0.000739
# 6 -0.000658 0.003342 0.005521 0.002663 -0.000739 0.027325
#
#
# Mechanical properties :
#
#
# Convention : Reuss Voigt Hill
#
# Bulk Modulus (GPa) = 36.14364 48.44000 42.29182
# Shear Modulus (GPa) = 24.00145 35.74102 29.87123
#
# Velocity S-wave (km/s) = 3.29830 4.02489 3.67958
# Velocity P-wave (km/s) = 5.55763 6.59965 6.10093
#
# Compressibility (1/GPa) = 0.02766738
#
# Stress axis : x y z
#
# Youngs Moduli (GPa) = 60.97663 57.60093 34.84116
#
# Poissons Ratio (x) = 0.03021 0.19140
# Poissons Ratio (y) = 0.03198 0.39647
# Poissons Ratio (z) = 0.33498 0.65546
#
# Static dielectric constant tensor:
#      x y z
#    x 1.844610 0.015150 -0.067530 
#    y 0.015150 1.900120 -0.068530 
#    z -0.067530 -0.068530 1.883410 
# 
# From -- ./inp_files/352254.got.cif
#   From: 2010.05.17/outbox.cif.g08.bks.cpg/sg2_177_cif.got.tgz:352254.got - 2010.06.03 11:33:40.
