data_PCOD9010134
_publ_section_title
;
Structure prediction by ZEFSAII (Michael W. Deem and Ramdas Pophale) SiO2 
 PCOD9010134
Probable space group: P -1
;
_chemical_formula_sum "Si O2"
_cell_formula_units_Z 16
_cell_length_a 10.005856
_cell_length_b 8.665827
_cell_length_c 8.473768
_cell_angle_alpha 80.277958
_cell_angle_beta 99.733337
_cell_angle_gamma 118.818282
_cell_volume 631.232281
_symmetry_space_group_name_H-M "P -1"
_symmetry_group_IT_number 2
_symmetry_cell_setting 'triclinic'
loop_
_space_group_symop_operation_xyz
x,y,z
-x,-y,-z
loop_
_atom_site_type_symbol
_atom_site_label
_atom_site_fract_x
_atom_site_fract_y
_atom_site_fract_z
Si Si1 0.321104 0.444054 0.996604
Si Si2 0.377974 0.672021 0.252891
Si Si3 0.575319 0.095094 0.214813
Si Si4 0.231538 0.797652 0.452137
Si Si5 0.151750 0.917200 0.868341
Si Si6 0.729038 0.915903 0.835778
Si Si7 0.045734 0.205442 0.434291
Si Si8 0.693111 0.679180 0.311812
O O1 0.302538 0.573637 0.093193
O O2 0.251805 0.255948 0.104375
O O3 0.500000 0.500000 0.000000
O O4 0.272651 0.425043 0.805771
O O5 0.479061 0.883527 0.222102
O O6 0.256445 0.668297 0.358646
O O7 0.514038 0.617465 0.320163
O O8 0.723168 0.147921 0.129682
O O9 0.643557 0.155482 0.392517
O O10 0.446749 0.149216 0.132474
O O11 0.064705 0.735879 0.502594
O O12 0.263077 0.983891 0.341654
O O13 0.229071 0.119063 0.778281
O O14 0.004402 0.802978 0.754712
O O15 0.146120 0.936907 0.049928
O O16 0.217491 0.313221 0.512151
O O17 0.000000 0.000000 0.500000
#
# Coordination Sequence:
#
# PCOD9010134 Si02
#       8
#     2   2   2   2   2   2   2   2
#     4   9  18  31  48  76 108 139 170 205 254 311
#     4   9  16  30  51  75 100 130 168 210 250 294
#     4   9  17  30  48  73 104 131 162 209 260 303
#     4  10  20  33  52  81 106 128 167 220 262 295
#     4   8  15  26  45  71  96 127 165 203 248 299
#     4  10  17  29  50  79 104 129 169 218 253 294
#     4   9  17  32  51  72 101 140 170 202 257 313
#     4   8  15  29  48  69  99 138 170 199 246 309
#
# _framework density 25.347246999999999
#
# number of rings (size 3 to 8) (size 9 to 14) (size 15 to 20)
#    0.000    3.000    0.000    3.375    0.000    2.000 
#    0.000    8.750    0.000    0.000    0.000   49.875 
#    0.000    0.000    0.000    0.000    0.000    0.000 
#
# Total GULP energy -89362.016819 kJ/mol
# GULP energy per Si atom -5585.126051 kJ/mol
# Density = 2.528956 g / cm^3
# Si number density = 25.347247 Si / 1000 Ang^3
#
#
#
# Elastic Constant Matrix: (Units=GPa)
#
#
# Indices 1 2 3 4 5 6 
#
# 1 137.4450 26.7143 47.6553 20.6710 -9.0919 -13.1850
# 2 26.7143 67.1112 56.9104 12.8277 -14.6368 -26.7899
# 3 47.6553 56.9104 106.9478 32.2276 19.7335 -13.6911
# 4 20.6710 12.8277 32.2276 41.1404 -4.4774 -9.3536
# 5 -9.0919 -14.6368 19.7335 -4.4774 38.1112 10.5888
# 6 -13.1850 -26.7899 -13.6911 -9.3536 10.5888 24.7423
#
#
#
# Elastic Compliance Matrix: (Units=1/GPa)
#
#
# Indices 1 2 3 4 5 6 
#
# 1 0.011225 0.017467 -0.018339 0.007469 0.016885 0.010344
# 2 0.017467 0.163124 -0.125179 0.072486 0.113631 0.095437
# 3 -0.018339 -0.125179 0.115364 -0.067647 -0.102588 -0.063144
# 4 0.007469 0.072486 -0.067647 0.067695 0.060127 0.044892
# 5 0.016885 0.113631 -0.102588 0.060127 0.121284 0.046092
# 6 0.010344 0.095437 -0.063144 0.044892 0.046092 0.111569
#
#
# Mechanical properties :
#
#
# Convention : Reuss Voigt Hill
#
# Bulk Modulus (GPa) = 26.58704 63.78489 45.18596
# Shear Modulus (GPa) = 5.84865 32.81372 19.33118
#
# Velocity S-wave (km/s) = 1.52066 3.60191 2.76462
# Velocity P-wave (km/s) = 3.68716 6.52054 5.29682
#
# Compressibility (1/GPa) = 0.03761232
#
# Stress axis : x y z
#
# Youngs Moduli (GPa) = 89.08647 6.13030 8.66824
#
# Poissons Ratio (x) = -0.10708 0.15896
# Poissons Ratio (y) = -1.55609 1.08508
# Poissons Ratio (z) = 1.63373 0.76738
#
# Static dielectric constant tensor:
#      x y z
#    x 2.008960 -0.007170 -0.058320 
#    y -0.007170 2.060150 -0.019770 
#    z -0.058320 -0.019770 2.048420 
# 
# From -- ./inp_files/238624.got.cif
#   From: 2010.05.17/outbox.cif.g08.bks.cpg/sg2_120_cif.got.tgz:238624.got - 2010.06.03 11:33:40.
