data_PCOD9010159
_publ_section_title
;
Structure prediction by ZEFSAII (Michael W. Deem and Ramdas Pophale) SiO2 
 PCOD9010159
Probable space group: P -1
;
_chemical_formula_sum "Si O2"
_cell_formula_units_Z 12
_cell_length_a 8.205502
_cell_length_b 11.037387
_cell_length_c 9.128111
_cell_angle_alpha 140.044327
_cell_angle_beta 81.511863
_cell_angle_gamma 93.734108
_cell_volume 523.589732
_symmetry_space_group_name_H-M "P -1"
_symmetry_group_IT_number 2
_symmetry_cell_setting 'triclinic'
loop_
_space_group_symop_operation_xyz
x,y,z
-x,-y,-z
loop_
_atom_site_type_symbol
_atom_site_label
_atom_site_fract_x
_atom_site_fract_y
_atom_site_fract_z
Si Si1 0.992418 0.996853 0.674457
Si Si2 0.005034 0.787370 0.859480
Si Si3 0.374237 0.942262 0.261426
Si Si4 0.661173 0.155854 0.497073
Si Si5 0.741799 0.549821 0.514832
Si Si6 0.530225 0.482293 0.234191
O O1 0.797900 0.981093 0.719511
O O2 0.856691 0.152822 0.435464
O O3 0.000000 0.000000 0.500000
O O4 0.031912 0.184931 0.935538
O O5 0.874461 0.678897 0.684492
O O6 0.177046 0.664905 0.702709
O O7 0.000000 0.000000 0.000000
O O8 0.343655 0.956093 0.452951
O O9 0.542245 0.044257 0.301681
O O10 0.403337 0.717991 0.023412
O O11 0.573011 0.366217 0.712748
O O12 0.675557 0.584679 0.391632
O O13 0.593726 0.564517 0.662898
#
# Coordination Sequence:
#
# PCOD9010159 Si02
#       6
#     2   2   2   2   2   2
#     4  10  21  40  63  90 123 160 206 258 307 365
#     4  11  22  41  63  90 124 164 208 258 310 370
#     4  10  21  40  62  89 126 161 207 260 304 371
#     4  10  22  38  63  91 122 165 207 252 314 369
#     4  10  24  37  61  91 124 161 206 255 309 373
#     4  11  21  40  60  90 125 161 205 255 311 371
#
# _framework density 22.918707999999999
#
# number of rings (size 3 to 8) (size 9 to 14) (size 15 to 20)
#    0.000    1.667    1.667    2.500    2.333    0.000 
#    0.000    4.167    0.000   12.000    0.000    0.000 
#    0.000    0.000    0.000    0.000    0.000    0.000 
#
# Total GULP energy -66898.249370 kJ/mol
# GULP energy per Si atom -5574.854114 kJ/mol
# Density = 2.286654 g / cm^3
# Si number density = 22.918708 Si / 1000 Ang^3
#
#
#
# Elastic Constant Matrix: (Units=GPa)
#
#
# Indices 1 2 3 4 5 6 
#
# 1 159.1873 29.5934 45.6726 15.1330 11.1088 -47.1425
# 2 29.5934 51.4836 13.3690 7.2285 4.3044 -26.1539
# 3 45.6726 13.3690 115.1897 5.4504 7.4752 -13.4134
# 4 15.1330 7.2285 5.4504 34.6198 3.1448 -1.8727
# 5 11.1088 4.3044 7.4752 3.1448 27.5144 0.4222
# 6 -47.1425 -26.1539 -13.4134 -1.8727 0.4222 33.8454
#
#
#
# Elastic Compliance Matrix: (Units=1/GPa)
#
#
# Indices 1 2 3 4 5 6 
#
# 1 0.013110 0.004753 -0.002797 -0.004708 -0.005055 0.020627
# 2 0.004753 0.035421 -0.001369 -0.006845 -0.006815 0.033156
# 3 -0.002797 -0.001369 0.009918 0.000014 -0.001337 -0.001005
# 4 -0.004708 -0.006845 0.000014 0.031873 -0.000521 -0.010071
# 5 -0.005055 -0.006815 -0.001337 -0.000521 0.040080 -0.013366
# 6 0.020627 0.033156 -0.001005 -0.010071 -0.013366 0.083109
#
#
# Mechanical properties :
#
#
# Convention : Reuss Voigt Hill
#
# Bulk Modulus (GPa) = 16.77172 55.90339 36.33756
# Shear Modulus (GPa) = 21.53221 35.01096 28.27158
#
# Velocity S-wave (km/s) = 3.06846 3.91271 3.51602
# Velocity P-wave (km/s) = 4.45956 6.69757 5.68969
#
# Compressibility (1/GPa) = 0.05962416
#
# Stress axis : x y z
#
# Youngs Moduli (GPa) = 76.27946 28.23178 100.82455
#
# Poissons Ratio (x) = -0.13418 0.28199
# Poissons Ratio (y) = -0.36255 0.13798
# Poissons Ratio (z) = 0.21334 0.03864
#
# Static dielectric constant tensor:
#      x y z
#    x 1.939190 -0.012630 0.020150 
#    y -0.012630 1.879240 -0.058170 
#    z 0.020150 -0.058170 1.866370 
# 
# From -- ./inp_files/191140.got.cif
#   From: 2010.05.17/outbox.cif.g08.bks.cpg/sg2_96_cif.got.tgz:191140.got - 2010.06.03 11:33:40.
