data_PCOD9010883
_publ_section_title
;
Structure prediction by ZEFSAII (Michael W. Deem and Ramdas Pophale) SiO2 
 PCOD9010883
Probable space group: P -1
;
_chemical_formula_sum "Si O2"
_cell_formula_units_Z 12
_cell_length_a 17.223344
_cell_length_b 5.694741
_cell_length_c 5.069890
_cell_angle_alpha 81.632930
_cell_angle_beta 90.940903
_cell_angle_gamma 73.210807
_cell_volume 470.105892
_symmetry_space_group_name_H-M "P -1"
_symmetry_group_IT_number 2
_symmetry_cell_setting 'triclinic'
loop_
_space_group_symop_operation_xyz
x,y,z
-x,-y,-z
loop_
_atom_site_type_symbol
_atom_site_label
_atom_site_fract_x
_atom_site_fract_y
_atom_site_fract_z
Si Si1 0.936969 0.828248 0.206819
Si Si2 0.545188 0.213825 0.462591
Si Si3 0.227949 0.209370 0.850393
Si Si4 0.098014 0.834789 0.351711
Si Si5 0.642331 0.243843 0.945802
Si Si6 0.733823 0.556247 0.670550
O O1 0.916618 0.059080 0.372363
O O2 0.864751 0.707076 0.264197
O O3 0.924262 0.935653 0.893218
O O4 0.031432 0.694376 0.289640
O O5 0.500000 0.500000 0.500000
O O6 0.616594 0.128196 0.699400
O O7 0.500000 0.000000 0.500000
O O8 0.578593 0.244760 0.169286
O O9 0.281686 0.312057 0.633363
O O10 0.232077 0.300294 0.129952
O O11 0.270917 0.916335 0.906575
O O12 0.191229 0.687253 0.343279
O O13 0.657001 0.495868 0.804365
#
# Coordination Sequence:
#
# PCOD9010883 Si02
#       6
#     2   2   2   2   2   2
#     4  10  21  40  64  94 141 192 242 299 358 422
#     4  12  30  54  84 114 153 198 243 304 380 464
#     4  12  26  42  72 106 142 191 244 299 365 430
#     4  10  21  40  64  94 141 192 242 299 358 422
#     4  12  28  50  77 108 154 182 240 302 373 442
#     4  12  26  42  72 106 142 191 244 299 365 430
#
# _framework density 25.526164999999999
#
# number of rings (size 3 to 8) (size 9 to 14) (size 15 to 20)
#    0.000    0.667    1.667    5.000    9.333    1.333 
#    0.000    0.000    0.000    0.000    0.000    0.000 
#    0.000    0.000    0.000    0.000    0.000    0.000 
#
# Total GULP energy -67172.127298 kJ/mol
# GULP energy per Si atom -5597.677275 kJ/mol
# Density = 2.546807 g / cm^3
# Si number density = 25.526165 Si / 1000 Ang^3
#
#
#
# Elastic Constant Matrix: (Units=GPa)
#
#
# Indices 1 2 3 4 5 6 
#
# 1 99.6095 24.9246 22.3248 -10.0419 -6.9819 22.3309
# 2 24.9246 61.5310 17.8224 -7.1597 -6.1208 -0.8183
# 3 22.3248 17.8224 127.0257 -2.5305 -22.7821 -8.4960
# 4 -10.0419 -7.1597 -2.5305 36.7550 4.6697 3.2399
# 5 -6.9819 -6.1208 -22.7821 4.6697 60.0517 -3.4361
# 6 22.3309 -0.8183 -8.4960 3.2399 -3.4361 27.6226
#
#
#
# Elastic Compliance Matrix: (Units=1/GPa)
#
#
# Indices 1 2 3 4 5 6 
#
# 1 0.015637 -0.005221 -0.003079 0.004446 -0.001051 -0.014396
# 2 -0.005221 0.019085 -0.001263 0.001700 0.000974 0.004320
# 3 -0.003079 -0.001263 0.009614 -0.001415 0.003615 0.006024
# 4 0.004446 0.001700 -0.001415 0.029672 -0.002600 -0.007783
# 5 -0.001051 0.000974 0.003615 -0.002600 0.018466 0.004593
# 6 -0.014396 0.004320 0.006024 -0.007783 0.004593 0.051305
#
#
# Mechanical properties :
#
#
# Convention : Reuss Voigt Hill
#
# Bulk Modulus (GPa) = 39.66494 46.47886 43.07190
# Shear Modulus (GPa) = 29.18735 39.75883 34.47309
#
# Velocity S-wave (km/s) = 3.38513 3.95089 3.67890
# Velocity P-wave (km/s) = 5.55441 6.24984 5.91236
#
# Compressibility (1/GPa) = 0.02521118
#
# Stress axis : x y z
#
# Youngs Moduli (GPa) = 63.94912 52.39774 104.01758
#
# Poissons Ratio (x) = 0.27359 0.32022
# Poissons Ratio (y) = 0.33390 0.13132
# Poissons Ratio (z) = 0.19687 0.06615
#
# Static dielectric constant tensor:
#      x y z
#    x 2.089100 -0.002950 -0.010400 
#    y -0.002950 2.042540 -0.065350 
#    z -0.010400 -0.065350 1.948070 
# 
# From -- ./inp_files/85954.got.cif
#   From: 2010.05.17/outbox.cif.g08.bks.cpg/sg2_43_cif.got.tgz:85954.got - 2010.06.03 11:33:40.
