data_PCOD9010033
_publ_section_title
;
Structure prediction by ZEFSAII (Michael W. Deem and Ramdas Pophale) SiO2 
 PCOD9010033
Probable space group: P -1
;
_chemical_formula_sum "Si O2"
_cell_formula_units_Z 16
_cell_length_a 16.341283
_cell_length_b 16.254288
_cell_length_c 7.682890
_cell_angle_alpha 101.906942
_cell_angle_beta 62.985611
_cell_angle_gamma 154.355345
_cell_volume 668.754564
_symmetry_space_group_name_H-M "P -1"
_symmetry_group_IT_number 2
_symmetry_cell_setting 'triclinic'
loop_
_space_group_symop_operation_xyz
x,y,z
-x,-y,-z
loop_
_atom_site_type_symbol
_atom_site_label
_atom_site_fract_x
_atom_site_fract_y
_atom_site_fract_z
Si Si1 0.340081 0.926969 0.001658
Si Si2 0.775451 0.407877 0.808353
Si Si3 0.421683 0.730697 0.671000
Si Si4 0.757428 0.259450 0.315862
Si Si5 0.144293 0.185032 0.820849
Si Si6 0.525036 0.394521 0.327000
Si Si7 0.918265 0.026437 0.627085
Si Si8 0.045481 0.779761 0.509993
O O1 0.156992 0.823258 0.256656
O O2 0.201414 0.755600 0.913834
O O3 0.500000 0.000000 0.000000
O O4 0.551918 0.168856 0.829390
O O5 0.030750 0.576217 0.676847
O O6 0.855432 0.560350 0.699366
O O7 0.674451 0.333718 0.069300
O O8 0.291841 0.685225 0.650631
O O9 0.373686 0.590953 0.636441
O O10 0.713968 0.997491 0.505151
O O11 0.500000 0.000000 0.500000
O O12 0.342974 0.297174 0.575149
O O13 0.287563 0.384588 0.850799
O O14 0.970288 0.081282 0.802199
O O15 0.000000 0.000000 0.000000
O O16 0.361956 0.209462 0.260863
O O17 0.043297 0.204818 0.468724
O O18 0.000000 0.000000 0.500000
#
# Coordination Sequence:
#
# PCOD9010033 Si02
#       8
#     2   2   2   2   2   2   2   2
#     4  11  23  42  60  89 128 159 211 266 301 369
#     4  11  23  42  65  87 123 171 207 252 320 359
#     4  10  21  40  61  92 126 160 213 257 301 373
#     4  12  23  43  62  91 125 168 213 258 311 367
#     4  10  21  41  66  94 122 160 207 249 316 375
#     4   9  21  41  62  89 130 160 197 264 305 361
#     4   9  20  41  64  90 125 160 198 253 309 368
#     4  10  21  42  63  91 127 161 210 261 307 372
#
# _framework density 23.925070999999999
#
# number of rings (size 3 to 8) (size 9 to 14) (size 15 to 20)
#    0.000    1.750    3.750    0.375    0.000    6.500 
#    4.500    8.750    0.000    0.000    0.000    0.000 
#    0.000    0.000    0.000    0.000    0.000    0.000 
#
# Total GULP energy -89444.719325 kJ/mol
# GULP energy per Si atom -5590.294958 kJ/mol
# Density = 2.387062 g / cm^3
# Si number density = 23.925071 Si / 1000 Ang^3
#
#
#
# Elastic Constant Matrix: (Units=GPa)
#
#
# Indices 1 2 3 4 5 6 
#
# 1 161.6021 38.5336 25.2632 -22.8968 28.4535 -27.4770
# 2 38.5336 95.2840 15.2774 -21.0536 17.3149 -12.0502
# 3 25.2632 15.2774 70.9449 -29.1558 25.2786 -11.9598
# 4 -22.8968 -21.0536 -29.1558 40.6979 -16.4248 13.3858
# 5 28.4535 17.3149 25.2786 -16.4248 43.0530 -10.9502
# 6 -27.4770 -12.0502 -11.9598 13.3858 -10.9502 30.7795
#
#
#
# Elastic Compliance Matrix: (Units=1/GPa)
#
#
# Indices 1 2 3 4 5 6 
#
# 1 0.008166 -0.001966 -0.000413 0.000420 -0.002894 0.005147
# 2 -0.001966 0.012746 0.000950 0.005042 -0.002311 0.000589
# 3 -0.000413 0.000950 0.022282 0.012844 -0.008257 0.000138
# 4 0.000420 0.005042 0.012844 0.041069 0.003458 -0.009290
# 5 -0.002894 -0.002311 -0.008257 0.003458 0.033151 0.003593
# 6 0.005147 0.000589 0.000138 -0.009290 0.003593 0.042687
#
#
# Mechanical properties :
#
#
# Convention : Reuss Voigt Hill
#
# Bulk Modulus (GPa) = 24.79187 53.99770 39.39479
# Shear Modulus (GPa) = 28.34425 39.48985 33.91705
#
# Velocity S-wave (km/s) = 3.44569 4.06712 3.76924
# Velocity P-wave (km/s) = 5.12008 6.68385 5.95353
#
# Compressibility (1/GPa) = 0.04033580
#
# Stress axis : x y z
#
# Youngs Moduli (GPa) = 122.46376 78.45384 44.88016
#
# Poissons Ratio (x) = 0.15427 0.01852
# Poissons Ratio (y) = 0.24081 -0.04265
# Poissons Ratio (z) = 0.05055 -0.07455
#
# Static dielectric constant tensor:
#      x y z
#    x 1.980500 0.019900 -0.024200 
#    y 0.019900 2.002030 0.017860 
#    z -0.024200 0.017860 1.950500 
# 
# From -- ./inp_files/315249.got.cif
#   From: 2010.05.17/outbox.cif.g08.bks.cpg/sg2_158_cif.got.tgz:315249.got - 2010.06.03 11:33:40.
