data_PCOD9010323
_publ_section_title
;
Structure prediction by ZEFSAII (Michael W. Deem and Ramdas Pophale) SiO2 
 PCOD9010323
Probable space group: P -1
;
_chemical_formula_sum "Si O2"
_cell_formula_units_Z 16
_cell_length_a 11.854074
_cell_length_b 9.143153
_cell_length_c 12.497268
_cell_angle_alpha 53.665073
_cell_angle_beta 123.691111
_cell_angle_gamma 136.295169
_cell_volume 734.222147
_symmetry_space_group_name_H-M "P -1"
_symmetry_group_IT_number 2
_symmetry_cell_setting 'triclinic'
loop_
_space_group_symop_operation_xyz
x,y,z
-x,-y,-z
loop_
_atom_site_type_symbol
_atom_site_label
_atom_site_fract_x
_atom_site_fract_y
_atom_site_fract_z
Si Si1 0.710826 0.846641 0.503746
Si Si2 0.470581 0.927572 0.743964
Si Si3 0.556010 0.605558 0.317429
Si Si4 0.470263 0.413312 0.143464
Si Si5 0.708927 0.307134 0.838247
Si Si6 0.078861 0.202701 0.038452
Si Si7 0.981922 0.834494 0.734099
Si Si8 0.801245 0.308463 0.124439
O O1 0.685632 0.719851 0.432826
O O2 0.582275 0.648584 0.604998
O O3 0.899596 0.952302 0.594000
O O4 0.638969 0.993775 0.395356
O O5 0.495357 0.773358 0.750991
O O6 0.364306 0.784714 0.854443
O O7 0.655440 0.132597 0.791521
O O8 0.592996 0.596155 0.217754
O O9 0.465549 0.728088 0.216267
O O10 0.276864 0.311750 0.110885
O O11 0.500000 0.500000 0.000000
O O12 0.837968 0.565830 0.764795
O O13 0.768102 0.274379 0.995256
O O14 0.992864 0.118584 0.145979
O O15 0.080759 0.420021 0.914274
O O16 0.000000 0.000000 0.000000
O O17 0.128395 0.837607 0.751587
#
# Coordination Sequence:
#
# PCOD9010323 Si02
#       8
#     2   2   2   2   2   2   2   2
#     4   9  19  39  59  87 115 157 212 231 286 347
#     4  11  23  33  59  91 121 153 191 248 300 349
#     4   9  17  37  62  84 120 153 194 254 279 350
#     4  12  22  39  61  91 126 149 190 254 314 343
#     4   9  17  36  58  88 109 149 205 244 293 336
#     4  11  23  41  58  89 122 158 197 243 304 361
#     4  10  21  40  63  83 116 163 201 246 280 355
#     4  11  21  38  57  86 123 152 201 248 294 345
#
# _framework density 21.791768999999999
#
# number of rings (size 3 to 8) (size 9 to 14) (size 15 to 20)
#    0.000    1.750    5.000    2.625    3.500    2.000 
#    0.000    0.000    0.000    1.500    0.000    0.000 
#    0.000    0.000    0.000    0.000    0.000    0.000 
#
# Total GULP energy -89247.246720 kJ/mol
# GULP energy per Si atom -5577.952920 kJ/mol
# Density = 2.174217 g / cm^3
# Si number density = 21.791769 Si / 1000 Ang^3
#
#
#
# Elastic Constant Matrix: (Units=GPa)
#
#
# Indices 1 2 3 4 5 6 
#
# 1 79.7588 11.9125 13.4574 -0.2130 7.5908 -13.8310
# 2 11.9125 53.8948 19.8261 5.4200 -7.1186 -13.2868
# 3 13.4574 19.8261 85.2479 -0.7463 6.5571 -11.4869
# 4 -0.2130 5.4200 -0.7463 25.6202 -11.8381 -2.9463
# 5 7.5908 -7.1186 6.5571 -11.8381 32.8506 -1.3814
# 6 -13.8310 -13.2868 -11.4869 -2.9463 -1.3814 33.0135
#
#
#
# Elastic Compliance Matrix: (Units=1/GPa)
#
#
# Indices 1 2 3 4 5 6 
#
# 1 0.014126 -0.002090 -0.000858 -0.000586 -0.003565 0.004577
# 2 -0.002090 0.023449 -0.004666 -0.001393 0.006291 0.007077
# 3 -0.000858 -0.004666 0.013527 0.000078 -0.003387 0.002334
# 4 -0.000586 -0.001393 0.000078 0.047757 0.017204 0.004203
# 5 -0.003565 0.006291 -0.003387 0.017204 0.039632 0.003054
# 6 0.004577 0.007077 0.002334 0.004203 0.003054 0.036371
#
#
# Mechanical properties :
#
#
# Convention : Reuss Voigt Hill
#
# Bulk Modulus (GPa) = 27.87593 34.36596 31.12094
# Shear Modulus (GPa) = 24.74655 29.87724 27.31190
#
# Velocity S-wave (km/s) = 3.37351 3.70676 3.54406
# Velocity P-wave (km/s) = 5.29092 5.84162 5.57308
#
# Compressibility (1/GPa) = 0.03587325
#
# Stress axis : x y z
#
# Youngs Moduli (GPa) = 70.79086 42.64585 73.92695
#
# Poissons Ratio (x) = 0.08914 0.06344
# Poissons Ratio (y) = 0.14797 0.34495
# Poissons Ratio (z) = 0.06075 0.19899
#
# Static dielectric constant tensor:
#      x y z
#    x 1.844180 0.036770 0.014420 
#    y 0.036770 1.821330 -0.012850 
#    z 0.014420 -0.012850 1.842570 
# 
# From -- ./inp_files/305460.got.cif
#   From: 2010.05.17/outbox.cif.g08.bks.cpg/sg2_153_cif.got.tgz:305460.got - 2010.06.03 11:33:40.
