data_PCOD9010768
_publ_section_title
;
Structure prediction by ZEFSAII (Michael W. Deem and Ramdas Pophale) SiO2 
 PCOD9010768
Probable space group: P -1
;
_chemical_formula_sum "Si O2"
_cell_formula_units_Z 16
_cell_length_a 10.269916
_cell_length_b 14.422413
_cell_length_c 7.858942
_cell_angle_alpha 67.481292
_cell_angle_beta 75.893433
_cell_angle_gamma 42.738784
_cell_volume 728.442002
_symmetry_space_group_name_H-M "P -1"
_symmetry_group_IT_number 2
_symmetry_cell_setting 'triclinic'
loop_
_space_group_symop_operation_xyz
x,y,z
-x,-y,-z
loop_
_atom_site_type_symbol
_atom_site_label
_atom_site_fract_x
_atom_site_fract_y
_atom_site_fract_z
Si Si1 0.356867 0.144779 0.146375
Si Si2 0.105515 0.840983 0.014234
Si Si3 0.911726 0.675939 0.575256
Si Si4 0.426950 0.754629 0.406558
Si Si5 0.837840 0.055151 0.373769
Si Si6 0.294701 0.991662 0.051212
Si Si7 0.159101 0.730730 0.412126
Si Si8 0.184488 0.353039 0.730029
O O1 0.248093 0.211119 0.312391
O O2 0.367913 0.026591 0.150725
O O3 0.575781 0.066976 0.116473
O O4 0.247645 0.265319 0.945866
O O5 0.204368 0.832615 0.822655
O O6 0.927239 0.867483 0.998310
O O7 0.217238 0.718619 0.205804
O O8 0.000000 0.000000 0.000000
O O9 0.839931 0.708662 0.379423
O O10 0.090488 0.658281 0.539811
O O11 0.993065 0.520978 0.695891
O O12 0.355950 0.853931 0.524091
O O13 0.321612 0.865887 0.203774
O O14 0.328824 0.696957 0.484657
O O15 0.647779 0.658451 0.370604
O O16 0.000000 0.000000 0.500000
O O17 0.952209 0.900313 0.369067
#
# Coordination Sequence:
#
# PCOD9010768 Si02
#       8
#     2   2   2   2   2   2   2   2
#     4  10  22  37  63  84 115 152 191 237 289 345
#     4  10  17  29  51  82 120 146 171 218 284 349
#     4  11  23  41  62  80 110 160 202 237 284 334
#     4  10  19  36  56  83 118 143 179 238 288 337
#     4   9  16  29  52  84 115 145 173 217 294 354
#     4  10  18  34  56  92 122 141 181 237 293 349
#     4  10  20  33  56  87 111 148 185 229 289 346
#     4  10  24  43  58  80 114 153 205 248 274 326
#
# _framework density 21.964687000000001
#
# number of rings (size 3 to 8) (size 9 to 14) (size 15 to 20)
#    0.000    2.000    3.750    1.875    1.750    2.500 
#    0.000    6.875    0.000    0.750    0.000    0.000 
#    0.000    0.000    0.000    0.000    0.000    0.000 
#
# Total GULP energy -89136.755773 kJ/mol
# GULP energy per Si atom -5571.047236 kJ/mol
# Density = 2.191469 g / cm^3
# Si number density = 21.964687 Si / 1000 Ang^3
#
#
#
# Elastic Constant Matrix: (Units=GPa)
#
#
# Indices 1 2 3 4 5 6 
#
# 1 69.7734 1.7759 6.0806 11.3177 -16.0317 8.9997
# 2 1.7759 44.4216 17.0210 10.5260 -8.7619 5.1590
# 3 6.0806 17.0210 77.2791 16.0214 -22.1975 9.7222
# 4 11.3177 10.5260 16.0214 26.5855 -3.7304 0.1369
# 5 -16.0317 -8.7619 -22.1975 -3.7304 27.9754 -2.6092
# 6 8.9997 5.1590 9.7222 0.1369 -2.6092 17.8460
#
#
#
# Elastic Compliance Matrix: (Units=1/GPa)
#
#
# Indices 1 2 3 4 5 6 
#
# 1 0.020694 0.004160 0.005781 -0.011769 0.015013 -0.012502
# 2 0.004160 0.027882 -0.000708 -0.011179 0.008273 -0.008477
# 3 0.005781 -0.000708 0.021862 -0.012822 0.017613 -0.011947
# 4 -0.011769 -0.011179 -0.012822 0.053016 -0.012046 0.013984
# 5 0.015013 0.008273 0.017613 -0.012046 0.058289 -0.010943
# 6 -0.012502 -0.008477 -0.011947 0.013984 -0.010943 0.069591
#
#
# Mechanical properties :
#
#
# Convention : Reuss Voigt Hill
#
# Bulk Modulus (GPa) = 11.24836 26.80323 19.02580
# Shear Modulus (GPa) = 19.04747 25.58782 22.31765
#
# Velocity S-wave (km/s) = 2.94800 3.41684 3.19104
# Velocity P-wave (km/s) = 4.08899 5.27217 4.71782
#
# Compressibility (1/GPa) = 0.08890182
#
# Stress axis : x y z
#
# Youngs Moduli (GPa) = 48.32432 35.86569 45.74214
#
# Poissons Ratio (x) = -0.14919 -0.26442
# Poissons Ratio (y) = -0.20101 0.03238
# Poissons Ratio (z) = -0.27934 0.02539
#
# Static dielectric constant tensor:
#      x y z
#    x 1.929470 -0.003630 0.015130 
#    y -0.003630 1.825860 -0.001740 
#    z 0.015130 -0.001740 1.888920 
# 
# From -- ./inp_files/269941.got.cif
#   From: 2010.05.17/outbox.cif.g08.bks.cpg/sg2_135_cif.got.tgz:269941.got - 2010.06.03 11:33:40.
