data_PCOD9010818
_publ_section_title
;
Structure prediction by ZEFSAII (Michael W. Deem and Ramdas Pophale) SiO2 
 PCOD9010818
Probable space group: P -1
;
_chemical_formula_sum "Si O2"
_cell_formula_units_Z 16
_cell_length_a 11.227558
_cell_length_b 9.419768
_cell_length_c 8.758900
_cell_angle_alpha 78.707125
_cell_angle_beta 121.650932
_cell_angle_gamma 65.496921
_cell_volume 606.777747
_symmetry_space_group_name_H-M "P -1"
_symmetry_group_IT_number 2
_symmetry_cell_setting 'triclinic'
loop_
_space_group_symop_operation_xyz
x,y,z
-x,-y,-z
loop_
_atom_site_type_symbol
_atom_site_label
_atom_site_fract_x
_atom_site_fract_y
_atom_site_fract_z
Si Si1 0.250790 0.151150 0.630179
Si Si2 0.254629 0.957359 0.926949
Si Si3 0.926483 0.965119 0.687255
Si Si4 0.600089 0.219000 0.614547
Si Si5 0.593221 0.816582 0.778656
Si Si6 0.239174 0.493826 0.483758
Si Si7 0.405748 0.410752 0.919818
Si Si8 0.030398 0.317231 0.998227
O O1 0.148681 0.087329 0.487745
O O2 0.206681 0.341034 0.511501
O O3 0.231174 0.131611 0.800556
O O4 0.452135 0.998597 0.741254
O O5 0.086269 0.969976 0.758519
O O6 0.286812 0.899063 0.136530
O O7 0.438559 0.785395 0.009811
O O8 0.759932 0.157082 0.615034
O O9 0.004572 0.791809 0.888823
O O10 0.493820 0.178032 0.439539
O O11 0.427026 0.407415 0.539440
O O12 0.648076 0.640482 0.952884
O O13 0.760526 0.805724 0.858876
O O14 0.257674 0.529787 0.664722
O O15 0.082015 0.642702 0.236548
O O16 0.500000 0.500000 0.000000
O O17 0.000000 0.500000 0.000000
#
# Coordination Sequence:
#
# PCOD9010818 Si02
#       8
#     2   2   2   2   2   2   2   2
#     4  10  21  41  66  94 130 167 217 266 321 384
#     4  10  23  40  66  97 126 174 218 268 318 380
#     4  11  22  39  65  95 134 168 212 268 321 384
#     4  10  21  40  64  93 125 166 219 262 323 374
#     4  10  22  41  64  93 128 172 212 267 323 375
#     4  11  23  42  67  98 127 172 215 266 324 381
#     4  10  25  43  64  92 134 174 214 264 325 390
#     4  12  23  38  63  99 131 167 210 266 318 381
#
# _framework density 26.368798999999999
#
# number of rings (size 3 to 8) (size 9 to 14) (size 15 to 20)
#    0.000    1.500    2.500    1.500    1.750    9.000 
#    0.000    5.000    0.000    0.000    0.000    0.000 
#    0.000    0.000    0.000    0.000    0.000    0.000 
#
# Total GULP energy -89590.287339 kJ/mol
# GULP energy per Si atom -5599.392959 kJ/mol
# Density = 2.630878 g / cm^3
# Si number density = 26.368799 Si / 1000 Ang^3
#
#
#
# Elastic Constant Matrix: (Units=GPa)
#
#
# Indices 1 2 3 4 5 6 
#
# 1 95.4030 -5.9821 48.1561 -0.0063 -14.4082 21.5414
# 2 -5.9821 45.9832 13.3982 15.3615 -6.3340 6.8077
# 3 48.1561 13.3982 175.6361 19.3075 3.6907 7.7576
# 4 -0.0063 15.3615 19.3075 36.1878 3.6159 0.3821
# 5 -14.4082 -6.3340 3.6907 3.6159 46.5185 0.3093
# 6 21.5414 6.8077 7.7576 0.3821 0.3093 34.1553
#
#
#
# Elastic Compliance Matrix: (Units=1/GPa)
#
#
# Indices 1 2 3 4 5 6 
#
# 1 0.016595 0.006217 -0.004609 -0.000711 0.006479 -0.010709
# 2 0.006217 0.029570 -0.002397 -0.011887 0.007127 -0.009202
# 3 -0.004609 -0.002397 0.007409 -0.002741 -0.002140 0.001752
# 4 -0.000711 -0.011887 -0.002741 0.034542 -0.004327 0.003093
# 5 0.006479 0.007127 -0.002140 -0.004327 0.025015 -0.005199
# 6 -0.010709 -0.009202 0.001752 0.003093 -0.005199 0.037481
#
#
# Mechanical properties :
#
#
# Convention : Reuss Voigt Hill
#
# Bulk Modulus (GPa) = 19.23230 47.57407 33.40318
# Shear Modulus (GPa) = 29.49508 40.80233 35.14871
#
# Velocity S-wave (km/s) = 3.34812 3.93793 3.65494
# Velocity P-wave (km/s) = 4.71762 6.22554 5.52328
#
# Compressibility (1/GPa) = 0.05199586
#
# Stress axis : x y z
#
# Youngs Moduli (GPa) = 60.26021 33.81861 134.96936
#
# Poissons Ratio (x) = -0.21026 0.62209
# Poissons Ratio (y) = -0.37466 0.32352
# Poissons Ratio (z) = 0.27775 0.08106
#
# Static dielectric constant tensor:
#      x y z
#    x 2.015120 -0.042670 -0.029410 
#    y -0.042670 2.181720 -0.012890 
#    z -0.029410 -0.012890 2.060950 
# 
# From -- ./inp_files/257650.got.cif
#   From: 2010.05.17/outbox.cif.g08.bks.cpg/sg2_129_cif.got.tgz:257650.got - 2010.06.03 11:33:40.
