data_PCOD9010827
_publ_section_title
;
Structure prediction by ZEFSAII (Michael W. Deem and Ramdas Pophale) SiO2 
 PCOD9010827
Probable space group: P -1
;
_chemical_formula_sum "Si O2"
_cell_formula_units_Z 15
_cell_length_a 11.483496
_cell_length_b 17.111113
_cell_length_c 11.797359
_cell_angle_alpha 27.174218
_cell_angle_beta 53.914255
_cell_angle_gamma 36.936003
_cell_volume 569.770409
_symmetry_space_group_name_H-M "P -1"
_symmetry_group_IT_number 2
_symmetry_cell_setting 'triclinic'
loop_
_space_group_symop_operation_xyz
x,y,z
-x,-y,-z
loop_
_atom_site_type_symbol
_atom_site_label
_atom_site_fract_x
_atom_site_fract_y
_atom_site_fract_z
Si Si1 0.500000 0.000000 0.000000
Si Si2 0.927063 0.836175 0.675793
Si Si3 0.253380 0.541163 0.670958
Si Si4 0.192331 0.663719 0.946050
Si Si5 0.411290 0.905976 0.620810
Si Si6 0.726699 0.092157 0.896363
Si Si7 0.784243 0.605886 0.538026
Si Si8 0.103600 0.209147 0.603949
O O1 0.336746 0.991442 0.053733
O O2 0.592709 0.793465 0.316748
O O3 0.852993 0.097949 0.358512
O O4 0.718867 0.923712 0.637405
O O5 0.130029 0.615678 0.762205
O O6 0.003480 0.740872 0.881440
O O7 0.506501 0.283422 0.852175
O O8 0.234165 0.759287 0.372267
O O9 0.132493 0.547100 0.629792
O O10 0.418397 0.394640 0.112641
O O11 0.187669 0.606553 0.151416
O O12 0.500000 0.000000 0.500000
O O13 0.232042 0.011079 0.681644
O O14 0.905927 0.896055 0.142339
O O15 0.770695 0.735110 0.493256
O O16 0.000000 0.500000 0.500000
#
# Coordination Sequence:
#
# PCOD9010827 Si02
#       8
#     1   2   2   2   2   2   2   2
#     4  10  24  42  62  94 130 170 220 268 330 394
#     4  10  25  44  68  99 133 179 223 273 329 396
#     4  10  21  41  63  95 128 172 215 268 324 390
#     4  11  24  46  67  97 133 178 222 274 331 395
#     4  11  22  44  66  99 130 175 225 277 331 391
#     4  10  21  40  64  93 129 172 213 269 329 388
#     4  11  24  42  66  98 131 171 217 273 334 394
#     4  10  21  40  64  93 128 166 220 268 324 391
#
# _framework density 26.326395999999999
#
# number of rings (size 3 to 8) (size 9 to 14) (size 15 to 20)
#    0.000    1.600    1.333    2.400    3.733    1.600 
#   16.800    0.000    0.000    0.000    0.000    0.000 
#    0.000    0.000    0.000    0.000    0.000    0.000 
#
# Total GULP energy -83707.674221 kJ/mol
# GULP energy per Si atom -5580.511615 kJ/mol
# Density = 2.626648 g / cm^3
# Si number density = 26.326396 Si / 1000 Ang^3
#
#
#
# Elastic Constant Matrix: (Units=GPa)
#
#
# Indices 1 2 3 4 5 6 
#
# 1 109.3060 -4.0619 23.3921 7.2216 22.3722 -0.3613
# 2 -4.0619 108.3739 12.3156 -9.4351 7.1183 12.6006
# 3 23.3921 12.3156 133.5470 17.2808 27.7500 8.7310
# 4 7.2216 -9.4351 17.2808 28.9568 4.9966 1.2343
# 5 22.3722 7.1183 27.7500 4.9966 59.3098 3.0454
# 6 -0.3613 12.6006 8.7310 1.2343 3.0454 26.7208
#
#
#
# Elastic Compliance Matrix: (Units=1/GPa)
#
#
# Indices 1 2 3 4 5 6 
#
# 1 0.010154 0.000536 -0.001020 -0.001199 -0.003350 0.000655
# 2 0.000536 0.010345 -0.001078 0.004259 -0.001062 -0.004594
# 3 -0.001020 -0.001078 0.009213 -0.004947 -0.003282 -0.001913
# 4 -0.001199 0.004259 -0.004947 0.039429 -0.000957 -0.002120
# 5 -0.003350 -0.001062 -0.003282 -0.000957 0.019904 -0.000696
# 6 0.000655 -0.004594 -0.001913 -0.002120 -0.000696 0.040402
#
#
# Mechanical properties :
#
#
# Convention : Reuss Voigt Hill
#
# Bulk Modulus (GPa) = 37.61002 46.05762 41.83382
# Shear Modulus (GPa) = 35.35266 44.30289 39.82777
#
# Velocity S-wave (km/s) = 3.66848 4.10668 3.89375
# Velocity P-wave (km/s) = 5.67985 6.32608 6.01166
#
# Compressibility (1/GPa) = 0.02658866
#
# Stress axis : x y z
#
# Youngs Moduli (GPa) = 98.48561 96.66797 108.54039
#
# Poissons Ratio (x) = -0.05181 0.11066
# Poissons Ratio (y) = -0.05278 0.11700
# Poissons Ratio (z) = 0.10041 0.10420
#
# Static dielectric constant tensor:
#      x y z
#    x 2.082930 0.062290 -0.043020 
#    y 0.062290 2.164760 -0.094550 
#    z -0.043020 -0.094550 2.094550 
# 
# From -- ./inp_files/436354.got.cif
#   From: 2010.05.17/outbox.cif.g08.bks.cpg/sg2_219_cif.got.tgz:436354.got - 2010.06.03 11:33:40.
