data_PCOD9010980
_publ_section_title
;
Structure prediction by ZEFSAII (Michael W. Deem and Ramdas Pophale) SiO2 
 PCOD9010980
Probable space group: P -1
;
_chemical_formula_sum "Si O2"
_cell_formula_units_Z 16
_cell_length_a 7.166351
_cell_length_b 17.260460
_cell_length_c 10.689501
_cell_angle_alpha 51.784803
_cell_angle_beta 94.685991
_cell_angle_gamma 129.080629
_cell_volume 695.823018
_symmetry_space_group_name_H-M "P -1"
_symmetry_group_IT_number 2
_symmetry_cell_setting 'triclinic'
loop_
_space_group_symop_operation_xyz
x,y,z
-x,-y,-z
loop_
_atom_site_type_symbol
_atom_site_label
_atom_site_fract_x
_atom_site_fract_y
_atom_site_fract_z
Si Si1 0.881906 0.101660 0.530410
Si Si2 0.566779 0.637346 0.824876
Si Si3 0.092850 0.479974 0.775509
Si Si4 0.174841 0.726205 0.495200
Si Si5 0.259161 0.134710 0.720581
Si Si6 0.219272 0.195781 0.922487
Si Si7 0.809439 0.610702 0.351545
Si Si8 0.435592 0.763072 0.874084
O O1 0.106867 0.208297 0.326730
O O2 0.061439 0.119020 0.633062
O O3 0.799749 0.176860 0.501262
O O4 0.618519 0.926583 0.670059
O O5 0.403780 0.583188 0.739143
O O6 0.438657 0.674004 0.866268
O O7 0.500000 0.500000 0.000000
O O8 0.018301 0.566910 0.693619
O O9 0.098806 0.448117 0.664268
O O10 0.875553 0.337354 0.994234
O O11 0.474222 0.802872 0.396050
O O12 0.017015 0.703449 0.386415
O O13 0.334245 0.223747 0.760878
O O14 0.079456 0.972017 0.920040
O O15 0.177718 0.294762 0.840706
O O16 0.410590 0.218420 0.012007
O O17 0.500000 0.500000 0.500000
#
# Coordination Sequence:
#
# PCOD9010980 Si02
#       8
#     2   2   2   2   2   2   2   2
#     4  11  24  46  71 103 136 179 228 283 350 402
#     4  12  25  49  72  94 137 184 229 286 347 399
#     4  12  25  43  67 102 136 177 239 280 335 414
#     4  12  23  41  71  99 138 178 228 273 346 407
#     4  10  21  41  66  99 138 178 216 281 336 412
#     4  10  21  40  64  98 142 174 220 274 346 395
#     4  12  23  38  66 101 142 184 225 277 344 407
#     4  11  25  44  69 101 138 180 231 287 334 401
#
# _framework density 22.994351000000002
#
# number of rings (size 3 to 8) (size 9 to 14) (size 15 to 20)
#    0.000    0.750    2.500    5.625    1.750    0.500 
#    0.000    1.250    0.000    0.000    0.000    0.000 
#    0.000    0.000    0.000    0.000    0.000    0.000 
#
# Total GULP energy -89507.882495 kJ/mol
# GULP energy per Si atom -5594.242656 kJ/mol
# Density = 2.294202 g / cm^3
# Si number density = 22.994351 Si / 1000 Ang^3
#
#
#
# Elastic Constant Matrix: (Units=GPa)
#
#
# Indices 1 2 3 4 5 6 
#
# 1 78.7469 13.2126 29.8650 -13.9332 2.1560 -15.9246
# 2 13.2126 55.0890 9.9691 -13.6208 -6.9459 -18.5371
# 3 29.8650 9.9691 118.4609 -34.0807 -8.0197 -16.0780
# 4 -13.9332 -13.6208 -34.0807 36.7108 -5.4720 1.5705
# 5 2.1560 -6.9459 -8.0197 -5.4720 32.9387 -4.8271
# 6 -15.9246 -18.5371 -16.0780 1.5705 -4.8271 36.3844
#
#
#
# Elastic Compliance Matrix: (Units=1/GPa)
#
#
# Indices 1 2 3 4 5 6 
#
# 1 0.015277 -0.000826 -0.002214 0.003152 -0.000443 0.005092
# 2 -0.000826 0.029451 0.006186 0.017564 0.013384 0.018394
# 3 -0.002214 0.006186 0.015113 0.016461 0.009237 0.009376
# 4 0.003152 0.017564 0.016461 0.052274 0.018804 0.017840
# 5 -0.000443 0.013384 0.009237 0.018804 0.040827 0.015312
# 6 0.005092 0.018394 0.009376 0.017840 0.015312 0.044489
#
#
# Mechanical properties :
#
#
# Convention : Reuss Voigt Hill
#
# Bulk Modulus (GPa) = 15.12151 39.82113 27.47132
# Shear Modulus (GPa) = 23.45398 34.49011 28.97204
#
# Velocity S-wave (km/s) = 3.19719 3.87711 3.55345
# Velocity P-wave (km/s) = 4.49665 6.11539 5.36739
#
# Compressibility (1/GPa) = 0.06613097
#
# Stress axis : x y z
#
# Youngs Moduli (GPa) = 65.45860 33.95485 66.16964
#
# Poissons Ratio (x) = 0.02806 0.14649
# Poissons Ratio (y) = 0.05409 -0.40929
# Poissons Ratio (z) = 0.14491 -0.21003
#
# Static dielectric constant tensor:
#      x y z
#    x 1.839070 -0.034800 0.026290 
#    y -0.034800 1.880240 -0.028580 
#    z 0.026290 -0.028580 1.934950 
# 
# From -- ./inp_files/369371.got.cif
#   From: 2010.05.17/outbox.cif.g08.bks.cpg/sg2_185_cif.got.tgz:369371.got - 2010.06.03 11:33:40.
