data_PCOD9010381
_publ_section_title
;
Structure prediction by ZEFSAII (Michael W. Deem and Ramdas Pophale) SiO2 
 PCOD9010381
Probable space group: P -1
;
_chemical_formula_sum "Si O2"
_cell_formula_units_Z 16
_cell_length_a 27.039471
_cell_length_b 12.561357
_cell_length_c 5.229517
_cell_angle_alpha 76.243437
_cell_angle_beta 62.585745
_cell_angle_gamma 29.298736
_cell_volume 714.702337
_symmetry_space_group_name_H-M "P -1"
_symmetry_group_IT_number 2
_symmetry_cell_setting 'triclinic'
loop_
_space_group_symop_operation_xyz
x,y,z
-x,-y,-z
loop_
_atom_site_type_symbol
_atom_site_label
_atom_site_fract_x
_atom_site_fract_y
_atom_site_fract_z
Si Si1 0.235622 0.135633 0.532081
Si Si2 0.932068 0.722046 0.414618
Si Si3 0.898051 0.429740 0.653332
Si Si4 0.352455 0.537207 0.561856
Si Si5 0.712707 0.217934 0.929601
Si Si6 0.988959 0.117230 0.260697
Si Si7 0.191052 0.629510 0.840627
Si Si8 0.617007 0.159323 0.156170
O O1 0.137902 0.207172 0.700646
O O2 0.175710 0.350014 0.444119
O O3 0.290397 0.047706 0.733247
O O4 0.335290 0.935987 0.193014
O O5 0.000000 0.500000 0.500000
O O6 0.033577 0.638776 0.224125
O O7 0.828963 0.948473 0.714817
O O8 0.997441 0.212721 0.343494
O O9 0.826238 0.445869 0.894230
O O10 0.317083 0.651219 0.310084
O O11 0.314555 0.476008 0.672924
O O12 0.491983 0.316719 0.394938
O O13 0.286276 0.714913 0.850956
O O14 0.612617 0.296936 0.143087
O O15 0.858081 0.334626 0.325575
O O16 0.000000 0.000000 0.500000
O O17 0.096130 0.897252 0.943930
#
# Coordination Sequence:
#
# PCOD9010381 Si02
#       8
#     2   2   2   2   2   2   2   2
#     4  10  23  43  66  92 124 166 209 259 311 372
#     4   9  20  40  61  94 127 162 203 249 308 376
#     4  10  21  40  63  88 129 167 203 253 315 374
#     4  12  25  40  68  92 125 167 209 261 310 367
#     4  11  23  40  66  95 124 163 208 252 319 370
#     4   9  20  38  58  87 129 163 205 254 309 363
#     4  10  23  37  60  93 128 162 210 254 309 374
#     4  11  23  46  62  93 126 160 212 268 308 359
#
# _framework density 22.386942000000001
#
# number of rings (size 3 to 8) (size 9 to 14) (size 15 to 20)
#    0.000    1.750    0.000    3.750   10.500    0.000 
#    4.500   10.000    0.000    0.000    0.000    0.000 
#    0.000    0.000    0.000    0.000    0.000    0.000 
#
# Total GULP energy -89328.796943 kJ/mol
# GULP energy per Si atom -5583.049809 kJ/mol
# Density = 2.233599 g / cm^3
# Si number density = 22.386942 Si / 1000 Ang^3
#
#
#
# Elastic Constant Matrix: (Units=GPa)
#
#
# Indices 1 2 3 4 5 6 
#
# 1 133.7834 23.7783 40.9429 -6.7161 -43.8696 -2.4991
# 2 23.7783 45.2622 26.8408 -7.2441 -13.5571 7.3668
# 3 40.9429 26.8408 63.7327 -18.9779 -12.3894 -10.8231
# 4 -6.7161 -7.2441 -18.9779 28.6984 -3.2196 -1.8951
# 5 -43.8696 -13.5571 -12.3894 -3.2196 43.4580 0.7480
# 6 -2.4991 7.3668 -10.8231 -1.8951 0.7480 28.4823
#
#
#
# Elastic Compliance Matrix: (Units=1/GPa)
#
#
# Indices 1 2 3 4 5 6 
#
# 1 0.013248 0.001078 -0.007091 -0.000144 0.011714 -0.002128
# 2 0.001078 0.037090 -0.018652 -0.003010 0.007410 -0.016981
# 3 -0.007091 -0.018652 0.036838 0.019125 -0.001394 0.019509
# 4 -0.000144 -0.003010 0.019125 0.048298 0.007757 0.011043
# 5 0.011714 0.007410 -0.001394 0.007757 0.037357 -0.001883
# 6 -0.002128 -0.016981 0.019509 0.011043 -0.001883 0.047512
#
#
# Mechanical properties :
#
#
# Convention : Reuss Voigt Hill
#
# Bulk Modulus (GPa) = 26.42410 47.32246 36.87328
# Shear Modulus (GPa) = 17.71233 30.20881 23.96057
#
# Velocity S-wave (km/s) = 2.81586 3.67740 3.27508
# Velocity P-wave (km/s) = 4.73298 6.26221 5.55051
#
# Compressibility (1/GPa) = 0.03784425
#
# Stress axis : x y z
#
# Youngs Moduli (GPa) = 75.48562 26.96168 27.14560
#
# Poissons Ratio (x) = -0.02905 0.19250
# Poissons Ratio (y) = -0.08134 0.50632
# Poissons Ratio (z) = 0.53530 0.50289
#
# Static dielectric constant tensor:
#      x y z
#    x 1.870410 -0.010990 -0.003430 
#    y -0.010990 1.841000 0.049630 
#    z -0.003430 0.049630 1.923280 
# 
# From -- ./inp_files/126690.got.cif
#   From: 2010.05.17/outbox.cif.g08.bks.cpg/sg2_64_cif.got.tgz:126690.got - 2010.06.03 11:33:40.
