data_PCOD9010590
_publ_section_title
;
Structure prediction by ZEFSAII (Michael W. Deem and Ramdas Pophale) SiO2 
 PCOD9010590
Probable space group: P -1
;
_chemical_formula_sum "Si O2"
_cell_formula_units_Z 16
_cell_length_a 13.640972
_cell_length_b 10.098458
_cell_length_c 10.995747
_cell_angle_alpha 88.492851
_cell_angle_beta 33.542040
_cell_angle_gamma 74.670126
_cell_volume 751.744862
_symmetry_space_group_name_H-M "P -1"
_symmetry_group_IT_number 2
_symmetry_cell_setting 'triclinic'
loop_
_space_group_symop_operation_xyz
x,y,z
-x,-y,-z
loop_
_atom_site_type_symbol
_atom_site_label
_atom_site_fract_x
_atom_site_fract_y
_atom_site_fract_z
Si Si1 0.173557 0.536126 0.758148
Si Si2 0.136825 0.564933 0.299259
Si Si3 0.367040 0.853107 0.865291
Si Si4 0.659472 0.523385 0.660642
Si Si5 0.417256 0.347213 0.852228
Si Si6 0.596512 0.284847 0.415459
Si Si7 0.016287 0.091591 0.596009
Si Si8 0.468176 0.956297 0.168672
O O1 0.163605 0.523642 0.621539
O O2 0.397802 0.415590 0.559595
O O3 0.216125 0.675906 0.755365
O O4 0.000000 0.500000 0.000000
O O5 0.300410 0.506411 0.237602
O O6 0.035545 0.740530 0.390889
O O7 0.000000 0.500000 0.500000
O O8 0.217238 0.492110 0.086416
O O9 0.508728 0.693295 0.784019
O O10 0.354745 0.838388 0.733849
O O11 0.448147 0.966364 0.824032
O O12 0.150231 0.900194 0.139701
O O13 0.570663 0.411702 0.719812
O O14 0.497437 0.268248 0.642906
O O15 0.421325 0.219188 0.935693
O O16 0.235153 0.012405 0.424933
O O17 0.000000 0.000000 0.500000
O O18 0.500000 0.000000 0.000000
#
# Coordination Sequence:
#
# PCOD9010590 Si02
#       8
#     2   2   2   2   2   2   2   2
#     4   9  19  36  64  94 136 165 210 269 324 385
#     4  12  25  37  65 100 125 166 222 270 322 387
#     4  11  23  43  67  94 133 172 215 265 334 396
#     4  10  21  40  63  96 127 168 211 271 328 373
#     4  11  23  44  66  91 134 168 215 279 316 387
#     4   9  22  40  62  96 129 175 214 263 334 380
#     4  12  25  42  66  94 132 172 211 271 330 392
#     4  12  25  44  65  96 133 173 219 266 336 387
#
# _framework density 21.283818
#
# number of rings (size 3 to 8) (size 9 to 14) (size 15 to 20)
#    0.000    1.250    2.500    4.125    1.750    2.500 
#    0.000    0.625    0.000    0.000    0.000    0.000 
#    0.000    0.000    0.000    0.000    0.000    0.000 
#
# Total GULP energy -89133.227905 kJ/mol
# GULP energy per Si atom -5570.826744 kJ/mol
# Density = 2.123537 g / cm^3
# Si number density = 21.283818 Si / 1000 Ang^3
#
#
#
# Elastic Constant Matrix: (Units=GPa)
#
#
# Indices 1 2 3 4 5 6 
#
# 1 34.7587 17.5177 58.8767 -12.4442 -10.5355 8.9779
# 2 17.5177 86.3489 -35.6687 23.0421 7.3995 41.8924
# 3 58.8767 -35.6687 -24.9916 38.7287 29.1244 87.3679
# 4 -12.4442 23.0421 38.7287 15.6506 -1.9214 -19.6452
# 5 -10.5355 7.3995 29.1244 -1.9214 30.1113 -10.3620
# 6 8.9779 41.8924 87.3679 -19.6452 -10.3620 9.1296
#
#
#
# Elastic Compliance Matrix: (Units=1/GPa)
#
#
# Indices 1 2 3 4 5 6 
#
# 1 0.039783 0.003943 -0.002676 -0.001236 0.006023 -0.027425
# 2 0.003943 0.009262 -0.004460 -0.000357 0.003047 -0.001009
# 3 -0.002676 -0.004460 0.003251 0.007548 0.000537 0.008834
# 4 -0.001236 -0.000357 0.007548 0.032685 -0.008581 -0.008782
# 5 0.006023 0.003047 0.000537 -0.008581 0.030407 -0.008994
# 6 -0.027425 -0.001009 0.008834 -0.008782 -0.008994 0.027488
#
#
# Mechanical properties :
#
#
# Convention : Reuss Voigt Hill
#
# Bulk Modulus (GPa) = 21.78201 19.72970 20.75585
# Shear Modulus (GPa) = 30.38291 14.67099 22.52695
#
# Velocity S-wave (km/s) = 3.78234 2.62831 3.25685
# Velocity P-wave (km/s) = 5.41582 4.30123 4.89038
#
# Compressibility (1/GPa) = 0.04590945
#
# Stress axis : x y z
#
# Youngs Moduli (GPa) = 25.13646 107.96363 307.57989
#
# Poissons Ratio (x) = -0.42568 0.82318
# Poissons Ratio (y) = -0.09911 1.37179
# Poissons Ratio (z) = 0.06727 0.48151
#
# Static dielectric constant tensor:
#      x y z
#    x 1.637830 0.018650 0.103050 
#    y 0.018650 1.761480 -0.011020 
#    z 0.103050 -0.011020 1.817690 
# 
# From -- ./inp_files/447447.got.cif
#   From: 2010.05.17/outbox.cif.g08.bks.cpg/sg2_224_cif.got.tgz:447447.got - 2010.06.03 11:33:40.
