data_PCOD9010108
_publ_section_title
;
Structure prediction by ZEFSAII (Michael W. Deem and Ramdas Pophale) SiO2 
 PCOD9010108
Probable space group: P -1
;
_chemical_formula_sum "Si O2"
_cell_formula_units_Z 16
_cell_length_a 18.166118
_cell_length_b 11.113038
_cell_length_c 7.291630
_cell_angle_alpha 122.363642
_cell_angle_beta 99.550143
_cell_angle_gamma 35.840657
_cell_volume 611.870185
_symmetry_space_group_name_H-M "P -1"
_symmetry_group_IT_number 2
_symmetry_cell_setting 'triclinic'
loop_
_space_group_symop_operation_xyz
x,y,z
-x,-y,-z
loop_
_atom_site_type_symbol
_atom_site_label
_atom_site_fract_x
_atom_site_fract_y
_atom_site_fract_z
Si Si1 0.699334 0.406142 0.924965
Si Si2 0.440266 0.177279 0.312514
Si Si3 0.109250 0.144556 0.427478
Si Si4 0.403131 0.805306 0.194083
Si Si5 0.775408 0.705644 0.723451
Si Si6 0.639499 0.375160 0.476476
Si Si7 0.952288 0.737252 0.106846
Si Si8 0.760439 0.620425 0.063014
O O1 0.653671 0.398800 0.713898
O O2 0.773504 0.429238 0.912678
O O3 0.810112 0.121641 0.852681
O O4 0.540987 0.684772 0.187597
O O5 0.299368 0.310478 0.413650
O O6 0.389291 0.423826 0.463899
O O7 0.500000 0.000000 0.000000
O O8 0.589110 0.928391 0.293230
O O9 0.064269 0.156544 0.617691
O O10 0.947503 0.454090 0.538036
O O11 0.245842 0.031906 0.419216
O O12 0.329583 0.990322 0.130023
O O13 0.500000 0.500000 0.000000
O O14 0.769039 0.685071 0.921219
O O15 0.500000 0.500000 0.500000
O O16 0.790477 0.040518 0.205271
O O17 0.096202 0.558366 0.916044
O O18 0.000000 0.500000 0.000000
#
# Coordination Sequence:
#
# PCOD9010108 Si02
#       8
#     2   2   2   2   2   2   2   2
#     4  10  18  34  54  84 111 142 178 231 275 332
#     4  10  17  30  50  80 108 138 178 225 274 325
#     4   9  21  31  53  78 110 143 185 223 275 325
#     4  10  19  33  50  79 111 143 186 231 272 326
#     4  10  17  29  50  78 110 137 178 227 276 314
#     4  11  21  33  53  84 118 147 180 223 286 336
#     4  10  22  36  52  80 117 149 181 226 284 330
#     4  10  18  32  56  81 113 138 180 228 284 317
#
# _framework density 26.149336999999999
#
# number of rings (size 3 to 8) (size 9 to 14) (size 15 to 20)
#    0.000    2.000    3.750    1.875    1.750    2.500 
#    0.000    0.000    0.000    0.750    6.500    1.750 
#    0.000    0.000    0.000    0.000    0.000    0.000 
#
# Total GULP energy -89148.281972 kJ/mol
# GULP energy per Si atom -5571.767623 kJ/mol
# Density = 2.608982 g / cm^3
# Si number density = 26.149337 Si / 1000 Ang^3
#
#
#
# Elastic Constant Matrix: (Units=GPa)
#
#
# Indices 1 2 3 4 5 6 
#
# 1 170.7986 49.0158 64.5891 30.9922 -1.3424 -15.9380
# 2 49.0158 81.2788 66.2759 39.1173 -2.2487 -3.6196
# 3 64.5891 66.2759 147.6893 52.1221 2.3842 -18.9089
# 4 30.9922 39.1173 52.1221 63.6469 -3.9559 -13.2059
# 5 -1.3424 -2.2487 2.3842 -3.9559 42.9982 17.0848
# 6 -15.9380 -3.6196 -18.9089 -13.2059 17.0848 43.7416
#
#
#
# Elastic Compliance Matrix: (Units=1/GPa)
#
#
# Indices 1 2 3 4 5 6 
#
# 1 0.007561 -0.003160 -0.001600 -0.000046 -0.000657 0.002045
# 2 -0.003160 0.023938 -0.007265 -0.008283 0.003203 -0.006063
# 3 -0.001600 -0.007265 0.012997 -0.004713 -0.003292 0.004297
# 4 -0.000046 -0.008283 -0.004713 0.025723 0.000232 0.004936
# 5 -0.000657 0.003203 -0.003292 0.000232 0.028569 -0.012486
# 6 0.002045 -0.006063 0.004297 0.004936 -0.012486 0.031329
#
#
# Mechanical properties :
#
#
# Convention : Reuss Voigt Hill
#
# Bulk Modulus (GPa) = 48.90890 84.39202 66.65046
# Shear Modulus (GPa) = 31.05943 44.73640 37.89792
#
# Velocity S-wave (km/s) = 3.45014 4.14067 3.81108
# Velocity P-wave (km/s) = 5.88350 7.42990 6.70146
#
# Compressibility (1/GPa) = 0.02044618
#
# Stress axis : x y z
#
# Youngs Moduli (GPa) = 132.26349 41.77478 76.93867
#
# Poissons Ratio (x) = 0.13201 0.12309
# Poissons Ratio (y) = 0.41795 0.55896
# Poissons Ratio (z) = 0.21161 0.30349
#
# Static dielectric constant tensor:
#      x y z
#    x 2.112180 -0.040460 -0.083300 
#    y -0.040460 2.239170 0.013790 
#    z -0.083300 0.013790 2.316860 
# 
# From -- ./inp_files/464815.got.cif
#   From: 2010.05.17/outbox.cif.g08.bks.cpg/sg2_233_cif.got.tgz:464815.got - 2010.06.03 11:33:40.
