data_PCOD9010723
_publ_section_title
;
Structure prediction by ZEFSAII (Michael W. Deem and Ramdas Pophale) SiO2 
 PCOD9010723
Probable space group: P -1
;
_chemical_formula_sum "Si O2"
_cell_formula_units_Z 16
_cell_length_a 11.011763
_cell_length_b 15.939690
_cell_length_c 24.059267
_cell_angle_alpha 20.465389
_cell_angle_beta 29.324992
_cell_angle_gamma 29.010299
_cell_volume 680.852980
_symmetry_space_group_name_H-M "P -1"
_symmetry_group_IT_number 2
_symmetry_cell_setting 'triclinic'
loop_
_space_group_symop_operation_xyz
x,y,z
-x,-y,-z
loop_
_atom_site_type_symbol
_atom_site_label
_atom_site_fract_x
_atom_site_fract_y
_atom_site_fract_z
Si Si1 0.416974 0.985205 0.979290
Si Si2 0.254295 0.524428 0.684338
Si Si3 0.888410 0.897482 0.264725
Si Si4 0.678988 0.418576 0.177505
Si Si5 0.915932 0.641691 0.855682
Si Si6 0.195119 0.517159 0.597265
Si Si7 0.473548 0.066884 0.703089
Si Si8 0.856296 0.677489 0.529697
O O1 0.568991 0.714293 0.059241
O O2 0.441954 0.231107 0.786335
O O3 0.113945 0.007478 0.089909
O O4 0.500000 0.000000 0.000000
O O5 0.070276 0.583168 0.666818
O O6 0.402660 0.729320 0.498560
O O7 0.107441 0.537890 0.792113
O O8 0.635197 0.038637 0.240870
O O9 0.849253 0.871549 0.362127
O O10 0.995212 0.603589 0.381682
O O11 0.436515 0.315130 0.341669
O O12 0.911651 0.285546 0.210530
O O13 0.799306 0.442031 0.055067
O O14 0.682561 0.871736 0.779755
O O15 0.500000 0.500000 0.500000
O O16 0.237616 0.233087 0.734339
O O17 0.024178 0.691544 0.508550
#
# Coordination Sequence:
#
# PCOD9010723 Si02
#       8
#     2   2   2   2   2   2   2   2
#     4  11  22  37  63  93 121 149 199 262 304 347
#     4  11  22  38  60  93 120 161 202 247 303 354
#     4   9  20  35  63  90 118 156 201 251 304 356
#     4  10  22  40  63  91 118 164 204 249 297 362
#     4  11  22  39  62  87 125 165 205 237 299 373
#     4   9  20  35  61  90 117 151 196 258 300 342
#     4  10  21  40  64  90 121 162 204 246 297 372
#     4   9  18  37  61  89 121 155 204 251 296 359
#
# _framework density 23.499935000000001
#
# number of rings (size 3 to 8) (size 9 to 14) (size 15 to 20)
#    0.000    2.000    1.250    1.875    7.000    1.000 
#    0.000    6.250    0.000    4.500    0.000    0.000 
#    0.000    0.000    0.000    0.000    0.000    0.000 
#
# Total GULP energy -89376.726415 kJ/mol
# GULP energy per Si atom -5586.045401 kJ/mol
# Density = 2.344645 g / cm^3
# Si number density = 23.499935 Si / 1000 Ang^3
#
#
#
# Elastic Constant Matrix: (Units=GPa)
#
#
# Indices 1 2 3 4 5 6 
#
# 1 161.9344 34.4667 77.6930 5.1071 29.3012 -38.7992
# 2 34.4667 48.6631 37.9888 10.1429 -0.7782 -16.6344
# 3 77.6930 37.9888 110.1013 10.5619 19.0513 -12.2291
# 4 5.1071 10.1429 10.5619 39.1758 8.8792 5.1176
# 5 29.3012 -0.7782 19.0513 8.8792 29.6396 -2.0772
# 6 -38.7992 -16.6344 -12.2291 5.1176 -2.0772 40.7944
#
#
#
# Elastic Compliance Matrix: (Units=1/GPa)
#
#
# Indices 1 2 3 4 5 6 
#
# 1 0.013515 -0.001589 -0.006486 0.001153 -0.008902 0.009664
# 2 -0.001589 0.037906 -0.012001 -0.011301 0.014541 0.012506
# 3 -0.006486 -0.012001 0.018093 0.001316 -0.006357 -0.006127
# 4 0.001153 -0.011301 0.001316 0.031752 -0.012336 -0.007728
# 5 -0.008902 0.014541 -0.006357 -0.012336 0.050680 -0.000314
# 6 0.009664 0.012506 -0.006127 -0.007728 -0.000314 0.037921
#
#
# Mechanical properties :
#
#
# Convention : Reuss Voigt Hill
#
# Bulk Modulus (GPa) = 34.05532 68.99956 51.52744
# Shear Modulus (GPa) = 20.85015 33.29196 27.07105
#
# Velocity S-wave (km/s) = 2.98189 3.76797 3.39774
# Velocity P-wave (km/s) = 5.13602 6.95381 6.11286
#
# Compressibility (1/GPa) = 0.02936398
#
# Stress axis : x y z
#
# Youngs Moduli (GPa) = 73.99172 26.38086 55.26966
#
# Poissons Ratio (x) = 0.04191 0.35846
# Poissons Ratio (y) = 0.11754 0.66329
# Poissons Ratio (z) = 0.47989 0.31660
#
# Static dielectric constant tensor:
#      x y z
#    x 1.914810 0.030610 0.016500 
#    y 0.030610 1.982070 -0.004990 
#    z 0.016500 -0.004990 1.925260 
# 
# From -- ./inp_files/568627.got.cif
#   From: 2010.05.17/outbox.cif.g08.bks.cpg/sg2_285_cif.got.tgz:568627.got - 2010.06.03 11:33:40.
