data_PCOD9010452
_publ_section_title
;
Structure prediction by ZEFSAII (Michael W. Deem and Ramdas Pophale) SiO2 
 PCOD9010452
Probable space group: P -1
;
_chemical_formula_sum "Si O2"
_cell_formula_units_Z 16
_cell_length_a 10.641571
_cell_length_b 9.062526
_cell_length_c 8.606589
_cell_angle_alpha 52.945749
_cell_angle_beta 92.256543
_cell_angle_gamma 88.642566
_cell_volume 660.721687
_symmetry_space_group_name_H-M "P -1"
_symmetry_group_IT_number 2
_symmetry_cell_setting 'triclinic'
loop_
_space_group_symop_operation_xyz
x,y,z
-x,-y,-z
loop_
_atom_site_type_symbol
_atom_site_label
_atom_site_fract_x
_atom_site_fract_y
_atom_site_fract_z
Si Si1 0.312042 0.003704 0.316943
Si Si2 0.874462 0.129348 0.389510
Si Si3 0.846615 0.018512 0.965386
Si Si4 0.598801 0.664675 0.726615
Si Si5 0.829863 0.361805 0.932660
Si Si6 0.992031 0.594227 0.605961
Si Si7 0.396678 0.582315 0.563920
Si Si8 0.736985 0.743516 0.376548
O O1 0.246790 0.968643 0.500291
O O2 0.199866 0.049954 0.159679
O O3 0.367459 0.801452 0.396135
O O4 0.399065 0.173742 0.246778
O O5 0.892394 0.292075 0.411922
O O6 0.857956 0.224491 0.163004
O O7 0.000000 0.000000 0.500000
O O8 0.808334 0.233205 0.863437
O O9 0.765996 0.905507 0.156360
O O10 0.000000 0.000000 0.000000
O O11 0.711388 0.507304 0.861088
O O12 0.465179 0.577663 0.739922
O O13 0.634052 0.751919 0.503590
O O14 0.955059 0.463225 0.827845
O O15 0.866092 0.722802 0.492792
O O16 0.000000 0.500000 0.500000
O O17 0.500000 0.500000 0.500000
O O18 0.289605 0.437668 0.615061
#
# Coordination Sequence:
#
# PCOD9010452 Si02
#       8
#     2   2   2   2   2   2   2   2
#     4  12  24  41  66  98 130 169 222 272 325 397
#     4  12  24  40  62  95 135 176 213 261 324 394
#     4  12  24  39  62  96 134 173 216 267 324 397
#     4  10  23  44  66  92 126 168 219 278 329 382
#     4  11  23  41  62  91 133 177 218 266 325 394
#     4  11  21  36  60  91 126 169 213 261 319 383
#     4  10  22  45  70  92 126 171 219 281 337 380
#     4  10  21  40  63  91 126 169 213 260 325 393
#
# _framework density 24.215945000000001
#
# number of rings (size 3 to 8) (size 9 to 14) (size 15 to 20)
#    0.000    1.000    0.000    9.750    0.000    3.000 
#    0.000    9.375    0.000    0.000    0.000    0.000 
#    0.000    0.000    0.000    0.000    0.000    0.000 
#
# Total GULP energy -89343.951348 kJ/mol
# GULP energy per Si atom -5583.996959 kJ/mol
# Density = 2.416083 g / cm^3
# Si number density = 24.215945 Si / 1000 Ang^3
#
#
#
# Elastic Constant Matrix: (Units=GPa)
#
#
# Indices 1 2 3 4 5 6 
#
# 1 55.2716 36.9076 11.8206 -5.3775 17.5923 18.3836
# 2 36.9076 176.6746 4.3148 -13.4416 17.1952 32.5614
# 3 11.8206 4.3148 101.8832 0.9401 3.0957 1.3561
# 4 -5.3775 -13.4416 0.9401 34.0107 1.8526 3.6300
# 5 17.5923 17.1952 3.0957 1.8526 26.8216 2.1329
# 6 18.3836 32.5614 1.3561 3.6300 2.1329 55.9211
#
#
#
# Elastic Compliance Matrix: (Units=1/GPa)
#
#
# Indices 1 2 3 4 5 6 
#
# 1 0.028692 -0.002493 -0.002664 0.005347 -0.016676 -0.007627
# 2 -0.002493 0.007360 0.000088 0.003056 -0.003022 -0.003551
# 3 -0.002664 0.000088 0.010103 -0.000759 0.000529 0.000609
# 4 0.005347 0.003056 -0.000759 0.032440 -0.007194 -0.005350
# 5 -0.016676 -0.003022 0.000529 -0.007194 0.050134 0.005784
# 6 -0.007627 -0.003551 0.000609 -0.005350 0.005784 0.022569
#
#
# Mechanical properties :
#
#
# Convention : Reuss Voigt Hill
#
# Bulk Modulus (GPa) = 27.76481 48.87950 38.32216
# Shear Modulus (GPa) = 28.82803 42.06976 35.44890
#
# Velocity S-wave (km/s) = 3.45404 4.17259 3.83020
# Velocity P-wave (km/s) = 5.23427 6.59110 5.95148
#
# Compressibility (1/GPa) = 0.03601681
#
# Stress axis : x y z
#
# Youngs Moduli (GPa) = 34.85308 135.87196 98.97673
#
# Poissons Ratio (x) = 0.33876 0.26371
# Poissons Ratio (y) = 0.08690 -0.00876
# Poissons Ratio (z) = 0.09286 -0.01202
#
# Static dielectric constant tensor:
#      x y z
#    x 2.141530 -0.106860 -0.045990 
#    y -0.106860 2.063560 -0.020390 
#    z -0.045990 -0.020390 2.018500 
# 
# From -- ./inp_files/242089.got.cif
#   From: 2010.05.17/outbox.cif.g08.bks.cpg/sg2_122_cif.got.tgz:242089.got - 2010.06.03 11:33:40.
