data_PCOD9010093
_publ_section_title
;
Structure prediction by ZEFSAII (Michael W. Deem and Ramdas Pophale) SiO2 
 PCOD9010093
Probable space group: P -1
;
_chemical_formula_sum "Si O2"
_cell_formula_units_Z 16
_cell_length_a 11.224695
_cell_length_b 5.544780
_cell_length_c 12.043211
_cell_angle_alpha 92.468916
_cell_angle_beta 119.376281
_cell_angle_gamma 76.817314
_cell_volume 633.865020
_symmetry_space_group_name_H-M "P -1"
_symmetry_group_IT_number 2
_symmetry_cell_setting 'triclinic'
loop_
_space_group_symop_operation_xyz
x,y,z
-x,-y,-z
loop_
_atom_site_type_symbol
_atom_site_label
_atom_site_fract_x
_atom_site_fract_y
_atom_site_fract_z
Si Si1 0.919192 0.324754 0.899551
Si Si2 0.841685 0.864361 0.375178
Si Si3 0.479860 0.486842 0.749274
Si Si4 0.657690 0.465244 0.630556
Si Si5 0.064606 0.871698 0.862167
Si Si6 0.834973 0.365540 0.303103
Si Si7 0.224812 0.101827 0.395843
Si Si8 0.523414 0.002013 0.142072
O O1 0.772853 0.443837 0.781161
O O2 0.890645 0.169999 0.990588
O O3 0.021699 0.171174 0.848651
O O4 0.000000 0.500000 0.000000
O O5 0.911862 0.587376 0.360107
O O6 0.810395 0.861485 0.490327
O O7 0.690881 0.931819 0.243141
O O8 0.907514 0.093050 0.376532
O O9 0.514467 0.489005 0.634697
O O10 0.312310 0.554217 0.698178
O O11 0.532851 0.213861 0.823793
O O12 0.531078 0.717399 0.831932
O O13 0.676120 0.713806 0.584161
O O14 0.705126 0.190345 0.594065
O O15 0.178915 0.697883 0.833509
O O16 0.915064 0.826902 0.746179
O O17 0.500000 0.000000 0.000000
#
# Coordination Sequence:
#
# PCOD9010093 Si02
#       8
#     2   2   2   2   2   2   2   2
#     4  10  21  41  63  93 125 161 217 255 310 377
#     4  10  23  41  62  93 127 165 215 256 312 382
#     4  10  22  42  61  97 125 164 210 258 318 379
#     4  11  23  40  67  91 128 167 212 268 313 366
#     4  10  23  39  65  93 126 168 207 264 318 369
#     4  10  23  42  63  92 129 166 206 259 320 377
#     4  11  23  42  64  92 124 169 216 261 315 368
#     4  10  21  40  62  84 129 164 203 251 311 376
#
# _framework density 25.241966999999999
#
# number of rings (size 3 to 8) (size 9 to 14) (size 15 to 20)
#    0.000    1.750    1.250    1.875    1.750    5.000 
#    2.250   15.000    0.000    0.000    0.000    0.000 
#    0.000    0.000    0.000    0.000    0.000    0.000 
#
# Total GULP energy -89380.067022 kJ/mol
# GULP energy per Si atom -5586.254189 kJ/mol
# Density = 2.518451 g / cm^3
# Si number density = 25.241967 Si / 1000 Ang^3
#
#
#
# Elastic Constant Matrix: (Units=GPa)
#
#
# Indices 1 2 3 4 5 6 
#
# 1 80.5598 44.1650 16.4805 7.8017 -8.2623 8.1019
# 2 44.1650 182.2773 36.0918 29.9891 -6.6454 40.4071
# 3 16.4805 36.0918 91.5664 4.9233 2.5735 7.3317
# 4 7.8017 29.9891 4.9233 47.2792 -4.4274 -12.1142
# 5 -8.2623 -6.6454 2.5735 -4.4274 41.5148 -5.1593
# 6 8.1019 40.4071 7.3317 -12.1142 -5.1593 43.5280
#
#
#
# Elastic Compliance Matrix: (Units=1/GPa)
#
#
# Indices 1 2 3 4 5 6 
#
# 1 0.014758 -0.003564 -0.001459 0.000556 0.002675 0.001280
# 2 -0.003564 0.010853 -0.002164 -0.009203 -0.001281 -0.011760
# 3 -0.001459 -0.002164 0.012045 0.000278 -0.001333 0.000171
# 4 0.000556 -0.009203 0.000278 0.031810 0.004218 0.017746
# 5 0.002675 -0.001281 -0.001333 0.004218 0.025584 0.005122
# 6 0.001280 -0.011760 0.000171 0.017746 0.005122 0.039170
#
#
# Mechanical properties :
#
#
# Convention : Reuss Voigt Hill
#
# Bulk Modulus (GPa) = 42.95207 60.87535 51.91371
# Shear Modulus (GPa) = 31.97884 43.64216 37.81050
#
# Velocity S-wave (km/s) = 3.56320 4.16258 3.87450
# Velocity P-wave (km/s) = 5.82938 6.87545 6.37391
#
# Compressibility (1/GPa) = 0.02328177
#
# Stress axis : x y z
#
# Youngs Moduli (GPa) = 67.76212 92.14360 83.02012
#
# Poissons Ratio (x) = 0.32844 0.12110
# Poissons Ratio (y) = 0.24154 0.17963
# Poissons Ratio (z) = 0.09884 0.19937
#
# Static dielectric constant tensor:
#      x y z
#    x 2.285870 0.302940 -0.246810 
#    y 0.302940 2.387370 -0.317360 
#    z -0.246810 -0.317360 2.284900 
# 
# From -- ./inp_files/410871.got.cif
#   From: 2010.05.17/outbox.cif.g08.bks.cpg/sg2_206_cif.got.tgz:410871.got - 2010.06.03 11:33:40.
