data_PCOD9010495
_publ_section_title
;
Structure prediction by ZEFSAII (Michael W. Deem and Ramdas Pophale) SiO2 
 PCOD9010495
Probable space group: P -1
;
_chemical_formula_sum "Si O2"
_cell_formula_units_Z 16
_cell_length_a 12.131141
_cell_length_b 16.166539
_cell_length_c 8.724217
_cell_angle_alpha 116.701484
_cell_angle_beta 112.992320
_cell_angle_gamma 25.928267
_cell_volume 667.939654
_symmetry_space_group_name_H-M "P -1"
_symmetry_group_IT_number 2
_symmetry_cell_setting 'triclinic'
loop_
_space_group_symop_operation_xyz
x,y,z
-x,-y,-z
loop_
_atom_site_type_symbol
_atom_site_label
_atom_site_fract_x
_atom_site_fract_y
_atom_site_fract_z
Si Si1 0.618118 0.638195 0.238010
Si Si2 0.412952 0.693475 0.880982
Si Si3 0.629466 0.481372 0.378629
Si Si4 0.064023 0.645904 0.306230
Si Si5 0.179723 0.315926 0.556519
Si Si6 0.198772 0.201711 0.180819
Si Si7 0.354413 0.976841 0.823875
Si Si8 0.218611 0.862635 0.624982
O O1 0.600718 0.589198 0.340824
O O2 0.601170 0.759804 0.352992
O O3 0.908438 0.419345 0.164527
O O4 0.433140 0.726355 0.082629
O O5 0.393269 0.595866 0.794722
O O6 0.676498 0.540659 0.806317
O O7 0.182478 0.880987 0.802875
O O8 0.867745 0.333831 0.495742
O O9 0.394365 0.656055 0.508958
O O10 0.959281 0.625702 0.318552
O O11 0.849529 0.832643 0.235790
O O12 0.246170 0.184498 0.373077
O O13 0.000000 0.500000 0.500000
O O14 0.376599 0.158865 0.167204
O O15 0.275574 0.053295 0.019782
O O16 0.346274 0.876000 0.689362
O O17 0.000000 0.000000 0.500000
#
# Coordination Sequence:
#
# PCOD9010495 Si02
#       8
#     2   2   2   2   2   2   2   2
#     4  11  22  41  68  95 128 166 216 272 306 382
#     4  11  24  40  68  99 120 170 222 261 314 375
#     4  11  22  43  69  92 126 170 216 266 318 368
#     4  11  21  39  66  95 126 166 215 260 312 389
#     4  10  21  40  63  92 128 166 213 261 321 362
#     4  10  22  40  61  90 136 166 207 260 320 374
#     4  11  23  39  64  96 130 175 202 260 328 373
#     4  11  24  43  66  93 132 162 212 265 315 389
#
# _framework density 23.954260000000001
#
# number of rings (size 3 to 8) (size 9 to 14) (size 15 to 20)
#    0.000    1.250    3.750    4.125    5.250    3.000 
#    0.000    1.875    0.000    0.000    0.000    0.000 
#    0.000    0.000    0.000    0.000    0.000    0.000 
#
# Total GULP energy -89386.577250 kJ/mol
# GULP energy per Si atom -5586.661078 kJ/mol
# Density = 2.389974 g / cm^3
# Si number density = 23.954260 Si / 1000 Ang^3
#
#
#
# Elastic Constant Matrix: (Units=GPa)
#
#
# Indices 1 2 3 4 5 6 
#
# 1 102.0381 3.9855 29.8285 2.1143 14.8890 18.3208
# 2 3.9855 46.4898 17.5735 -7.0257 2.8698 4.7107
# 3 29.8285 17.5735 146.6012 -15.4388 29.4375 0.8576
# 4 2.1143 -7.0257 -15.4388 27.4319 -3.8398 1.2483
# 5 14.8890 2.8698 29.4375 -3.8398 41.4078 0.3950
# 6 18.3208 4.7107 0.8576 1.2483 0.3950 27.0516
#
#
#
# Elastic Compliance Matrix: (Units=1/GPa)
#
#
# Indices 1 2 3 4 5 6 
#
# 1 0.012380 0.000453 -0.002125 -0.002091 -0.003087 -0.008254
# 2 0.000453 0.023577 -0.002469 0.004886 0.000455 -0.004566
# 3 -0.002125 -0.002469 0.008965 0.003795 -0.005100 0.001484
# 4 -0.002091 0.004886 0.003795 0.040273 0.001463 -0.001435
# 5 -0.003087 0.000455 -0.005100 0.001463 0.028974 0.001683
# 6 -0.008254 -0.004566 0.001484 -0.001435 0.001683 0.043346
#
#
# Mechanical properties :
#
#
# Convention : Reuss Voigt Hill
#
# Bulk Modulus (GPa) = 27.29234 44.21158 35.75196
# Shear Modulus (GPa) = 28.08844 35.42769 31.75806
#
# Velocity S-wave (km/s) = 3.42802 3.84991 3.64508
# Velocity P-wave (km/s) = 5.20449 6.18540 5.71602
#
# Compressibility (1/GPa) = 0.03664031
#
# Stress axis : x y z
#
# Youngs Moduli (GPa) = 80.77807 42.41359 111.54913
#
# Poissons Ratio (x) = -0.01921 0.23706
# Poissons Ratio (y) = -0.03659 0.27536
# Poissons Ratio (z) = 0.17167 0.10470
#
# Static dielectric constant tensor:
#      x y z
#    x 1.958460 -0.014000 -0.018840 
#    y -0.014000 1.932910 0.010830 
#    z -0.018840 0.010830 1.980100 
# 
# From -- ./inp_files/273801.got.cif
#   From: 2010.05.17/outbox.cif.g08.bks.cpg/sg2_137_cif.got.tgz:273801.got - 2010.06.03 11:33:40.
