data_PCOD9010927
_publ_section_title
;
Structure prediction by ZEFSAII (Michael W. Deem and Ramdas Pophale) SiO2 
 PCOD9010927
Probable space group: P -1
;
_chemical_formula_sum "Si O2"
_cell_formula_units_Z 14
_cell_length_a 8.358391
_cell_length_b 8.100721
_cell_length_c 12.245270
_cell_angle_alpha 65.689463
_cell_angle_beta 80.788685
_cell_angle_gamma 49.130974
_cell_volume 564.154456
_symmetry_space_group_name_H-M "P -1"
_symmetry_group_IT_number 2
_symmetry_cell_setting 'triclinic'
loop_
_space_group_symop_operation_xyz
x,y,z
-x,-y,-z
loop_
_atom_site_type_symbol
_atom_site_label
_atom_site_fract_x
_atom_site_fract_y
_atom_site_fract_z
Si Si1 0.881092 0.247282 0.340076
Si Si2 0.866608 0.053359 0.171828
Si Si3 0.750030 0.326315 0.903870
Si Si4 0.910104 0.601854 0.860841
Si Si5 0.468145 0.365783 0.343964
Si Si6 0.451461 0.022845 0.709307
Si Si7 0.155265 0.541797 0.512530
O O1 0.916106 0.085320 0.279447
O O2 0.664183 0.318409 0.393427
O O3 0.977679 0.234535 0.450457
O O4 0.921103 0.405392 0.225664
O O5 0.738662 0.957295 0.220507
O O6 0.723506 0.273070 0.042044
O O7 0.090014 0.908947 0.121950
O O8 0.866316 0.435339 0.864467
O O9 0.546782 0.509352 0.800820
O O10 0.672464 0.867476 0.797796
O O11 0.000000 0.500000 0.000000
O O12 0.494616 0.139908 0.360331
O O13 0.261538 0.543860 0.392054
O O14 0.352463 0.289635 0.618652
O O15 0.000000 0.500000 0.500000
#
# Coordination Sequence:
#
# PCOD9010927 Si02
#       7
#     2   2   2   2   2   2   2
#     4  11  24  40  64  99 128 169 219 271 319 383
#     4  10  21  40  64  96 129 171 212 274 323 392
#     4  10  21  41  66  93 135 168 216 261 338 383
#     4  11  22  40  65  97 135 166 213 266 324 392
#     4  10  23  41  68  93 130 174 217 267 318 389
#     4  10  23  41  67  93 127 173 218 258 337 377
#     4  12  24  46  68  93 132 173 221 269 323 383
#
# _framework density 24.815897
#
# number of rings (size 3 to 8) (size 9 to 14) (size 15 to 20)
#    0.000    1.429    1.429    4.286    2.000    2.857 
#    0.000   11.429    0.000    0.000    0.000    0.000 
#    0.000    0.000    0.000    0.000    0.000    0.000 
#
# Total GULP energy -78040.765620 kJ/mol
# GULP energy per Si atom -5574.340401 kJ/mol
# Density = 2.475941 g / cm^3
# Si number density = 24.815897 Si / 1000 Ang^3
#
#
#
# Elastic Constant Matrix: (Units=GPa)
#
#
# Indices 1 2 3 4 5 6 
#
# 1 70.1502 -3.8514 19.3014 8.8643 9.2665 4.1983
# 2 -3.8514 79.5157 45.7017 2.3446 11.4904 -5.1613
# 3 19.3014 45.7017 157.2251 10.6816 -3.5143 -10.2954
# 4 8.8643 2.3446 10.6816 49.4615 -7.0609 -5.2542
# 5 9.2665 11.4904 -3.5143 -7.0609 46.3965 7.8979
# 6 4.1983 -5.1613 -10.2954 -5.2542 7.8979 14.9003
#
#
#
# Elastic Compliance Matrix: (Units=1/GPa)
#
#
# Indices 1 2 3 4 5 6 
#
# 1 0.016511 0.002904 -0.003041 -0.003524 -0.003950 -0.004896
# 2 0.002904 0.016781 -0.005034 -0.000607 -0.005970 0.004466
# 3 -0.003041 -0.005034 0.008520 -0.000386 0.001773 0.003924
# 4 -0.003524 -0.000607 -0.000386 0.022108 0.003050 0.006695
# 5 -0.003950 -0.005970 0.001773 0.003050 0.026589 -0.012748
# 6 -0.004896 0.004466 0.003924 0.006695 -0.012748 0.081869
#
#
# Mechanical properties :
#
#
# Convention : Reuss Voigt Hill
#
# Bulk Modulus (GPa) = 31.77551 47.68826 39.73188
# Shear Modulus (GPa) = 25.87871 38.53427 32.20649
#
# Velocity S-wave (km/s) = 3.23279 3.94484 3.60643
# Velocity P-wave (km/s) = 5.17367 6.32515 5.77817
#
# Compressibility (1/GPa) = 0.03147078
#
# Stress axis : x y z
#
# Youngs Moduli (GPa) = 60.56447 59.59275 117.37526
#
# Poissons Ratio (x) = -0.17307 0.35690
# Poissons Ratio (y) = -0.17590 0.59087
# Poissons Ratio (z) = 0.18416 0.29999
#
# Static dielectric constant tensor:
#      x y z
#    x 1.913460 -0.041970 0.061750 
#    y -0.041970 2.175670 -0.064080 
#    z 0.061750 -0.064080 2.003720 
# 
# From -- ./inp_files/197104.got.cif
#   From: 2010.05.17/outbox.cif.g08.bks.cpg/sg2_99_cif.got.tgz:197104.got - 2010.06.03 11:33:40.
