data_PCOD9010082
_publ_section_title
;
Structure prediction by ZEFSAII (Michael W. Deem and Ramdas Pophale) SiO2 
 PCOD9010082
Probable space group: P -1
;
_chemical_formula_sum "Si O2"
_cell_formula_units_Z 15
_cell_length_a 13.044077
_cell_length_b 10.334864
_cell_length_c 5.469260
_cell_angle_alpha 101.133082
_cell_angle_beta 71.418736
_cell_angle_gamma 57.824930
_cell_volume 527.616624
_symmetry_space_group_name_H-M "P -1"
_symmetry_group_IT_number 2
_symmetry_cell_setting 'triclinic'
loop_
_space_group_symop_operation_xyz
x,y,z
-x,-y,-z
loop_
_atom_site_type_symbol
_atom_site_label
_atom_site_fract_x
_atom_site_fract_y
_atom_site_fract_z
Si Si1 0.645555 0.699391 0.007146
Si Si2 0.869643 0.436763 0.083055
Si Si3 0.289048 0.592578 0.441014
Si Si4 0.988842 0.825366 0.500142
Si Si5 0.804243 0.730568 0.516659
Si Si6 0.500000 0.500000 0.000000
Si Si7 0.714216 0.143818 0.944777
Si Si8 0.358347 0.950663 0.535490
O O1 0.800390 0.554153 0.940459
O O2 0.526121 0.834271 0.333573
O O3 0.611471 0.576364 0.880337
O O4 0.674168 0.776735 0.792296
O O5 0.738960 0.465481 0.319576
O O6 0.898316 0.533241 0.282511
O O7 0.975718 0.242619 0.834585
O O8 0.394764 0.628371 0.362273
O O9 0.134278 0.729292 0.499003
O O10 0.899467 0.760936 0.601761
O O11 0.883143 0.023207 0.734061
O O12 0.738703 0.844898 0.360892
O O13 0.371458 0.657047 0.961752
O O14 0.675614 0.085474 0.718129
O O15 0.681615 0.089615 0.197615
#
# Coordination Sequence:
#
# PCOD9010082 Si02
#       8
#     2   2   2   2   2   1   2   2
#     4  10  21  40  62 106 143 189 236 287 337 421
#     4  10  22  39  68 100 144 189 231 283 341 428
#     4  10  23  43  70 100 140 178 240 293 353 418
#     4  10  24  44  64 104 145 182 230 296 342 425
#     4  10  23  37  68 102 145 196 229 275 351 421
#     4  12  24  52  78 102 128 188 238 302 372 418
#     4  11  27  46  77 103 142 184 241 300 357 420
#     4  11  24  45  68 108 150 185 236 297 347 422
#
# _framework density 28.429732000000001
#
# number of rings (size 3 to 8) (size 9 to 14) (size 15 to 20)
#    0.000    1.600    1.333    1.600    9.333    6.400 
#    4.800    0.667    0.000    0.000    0.000    0.000 
#    0.000    0.000    0.000    0.000    0.000    0.000 
#
# Total GULP energy -83658.037335 kJ/mol
# GULP energy per Si atom -5577.202489 kJ/mol
# Density = 2.836502 g / cm^3
# Si number density = 28.429732 Si / 1000 Ang^3
#
#
#
# Elastic Constant Matrix: (Units=GPa)
#
#
# Indices 1 2 3 4 5 6 
#
# 1 84.2999 31.2223 33.2982 35.7841 -11.7492 -7.1144
# 2 31.2223 175.3692 89.6205 -6.4244 -17.8025 -6.9129
# 3 33.2982 89.6205 194.8940 -2.6447 -36.8974 6.6216
# 4 35.7841 -6.4244 -2.6447 54.9127 0.3712 -11.0510
# 5 -11.7492 -17.8025 -36.8974 0.3712 56.6314 12.2557
# 6 -7.1144 -6.9129 6.6216 -11.0510 12.2557 38.2775
#
#
#
# Elastic Compliance Matrix: (Units=1/GPa)
#
#
# Indices 1 2 3 4 5 6 
#
# 1 0.019530 -0.002915 -0.001682 -0.013416 0.002397 -0.001246
# 2 -0.002915 0.008124 -0.003463 0.003244 -0.000925 0.002757
# 3 -0.001682 -0.003463 0.008007 0.000301 0.004579 -0.003703
# 4 -0.013416 0.003244 0.000301 0.028870 -0.003370 0.007454
# 5 0.002397 -0.000925 0.004579 -0.003370 0.022770 -0.008777
# 6 -0.001246 0.002757 -0.003703 0.007454 -0.008777 0.031994
#
#
# Mechanical properties :
#
#
# Convention : Reuss Voigt Hill
#
# Bulk Modulus (GPa) = 51.16995 84.76055 67.96525
# Shear Modulus (GPa) = 35.22862 49.99245 42.61053
#
# Velocity S-wave (km/s) = 3.52397 4.19794 3.87564
# Velocity P-wave (km/s) = 5.88181 7.30587 6.63217
#
# Compressibility (1/GPa) = 0.01954272
#
# Stress axis : x y z
#
# Youngs Moduli (GPa) = 51.20245 123.08594 124.88295
#
# Poissons Ratio (x) = 0.35875 0.21011
# Poissons Ratio (y) = 0.14923 0.43243
# Poissons Ratio (z) = 0.08614 0.42621
#
# Static dielectric constant tensor:
#      x y z
#    x 2.732250 0.314780 -0.152310 
#    y 0.314780 2.501920 -0.053150 
#    z -0.152310 -0.053150 2.313950 
# 
# From -- ./inp_files/109710.got.cif
#   From: 2010.05.17/outbox.cif.g08.bks.cpg/sg2_55_cif.got.tgz:109710.got - 2010.06.03 11:33:40.
