data_PCOD9010397
_publ_section_title
;
Structure prediction by ZEFSAII (Michael W. Deem and Ramdas Pophale) SiO2 
 PCOD9010397
Probable space group: P -1
;
_chemical_formula_sum "Si O2"
_cell_formula_units_Z 16
_cell_length_a 14.167416
_cell_length_b 20.912934
_cell_length_c 9.897018
_cell_angle_alpha 121.538068
_cell_angle_beta 56.420962
_cell_angle_gamma 161.872020
_cell_volume 760.072033
_symmetry_space_group_name_H-M "P -1"
_symmetry_group_IT_number 2
_symmetry_cell_setting 'triclinic'
loop_
_space_group_symop_operation_xyz
x,y,z
-x,-y,-z
loop_
_atom_site_type_symbol
_atom_site_label
_atom_site_fract_x
_atom_site_fract_y
_atom_site_fract_z
Si Si1 0.322004 0.283079 0.454943
Si Si2 0.951251 0.152301 0.071628
Si Si3 0.703644 0.222131 0.690955
Si Si4 0.118849 0.600394 0.872846
Si Si5 0.806213 0.972262 0.739662
Si Si6 0.599133 0.998610 0.585580
Si Si7 0.779598 0.675582 0.659721
Si Si8 0.780224 0.195628 0.092610
O O1 0.294583 0.176906 0.345001
O O2 0.595035 0.486395 0.555784
O O3 0.361815 0.345326 0.344113
O O4 0.014229 0.115474 0.600683
O O5 0.936515 0.222140 0.076300
O O6 0.182014 0.293157 0.174092
O O7 0.609076 0.935277 0.171646
O O8 0.988726 0.110981 0.883711
O O9 0.745959 0.171803 0.686407
O O10 0.972950 0.448172 0.722952
O O11 0.638125 0.149858 0.515121
O O12 0.489299 0.823571 0.829143
O O13 0.004248 0.613686 0.947385
O O14 0.000000 0.500000 0.000000
O O15 0.877819 0.119539 0.449896
O O16 0.384110 0.852058 0.719960
O O17 0.500000 0.000000 0.000000
#
# Coordination Sequence:
#
# PCOD9010397 Si02
#       8
#     2   2   2   2   2   2   2   2
#     4  10  24  41  63  88 118 169 206 251 300 352
#     4  10  21  40  63  89 125 157 198 257 300 363
#     4   9  18  34  56  91 118 153 191 235 310 360
#     4  12  21  36  61  91 121 156 197 246 302 373
#     4  11  22  41  62  89 127 158 204 255 299 352
#     4   9  18  35  59  82 124 155 186 247 296 368
#     4  10  21  42  64  89 116 163 213 244 303 354
#     4  11  21  35  57  92 122 160 191 239 317 362
#
# _framework density 21.050636000000001
#
# number of rings (size 3 to 8) (size 9 to 14) (size 15 to 20)
#    0.000    1.750    2.500    3.000    0.000    1.500 
#    2.250    5.000    0.000    0.000    0.000    0.000 
#    0.000    0.000    0.000    0.000    0.000    0.000 
#
# Total GULP energy -89148.314513 kJ/mol
# GULP energy per Si atom -5571.769657 kJ/mol
# Density = 2.100272 g / cm^3
# Si number density = 21.050636 Si / 1000 Ang^3
#
#
#
# Elastic Constant Matrix: (Units=GPa)
#
#
# Indices 1 2 3 4 5 6 
#
# 1 70.1556 28.4002 49.7057 16.1356 27.2546 -16.1739
# 2 28.4002 54.2796 25.3021 22.9859 12.9316 -12.9626
# 3 49.7057 25.3021 112.8850 22.5384 23.3261 -14.7671
# 4 16.1356 22.9859 22.5384 40.3287 6.5887 -3.2166
# 5 27.2546 12.9316 23.3261 6.5887 29.7125 -2.9961
# 6 -16.1739 -12.9626 -14.7671 -3.2166 -2.9961 26.8909
#
#
#
# Elastic Compliance Matrix: (Units=1/GPa)
#
#
# Indices 1 2 3 4 5 6 
#
# 1 0.032018 -0.005558 -0.007048 -0.001612 -0.020023 0.010284
# 2 -0.005558 0.030242 0.000599 -0.013861 -0.004512 0.009403
# 3 -0.007048 0.000599 0.013759 -0.004450 -0.003339 0.002701
# 4 -0.001612 -0.013861 -0.004450 0.034941 0.002691 -0.005616
# 5 -0.020023 -0.004512 -0.003339 0.002691 0.055043 -0.009597
# 6 0.010284 0.009403 0.002701 -0.005616 -0.009597 0.047648
#
#
# Mechanical properties :
#
#
# Convention : Reuss Voigt Hill
#
# Bulk Modulus (GPa) = 19.22885 49.34846 34.28865
# Shear Modulus (GPa) = 19.60780 28.31389 23.96085
#
# Velocity S-wave (km/s) = 3.05529 3.67145 3.37745
# Velocity P-wave (km/s) = 4.64767 6.43944 5.61548
#
# Compressibility (1/GPa) = 0.05200519
#
# Stress axis : x y z
#
# Youngs Moduli (GPa) = 31.23269 33.06624 72.67757
#
# Poissons Ratio (x) = 0.18379 0.51221
# Poissons Ratio (y) = 0.17360 -0.04351
# Poissons Ratio (z) = 0.22012 -0.01980
#
# Static dielectric constant tensor:
#      x y z
#    x 1.833290 -0.032010 0.009750 
#    y -0.032010 1.843500 0.032220 
#    z 0.009750 0.032220 1.817470 
# 
# From -- ./inp_files/319053.got.cif
#   From: 2010.05.17/outbox.cif.g08.bks.cpg/sg2_160_cif.got.tgz:319053.got - 2010.06.03 11:33:40.
