data_PCOD9010671
_publ_section_title
;
Structure prediction by ZEFSAII (Michael W. Deem and Ramdas Pophale) SiO2 
 PCOD9010671
Probable space group: P -1
;
_chemical_formula_sum "Si O2"
_cell_formula_units_Z 14
_cell_length_a 11.779258
_cell_length_b 9.005181
_cell_length_c 9.497640
_cell_angle_alpha 43.494160
_cell_angle_beta 79.485429
_cell_angle_gamma 101.578446
_cell_volume 593.462471
_symmetry_space_group_name_H-M "P -1"
_symmetry_group_IT_number 2
_symmetry_cell_setting 'triclinic'
loop_
_space_group_symop_operation_xyz
x,y,z
-x,-y,-z
loop_
_atom_site_type_symbol
_atom_site_label
_atom_site_fract_x
_atom_site_fract_y
_atom_site_fract_z
Si Si1 0.159009 0.740945 0.973370
Si Si2 0.426712 0.730413 0.481221
Si Si3 0.297390 0.515275 0.947118
Si Si4 0.336474 0.093014 0.165028
Si Si5 0.968073 0.317124 0.504868
Si Si6 0.999026 0.104550 0.273377
Si Si7 0.323318 0.225151 0.757329
O O1 0.200556 0.965886 0.917603
O O2 0.274639 0.675116 0.959859
O O3 0.145440 0.332566 0.053981
O O4 0.040094 0.492298 0.235538
O O5 0.426630 0.975766 0.264169
O O6 0.318981 0.480307 0.594148
O O7 0.563521 0.740165 0.402913
O O8 0.387077 0.684640 0.684404
O O9 0.110349 0.819653 0.790610
O O10 0.345793 0.316369 0.105391
O O11 0.186559 0.864903 0.363195
O O12 0.360950 0.189442 0.932486
O O13 0.000000 0.500000 0.500000
O O14 0.024829 0.130993 0.651594
O O15 0.000000 0.000000 0.500000
#
# Coordination Sequence:
#
# PCOD9010671 Si02
#       7
#     2   2   2   2   2   2   2
#     4  12  24  39  62  92 129 154 202 255 296 359
#     4  10  22  42  65  83 123 162 206 248 301 352
#     4  10  23  39  62  90 118 164 202 238 306 363
#     4  10  21  40  64  87 121 162 201 242 304 363
#     4  11  23  38  60  95 124 152 201 248 304 365
#     4  11  24  40  62  89 125 165 195 239 311 367
#     4  10  23  41  61  93 117 161 205 253 300 350
#
# _framework density 23.59037
#
# number of rings (size 3 to 8) (size 9 to 14) (size 15 to 20)
#    0.000    1.429    2.857    1.714    6.000    1.143 
#    0.000    0.714    0.000    0.000    0.000    0.000 
#    0.000    0.000    0.000    0.000    0.000    0.000 
#
# Total GULP energy -78254.252382 kJ/mol
# GULP energy per Si atom -5589.589456 kJ/mol
# Density = 2.353668 g / cm^3
# Si number density = 23.590370 Si / 1000 Ang^3
#
#
#
# Elastic Constant Matrix: (Units=GPa)
#
#
# Indices 1 2 3 4 5 6 
#
# 1 59.5171 20.9624 35.6155 -8.4972 12.9643 -20.8165
# 2 20.9624 81.8770 13.9986 -22.6469 15.7848 -21.4950
# 3 35.6155 13.9986 105.8259 4.0040 -3.6986 -3.7596
# 4 -8.4972 -22.6469 4.0040 42.5964 -15.5800 -4.1511
# 5 12.9643 15.7848 -3.6986 -15.5800 41.9936 -10.3934
# 6 -20.8165 -21.4950 -3.7596 -4.1511 -10.3934 32.1611
#
#
#
# Elastic Compliance Matrix: (Units=1/GPa)
#
#
# Indices 1 2 3 4 5 6 
#
# 1 0.031839 0.002557 -0.010761 0.009782 -0.002809 0.021414
# 2 0.002557 0.020064 -0.003417 0.013238 0.000361 0.016491
# 3 -0.010761 -0.003417 0.013516 -0.005283 0.001924 -0.007729
# 4 0.009782 0.013238 -0.005283 0.039689 0.012104 0.023595
# 5 -0.002809 0.000361 0.001924 0.012104 0.031800 0.010487
# 6 0.021414 0.016491 -0.007729 0.023595 0.010487 0.061506
#
#
# Mechanical properties :
#
#
# Convention : Reuss Voigt Hill
#
# Bulk Modulus (GPa) = 23.70976 43.15256 33.43116
# Shear Modulus (GPa) = 21.21209 35.12645 28.16927
#
# Velocity S-wave (km/s) = 3.00189 3.86296 3.45932
# Velocity P-wave (km/s) = 4.69974 6.18295 5.49165
#
# Compressibility (1/GPa) = 0.04217673
#
# Stress axis : x y z
#
# Youngs Moduli (GPa) = 31.40831 49.83976 73.98829
#
# Poissons Ratio (x) = -0.12745 0.79619
# Poissons Ratio (y) = -0.08032 0.25283
# Poissons Ratio (z) = 0.33799 0.17031
#
# Static dielectric constant tensor:
#      x y z
#    x 1.941400 -0.021050 -0.008210 
#    y -0.021050 1.959280 -0.017770 
#    z -0.008210 -0.017770 1.871910 
# 
# From -- ./inp_files/294070.got.cif
#   From: 2010.05.17/outbox.cif.g08.bks.cpg/sg2_148_cif.got.tgz:294070.got - 2010.06.03 11:33:40.
