data_PCOD9010373
_publ_section_title
;
Structure prediction by ZEFSAII (Michael W. Deem and Ramdas Pophale) SiO2 
 PCOD9010373
Probable space group: P -1
;
_chemical_formula_sum "Si O2"
_cell_formula_units_Z 13
_cell_length_a 12.815292
_cell_length_b 9.872837
_cell_length_c 6.593635
_cell_angle_alpha 135.651530
_cell_angle_beta 75.410519
_cell_angle_gamma 106.429296
_cell_volume 557.811127
_symmetry_space_group_name_H-M "P -1"
_symmetry_group_IT_number 2
_symmetry_cell_setting 'triclinic'
loop_
_space_group_symop_operation_xyz
x,y,z
-x,-y,-z
loop_
_atom_site_type_symbol
_atom_site_label
_atom_site_fract_x
_atom_site_fract_y
_atom_site_fract_z
Si Si1 0.168108 0.522318 0.091279
Si Si2 0.245543 0.976798 0.500195
Si Si3 0.660227 0.540598 0.365954
Si Si4 0.913468 0.848298 0.499576
Si Si5 0.167634 0.258427 0.176951
Si Si6 0.500000 0.000000 0.500000
Si Si7 0.466400 0.791071 0.689397
O O1 0.181949 0.755012 0.314347
O O2 0.143564 0.434238 0.231885
O O3 0.284803 0.480993 0.900954
O O4 0.090416 0.371675 0.822009
O O5 0.376808 0.006202 0.467683
O O6 0.198374 0.071281 0.424942
O O7 0.208526 0.101681 0.840306
O O8 0.738051 0.652548 0.618353
O O9 0.558481 0.652482 0.507232
O O10 0.627922 0.326439 0.251689
O O11 0.924550 0.836439 0.722411
O O12 0.000000 0.000000 0.500000
O O13 0.442734 0.837567 0.520044
O O14 0.500000 0.000000 0.000000
#
# Coordination Sequence:
#
# PCOD9010373 Si02
#       7
#     2   2   2   2   2   1   2
#     4  10  22  40  62  92 124 160 210 258 312 376
#     4  11  24  40  63  95 128 166 210 256 311 374
#     4  10  22  38  56  85 125 167 210 256 309 368
#     4  10  24  46  67  91 125 162 208 265 319 374
#     4  10  21  40  63  88 123 164 205 256 314 374
#     4  12  22  36  60  92 128 164 204 250 302 366
#     4  11  22  35  56  84 121 170 216 257 303 361
#
# _framework density 23.305377
#
# number of rings (size 3 to 8) (size 9 to 14) (size 15 to 20)
#    0.000    1.538    0.000    5.538    0.000    8.000 
#    0.000    9.231    0.000    0.000    0.000    0.000 
#    0.000    0.000    0.000    0.000    0.000    0.000 
#
# Total GULP energy -72368.697008 kJ/mol
# GULP energy per Si atom -5566.822847 kJ/mol
# Density = 2.325233 g / cm^3
# Si number density = 23.305377 Si / 1000 Ang^3
#
#
#
# Elastic Constant Matrix: (Units=GPa)
#
#
# Indices 1 2 3 4 5 6 
#
# 1 46.8931 11.8874 3.7992 5.3586 -0.5818 3.1218
# 2 11.8874 207.1364 68.1808 -3.7494 0.4496 8.0399
# 3 3.7992 68.1808 74.2984 11.8367 7.2368 -4.4891
# 4 5.3586 -3.7494 11.8367 56.6179 2.6712 3.0370
# 5 -0.5818 0.4496 7.2368 2.6712 20.8966 0.0283
# 6 3.1218 8.0399 -4.4891 3.0370 0.0283 42.1774
#
#
#
# Elastic Compliance Matrix: (Units=1/GPa)
#
#
# Indices 1 2 3 4 5 6 
#
# 1 0.021986 -0.001368 0.000335 -0.002217 0.000811 -0.001172
# 2 -0.001368 0.007505 -0.007516 0.002220 0.002122 -0.002290
# 3 0.000335 -0.007516 0.022056 -0.005039 -0.006829 0.004123
# 4 -0.002217 0.002220 -0.005039 0.019228 -0.000819 -0.002180
# 5 0.000811 0.002122 -0.006829 -0.000819 0.050303 -0.001166
# 6 -0.001172 -0.002290 0.004123 -0.002180 -0.001166 0.024829
#
#
# Mechanical properties :
#
#
# Convention : Reuss Voigt Hill
#
# Bulk Modulus (GPa) = 29.02873 55.11809 42.07341
# Shear Modulus (GPa) = 28.65529 40.23576 34.44552
#
# Velocity S-wave (km/s) = 3.51031 4.15957 3.84866
# Velocity P-wave (km/s) = 5.37704 6.83894 6.15157
#
# Compressibility (1/GPa) = 0.03444863
#
# Stress axis : x y z
#
# Youngs Moduli (GPa) = 45.48297 133.25218 45.33932
#
# Poissons Ratio (x) = 0.18234 -0.01518
# Poissons Ratio (y) = 0.06224 0.34075
# Poissons Ratio (z) = -0.01523 1.00146
#
# Static dielectric constant tensor:
#      x y z
#    x 1.962710 0.083380 -0.016240 
#    y 0.083380 1.924430 -0.011820 
#    z -0.016240 -0.011820 1.872300 
# 
# From -- ./inp_files/89531.got.cif
#   From: 2010.05.17/outbox.cif.g08.bks.cpg/sg2_45_cif.got.tgz:89531.got - 2010.06.03 11:33:40.
