data_PCOD9010874
_publ_section_title
;
Structure prediction by ZEFSAII (Michael W. Deem and Ramdas Pophale) SiO2 
 PCOD9010874
Probable space group: P -1
;
_chemical_formula_sum "Si O2"
_cell_formula_units_Z 14
_cell_length_a 12.084060
_cell_length_b 8.346372
_cell_length_c 22.005049
_cell_angle_alpha 121.662477
_cell_angle_beta 151.271033
_cell_angle_gamma 76.748061
_cell_volume 749.316535
_symmetry_space_group_name_H-M "P -1"
_symmetry_group_IT_number 2
_symmetry_cell_setting 'triclinic'
loop_
_space_group_symop_operation_xyz
x,y,z
-x,-y,-z
loop_
_atom_site_type_symbol
_atom_site_label
_atom_site_fract_x
_atom_site_fract_y
_atom_site_fract_z
Si Si1 0.775283 0.524619 0.713491
Si Si2 0.194358 0.684894 0.545993
Si Si3 0.028501 0.736094 0.050623
Si Si4 0.518896 0.803883 0.601728
Si Si5 0.354086 0.826661 0.105723
Si Si6 0.471199 0.447636 0.675721
Si Si7 0.256192 0.246724 0.651455
O O1 0.675081 0.684564 0.674775
O O2 0.654037 0.321580 0.566609
O O3 0.629581 0.432773 0.691192
O O4 0.111134 0.677523 0.910864
O O5 0.312239 0.761606 0.549331
O O6 0.252403 0.499347 0.557042
O O7 0.876478 0.607194 0.380309
O O8 0.388114 0.911082 0.726559
O O9 0.181247 0.839336 0.080576
O O10 0.233749 0.931001 0.234912
O O11 0.000000 0.500000 0.000000
O O12 0.715157 0.663024 0.875654
O O13 0.489258 0.697353 0.171963
O O14 0.337267 0.247348 0.620617
O O15 0.000000 0.000000 0.500000
#
# Coordination Sequence:
#
# PCOD9010874 Si02
#       7
#     2   2   2   2   2   2   2
#     4   9  18  32  54  76 105 130 165 207 255 303
#     4   9  18  31  52  74  98 134 174 203 242 298
#     4  10  17  29  52  73 105 126 163 212 250 295
#     4   9  18  33  51  79 104 133 161 207 256 298
#     4   9  17  31  49  74  99 133 164 207 254 291
#     4  10  18  31  52  76  97 130 172 209 248 296
#     4  10  19  31  50  71 103 131 169 213 248 290
#
# _framework density 18.683693000000002
#
# number of rings (size 3 to 8) (size 9 to 14) (size 15 to 20)
#    0.000    2.571    1.429    1.286    0.000    3.429 
#    0.000    3.571    0.000    3.429    0.000   17.000 
#    0.000    0.000    0.000    0.000    0.000    0.000 
#
# Total GULP energy -77941.366919 kJ/mol
# GULP energy per Si atom -5567.240494 kJ/mol
# Density = 1.864117 g / cm^3
# Si number density = 18.683693 Si / 1000 Ang^3
#
#
#
# Elastic Constant Matrix: (Units=GPa)
#
#
# Indices 1 2 3 4 5 6 
#
# 1 56.8538 14.6620 43.3678 -0.5274 -3.6897 5.4570
# 2 14.6620 44.5602 23.1820 -7.4555 -3.2238 1.6515
# 3 43.3678 23.1820 117.8055 -9.9610 -16.7050 -6.3716
# 4 -0.5274 -7.4555 -9.9610 35.3829 -8.5090 7.3872
# 5 -3.6897 -3.2238 -16.7050 -8.5090 29.9959 -1.6871
# 6 5.4570 1.6515 -6.3716 7.3872 -1.6871 23.9303
#
#
#
# Elastic Compliance Matrix: (Units=1/GPa)
#
#
# Indices 1 2 3 4 5 6 
#
# 1 0.027048 -0.003909 -0.010436 -0.002646 -0.004114 -0.008150
# 2 -0.003909 0.026656 -0.003203 0.005880 0.002073 -0.003470
# 3 -0.010436 -0.003203 0.014764 0.004045 0.008071 0.005852
# 4 -0.002646 0.005880 0.004045 0.035342 0.012091 -0.008783
# 5 -0.004114 0.002073 0.008071 0.012091 0.041098 0.002109
# 6 -0.008150 -0.003470 0.005852 -0.008783 0.002109 0.048304
#
#
# Mechanical properties :
#
#
# Convention : Reuss Voigt Hill
#
# Bulk Modulus (GPa) = 29.96495 42.40478 36.18487
# Shear Modulus (GPa) = 20.88272 27.06232 23.97252
#
# Velocity S-wave (km/s) = 3.34683 3.80997 3.58589
# Velocity P-wave (km/s) = 5.56847 6.48845 6.04598
#
# Compressibility (1/GPa) = 0.03337232
#
# Stress axis : x y z
#
# Youngs Moduli (GPa) = 36.97081 37.51437 67.73397
#
# Poissons Ratio (x) = 0.14664 0.70687
# Poissons Ratio (y) = 0.14452 0.21696
# Poissons Ratio (z) = 0.38583 0.12016
#
# Static dielectric constant tensor:
#      x y z
#    x 1.670330 -0.002300 0.014270 
#    y -0.002300 1.732740 -0.014450 
#    z 0.014270 -0.014450 1.686260 
# 
# From -- ./inp_files/166060.got.cif
#   From: 2010.05.17/outbox.cif.g08.bks.cpg/sg2_84_cif.got.tgz:166060.got - 2010.06.03 11:33:40.
