data_PCOD9010782
_publ_section_title
;
Structure prediction by ZEFSAII (Michael W. Deem and Ramdas Pophale) SiO2 
 PCOD9010782
Probable space group: P -1
;
_chemical_formula_sum "Si O2"
_cell_formula_units_Z 15
_cell_length_a 8.431388
_cell_length_b 13.065598
_cell_length_c 7.573844
_cell_angle_alpha 65.072022
_cell_angle_beta 54.330680
_cell_angle_gamma 95.188256
_cell_volume 546.935247
_symmetry_space_group_name_H-M "P -1"
_symmetry_group_IT_number 2
_symmetry_cell_setting 'triclinic'
loop_
_space_group_symop_operation_xyz
x,y,z
-x,-y,-z
loop_
_atom_site_type_symbol
_atom_site_label
_atom_site_fract_x
_atom_site_fract_y
_atom_site_fract_z
Si Si1 0.307291 0.048767 0.714961
Si Si2 0.500000 0.500000 0.500000
Si Si3 0.787101 0.225852 0.338440
Si Si4 0.609641 0.284897 0.759272
Si Si5 0.309345 0.569359 0.923559
Si Si6 0.060308 0.341109 0.519619
Si Si7 0.278276 0.199455 0.322095
Si Si8 0.923044 0.803672 0.083114
O O1 0.566573 0.105745 0.499052
O O2 0.229684 0.076054 0.556597
O O3 0.148035 0.903066 0.962625
O O4 0.242293 0.136939 0.822516
O O5 0.563134 0.393744 0.626804
O O6 0.373047 0.506218 0.765030
O O7 0.705220 0.232047 0.581375
O O8 0.813890 0.354388 0.132112
O O9 0.998468 0.212406 0.148054
O O10 0.820250 0.328501 0.719355
O O11 0.389805 0.194182 0.071523
O O12 0.525572 0.679974 0.793210
O O13 0.186032 0.464427 0.228013
O O14 0.082021 0.233594 0.463405
O O15 0.157397 0.327339 0.659307
#
# Coordination Sequence:
#
# PCOD9010782 Si02
#       8
#     2   1   2   2   2   2   2   2
#     4   9  20  41  67  86 115 159 202 249 299 349
#     4  10  22  40  56  82 126 158 194 244 290 362
#     4  10  22  38  58  89 122 158 195 248 301 353
#     4  11  24  39  57  89 125 161 202 240 304 355
#     4  10  21  41  59  91 120 160 199 241 307 351
#     4  11  22  38  61  90 118 160 199 250 289 358
#     4  10  21  41  62  88 119 160 204 247 292 360
#     4  10  21  40  64  92 115 154 208 245 297 358
#
# _framework density 27.425550999999999
#
# number of rings (size 3 to 8) (size 9 to 14) (size 15 to 20)
#    0.000    1.867    1.333    2.400    0.000    5.333 
#   12.000    2.667    0.000    4.800    0.000    0.000 
#    0.000    0.000    0.000    0.000    0.000    0.000 
#
# Total GULP energy -83738.471477 kJ/mol
# GULP energy per Si atom -5582.564765 kJ/mol
# Density = 2.736313 g / cm^3
# Si number density = 27.425551 Si / 1000 Ang^3
#
#
#
# Elastic Constant Matrix: (Units=GPa)
#
#
# Indices 1 2 3 4 5 6 
#
# 1 49.5378 15.2080 23.9516 17.5790 -18.3734 -26.9773
# 2 15.2080 112.8832 58.6708 24.4200 1.4642 -14.3963
# 3 23.9516 58.6708 189.0849 37.1990 1.4942 -13.0019
# 4 17.5790 24.4200 37.1990 66.5363 6.8304 -10.8529
# 5 -18.3734 1.4642 1.4942 6.8304 37.8824 17.6922
# 6 -26.9773 -14.3963 -13.0019 -10.8529 17.6922 30.1015
#
#
#
# Elastic Compliance Matrix: (Units=1/GPa)
#
#
# Indices 1 2 3 4 5 6 
#
# 1 0.043091 0.000627 -0.002387 -0.005908 0.007354 0.031436
# 2 0.000627 0.011356 -0.002894 -0.001573 -0.002326 0.005543
# 3 -0.002387 -0.002894 0.006863 -0.002301 -0.000349 -0.001184
# 4 -0.005908 -0.001573 -0.002301 0.020275 -0.008953 0.005532
# 5 0.007354 -0.002326 -0.000349 -0.008953 0.042317 -0.022773
# 6 0.031436 0.005543 -0.001184 0.005532 -0.022773 0.078912
#
#
# Mechanical properties :
#
#
# Convention : Reuss Voigt Hill
#
# Bulk Modulus (GPa) = 19.23022 60.79631 40.01327
# Shear Modulus (GPa) = 21.79049 43.81575 32.80312
#
# Velocity S-wave (km/s) = 2.82180 4.00137 3.46219
# Velocity P-wave (km/s) = 4.20045 6.60029 5.53207
#
# Compressibility (1/GPa) = 0.05200147
#
# Stress axis : x y z
#
# Youngs Moduli (GPa) = 23.20652 88.06166 145.70587
#
# Poissons Ratio (x) = -0.05522 0.34785
# Poissons Ratio (y) = -0.01455 0.42168
# Poissons Ratio (z) = 0.05540 0.25486
#
# Static dielectric constant tensor:
#      x y z
#    x 2.417050 0.209880 0.008360 
#    y 0.209880 2.194660 -0.005820 
#    z 0.008360 -0.005820 2.075190 
# 
# From -- ./inp_files/267038.got.cif
#   From: 2010.05.17/outbox.cif.g08.bks.cpg/sg2_134_cif.got.tgz:267038.got - 2010.06.03 11:33:40.
