data_PCOD9010388
_publ_section_title
;
Structure prediction by ZEFSAII (Michael W. Deem and Ramdas Pophale) SiO2 
 PCOD9010388
Probable space group: P -1
;
_chemical_formula_sum "Si O2"
_cell_formula_units_Z 16
_cell_length_a 5.209026
_cell_length_b 12.839676
_cell_length_c 13.354014
_cell_angle_alpha 65.591991
_cell_angle_beta 107.226505
_cell_angle_gamma 107.545586
_cell_volume 760.192315
_symmetry_space_group_name_H-M "P -1"
_symmetry_group_IT_number 2
_symmetry_cell_setting 'triclinic'
loop_
_space_group_symop_operation_xyz
x,y,z
-x,-y,-z
loop_
_atom_site_type_symbol
_atom_site_label
_atom_site_fract_x
_atom_site_fract_y
_atom_site_fract_z
Si Si1 0.166146 0.053118 0.620174
Si Si2 0.902647 0.641573 0.578931
Si Si3 0.933940 0.375688 0.738251
Si Si4 0.076542 0.415436 0.128837
Si Si5 0.639366 0.154618 0.476346
Si Si6 0.639138 0.503113 0.123459
Si Si7 0.154807 0.199184 0.294410
Si Si8 0.678235 0.725618 0.327573
O O1 0.111370 0.914742 0.472996
O O2 0.080897 0.916538 0.688203
O O3 0.430610 0.097866 0.562245
O O4 0.223334 0.137763 0.689162
O O5 0.911897 0.507384 0.651007
O O6 0.849915 0.716679 0.641437
O O7 0.687129 0.659128 0.461473
O O8 0.194813 0.713059 0.541644
O O9 0.626827 0.303171 0.740182
O O10 0.124256 0.391582 0.854011
O O11 0.106419 0.319431 0.700272
O O12 0.378188 0.481622 0.174810
O O13 0.125245 0.286410 0.165585
O O14 0.812614 0.401946 0.175407
O O15 0.000000 0.500000 0.000000
O O16 0.443731 0.159406 0.356559
O O17 0.500000 0.500000 0.000000
#
# Coordination Sequence:
#
# PCOD9010388 Si02
#       8
#     2   2   2   2   2   2   2   2
#     4  11  25  39  56  85 124 174 217 240 290 355
#     4  11  24  36  59  87 124 163 214 242 305 349
#     4  12  23  39  58  85 124 163 200 246 304 370
#     4  10  22  39  61  94 121 141 193 267 335 356
#     4  11  22  37  54  87 120 164 211 254 291 347
#     4  10  21  40  63  89 116 143 197 259 319 361
#     4  12  23  37  65  87 123 164 210 265 301 354
#     4  11  24  37  53  82 128 174 198 235 284 375
#
# _framework density 21.047307
#
# number of rings (size 3 to 8) (size 9 to 14) (size 15 to 20)
#    0.000    1.000    3.750    4.500    3.500    0.000 
#    0.000    0.000    0.000    0.000    0.000   21.000 
#    0.000    0.000    0.000    0.000    0.000    0.000 
#
# Total GULP energy -89162.516844 kJ/mol
# GULP energy per Si atom -5572.657303 kJ/mol
# Density = 2.099940 g / cm^3
# Si number density = 21.047307 Si / 1000 Ang^3
#
#
#
# Elastic Constant Matrix: (Units=GPa)
#
#
# Indices 1 2 3 4 5 6 
#
# 1 145.0295 33.9993 16.9211 -0.3344 23.1832 9.5910
# 2 33.9993 124.1125 34.5565 2.3443 5.6834 11.2393
# 3 16.9211 34.5565 73.7449 -1.9809 12.1964 5.3134
# 4 -0.3344 2.3443 -1.9809 34.0522 1.1716 1.1509
# 5 23.1832 5.6834 12.1964 1.1716 26.5287 7.1597
# 6 9.5910 11.2393 5.3134 1.1509 7.1597 36.5449
#
#
#
# Elastic Compliance Matrix: (Units=1/GPa)
#
#
# Indices 1 2 3 4 5 6 
#
# 1 0.008493 -0.002047 0.000205 0.000487 -0.007027 -0.000268
# 2 -0.002047 0.009979 -0.004457 -0.000970 0.002368 -0.002317
# 3 0.000205 -0.004457 0.016797 0.001522 -0.007071 0.000212
# 4 0.000487 -0.000970 0.001522 0.029617 -0.002070 -0.000578
# 5 -0.007027 0.002368 -0.007071 -0.002070 0.048647 -0.007321
# 6 -0.000268 -0.002317 0.000212 -0.000578 -0.007321 0.029568
#
#
# Mechanical properties :
#
#
# Convention : Reuss Voigt Hill
#
# Bulk Modulus (GPa) = 44.10980 57.09339 50.60159
# Shear Modulus (GPa) = 30.62680 36.58585 33.60632
#
# Velocity S-wave (km/s) = 3.81877 4.17378 4.00021
# Velocity P-wave (km/s) = 6.35979 7.10016 6.74015
#
# Compressibility (1/GPa) = 0.02267070
#
# Stress axis : x y z
#
# Youngs Moduli (GPa) = 117.74117 100.21478 59.53518
#
# Poissons Ratio (x) = 0.20512 -0.01220
# Poissons Ratio (y) = 0.24100 0.26535
# Poissons Ratio (z) = -0.02412 0.44666
#
# Static dielectric constant tensor:
#      x y z
#    x 1.908370 -0.023960 -0.109330 
#    y -0.023960 1.805440 0.008940 
#    z -0.109330 0.008940 1.988630 
# 
# From -- ./inp_files/482775.got.cif
#   From: 2010.05.17/outbox.cif.g08.bks.cpg/sg2_242_cif.got.tgz:482775.got - 2010.06.03 11:33:40.
