data_PCOD9010995
_publ_section_title
;
Structure prediction by ZEFSAII (Michael W. Deem and Ramdas Pophale) SiO2 
 PCOD9010995
Probable space group: P -1
;
_chemical_formula_sum "Si O2"
_cell_formula_units_Z 14
_cell_length_a 20.776937
_cell_length_b 9.263380
_cell_length_c 11.891223
_cell_angle_alpha 135.412076
_cell_angle_beta 27.852039
_cell_angle_gamma 145.437149
_cell_volume 605.487468
_symmetry_space_group_name_H-M "P -1"
_symmetry_group_IT_number 2
_symmetry_cell_setting 'triclinic'
loop_
_space_group_symop_operation_xyz
x,y,z
-x,-y,-z
loop_
_atom_site_type_symbol
_atom_site_label
_atom_site_fract_x
_atom_site_fract_y
_atom_site_fract_z
Si Si1 0.921065 0.146891 0.166249
Si Si2 0.222389 0.719374 0.333716
Si Si3 0.167216 0.709927 0.032081
Si Si4 0.688753 0.145685 0.346603
Si Si5 0.245467 0.333418 0.387686
Si Si6 0.951411 0.797535 0.589089
Si Si7 0.407500 0.067292 0.031203
O O1 0.864024 0.207348 0.402951
O O2 0.758591 0.040194 0.272395
O O3 0.078588 0.412413 0.016746
O O4 0.000000 0.000000 0.000000
O O5 0.112186 0.411703 0.332425
O O6 0.270494 0.865086 0.222795
O O7 0.405739 0.824488 0.159889
O O8 0.188459 0.779472 0.908590
O O9 0.048841 0.750892 0.315351
O O10 0.351131 0.901322 0.913150
O O11 0.721278 0.401128 0.490451
O O12 0.500000 0.000000 0.500000
O O13 0.207917 0.270467 0.277792
O O14 0.389846 0.296450 0.174762
O O15 0.081193 0.096133 0.577631
#
# Coordination Sequence:
#
# PCOD9010995 Si02
#       7
#     2   2   2   2   2   2   2
#     4  11  25  45  70 100 132 187 232 280 340 409
#     4  10  21  44  66  97 142 170 233 283 342 394
#     4  10  22  42  65  96 137 178 228 279 340 407
#     4  12  25  46  68 101 144 179 224 288 345 410
#     4  10  21  40  65 100 125 176 230 275 340 399
#     4   9  20  40  67  94 127 173 229 289 324 398
#     4  10  23  41  67 101 135 182 219 291 339 405
#
# _framework density 23.121867000000002
#
# number of rings (size 3 to 8) (size 9 to 14) (size 15 to 20)
#    0.000    1.714    2.857    1.286    2.000    5.714 
#   10.286    1.429    0.000    0.000    0.000    0.000 
#    0.000    0.000    0.000    0.000    0.000    0.000 
#
# Total GULP energy -78187.163252 kJ/mol
# GULP energy per Si atom -5584.797375 kJ/mol
# Density = 2.306924 g / cm^3
# Si number density = 23.121867 Si / 1000 Ang^3
#
#
#
# Elastic Constant Matrix: (Units=GPa)
#
#
# Indices 1 2 3 4 5 6 
#
# 1 152.3213 40.6582 50.5469 9.2651 -16.4115 -9.5720
# 2 40.6582 94.9453 33.0188 -6.4718 -17.6822 -9.2855
# 3 50.5469 33.0188 79.2955 -3.2762 -15.2041 -12.0655
# 4 9.2651 -6.4718 -3.2762 27.8317 -10.2177 -6.0258
# 5 -16.4115 -17.6822 -15.2041 -10.2177 45.1995 -3.9833
# 6 -9.5720 -9.2855 -12.0655 -6.0258 -3.9833 47.0526
#
#
#
# Elastic Compliance Matrix: (Units=1/GPa)
#
#
# Indices 1 2 3 4 5 6 
#
# 1 0.009144 -0.002597 -0.005123 -0.004564 -0.000503 -0.000593
# 2 -0.002597 0.014287 -0.002508 0.006569 0.005548 0.002959
# 3 -0.005123 -0.002508 0.018901 0.006298 0.005343 0.004568
# 4 -0.004564 0.006569 0.006298 0.047032 0.014476 0.009231
# 5 -0.000503 0.005548 0.005343 0.014476 0.029775 0.006737
# 6 -0.000593 0.002959 0.004568 0.009231 0.006737 0.024640
#
#
# Mechanical properties :
#
#
# Convention : Reuss Voigt Hill
#
# Bulk Modulus (GPa) = 45.71230 63.88999 54.80114
# Shear Modulus (GPa) = 29.14964 37.50596 33.32780
#
# Velocity S-wave (km/s) = 3.55448 4.03190 3.80069
# Velocity P-wave (km/s) = 6.05465 7.02615 6.55842
#
# Compressibility (1/GPa) = 0.02187595
#
# Stress axis : x y z
#
# Youngs Moduli (GPa) = 109.35552 69.99235 52.90772
#
# Poissons Ratio (x) = 0.18178 0.27104
# Poissons Ratio (y) = 0.28401 0.13271
# Poissons Ratio (z) = 0.56022 0.17556
#
# Static dielectric constant tensor:
#      x y z
#    x 1.949520 0.009790 -0.067080 
#    y 0.009790 1.907210 -0.042490 
#    z -0.067080 -0.042490 1.903180 
# 
# From -- ./inp_files/470111.got.cif
#   From: 2010.05.17/outbox.cif.g08.bks.cpg/sg2_236_cif.got.tgz:470111.got - 2010.06.03 11:33:40.
