data_PCOD9010627
_publ_section_title
;
Structure prediction by ZEFSAII (Michael W. Deem and Ramdas Pophale) SiO2 
 PCOD9010627
Probable space group: P -1
;
_chemical_formula_sum "Si O2"
_cell_formula_units_Z 14
_cell_length_a 11.602928
_cell_length_b 14.785634
_cell_length_c 20.752626
_cell_angle_alpha 27.251623
_cell_angle_beta 22.635862
_cell_angle_gamma 40.215183
_cell_volume 593.832506
_symmetry_space_group_name_H-M "P -1"
_symmetry_group_IT_number 2
_symmetry_cell_setting 'triclinic'
loop_
_space_group_symop_operation_xyz
x,y,z
-x,-y,-z
loop_
_atom_site_type_symbol
_atom_site_label
_atom_site_fract_x
_atom_site_fract_y
_atom_site_fract_z
Si Si1 0.236080 0.389748 0.477351
Si Si2 0.882150 0.963927 0.979619
Si Si3 0.395304 0.695339 0.501531
Si Si4 0.450111 0.680475 0.285700
Si Si5 0.555558 0.959957 0.653952
Si Si6 0.246137 0.290724 0.398433
Si Si7 0.307295 0.360260 0.130295
O O1 0.500554 0.578880 0.255969
O O2 0.305749 0.264975 0.459548
O O3 0.000000 0.500000 0.500000
O O4 0.032335 0.213971 0.743420
O O5 0.178436 0.880857 0.888615
O O6 0.640607 0.869889 0.221136
O O7 0.699717 0.886897 0.055160
O O8 0.519888 0.499319 0.567572
O O9 0.047299 0.637168 0.688861
O O10 0.361864 0.798240 0.523038
O O11 0.105027 0.704987 0.441206
O O12 0.695854 0.884573 0.566482
O O13 0.672709 0.862212 0.717947
O O14 0.497940 0.518695 0.107587
O O15 0.500000 0.500000 0.000000
#
# Coordination Sequence:
#
# PCOD9010627 Si02
#       7
#     2   2   2   2   2   2   2
#     4  10  25  45  68  98 134 183 228 271 329 400
#     4  12  24  43  73  98 137 175 227 279 331 399
#     4  12  24  42  70 105 132 174 228 275 339 403
#     4  11  23  45  69 102 131 181 226 272 336 399
#     4  11  23  41  66 103 133 173 215 284 341 385
#     4  10  23  45  66  95 143 172 224 275 332 402
#     4  10  21  40  63  98 134 171 212 277 338 387
#
# _framework density 23.575671
#
# number of rings (size 3 to 8) (size 9 to 14) (size 15 to 20)
#    0.000    1.143    1.429    5.571    4.000    2.857 
#    2.571    1.429    0.000    0.000    0.000    0.000 
#    0.000    0.000    0.000    0.000    0.000    0.000 
#
# Total GULP energy -78181.747781 kJ/mol
# GULP energy per Si atom -5584.410556 kJ/mol
# Density = 2.352201 g / cm^3
# Si number density = 23.575671 Si / 1000 Ang^3
#
#
#
# Elastic Constant Matrix: (Units=GPa)
#
#
# Indices 1 2 3 4 5 6 
#
# 1 83.9086 16.7584 17.8370 25.6891 -28.4180 12.3300
# 2 16.7584 111.4519 16.1307 17.4988 -18.7930 11.5177
# 3 17.8370 16.1307 52.9851 25.7376 -18.9759 -5.7741
# 4 25.6891 17.4988 25.7376 30.6687 -7.6837 -4.7548
# 5 -28.4180 -18.7930 -18.9759 -7.6837 41.2360 1.7191
# 6 12.3300 11.5177 -5.7741 -4.7548 1.7191 46.1198
#
#
#
# Elastic Compliance Matrix: (Units=1/GPa)
#
#
# Indices 1 2 3 4 5 6 
#
# 1 0.025887 0.003461 0.009932 -0.028806 0.019046 -0.010221
# 2 0.003461 0.011410 0.002382 -0.010415 0.006941 -0.004809
# 3 0.009932 0.002382 0.040494 -0.039265 0.019371 -0.002951
# 4 -0.028806 -0.010415 -0.039265 0.091496 -0.026277 0.015799
# 5 0.019046 0.006941 0.019371 -0.026277 0.044924 -0.008784
# 6 -0.010221 -0.004809 -0.002951 0.015799 -0.008784 0.027203
#
#
# Mechanical properties :
#
#
# Convention : Reuss Voigt Hill
#
# Bulk Modulus (GPa) = 9.14582 38.86643 24.00612
# Shear Modulus (GPa) = 20.29954 36.77952 28.53953
#
# Velocity S-wave (km/s) = 2.93753 3.95405 3.48307
# Velocity P-wave (km/s) = 3.92342 6.11290 5.13618
#
# Compressibility (1/GPa) = 0.10933961
#
# Stress axis : x y z
#
# Youngs Moduli (GPa) = 38.62938 87.64332 24.69516
#
# Poissons Ratio (x) = -0.30331 -0.24526
# Poissons Ratio (y) = -0.13369 -0.05883
# Poissons Ratio (z) = -0.38365 -0.20877
#
# Static dielectric constant tensor:
#      x y z
#    x 2.031550 -0.002730 0.080150 
#    y -0.002730 1.962930 -0.050090 
#    z 0.080150 -0.050090 1.910680 
# 
# From -- ./inp_files/426625.got.cif
#   From: 2010.05.17/outbox.cif.g08.bks.cpg/sg2_214_cif.got.tgz:426625.got - 2010.06.03 11:33:40.
