data_PCOD9010014
_publ_section_title
;
Structure prediction by ZEFSAII (Michael W. Deem and Ramdas Pophale) SiO2 
 PCOD9010014
Probable space group: P -1
;
_chemical_formula_sum "Si O2"
_cell_formula_units_Z 15
_cell_length_a 15.008781
_cell_length_b 11.606839
_cell_length_c 15.616306
_cell_angle_alpha 130.324523
_cell_angle_beta 161.226707
_cell_angle_gamma 51.346150
_cell_volume 666.685697
_symmetry_space_group_name_H-M "P -1"
_symmetry_group_IT_number 2
_symmetry_cell_setting 'triclinic'
loop_
_space_group_symop_operation_xyz
x,y,z
-x,-y,-z
loop_
_atom_site_type_symbol
_atom_site_label
_atom_site_fract_x
_atom_site_fract_y
_atom_site_fract_z
Si Si1 0.880747 0.559710 0.714091
Si Si2 0.174117 0.742974 0.394803
Si Si3 0.509200 0.530444 0.828439
Si Si4 0.826910 0.146522 0.880906
Si Si5 0.662851 0.166243 0.930959
Si Si6 0.565191 0.836729 0.941861
Si Si7 0.500000 0.500000 0.000000
Si Si8 0.203206 0.957099 0.372128
O O1 0.819823 0.438725 0.674316
O O2 0.631965 0.561017 0.420251
O O3 0.157613 0.493969 0.885192
O O4 0.966872 0.724628 0.898852
O O5 0.424930 0.806866 0.708278
O O6 0.167717 0.809335 0.326050
O O7 0.892422 0.807396 0.214155
O O8 0.450415 0.706242 0.835271
O O9 0.405171 0.493659 0.809479
O O10 0.677286 0.199236 0.857395
O O11 0.667705 0.096829 0.627597
O O12 0.000000 0.000000 0.000000
O O13 0.632630 0.324209 0.027861
O O14 0.398298 0.066668 0.652993
O O15 0.925717 0.058963 0.147543
O O16 0.500000 0.000000 0.000000
#
# Coordination Sequence:
#
# PCOD9010014 Si02
#       8
#     2   2   2   2   2   2   1   2
#     4  10  22  44  62  93 129 164 212 256 328 383
#     4  10  22  40  64  91 128 162 215 267 316 381
#     4  10  24  38  63  93 127 169 204 262 318 383
#     4  10  23  44  69  93 132 175 213 270 325 379
#     4  11  26  43  65  98 134 171 215 268 327 387
#     4  10  21  40  61  90 126 172 208 258 322 381
#     4  12  26  42  68  94 134 172 214 270 318 386
#     4  11  25  43  68  99 127 170 224 270 316 382
#
# _framework density 22.499358000000001
#
# number of rings (size 3 to 8) (size 9 to 14) (size 15 to 20)
#    0.000    1.600    1.333    1.600    7.467    4.800 
#    0.000    0.000    0.000    8.800    0.000    0.000 
#    0.000    0.000    0.000    0.000    0.000    0.000 
#
# Total GULP energy -83570.009847 kJ/mol
# GULP energy per Si atom -5571.333990 kJ/mol
# Density = 2.244815 g / cm^3
# Si number density = 22.499358 Si / 1000 Ang^3
#
#
#
# Elastic Constant Matrix: (Units=GPa)
#
#
# Indices 1 2 3 4 5 6 
#
# 1 61.5692 40.3343 -1.1383 -2.1067 -21.5743 19.5870
# 2 40.3343 123.0335 11.6746 7.0142 -15.1062 10.7644
# 3 -1.1383 11.6746 62.0913 -12.9605 1.4586 3.9068
# 4 -2.1067 7.0142 -12.9605 28.5662 6.4253 -9.4103
# 5 -21.5743 -15.1062 1.4586 6.4253 17.0774 -0.9170
# 6 19.5870 10.7644 3.9068 -9.4103 -0.9170 40.5086
#
#
#
# Elastic Compliance Matrix: (Units=1/GPa)
#
#
# Indices 1 2 3 4 5 6 
#
# 1 0.048878 -0.004804 -0.001999 -0.018621 0.063330 -0.025057
# 2 -0.004804 0.011479 -0.003766 -0.007055 0.006961 -0.001845
# 3 -0.001999 -0.003766 0.019699 0.013477 -0.012453 0.002916
# 4 -0.018621 -0.007055 0.013477 0.060710 -0.052551 0.022493
# 5 0.063330 0.006961 -0.012453 -0.052551 0.163421 -0.039779
# 6 -0.025057 -0.001845 0.002916 0.022493 -0.039779 0.041335
#
#
# Mechanical properties :
#
#
# Convention : Reuss Voigt Hill
#
# Bulk Modulus (GPa) = 16.97325 38.71502 27.84413
# Shear Modulus (GPa) = 12.94335 30.28533 21.61434
#
# Velocity S-wave (km/s) = 2.40109 3.67284 3.10282
# Velocity P-wave (km/s) = 3.90477 5.93556 5.02385
#
# Compressibility (1/GPa) = 0.05891624
#
# Stress axis : x y z
#
# Youngs Moduli (GPa) = 20.45923 87.11778 50.76420
#
# Poissons Ratio (x) = 0.41855 0.10146
# Poissons Ratio (y) = 0.09829 0.19120
# Poissons Ratio (z) = 0.04089 0.32812
#
# Static dielectric constant tensor:
#      x y z
#    x 1.853790 0.040720 0.031990 
#    y 0.040720 1.862640 -0.006970 
#    z 0.031990 -0.006970 1.792470 
# 
# From -- ./inp_files/67142.got.cif
#   From: 2010.05.17/outbox.cif.g08.bks.cpg/sg2_34_cif.got.tgz:67142.got - 2010.06.03 11:33:40.
