data_PCOD9010003
_publ_section_title
;
Structure prediction by ZEFSAII (Michael W. Deem and Ramdas Pophale) SiO2 
 PCOD9010003
Probable space group: P -1
;
_chemical_formula_sum "Si O2"
_cell_formula_units_Z 16
_cell_length_a 8.402574
_cell_length_b 13.602143
_cell_length_c 14.939899
_cell_angle_alpha 151.296900
_cell_angle_beta 114.581679
_cell_angle_gamma 77.484430
_cell_volume 701.523359
_symmetry_space_group_name_H-M "P -1"
_symmetry_group_IT_number 2
_symmetry_cell_setting 'triclinic'
loop_
_space_group_symop_operation_xyz
x,y,z
-x,-y,-z
loop_
_atom_site_type_symbol
_atom_site_label
_atom_site_fract_x
_atom_site_fract_y
_atom_site_fract_z
Si Si1 0.095715 0.851106 0.857236
Si Si2 0.863182 0.425885 0.568396
Si Si3 0.060249 0.281243 0.837341
Si Si4 0.471462 0.183338 0.533962
Si Si5 0.300226 0.110442 0.627325
Si Si6 0.389194 0.699608 0.759914
Si Si7 0.862607 0.744221 0.552321
Si Si8 0.271209 0.368838 0.133041
O O1 0.309812 0.874264 0.926935
O O2 0.989101 0.615180 0.684449
O O3 0.032886 0.857762 0.747114
O O4 0.000000 0.000000 0.000000
O O5 0.680439 0.320830 0.377028
O O6 0.816113 0.533456 0.730369
O O7 0.016053 0.314083 0.543680
O O8 0.223184 0.266315 0.794569
O O9 0.128740 0.244921 0.923836
O O10 0.879038 0.083629 0.606687
O O11 0.000000 0.500000 0.000000
O O12 0.428611 0.205238 0.646365
O O13 0.268298 0.120678 0.392913
O O14 0.596209 0.420491 0.720638
O O15 0.574850 0.015769 0.396928
O O16 0.274578 0.465980 0.593497
O O17 0.598368 0.741413 0.872654
#
# Coordination Sequence:
#
# PCOD9010003 Si02
#       8
#     2   2   2   2   2   2   2   2
#     4   9  17  32  52  79 119 155 189 247 296 349
#     4   9  18  33  56  86 117 155 197 246 288 363
#     4  11  24  43  62  90 120 159 201 254 312 358
#     4  10  21  40  61  90 115 161 200 249 309 354
#     4  10  24  44  63  86 129 151 202 268 302 354
#     4   8  17  35  53  84 116 150 201 239 287 357
#     4   8  17  32  56  80 114 154 199 234 297 361
#     4  11  21  36  63  89 117 160 208 237 306 370
#
# _framework density 22.807507999999999
#
# number of rings (size 3 to 8) (size 9 to 14) (size 15 to 20)
#    0.000    2.500    1.250    1.875    1.750    2.500 
#    0.000    1.875    0.000    0.000    0.000    0.000 
#    0.000    0.000    0.000    0.000    0.000    0.000 
#
# Total GULP energy -89100.102703 kJ/mol
# GULP energy per Si atom -5568.756419 kJ/mol
# Density = 2.275560 g / cm^3
# Si number density = 22.807508 Si / 1000 Ang^3
#
#
#
# Elastic Constant Matrix: (Units=GPa)
#
#
# Indices 1 2 3 4 5 6 
#
# 1 135.7156 40.8402 49.9188 -8.3094 -24.0062 -34.8156
# 2 40.8402 59.8880 16.7140 -4.9812 -3.1224 -15.6256
# 3 49.9188 16.7140 54.1416 -6.2901 -16.9538 -8.6408
# 4 -8.3094 -4.9812 -6.2901 26.0816 -3.5076 1.7042
# 5 -24.0062 -3.1224 -16.9538 -3.5076 36.5298 1.5518
# 6 -34.8156 -15.6256 -8.6408 1.7042 1.5518 42.7372
#
#
#
# Elastic Compliance Matrix: (Units=1/GPa)
#
#
# Indices 1 2 3 4 5 6 
#
# 1 0.015824 -0.005395 -0.009682 0.001814 0.005249 0.008698
# 2 -0.005395 0.021716 -0.001849 0.001431 -0.002546 0.003206
# 3 -0.009682 -0.001849 0.030750 0.005292 0.008381 -0.002861
# 4 0.001814 0.001431 0.005292 0.041430 0.007700 0.001139
# 5 0.005249 -0.002546 0.008381 0.007700 0.035089 0.003458
# 6 0.008698 0.003206 -0.002861 0.001139 0.003458 0.030907
#
#
# Mechanical properties :
#
#
# Convention : Reuss Voigt Hill
#
# Bulk Modulus (GPa) = 29.03750 51.63234 40.33492
# Shear Modulus (GPa) = 22.61979 30.55454 26.58716
#
# Velocity S-wave (km/s) = 3.15265 3.66412 3.41797
# Velocity P-wave (km/s) = 5.10015 6.37091 5.77062
#
# Compressibility (1/GPa) = 0.03443822
#
# Stress axis : x y z
#
# Youngs Moduli (GPa) = 63.19650 46.04948 32.52053
#
# Poissons Ratio (x) = 0.24844 0.31485
# Poissons Ratio (y) = 0.34094 0.06013
# Poissons Ratio (z) = 0.61184 0.08515
#
# Static dielectric constant tensor:
#      x y z
#    x 2.179390 -0.139360 -0.290390 
#    y -0.139360 1.993420 0.165990 
#    z -0.290390 0.165990 2.153400 
# 
# From -- ./inp_files/505952.got.cif
#   From: 2010.05.17/outbox.cif.g08.bks.cpg/sg2_253_cif.got.tgz:505952.got - 2010.06.03 11:33:40.
