data_PCOD9010889
_publ_section_title
;
Structure prediction by ZEFSAII (Michael W. Deem and Ramdas Pophale) SiO2 
 PCOD9010889
Probable space group: P -1
;
_chemical_formula_sum "Si O2"
_cell_formula_units_Z 16
_cell_length_a 20.498508
_cell_length_b 8.245648
_cell_length_c 10.156072
_cell_angle_alpha 45.601027
_cell_angle_beta 40.372827
_cell_angle_gamma 38.881319
_cell_volume 673.571125
_symmetry_space_group_name_H-M "P -1"
_symmetry_group_IT_number 2
_symmetry_cell_setting 'triclinic'
loop_
_space_group_symop_operation_xyz
x,y,z
-x,-y,-z
loop_
_atom_site_type_symbol
_atom_site_label
_atom_site_fract_x
_atom_site_fract_y
_atom_site_fract_z
Si Si1 0.539250 0.106693 0.257042
Si Si2 0.760846 0.783739 0.777275
Si Si3 0.154719 0.864904 0.213204
Si Si4 0.385617 0.335727 0.108326
Si Si5 0.002579 0.705663 0.981403
Si Si6 0.266270 0.451067 0.788901
Si Si7 0.577666 0.369265 0.698578
Si Si8 0.022464 0.329217 0.368857
O O1 0.469536 0.151317 0.202420
O O2 0.488195 0.405329 0.216767
O O3 0.500000 0.000000 0.500000
O O4 0.674181 0.857323 0.177217
O O5 0.699448 0.763399 0.753288
O O6 0.894596 0.713356 0.610984
O O7 0.680842 0.095914 0.758144
O O8 0.754288 0.587274 0.005262
O O9 0.292513 0.640851 0.123474
O O10 0.084466 0.715141 0.430772
O O11 0.111064 0.094293 0.261322
O O12 0.100523 0.010940 0.074016
O O13 0.469747 0.321483 0.866175
O O14 0.136760 0.645191 0.812492
O O15 0.981835 0.613532 0.205374
O O16 0.000000 0.500000 0.000000
O O17 0.358545 0.541774 0.556221
#
# Coordination Sequence:
#
# PCOD9010889 Si02
#       8
#     2   2   2   2   2   2   2   2
#     4  10  23  41  64  94 122 162 217 269 312 380
#     4  11  23  42  63  91 137 171 214 260 320 389
#     4  10  21  40  64  95 124 161 225 260 315 377
#     4  12  25  40  63  99 130 170 215 265 320 387
#     4   9  19  35  62  91 119 157 208 262 309 370
#     4  10  22  41  65  94 127 169 218 256 322 386
#     4  11  23  40  66  89 129 173 208 265 321 368
#     4   9  20  39  65  88 121 175 206 269 320 368
#
# _framework density 23.753989000000001
#
# number of rings (size 3 to 8) (size 9 to 14) (size 15 to 20)
#    0.000    1.750    1.250    2.250    5.250    6.000 
#    4.500    2.500    0.000    0.000    0.000    0.000 
#    0.000    0.000    0.000    0.000    0.000    0.000 
#
# Total GULP energy -89244.762251 kJ/mol
# GULP energy per Si atom -5577.797641 kJ/mol
# Density = 2.369992 g / cm^3
# Si number density = 23.753989 Si / 1000 Ang^3
#
#
#
# Elastic Constant Matrix: (Units=GPa)
#
#
# Indices 1 2 3 4 5 6 
#
# 1 70.7255 21.4765 19.1352 -0.5678 -7.4718 -19.1335
# 2 21.4765 88.4648 41.1299 0.5132 -1.3765 -28.1133
# 3 19.1352 41.1299 120.8312 6.9413 -4.8526 -18.8360
# 4 -0.5678 0.5132 6.9413 24.5328 -11.5801 -3.3258
# 5 -7.4718 -1.3765 -4.8526 -11.5801 19.2470 -2.3295
# 6 -19.1335 -28.1133 -18.8360 -3.3258 -2.3295 30.7921
#
#
#
# Elastic Compliance Matrix: (Units=1/GPa)
#
#
# Indices 1 2 3 4 5 6 
#
# 1 0.019821 0.000349 -0.000997 0.009775 0.015070 0.014220
# 2 0.000349 0.017901 -0.003868 0.005397 0.005526 0.015195
# 3 -0.000997 -0.003868 0.010209 -0.002177 0.000833 0.001922
# 4 0.009775 0.005397 -0.002177 0.065787 0.045661 0.020229
# 5 0.015070 0.005526 0.000833 0.045661 0.089103 0.026592
# 6 0.014220 0.015195 0.001922 0.020229 0.026592 0.060558
#
#
# Mechanical properties :
#
#
# Convention : Reuss Voigt Hill
#
# Bulk Modulus (GPa) = 25.70844 49.27833 37.49339
# Shear Modulus (GPa) = 17.52072 28.13303 22.82688
#
# Velocity S-wave (km/s) = 2.71881 3.44517 3.10332
# Velocity P-wave (km/s) = 4.54996 6.05111 5.35342
#
# Compressibility (1/GPa) = 0.03889773
#
# Stress axis : x y z
#
# Youngs Moduli (GPa) = 50.45220 55.86197 97.95681
#
# Poissons Ratio (x) = -0.01947 0.09767
# Poissons Ratio (y) = -0.01759 0.37889
# Poissons Ratio (z) = 0.05030 0.21607
#
# Static dielectric constant tensor:
#      x y z
#    x 1.922270 0.076890 -0.016820 
#    y 0.076890 2.023550 -0.001230 
#    z -0.016820 -0.001230 1.966890 
# 
# From -- ./inp_files/469149.got.cif
#   From: 2010.05.17/outbox.cif.g08.bks.cpg/sg2_235_cif.got.tgz:469149.got - 2010.06.03 11:33:40.
