data_PCOD9010034
_publ_section_title
;
Structure prediction by ZEFSAII (Michael W. Deem and Ramdas Pophale) SiO2 
 PCOD9010034
Probable space group: P -1
;
_chemical_formula_sum "Si O2"
_cell_formula_units_Z 16
_cell_length_a 9.492041
_cell_length_b 21.012751
_cell_length_c 14.336501
_cell_angle_alpha 135.862213
_cell_angle_beta 43.079872
_cell_angle_gamma 152.154954
_cell_volume 888.815664
_symmetry_space_group_name_H-M "P -1"
_symmetry_group_IT_number 2
_symmetry_cell_setting 'triclinic'
loop_
_space_group_symop_operation_xyz
x,y,z
-x,-y,-z
loop_
_atom_site_type_symbol
_atom_site_label
_atom_site_fract_x
_atom_site_fract_y
_atom_site_fract_z
Si Si1 0.394946 0.256012 0.734904
Si Si2 0.620939 0.885665 0.555503
Si Si3 0.774619 0.108856 0.598409
Si Si4 0.727938 0.988612 0.978377
Si Si5 0.181862 0.014060 0.705388
Si Si6 0.185105 0.453350 0.092093
Si Si7 0.723370 0.188987 0.166173
Si Si8 0.075981 0.759043 0.149215
O O1 0.512204 0.244610 0.573479
O O2 0.244328 0.125464 0.731482
O O3 0.681332 0.401210 0.802090
O O4 0.119423 0.233102 0.810559
O O5 0.452631 0.838038 0.684853
O O6 0.591593 0.968024 0.596133
O O7 0.000000 0.000000 0.500000
O O8 0.513787 0.087787 0.659210
O O9 0.974502 0.230684 0.707769
O O10 0.942564 0.107918 0.432504
O O11 0.540788 0.915114 0.894138
O O12 0.448445 0.893100 0.088967
O O13 0.958950 0.979066 0.857674
O O14 0.875109 0.139991 0.063314
O O15 0.957361 0.340119 0.165078
O O16 0.500000 0.500000 0.000000
O O17 0.033878 0.374147 0.982498
#
# Coordination Sequence:
#
# PCOD9010034 Si02
#       8
#     2   2   2   2   2   2   2   2
#     4  10  19  33  52  74 104 140 170 208 255 301
#     4  11  18  31  55  79 105 129 168 216 262 308
#     4  10  20  34  48  82 103 131 168 211 267 313
#     4  10  17  29  50  77 105 129 164 217 267 294
#     4  10  21  32  52  75 108 135 164 213 268 311
#     4   9  19  32  49  74 105 137 174 215 252 293
#     4  10  18  29  51  81 104 132 174 216 253 302
#     4  10  18  33  54  76 102 130 178 217 248 308
#
# _framework density 18.001483
#
# number of rings (size 3 to 8) (size 9 to 14) (size 15 to 20)
#    0.000    2.000    2.500    4.500    0.000    1.000 
#    0.000    0.625    0.000    0.000    0.000   14.875 
#    0.000    0.000    0.000    0.000    0.000    0.000 
#
# Total GULP energy -89088.964276 kJ/mol
# GULP energy per Si atom -5568.060267 kJ/mol
# Density = 1.796051 g / cm^3
# Si number density = 18.001483 Si / 1000 Ang^3
#
#
#
# Elastic Constant Matrix: (Units=GPa)
#
#
# Indices 1 2 3 4 5 6 
#
# 1 40.2403 0.0572 12.7394 -0.6005 -5.0589 8.8515
# 2 0.0572 48.4148 29.0113 4.3132 3.2131 5.7832
# 3 12.7394 29.0113 120.4322 6.1120 5.3660 7.5983
# 4 -0.6005 4.3132 6.1120 30.4960 6.6889 8.8440
# 5 -5.0589 3.2131 5.3660 6.6889 28.4861 -1.1241
# 6 8.8515 5.7832 7.5983 8.8440 -1.1241 9.2865
#
#
#
# Elastic Compliance Matrix: (Units=1/GPa)
#
#
# Indices 1 2 3 4 5 6 
#
# 1 0.037550 0.006582 -0.003105 0.015248 0.000888 -0.051763
# 2 0.006582 0.026616 -0.005774 0.004819 -0.002787 -0.023051
# 3 -0.003105 -0.005774 0.010226 -0.000433 -0.001789 -0.001616
# 4 0.015248 0.004819 -0.000433 0.056680 -0.013938 -0.072846
# 5 0.000888 -0.002787 -0.001789 -0.013938 0.039994 0.020468
# 6 -0.051763 -0.023051 -0.001616 -0.072846 0.020468 0.244552
#
#
# Mechanical properties :
#
#
# Convention : Reuss Voigt Hill
#
# Bulk Modulus (GPa) = 14.32701 32.52255 23.42478
# Shear Modulus (GPa) = 11.27451 24.80568 18.04010
#
# Velocity S-wave (km/s) = 2.50533 3.71614 3.16910
# Velocity P-wave (km/s) = 4.04290 6.04308 5.14120
#
# Compressibility (1/GPa) = 0.06979823
#
# Stress axis : x y z
#
# Youngs Moduli (GPa) = 26.63138 37.57128 97.78586
#
# Poissons Ratio (x) = -0.24730 0.30365
# Poissons Ratio (y) = -0.17529 0.56461
# Poissons Ratio (z) = 0.08270 0.21693
#
# Static dielectric constant tensor:
#      x y z
#    x 1.640150 0.001310 0.008730 
#    y 0.001310 1.623070 0.013780 
#    z 0.008730 0.013780 1.743000 
# 
# From -- ./inp_files/507075.got.cif
#   From: 2010.05.17/outbox.cif.g08.bks.cpg/sg2_254_cif.got.tgz:507075.got - 2010.06.03 11:33:40.
