data_PCOD9010105
_publ_section_title
;
Structure prediction by ZEFSAII (Michael W. Deem and Ramdas Pophale) SiO2 
 PCOD9010105
Probable space group: P -1
;
_chemical_formula_sum "Si O2"
_cell_formula_units_Z 14
_cell_length_a 11.380824
_cell_length_b 17.364339
_cell_length_c 15.053597
_cell_angle_alpha 149.911249
_cell_angle_beta 28.301449
_cell_angle_gamma 148.820739
_cell_volume 649.808374
_symmetry_space_group_name_H-M "P -1"
_symmetry_group_IT_number 2
_symmetry_cell_setting 'triclinic'
loop_
_space_group_symop_operation_xyz
x,y,z
-x,-y,-z
loop_
_atom_site_type_symbol
_atom_site_label
_atom_site_fract_x
_atom_site_fract_y
_atom_site_fract_z
Si Si1 0.888085 0.197142 0.844516
Si Si2 0.286259 0.360720 0.060744
Si Si3 0.772283 0.824110 0.573357
Si Si4 0.053136 0.989507 0.057092
Si Si5 0.625740 0.712861 0.745076
Si Si6 0.685114 0.251296 0.335693
Si Si7 0.577716 0.534899 0.209034
O O1 0.019964 0.190242 0.652999
O O2 0.103592 0.364553 0.914118
O O3 0.857195 0.021908 0.735645
O O4 0.608378 0.217330 0.043139
O O5 0.414368 0.394861 0.107521
O O6 0.203818 0.169338 0.894976
O O7 0.997949 0.375464 0.257364
O O8 0.500000 0.500000 0.000000
O O9 0.742477 0.713431 0.569942
O O10 0.481544 0.768342 0.663112
O O11 0.296926 0.925084 0.834561
O O12 0.135874 0.155134 0.223308
O O13 0.000000 0.000000 0.000000
O O14 0.494705 0.548211 0.728070
O O15 0.532170 0.317907 0.574879
#
# Coordination Sequence:
#
# PCOD9010105 Si02
#       7
#     2   2   2   2   2   2   2
#     4  10  22  38  59  96 123 156 201 254 290 366
#     4  10  22  37  60  88 115 156 203 249 294 358
#     4  10  22  39  64  91 122 161 205 239 310 357
#     4  10  21  40  62  86 118 156 205 246 302 356
#     4  12  22  40  65  90 123 165 195 254 299 361
#     4   9  21  40  62  83 119 163 194 247 298 366
#     4  11  23  39  61  89 123 159 202 246 308 352
#
# _framework density 21.544812
#
# number of rings (size 3 to 8) (size 9 to 14) (size 15 to 20)
#    0.857    0.857    2.857    1.286    4.000    2.286 
#    2.571    0.000    0.000    2.571    0.000    0.000 
#    0.000    0.000    0.000    0.000    0.000    0.000 
#
# Total GULP energy -78044.938111 kJ/mol
# GULP energy per Si atom -5574.638436 kJ/mol
# Density = 2.149578 g / cm^3
# Si number density = 21.544812 Si / 1000 Ang^3
#
#
#
# Elastic Constant Matrix: (Units=GPa)
#
#
# Indices 1 2 3 4 5 6 
#
# 1 76.0674 20.1033 -2.9856 -8.3452 14.7753 9.0582
# 2 20.1033 108.8524 -6.7781 -1.7600 4.9341 18.7428
# 3 -2.9856 -6.7781 16.9646 -2.9696 -0.7368 0.9289
# 4 -8.3452 -1.7600 -2.9696 32.7033 0.8460 5.0900
# 5 14.7753 4.9341 -0.7368 0.8460 8.6979 2.4742
# 6 9.0582 18.7428 0.9289 5.0900 2.4742 44.3563
#
#
#
# Elastic Compliance Matrix: (Units=1/GPa)
#
#
# Indices 1 2 3 4 5 6 
#
# 1 0.021703 -0.001641 0.002994 0.007051 -0.035621 -0.002623
# 2 -0.001641 0.010596 0.004322 0.001255 -0.001762 -0.004278
# 3 0.002994 0.004322 0.062676 0.007433 -0.001669 -0.004510
# 4 0.007051 0.001255 0.007433 0.034302 -0.013893 -0.005287
# 5 -0.035621 -0.001762 -0.001669 -0.013893 0.177766 -0.000268
# 6 -0.002623 -0.004278 -0.004510 -0.005287 -0.000268 0.025604
#
#
# Mechanical properties :
#
#
# Convention : Reuss Voigt Hill
#
# Bulk Modulus (GPa) = 9.40514 24.72929 17.06721
# Shear Modulus (GPa) = 14.01591 29.92115 21.96853
#
# Velocity S-wave (km/s) = 2.55335 3.73069 3.19669
# Velocity P-wave (km/s) = 3.61492 5.48273 4.64370
#
# Compressibility (1/GPa) = 0.10632487
#
# Stress axis : x y z
#
# Youngs Moduli (GPa) = 46.07758 94.37669 15.95510
#
# Poissons Ratio (x) = 0.15490 -0.04778
# Poissons Ratio (y) = 0.07563 -0.06896
# Poissons Ratio (z) = -0.13798 -0.40791
#
# Static dielectric constant tensor:
#      x y z
#    x 1.887000 0.028500 -0.000300 
#    y 0.028500 1.818770 -0.000490 
#    z -0.000300 -0.000490 1.808290 
# 
# From -- ./inp_files/195882.got.cif
#   From: 2010.05.17/outbox.cif.g08.bks.cpg/sg2_98_cif.got.tgz:195882.got - 2010.06.03 11:33:40.
