data_PCOD9010417
_publ_section_title
;
Structure prediction by ZEFSAII (Michael W. Deem and Ramdas Pophale) SiO2 
 PCOD9010417
Probable space group: P -1
;
_chemical_formula_sum "Si O2"
_cell_formula_units_Z 12
_cell_length_a 25.616428
_cell_length_b 8.853590
_cell_length_c 14.811064
_cell_angle_alpha 42.973640
_cell_angle_beta 159.313542
_cell_angle_gamma 146.720918
_cell_volume 628.686216
_symmetry_space_group_name_H-M "P -1"
_symmetry_group_IT_number 2
_symmetry_cell_setting 'triclinic'
loop_
_space_group_symop_operation_xyz
x,y,z
-x,-y,-z
loop_
_atom_site_type_symbol
_atom_site_label
_atom_site_fract_x
_atom_site_fract_y
_atom_site_fract_z
Si Si1 0.694483 0.765310 0.652755
Si Si2 0.752868 0.118596 0.417617
Si Si3 0.499478 0.300832 0.957177
Si Si4 0.877729 0.474224 0.067241
Si Si5 0.535093 0.820184 0.833758
Si Si6 0.130657 0.669339 0.222714
O O1 0.500000 0.500000 0.500000
O O2 0.676997 0.913006 0.473684
O O3 0.808599 0.017441 0.800942
O O4 0.806415 0.653770 0.850829
O O5 0.656580 0.269655 0.195617
O O6 0.977933 0.360473 0.687920
O O7 0.681617 0.919500 0.302296
O O8 0.457449 0.218056 0.030412
O O9 0.563676 0.615741 0.917558
O O10 0.007186 0.498519 0.186344
O O11 0.696749 0.150673 0.930328
O O12 0.326885 0.718507 0.517615
O O13 0.000000 0.500000 0.000000
#
# Coordination Sequence:
#
# PCOD9010417 Si02
#       6
#     2   2   2   2   2   2
#     4  11  21  41  64  91 124 156 201 258 302 358
#     4  10  21  40  63  90 117 165 204 239 308 356
#     4  10  22  41  62  85 127 160 201 251 287 370
#     4  11  23  41  65  89 123 159 202 253 306 355
#     4  11  23  42  61  91 124 158 202 251 304 350
#     4  11  24  40  61  94 125 156 203 251 307 359
#
# _framework density 19.087423000000001
#
# number of rings (size 3 to 8) (size 9 to 14) (size 15 to 20)
#    0.000    1.333    5.000    2.000    4.667    3.333 
#    0.000    0.000    0.000    0.000    0.000    0.000 
#    0.000    0.000    0.000    0.000    0.000    0.000 
#
# Total GULP energy -66985.169947 kJ/mol
# GULP energy per Si atom -5582.097496 kJ/mol
# Density = 1.904398 g / cm^3
# Si number density = 19.087423 Si / 1000 Ang^3
#
#
#
# Elastic Constant Matrix: (Units=GPa)
#
#
# Indices 1 2 3 4 5 6 
#
# 1 37.0483 39.4414 40.1954 18.6801 -13.3069 -14.9299
# 2 39.4414 138.4940 62.3955 8.3504 -2.2655 -16.2685
# 3 40.1954 62.3955 126.8634 20.5992 -12.5026 -3.2649
# 4 18.6801 8.3504 20.5992 32.7841 -12.1950 4.5881
# 5 -13.3069 -2.2655 -12.5026 -12.1950 36.0042 11.9313
# 6 -14.9299 -16.2685 -3.2649 4.5881 11.9313 28.6919
#
#
#
# Elastic Compliance Matrix: (Units=1/GPa)
#
#
# Indices 1 2 3 4 5 6 
#
# 1 0.117516 -0.013527 -0.019395 -0.062767 -0.006646 0.064073
# 2 -0.013527 0.011965 -0.002768 0.005081 -0.003513 0.000079
# 3 -0.019395 -0.002768 0.014498 0.005820 0.003815 -0.012529
# 4 -0.062767 0.005081 0.005820 0.076450 0.021732 -0.050379
# 5 -0.006646 -0.003513 0.003815 0.021732 0.042446 -0.026142
# 6 0.064073 0.000079 -0.012529 -0.050379 -0.026142 0.085740
#
#
# Mechanical properties :
#
#
# Convention : Reuss Voigt Hill
#
# Bulk Modulus (GPa) = 13.77441 65.16338 39.46889
# Shear Modulus (GPa) = 11.25632 30.18762 20.72197
#
# Velocity S-wave (km/s) = 2.43106 3.98118 3.29847
# Velocity P-wave (km/s) = 3.88744 7.43953 5.93544
#
# Compressibility (1/GPa) = 0.07259841
#
# Stress axis : x y z
#
# Youngs Moduli (GPa) = 8.50949 83.57366 68.97559
#
# Poissons Ratio (x) = 1.13048 1.33780
# Poissons Ratio (y) = 0.11511 0.19096
# Poissons Ratio (z) = 0.16504 0.23137
#
# Static dielectric constant tensor:
#      x y z
#    x 1.668990 -0.011640 0.000400 
#    y -0.011640 1.652420 -0.007770 
#    z 0.000400 -0.007770 1.680040 
# 
# From -- ./inp_files/162725.got.cif
#   From: 2010.05.17/outbox.cif.g08.bks.cpg/sg2_82_cif.got.tgz:162725.got - 2010.06.03 11:33:40.
