data_PCOD9010900
_publ_section_title
;
Structure prediction by ZEFSAII (Michael W. Deem and Ramdas Pophale) SiO2 
 PCOD9010900
Probable space group: P -1
;
_chemical_formula_sum "Si O2"
_cell_formula_units_Z 16
_cell_length_a 11.644989
_cell_length_b 15.279275
_cell_length_c 11.153302
_cell_angle_alpha 77.051065
_cell_angle_beta 59.317847
_cell_angle_gamma 29.747495
_cell_volume 726.844873
_symmetry_space_group_name_H-M "P -1"
_symmetry_group_IT_number 2
_symmetry_cell_setting 'triclinic'
loop_
_space_group_symop_operation_xyz
x,y,z
-x,-y,-z
loop_
_atom_site_type_symbol
_atom_site_label
_atom_site_fract_x
_atom_site_fract_y
_atom_site_fract_z
Si Si1 0.575313 0.996785 0.683927
Si Si2 0.543165 0.522930 0.096340
Si Si3 0.421471 0.408724 0.558777
Si Si4 0.097732 0.435763 0.827986
Si Si5 0.162176 0.601894 0.376756
Si Si6 0.988727 0.175842 0.307061
Si Si7 0.788388 0.944498 0.034774
Si Si8 0.431932 0.318751 0.106371
O O1 0.462014 0.976839 0.818682
O O2 0.796331 0.833216 0.508455
O O3 0.795848 0.925516 0.668758
O O4 0.276046 0.237727 0.754979
O O5 0.310320 0.611496 0.279613
O O6 0.500000 0.500000 0.000000
O O7 0.491702 0.658058 0.049636
O O8 0.885731 0.292308 0.025689
O O9 0.316169 0.385956 0.693895
O O10 0.292579 0.483441 0.468366
O O11 0.779523 0.215215 0.424861
O O12 0.249034 0.597945 0.651258
O O13 0.800719 0.612232 0.848305
O O14 0.000000 0.500000 0.000000
O O15 0.274710 0.471547 0.248285
O O16 0.187704 0.053162 0.119935
O O17 0.706545 0.092800 0.082514
#
# Coordination Sequence:
#
# PCOD9010900 Si02
#       8
#     2   2   2   2   2   2   2   2
#     4  11  24  40  67  97 134 178 221 281 336 390
#     4  10  23  45  67  99 136 176 222 277 332 397
#     4  10  22  40  67  91 134 177 216 277 340 386
#     4  12  25  42  64 104 136 174 231 278 329 404
#     4  10  23  46  64  98 135 173 227 275 336 401
#     4  10  21  40  64  95 128 177 220 273 332 397
#     4  12  22  43  71  98 132 182 223 270 342 398
#     4  11  25  43  71  98 136 180 224 277 332 399
#
# _framework density 22.012951000000001
#
# number of rings (size 3 to 8) (size 9 to 14) (size 15 to 20)
#    0.000    1.250    2.500    3.375    0.000    6.000 
#    4.500    0.000    0.000    0.000    0.000    0.000 
#    0.000    0.000    0.000    0.000    0.000    0.000 
#
# Total GULP energy -89388.162999 kJ/mol
# GULP energy per Si atom -5586.760187 kJ/mol
# Density = 2.196285 g / cm^3
# Si number density = 22.012951 Si / 1000 Ang^3
#
#
#
# Elastic Constant Matrix: (Units=GPa)
#
#
# Indices 1 2 3 4 5 6 
#
# 1 62.0529 16.1375 34.2338 -12.2961 -13.1206 11.1881
# 2 16.1375 79.8117 35.0128 -9.4427 -17.4628 21.5830
# 3 34.2338 35.0128 148.2617 -12.3468 -16.6780 22.4790
# 4 -12.2961 -9.4427 -12.3468 29.3639 5.8592 -5.8316
# 5 -13.1206 -17.4628 -16.6780 5.8592 43.2768 -8.5639
# 6 11.1881 21.5830 22.4790 -5.8316 -8.5639 35.5377
#
#
#
# Elastic Compliance Matrix: (Units=1/GPa)
#
#
# Indices 1 2 3 4 5 6 
#
# 1 0.020398 -0.000635 -0.003368 0.005816 0.003422 -0.002127
# 2 -0.000635 0.016653 -0.002061 0.001968 0.004018 -0.007319
# 3 -0.003368 -0.002061 0.008591 0.000826 0.000793 -0.002796
# 4 0.005816 0.001968 0.000826 0.038296 -0.001856 0.002288
# 5 0.003422 0.004018 0.000793 -0.001856 0.026743 0.002120
# 6 -0.002127 -0.007319 -0.002796 0.002288 0.002120 0.035909
#
#
# Mechanical properties :
#
#
# Convention : Reuss Voigt Hill
#
# Bulk Modulus (GPa) = 29.83739 51.21050 40.52395
# Shear Modulus (GPa) = 29.43108 35.28516 32.35812
#
# Velocity S-wave (km/s) = 3.66045 4.00800 3.83816
# Velocity P-wave (km/s) = 5.60795 6.68828 6.17180
#
# Compressibility (1/GPa) = 0.03351499
#
# Stress axis : x y z
#
# Youngs Moduli (GPa) = 49.02426 60.04866 116.40021
#
# Poissons Ratio (x) = 0.03812 0.39207
# Poissons Ratio (y) = 0.03112 0.23984
# Poissons Ratio (z) = 0.16513 0.12373
#
# Static dielectric constant tensor:
#      x y z
#    x 1.801090 0.016700 -0.003870 
#    y 0.016700 1.833140 0.036500 
#    z -0.003870 0.036500 1.836010 
# 
# From -- ./inp_files/239638.got.cif
#   From: 2010.05.17/outbox.cif.g08.bks.cpg/sg2_120_cif.got.tgz:239638.got - 2010.06.03 11:33:40.
