data_PCOD9010981
_publ_section_title
;
Structure prediction by ZEFSAII (Michael W. Deem and Ramdas Pophale) SiO2 
 PCOD9010981
Probable space group: P -1
;
_chemical_formula_sum "Si O2"
_cell_formula_units_Z 16
_cell_length_a 9.177039
_cell_length_b 22.154578
_cell_length_c 5.468728
_cell_angle_alpha 75.374353
_cell_angle_beta 83.421464
_cell_angle_gamma 35.586149
_cell_volume 617.867838
_symmetry_space_group_name_H-M "P -1"
_symmetry_group_IT_number 2
_symmetry_cell_setting 'triclinic'
loop_
_space_group_symop_operation_xyz
x,y,z
-x,-y,-z
loop_
_atom_site_type_symbol
_atom_site_label
_atom_site_fract_x
_atom_site_fract_y
_atom_site_fract_z
Si Si1 0.746489 0.707058 0.082378
Si Si2 0.036863 0.633808 0.611252
Si Si3 0.231986 0.929064 0.200985
Si Si4 0.263530 0.128866 0.875144
Si Si5 0.448282 0.090829 0.371892
Si Si6 0.788337 0.285377 0.509109
Si Si7 0.254692 0.431704 0.667810
Si Si8 0.013117 0.088966 0.445147
O O1 0.484396 0.824696 0.117845
O O2 0.734738 0.839452 0.894708
O O3 0.696327 0.650039 0.119909
O O4 0.942185 0.655718 0.323012
O O5 0.184980 0.648759 0.597471
O O6 0.203343 0.512904 0.744432
O O7 0.831483 0.698425 0.803712
O O8 0.197384 0.888853 0.464802
O O9 0.153831 0.022721 0.235684
O O10 0.000000 0.000000 0.000000
O O11 0.332329 0.147105 0.602702
O O12 0.983097 0.203977 0.780906
O O13 0.500000 0.000000 0.000000
O O14 0.905357 0.195582 0.383073
O O15 0.734759 0.010602 0.335533
O O16 0.502724 0.362799 0.532390
O O17 0.000000 0.500000 0.500000
O O18 0.500000 0.000000 0.500000
#
# Coordination Sequence:
#
# PCOD9010981 Si02
#       8
#     2   2   2   2   2   2   2   2
#     4  11  26  54  80 115 159 221 265 330 417 486
#     4  11  28  51  81 121 156 200 277 351 407 476
#     4  11  28  44  71 110 160 218 277 320 385 510
#     4  10  22  40  64 107 155 205 246 308 389 482
#     4  10  21  40  64  98 153 198 251 302 385 452
#     4  12  24  48  80 125 162 215 269 340 422 477
#     4  10  24  54  89 115 157 216 278 348 412 485
#     4  11  25  45  68 109 161 211 269 322 392 482
#
# _framework density 25.895506000000001
#
# number of rings (size 3 to 8) (size 9 to 14) (size 15 to 20)
#    0.000    1.250    3.750    0.750    7.000    1.000 
#    2.250   13.750    0.000    0.000    0.000    0.000 
#    0.000    0.000    0.000    0.000    0.000    0.000 
#
# Total GULP energy -89263.989910 kJ/mol
# GULP energy per Si atom -5578.999369 kJ/mol
# Density = 2.583657 g / cm^3
# Si number density = 25.895506 Si / 1000 Ang^3
#
#
#
# Elastic Constant Matrix: (Units=GPa)
#
#
# Indices 1 2 3 4 5 6 
#
# 1 192.7361 52.4770 52.8702 -11.1774 -17.2983 -3.4694
# 2 52.4770 153.6387 66.6377 3.6553 1.9730 20.7898
# 3 52.8702 66.6377 103.0584 16.5895 -28.0859 0.2843
# 4 -11.1774 3.6553 16.5895 25.7527 0.8051 -4.1561
# 5 -17.2983 1.9730 -28.0859 0.8051 43.2880 -6.8969
# 6 -3.4694 20.7898 0.2843 -4.1561 -6.8969 63.0764
#
#
#
# Elastic Compliance Matrix: (Units=1/GPa)
#
#
# Indices 1 2 3 4 5 6 
#
# 1 0.006861 -0.001102 -0.003557 0.005600 0.000570 0.001188
# 2 -0.001102 0.011809 -0.009892 0.003738 -0.008192 -0.004558
# 3 -0.003557 -0.009892 0.024876 -0.016077 0.016049 0.003648
# 4 0.005600 0.003738 -0.016077 0.051622 -0.009076 0.001557
# 5 0.000570 -0.008192 0.016049 -0.009076 0.035226 0.005913
# 6 0.001188 -0.004558 0.003648 0.001557 0.005913 0.018154
#
#
# Mechanical properties :
#
#
# Convention : Reuss Voigt Hill
#
# Bulk Modulus (GPa) = 69.23141 88.15589 78.69365
# Shear Modulus (GPa) = 27.40263 44.91998 36.16130
#
# Velocity S-wave (km/s) = 3.25653 4.16945 3.74094
# Velocity P-wave (km/s) = 6.39788 7.56940 7.00817
#
# Compressibility (1/GPa) = 0.01444431
#
# Stress axis : x y z
#
# Youngs Moduli (GPa) = 145.74158 84.68418 40.19996
#
# Poissons Ratio (x) = 0.09334 0.14298
# Poissons Ratio (y) = 0.16064 0.39765
# Poissons Ratio (z) = 0.51836 0.83767
#
# Static dielectric constant tensor:
#      x y z
#    x 2.269040 0.057010 -0.012750 
#    y 0.057010 2.205310 0.063920 
#    z -0.012750 0.063920 2.224100 
# 
# From -- ./inp_files/394214.got.cif
#   From: 2010.05.17/outbox.cif.g08.bks.cpg/sg2_198_cif.got.tgz:394214.got - 2010.06.03 11:33:40.
