data_PCOD9010354
_publ_section_title
;
Structure prediction by ZEFSAII (Michael W. Deem and Ramdas Pophale) SiO2 
 PCOD9010354
Probable space group: P -1
;
_chemical_formula_sum "Si O2"
_cell_formula_units_Z 16
_cell_length_a 14.893269
_cell_length_b 9.091893
_cell_length_c 11.892394
_cell_angle_alpha 144.192793
_cell_angle_beta 107.008346
_cell_angle_gamma 55.182958
_cell_volume 723.085673
_symmetry_space_group_name_H-M "P -1"
_symmetry_group_IT_number 2
_symmetry_cell_setting 'triclinic'
loop_
_space_group_symop_operation_xyz
x,y,z
-x,-y,-z
loop_
_atom_site_type_symbol
_atom_site_label
_atom_site_fract_x
_atom_site_fract_y
_atom_site_fract_z
Si Si1 0.722703 0.723079 0.943500
Si Si2 0.035798 0.844896 0.293963
Si Si3 0.655557 0.321000 0.551107
Si Si4 0.034607 0.205696 0.992654
Si Si5 0.594600 0.437971 0.340026
Si Si6 0.239383 0.362539 0.847756
Si Si7 0.064476 0.354410 0.552088
Si Si8 0.756667 0.496850 0.294376
O O1 0.863556 0.523031 0.871869
O O2 0.691421 0.530830 0.741990
O O3 0.695089 0.708676 0.054769
O O4 0.660594 0.076021 0.101945
O O5 0.946217 0.862774 0.182480
O O6 0.084281 0.027597 0.373526
O O7 0.000000 0.000000 0.500000
O O8 0.620227 0.416848 0.468583
O O9 0.543026 0.386672 0.614347
O O10 0.753498 0.950206 0.361493
O O11 0.896846 0.350258 0.021950
O O12 0.011936 0.427437 0.232162
O O13 0.134031 0.862920 0.864261
O O14 0.653121 0.579342 0.388523
O O15 0.289824 0.436150 0.808518
O O16 0.183261 0.326087 0.565778
O O17 0.000000 0.500000 0.500000
#
# Coordination Sequence:
#
# PCOD9010354 Si02
#       8
#     2   2   2   2   2   2   2   2
#     4  10  21  40  63  87 122 159 208 254 309 365
#     4  11  25  39  60  98 126 169 212 248 310 380
#     4  10  21  44  66  87 120 160 214 255 309 363
#     4  10  22  40  61  89 136 160 198 256 308 370
#     4  10  24  41  64  91 120 163 205 260 311 366
#     4   9  20  39  62  91 118 166 197 254 311 365
#     4  11  22  39  63  87 126 174 204 248 307 370
#     4  11  22  41  61  90 130 163 201 253 316 364
#
# _framework density 22.127393999999999
#
# number of rings (size 3 to 8) (size 9 to 14) (size 15 to 20)
#    0.000    1.750    1.250    3.375    5.250    1.000 
#    0.000    0.625    0.000    0.000    0.000    0.000 
#    0.000    0.000    0.000    0.000    0.000    0.000 
#
# Total GULP energy -89144.135166 kJ/mol
# GULP energy per Si atom -5571.508448 kJ/mol
# Density = 2.207703 g / cm^3
# Si number density = 22.127394 Si / 1000 Ang^3
#
#
#
# Elastic Constant Matrix: (Units=GPa)
#
#
# Indices 1 2 3 4 5 6 
#
# 1 -14.7215 -12.4743 23.8407 -15.2272 -16.3233 -18.2395
# 2 -12.4743 43.7288 20.0418 -25.7987 -11.8797 -0.7781
# 3 23.8407 20.0418 123.0959 -24.2776 22.0103 -2.4909
# 4 -15.2272 -25.7987 -24.2776 28.8059 -4.9952 -3.4923
# 5 -16.3233 -11.8797 22.0103 -4.9952 27.4386 -19.9203
# 6 -18.2395 -0.7781 -2.4909 -3.4923 -19.9203 9.1791
#
#
#
# Elastic Compliance Matrix: (Units=1/GPa)
#
#
# Indices 1 2 3 4 5 6 
#
# 1 0.010519 -0.009064 0.000864 -0.009081 -0.021310 -0.029334
# 2 -0.009064 0.028617 0.001351 0.018461 -0.005777 -0.020732
# 3 0.000864 0.001351 0.010237 0.010534 -0.001844 0.004616
# 4 -0.009081 0.018461 0.010534 0.050421 -0.012783 -0.022180
# 5 -0.021310 -0.005777 -0.001844 -0.012783 0.025320 0.006752
# 6 -0.029334 -0.020732 0.004616 -0.022180 0.006752 0.056363
#
#
# Mechanical properties :
#
#
# Convention : Reuss Voigt Hill
#
# Bulk Modulus (GPa) = 28.03166 23.87996 25.95581
# Shear Modulus (GPa) = 24.14685 21.13105 22.63895
#
# Velocity S-wave (km/s) = 3.30701 3.09362 3.20209
# Velocity P-wave (km/s) = 5.22280 4.85552 5.04250
#
# Compressibility (1/GPa) = 0.03567394
#
# Stress axis : x y z
#
# Youngs Moduli (GPa) = 95.06948 34.94478 97.68287
#
# Poissons Ratio (x) = 0.31675 -0.08444
# Poissons Ratio (y) = 0.86174 -0.13193
# Poissons Ratio (z) = -0.08218 -0.04720
#
# Static dielectric constant tensor:
#      x y z
#    x 1.933800 0.056430 0.000970 
#    y 0.056430 1.857970 -0.045200 
#    z 0.000970 -0.045200 1.925890 
# 
# From -- ./inp_files/448365.got.cif
#   From: 2010.05.17/outbox.cif.g08.bks.cpg/sg2_225_cif.got.tgz:448365.got - 2010.06.03 11:33:40.
