data_PCOD9010509
_publ_section_title
;
Structure prediction by ZEFSAII (Michael W. Deem and Ramdas Pophale) SiO2 
 PCOD9010509
Probable space group: P -1
;
_chemical_formula_sum "Si O2"
_cell_formula_units_Z 14
_cell_length_a 7.091697
_cell_length_b 20.405901
_cell_length_c 7.807883
_cell_angle_alpha 61.977621
_cell_angle_beta 122.725533
_cell_angle_gamma 139.087147
_cell_volume 618.663228
_symmetry_space_group_name_H-M "P -1"
_symmetry_group_IT_number 2
_symmetry_cell_setting 'triclinic'
loop_
_space_group_symop_operation_xyz
x,y,z
-x,-y,-z
loop_
_atom_site_type_symbol
_atom_site_label
_atom_site_fract_x
_atom_site_fract_y
_atom_site_fract_z
Si Si1 0.360951 0.026667 0.037445
Si Si2 0.278534 0.784684 0.792835
Si Si3 0.157526 0.100889 0.636733
Si Si4 0.666947 0.461961 0.681818
Si Si5 0.495886 0.073868 0.591985
Si Si6 0.374931 0.645578 0.888849
Si Si7 0.377589 0.310411 0.429702
O O1 0.602692 0.142094 0.076986
O O2 0.286952 0.947768 0.239005
O O3 0.100650 0.021079 0.841932
O O4 0.500000 0.000000 0.000000
O O5 0.389404 0.859140 0.598716
O O6 0.411724 0.733018 0.893548
O O7 0.915425 0.701604 0.708768
O O8 0.434846 0.124164 0.638983
O O9 0.269334 0.208774 0.585995
O O10 0.842993 0.035881 0.458755
O O11 0.500000 0.500000 0.500000
O O12 0.622386 0.399057 0.571545
O O13 0.019525 0.554327 0.782439
O O14 0.532684 0.394813 0.873030
O O15 0.530246 0.680207 0.735396
#
# Coordination Sequence:
#
# PCOD9010509 Si02
#       7
#     2   2   2   2   2   2   2
#     4  10  22  38  61  94 131 186 231 274 330 392
#     4  12  23  44  67 100 140 181 233 279 340 413
#     4  10  21  40  63  92 133 183 227 273 339 389
#     4  11  25  51  75 105 135 177 229 285 360 423
#     4  10  21  41  61  90 139 178 226 280 321 395
#     4  11  26  49  74 102 141 177 227 291 349 418
#     4  12  24  46  73 104 141 182 228 289 347 410
#
# _framework density 22.629435999999998
#
# number of rings (size 3 to 8) (size 9 to 14) (size 15 to 20)
#    0.000    1.143    4.286    1.714    0.000    1.143 
#   12.857    0.000    0.000    0.000    0.000    0.000 
#    0.000    0.000    0.000    0.000    0.000    0.000 
#
# Total GULP energy -78150.203376 kJ/mol
# GULP energy per Si atom -5582.157384 kJ/mol
# Density = 2.257793 g / cm^3
# Si number density = 22.629436 Si / 1000 Ang^3
#
#
#
# Elastic Constant Matrix: (Units=GPa)
#
#
# Indices 1 2 3 4 5 6 
#
# 1 87.8945 25.9370 42.5999 -13.0638 -6.4715 -15.5274
# 2 25.9370 95.0835 41.3673 -9.7346 -8.0544 -27.5745
# 3 42.5999 41.3673 140.9444 -26.2908 4.9263 -16.5336
# 4 -13.0638 -9.7346 -26.2908 40.1642 -11.4695 -0.4897
# 5 -6.4715 -8.0544 4.9263 -11.4695 39.4711 -2.6304
# 6 -15.5274 -27.5745 -16.5336 -0.4897 -2.6304 35.2538
#
#
#
# Elastic Compliance Matrix: (Units=1/GPa)
#
#
# Indices 1 2 3 4 5 6 
#
# 1 0.014833 -0.000437 -0.003180 0.003902 0.004211 0.005069
# 2 -0.000437 0.015969 -0.002723 0.003611 0.005341 0.011470
# 3 -0.003180 -0.002723 0.009855 0.004506 -0.000925 0.001086
# 4 0.003902 0.003611 0.004506 0.033229 0.010999 0.007939
# 5 0.004211 0.005341 -0.000925 0.010999 0.030964 0.008061
# 6 0.005069 0.011470 0.001086 0.007939 0.008061 0.040791
#
#
# Mechanical properties :
#
#
# Convention : Reuss Voigt Hill
#
# Bulk Modulus (GPa) = 35.74078 60.41452 48.07765
# Shear Modulus (GPa) = 29.82490 37.24572 33.53531
#
# Velocity S-wave (km/s) = 3.63432 4.06137 3.85376
# Velocity P-wave (km/s) = 5.78267 6.98199 6.41044
#
# Compressibility (1/GPa) = 0.02797924
#
# Stress axis : x y z
#
# Youngs Moduli (GPa) = 67.41886 62.62101 101.46769
#
# Poissons Ratio (x) = 0.02734 0.32265
# Poissons Ratio (y) = 0.02943 0.27625
# Poissons Ratio (z) = 0.21438 0.17049
#
# Static dielectric constant tensor:
#      x y z
#    x 1.877640 -0.020180 -0.091660 
#    y -0.020180 1.808530 0.020010 
#    z -0.091660 0.020010 2.024890 
# 
# From -- ./inp_files/196371.got.cif
#   From: 2010.05.17/outbox.cif.g08.bks.cpg/sg2_99_cif.got.tgz:196371.got - 2010.06.03 11:33:40.
