data_PCOD9010475
_publ_section_title
;
Structure prediction by ZEFSAII (Michael W. Deem and Ramdas Pophale) SiO2 
 PCOD9010475
Probable space group: P -1
;
_chemical_formula_sum "Si O2"
_cell_formula_units_Z 16
_cell_length_a 11.062254
_cell_length_b 9.656368
_cell_length_c 8.064018
_cell_angle_alpha 86.110982
_cell_angle_beta 116.654405
_cell_angle_gamma 117.618640
_cell_volume 671.373946
_symmetry_space_group_name_H-M "P -1"
_symmetry_group_IT_number 2
_symmetry_cell_setting 'triclinic'
loop_
_space_group_symop_operation_xyz
x,y,z
-x,-y,-z
loop_
_atom_site_type_symbol
_atom_site_label
_atom_site_fract_x
_atom_site_fract_y
_atom_site_fract_z
Si Si1 0.615551 0.545733 0.282101
Si Si2 0.387508 0.639027 0.015231
Si Si3 0.209478 0.958463 0.925284
Si Si4 0.247488 0.894614 0.576125
Si Si5 0.061432 0.587128 0.859805
Si Si6 0.579809 0.109377 0.747783
Si Si7 0.744459 0.372788 0.549594
Si Si8 0.929197 0.861438 0.326787
O O1 0.478940 0.588475 0.207034
O O2 0.649442 0.465860 0.464978
O O3 0.776472 0.703096 0.311297
O O4 0.564166 0.408470 0.121404
O O5 0.427436 0.812552 0.086886
O O6 0.203161 0.556720 0.907235
O O7 0.253430 0.960529 0.758040
O O8 0.103047 0.769159 0.896243
O O9 0.126901 0.066825 0.863572
O O10 0.344246 0.998451 0.139597
O O11 0.267039 0.738882 0.602368
O O12 0.083288 0.845890 0.392164
O O13 0.406366 0.022412 0.577397
O O14 0.921976 0.505638 0.654319
O O15 0.000000 0.500000 0.000000
O O16 0.688792 0.253710 0.682036
O O17 0.000000 0.000000 0.500000
#
# Coordination Sequence:
#
# PCOD9010475 Si02
#       8
#     2   2   2   2   2   2   2   2
#     4  11  24  41  66  98 125 160 217 263 310 364
#     4  10  22  42  63  93 127 164 209 258 308 372
#     4  10  21  40  67  88 119 169 207 257 309 374
#     4  11  23  39  63  94 123 164 217 256 309 369
#     4  11  21  41  64  93 126 162 208 253 314 378
#     4  11  23  41  61  92 127 169 203 254 320 379
#     4  12  23  40  63  94 130 164 208 262 314 375
#     4  10  21  40  63  92 123 158 212 263 305 365
#
# _framework density 23.831727000000001
#
# number of rings (size 3 to 8) (size 9 to 14) (size 15 to 20)
#    0.000    1.250    2.500    6.000    0.000    5.000 
#    2.250    0.625    0.000    0.000    0.000    0.000 
#    0.000    0.000    0.000    0.000    0.000    0.000 
#
# Total GULP energy -89261.315558 kJ/mol
# GULP energy per Si atom -5578.832222 kJ/mol
# Density = 2.377748 g / cm^3
# Si number density = 23.831727 Si / 1000 Ang^3
#
#
#
# Elastic Constant Matrix: (Units=GPa)
#
#
# Indices 1 2 3 4 5 6 
#
# 1 54.4952 33.2928 40.0005 -32.4899 14.5356 -0.0827
# 2 33.2928 74.2352 26.4665 -19.9868 28.1462 5.9558
# 3 40.0005 26.4665 90.3072 -22.4819 42.4058 3.9321
# 4 -32.4899 -19.9868 -22.4819 48.5819 -22.4905 5.0514
# 5 14.5356 28.1462 42.4058 -22.4905 27.0379 -9.8376
# 6 -0.0827 5.9558 3.9321 5.0514 -9.8376 31.5613
#
#
#
# Elastic Compliance Matrix: (Units=1/GPa)
#
#
# Indices 1 2 3 4 5 6 
#
# 1 0.011612 0.010335 0.018220 -0.003272 -0.055982 -0.021116
# 2 0.010335 0.006051 -0.018946 0.015463 0.034147 0.009414
# 3 0.018220 -0.018946 -0.010022 0.020669 0.048960 0.016824
# 4 -0.003272 0.015463 0.020669 0.018460 -0.038887 -0.020577
# 5 -0.055982 0.034147 0.048960 -0.038887 -0.090180 -0.034576
# 6 -0.021116 0.009414 0.016824 -0.020577 -0.034576 0.020273
#
#
# Mechanical properties :
#
#
# Convention : Reuss Voigt Hill
#
# Bulk Modulus (GPa) = 37.23120 46.50637 41.86879
# Shear Modulus (GPa) = -92.46985 29.38809 -31.54088
#
# Velocity S-wave (km/s) = -6.23581 3.51543 -3.64192
# Velocity P-wave (km/s) = 6.01587 6.00288 0.27946
#
# Compressibility (1/GPa) = 0.02685919
#
# Stress axis : x y z
#
# Youngs Moduli (GPa) = 86.11970 165.25272 -99.78381
#
# Poissons Ratio (x) = -1.70791 1.81808
# Poissons Ratio (y) = -0.89006 -1.89055
# Poissons Ratio (z) = -1.56912 3.13095
#
# Static dielectric constant tensor:
#      x y z
#    x 1.959970 0.003220 0.038080 
#    y 0.003220 1.919420 0.023520 
#    z 0.038080 0.023520 2.035330 
# 
# From -- ./inp_files/243649.got.cif
#   From: 2010.05.17/outbox.cif.g08.bks.cpg/sg2_122_cif.got.tgz:243649.got - 2010.06.03 11:33:40.
