data_PCOD9010531
_publ_section_title
;
Structure prediction by ZEFSAII (Michael W. Deem and Ramdas Pophale) SiO2 
 PCOD9010531
Probable space group: P -1
;
_chemical_formula_sum "Si O2"
_cell_formula_units_Z 16
_cell_length_a 16.693538
_cell_length_b 12.592357
_cell_length_c 11.111965
_cell_angle_alpha 49.779164
_cell_angle_beta 47.957053
_cell_angle_gamma 21.830626
_cell_volume 642.620114
_symmetry_space_group_name_H-M "P -1"
_symmetry_group_IT_number 2
_symmetry_cell_setting 'triclinic'
loop_
_space_group_symop_operation_xyz
x,y,z
-x,-y,-z
loop_
_atom_site_type_symbol
_atom_site_label
_atom_site_fract_x
_atom_site_fract_y
_atom_site_fract_z
Si Si1 0.046817 0.341120 0.410454
Si Si2 0.281188 0.089016 0.578916
Si Si3 0.293286 0.337662 0.672177
Si Si4 0.836093 0.265646 0.125718
Si Si5 0.296229 0.859404 0.922837
Si Si6 0.593565 0.835758 0.901853
Si Si7 0.703830 0.367006 0.439156
Si Si8 0.594515 0.387463 0.786528
O O1 0.842873 0.626124 0.487654
O O2 0.946194 0.395499 0.348086
O O3 0.187789 0.106118 0.545707
O O4 0.214057 0.276661 0.254826
O O5 0.535158 0.826379 0.487704
O O6 0.233796 0.070092 0.765650
O O7 0.325431 0.434598 0.655250
O O8 0.390720 0.092855 0.822639
O O9 0.866775 0.186500 0.292806
O O10 0.653408 0.365218 0.189198
O O11 0.707820 0.557906 0.016430
O O12 0.081088 0.003175 0.017406
O O13 0.530492 0.560141 0.837719
O O14 0.318452 0.841253 0.057644
O O15 0.500000 0.000000 0.000000
O O16 0.500000 0.500000 0.500000
O O17 0.734820 0.275939 0.611523
#
# Coordination Sequence:
#
# PCOD9010531 Si02
#       8
#     2   2   2   2   2   2   2   2
#     4  10  23  40  62  96 131 170 219 264 330 397
#     4  10  21  40  63  93 132 168 210 275 332 384
#     4  11  22  41  66  95 129 175 216 270 326 397
#     4  11  23  42  66  92 130 172 214 269 330 385
#     4  11  22  42  66  95 129 161 223 276 323 386
#     4  11  23  40  62  95 131 169 210 267 329 380
#     4  10  22  45  66  90 133 174 217 264 326 387
#     4  10  24  43  66  93 122 174 218 271 327 385
#
# _framework density 24.898069
#
# number of rings (size 3 to 8) (size 9 to 14) (size 15 to 20)
#    0.000    1.500    3.750    0.750    1.750    2.000 
#    4.500    0.000    0.000    0.000    0.000    0.000 
#    0.000    0.000    0.000    0.000    0.000    0.000 
#
# Total GULP energy -89101.701663 kJ/mol
# GULP energy per Si atom -5568.856354 kJ/mol
# Density = 2.484140 g / cm^3
# Si number density = 24.898069 Si / 1000 Ang^3
#
#
#
# Elastic Constant Matrix: (Units=GPa)
#
#
# Indices 1 2 3 4 5 6 
#
# 1 71.1393 24.8307 22.2350 -18.1270 9.0134 -20.7052
# 2 24.8307 38.1175 21.5497 -20.2088 9.5572 -19.6480
# 3 22.2350 21.5497 177.9083 -20.3696 36.7995 -7.7067
# 4 -18.1270 -20.2088 -20.3696 41.3211 0.6248 16.9316
# 5 9.0134 9.5572 36.7995 0.6248 31.8926 -7.1099
# 6 -20.7052 -19.6480 -7.7067 16.9316 -7.1099 32.8212
#
#
#
# Elastic Compliance Matrix: (Units=1/GPa)
#
#
# Indices 1 2 3 4 5 6 
#
# 1 0.019425 -0.007810 -0.000849 0.001701 -0.000792 0.006330
# 2 -0.007810 0.049305 -0.001019 0.014030 -0.008250 0.015324
# 3 -0.000849 -0.001019 0.008330 0.005005 -0.010045 -0.003947
# 4 0.001701 0.014030 0.005005 0.039792 -0.014124 -0.012940
# 5 -0.000792 -0.008250 -0.010045 -0.014124 0.048128 0.009915
# 6 0.006330 0.015324 -0.003947 -0.012940 0.009915 0.051531
#
#
# Mechanical properties :
#
#
# Convention : Reuss Voigt Hill
#
# Bulk Modulus (GPa) = 17.33034 47.15510 32.24272
# Shear Modulus (GPa) = 19.60000 35.77695 27.68847
#
# Velocity S-wave (km/s) = 2.80877 3.79481 3.33839
# Velocity P-wave (km/s) = 4.18265 6.17909 5.27616
#
# Compressibility (1/GPa) = 0.05770227
#
# Stress axis : x y z
#
# Youngs Moduli (GPa) = 51.48113 20.28198 120.04613
#
# Poissons Ratio (x) = 0.15841 0.10189
# Poissons Ratio (y) = 0.40209 0.12237
# Poissons Ratio (z) = 0.04370 0.02067
#
# Static dielectric constant tensor:
#      x y z
#    x 2.118160 0.005570 0.040200 
#    y 0.005570 2.054370 -0.139200 
#    z 0.040200 -0.139200 2.069870 
# 
# From -- ./inp_files/465812.got.cif
#   From: 2010.05.17/outbox.cif.g08.bks.cpg/sg2_233_cif.got.tgz:465812.got - 2010.06.03 11:33:40.
