data_PCOD9010480
_publ_section_title
;
Structure prediction by ZEFSAII (Michael W. Deem and Ramdas Pophale) SiO2 
 PCOD9010480
Probable space group: P -1
;
_chemical_formula_sum "Si O2"
_cell_formula_units_Z 16
_cell_length_a 9.028915
_cell_length_b 14.418297
_cell_length_c 12.515732
_cell_angle_alpha 149.610304
_cell_angle_beta 73.765571
_cell_angle_gamma 97.132800
_cell_volume 768.073325
_symmetry_space_group_name_H-M "P -1"
_symmetry_group_IT_number 2
_symmetry_cell_setting 'triclinic'
loop_
_space_group_symop_operation_xyz
x,y,z
-x,-y,-z
loop_
_atom_site_type_symbol
_atom_site_label
_atom_site_fract_x
_atom_site_fract_y
_atom_site_fract_z
Si Si1 0.134967 0.619482 0.901537
Si Si2 0.892462 0.874271 0.345167
Si Si3 0.657132 0.120407 0.964328
Si Si4 0.971290 0.447087 0.575185
Si Si5 0.666701 0.713235 0.896033
Si Si6 0.348578 0.224095 0.528423
Si Si7 0.614496 0.002851 0.379994
Si Si8 0.146979 0.072576 0.086299
O O1 0.273617 0.437313 0.721589
O O2 0.046634 0.565883 0.761875
O O3 0.211131 0.794398 0.035740
O O4 0.006069 0.685721 0.085967
O O5 0.772832 0.826856 0.410266
O O6 0.786820 0.985026 0.378479
O O7 0.000000 0.000000 0.500000
O O8 0.641693 0.926095 0.718720
O O9 0.716442 0.079529 0.032367
O O10 0.489099 0.268166 0.125701
O O11 0.781533 0.507823 0.686931
O O12 0.000000 0.500000 0.500000
O O13 0.065426 0.230302 0.347055
O O14 0.772203 0.833570 0.930616
O O15 0.620497 0.820009 0.123101
O O16 0.523370 0.179457 0.502467
O O17 0.500000 0.000000 0.500000
O O18 0.000000 0.000000 0.000000
#
# Coordination Sequence:
#
# PCOD9010480 Si02
#       8
#     2   2   2   2   2   2   2   2
#     4  12  22  41  65  92 130 168 218 267 315 382
#     4  11  21  38  67  94 125 170 217 262 322 377
#     4  11  22  40  63  92 128 166 209 263 323 384
#     4  10  21  40  63  92 124 165 216 262 311 382
#     4  10  21  41  64  91 130 168 211 265 325 381
#     4  10  22  41  61  92 128 169 211 264 321 376
#     4   9  20  39  66  88 129 167 203 261 323 380
#     4  11  23  41  65  94 128 167 216 270 322 381
#
# _framework density 20.831341999999999
#
# number of rings (size 3 to 8) (size 9 to 14) (size 15 to 20)
#    0.000    1.500    3.750    2.250    0.000    0.000 
#    4.500    3.750    0.000    0.000    0.000    0.000 
#    0.000    0.000    0.000    0.000    0.000    0.000 
#
# Total GULP energy -89311.172764 kJ/mol
# GULP energy per Si atom -5581.948298 kJ/mol
# Density = 2.078393 g / cm^3
# Si number density = 20.831342 Si / 1000 Ang^3
#
#
#
# Elastic Constant Matrix: (Units=GPa)
#
#
# Indices 1 2 3 4 5 6 
#
# 1 100.2381 9.0188 21.2643 7.9590 3.1654 -33.1763
# 2 9.0188 41.4770 1.5946 2.2625 5.1466 -17.2371
# 3 21.2643 1.5946 77.0756 -5.8696 -10.6010 -14.6007
# 4 7.9590 2.2625 -5.8696 22.7651 -6.1413 -8.4601
# 5 3.1654 5.1466 -10.6010 -6.1413 33.1083 1.0710
# 6 -33.1763 -17.2371 -14.6007 -8.4601 1.0710 46.4081
#
#
#
# Elastic Compliance Matrix: (Units=1/GPa)
#
#
# Indices 1 2 3 4 5 6 
#
# 1 0.013786 0.001436 -0.002841 -0.003261 -0.003346 0.008977
# 2 0.001436 0.029493 0.000644 -0.000026 -0.004918 0.012292
# 3 -0.002841 0.000644 0.016251 0.008732 0.006841 0.004755
# 4 -0.003261 -0.000026 0.008732 0.054537 0.012903 0.010050
# 5 -0.003346 -0.004918 0.006841 0.012903 0.035890 -0.000543
# 6 0.008977 0.012292 0.004755 0.010050 -0.000543 0.035872
#
#
# Mechanical properties :
#
#
# Convention : Reuss Voigt Hill
#
# Bulk Modulus (GPa) = 17.23947 31.39403 24.31675
# Shear Modulus (GPa) = 24.19121 32.91717 28.55419
#
# Velocity S-wave (km/s) = 3.41147 3.97945 3.70636
# Velocity P-wave (km/s) = 4.87967 6.01814 5.47856
#
# Compressibility (1/GPa) = 0.05800642
#
# Stress axis : x y z
#
# Youngs Moduli (GPa) = 72.53940 33.90660 61.53315
#
# Poissons Ratio (x) = -0.04867 0.17482
# Poissons Ratio (y) = -0.10413 -0.03962
# Poissons Ratio (z) = 0.20609 -0.02183
#
# Static dielectric constant tensor:
#      x y z
#    x 1.763620 -0.042640 -0.046550 
#    y -0.042640 1.757310 0.009170 
#    z -0.046550 0.009170 1.765660 
# 
# From -- ./inp_files/215231.got.cif
#   From: 2010.05.17/outbox.cif.g08.bks.cpg/sg2_108_cif.got.tgz:215231.got - 2010.06.03 11:33:40.
