data_PCOD9010029
_publ_section_title
;
Structure prediction by ZEFSAII (Michael W. Deem and Ramdas Pophale) SiO2 
 PCOD9010029
Probable space group: P -1
;
_chemical_formula_sum "Si O2"
_cell_formula_units_Z 16
_cell_length_a 23.156055
_cell_length_b 6.885921
_cell_length_c 19.554348
_cell_angle_alpha 130.801172
_cell_angle_beta 159.547686
_cell_angle_gamma 41.253296
_cell_volume 700.602598
_symmetry_space_group_name_H-M "P -1"
_symmetry_group_IT_number 2
_symmetry_cell_setting 'triclinic'
loop_
_space_group_symop_operation_xyz
x,y,z
-x,-y,-z
loop_
_atom_site_type_symbol
_atom_site_label
_atom_site_fract_x
_atom_site_fract_y
_atom_site_fract_z
Si Si1 0.017801 0.251308 0.538483
Si Si2 0.886510 0.825869 0.132576
Si Si3 0.704925 0.665272 0.521325
Si Si4 0.386780 0.772687 0.757731
Si Si5 0.145780 0.106933 0.443538
Si Si6 0.350998 0.599396 0.460797
Si Si7 0.641147 0.675705 0.730745
Si Si8 0.657400 0.390026 0.087610
O O1 0.967420 0.535266 0.594140
O O2 0.846545 0.383377 0.322893
O O3 0.224706 0.044345 0.685929
O O4 0.000000 0.000000 0.500000
O O5 0.064826 0.491585 0.270196
O O6 0.734876 0.043810 0.071909
O O7 0.773881 0.782300 0.936334
O O8 0.999374 0.998785 0.279218
O O9 0.648685 0.497598 0.363297
O O10 0.668921 0.566003 0.533422
O O11 0.560706 0.019753 0.442211
O O12 0.337598 0.945193 0.669424
O O13 0.570545 0.599499 0.972035
O O14 0.226220 0.949943 0.424527
O O15 0.570058 0.516701 0.668794
O O16 0.278834 0.518973 0.293809
O O17 0.500000 0.500000 0.000000
#
# Coordination Sequence:
#
# PCOD9010029 Si02
#       8
#     2   2   2   2   2   2   2   2
#     4  12  24  41  64  91 133 174 213 279 330 386
#     4  10  23  41  65  97 129 176 218 267 329 394
#     4  10  21  42  67  93 137 173 214 270 332 392
#     4  10  21  40  61  91 128 172 214 270 323 384
#     4  10  24  44  64  94 137 172 227 271 329 404
#     4   9  23  41  67 106 123 175 222 269 336 392
#     4  11  21  43  73  92 140 167 216 282 328 390
#     4  12  23  37  62  97 125 170 227 258 328 390
#
# _framework density 22.837482000000001
#
# number of rings (size 3 to 8) (size 9 to 14) (size 15 to 20)
#    0.000    1.750    5.000    0.750    3.500    2.500 
#    0.000    6.250    0.000    0.000    0.000    0.000 
#    0.000    0.000    0.000    0.000    0.000    0.000 
#
# Total GULP energy -89275.624968 kJ/mol
# GULP energy per Si atom -5579.726560 kJ/mol
# Density = 2.278550 g / cm^3
# Si number density = 22.837482 Si / 1000 Ang^3
#
#
#
# Elastic Constant Matrix: (Units=GPa)
#
#
# Indices 1 2 3 4 5 6 
#
# 1 80.0117 40.0857 24.8486 -2.2096 -9.7801 -22.4229
# 2 40.0857 151.7189 43.5008 -3.5967 -23.2639 -34.1247
# 3 24.8486 43.5008 105.9794 -7.7344 -14.1870 -14.2484
# 4 -2.2096 -3.5967 -7.7344 40.4072 -0.2206 -5.3933
# 5 -9.7801 -23.2639 -14.1870 -0.2206 12.6286 1.8004
# 6 -22.4229 -34.1247 -14.2484 -5.3933 1.8004 44.5976
#
#
#
# Elastic Compliance Matrix: (Units=1/GPa)
#
#
# Indices 1 2 3 4 5 6 
#
# 1 0.016426 -0.001140 -0.001246 0.001516 0.008272 0.006837
# 2 -0.001140 0.011793 -0.000889 0.001940 0.018787 0.007642
# 3 -0.001246 -0.000889 0.012021 0.002534 0.010602 0.002412
# 4 0.001516 0.001940 0.002534 0.026322 0.007205 0.005948
# 5 0.008272 0.018787 0.010602 0.007205 0.129733 0.017555
# 6 0.006837 0.007642 0.002412 0.005948 0.017555 0.032489
#
#
# Mechanical properties :
#
#
# Convention : Reuss Voigt Hill
#
# Bulk Modulus (GPa) = 29.68365 61.62003 45.65184
# Shear Modulus (GPa) = 20.27862 34.81168 27.54515
#
# Velocity S-wave (km/s) = 2.98309 3.90849 3.47672
# Velocity P-wave (km/s) = 4.98910 6.88542 6.01249
#
# Compressibility (1/GPa) = 0.03368857
#
# Stress axis : x y z
#
# Youngs Moduli (GPa) = 60.88093 84.79593 83.18484
#
# Poissons Ratio (x) = 0.09671 0.10365
# Poissons Ratio (y) = 0.06943 0.07397
# Poissons Ratio (z) = 0.07586 0.07541
#
# Static dielectric constant tensor:
#      x y z
#    x 1.992620 0.068830 0.022030 
#    y 0.068830 1.896110 0.013040 
#    z 0.022030 0.013040 1.873450 
# 
# From -- ./inp_files/602286.got.cif
#   From: 2010.05.17/outbox.cif.g08.bks.cpg/sg2_302_cif.got.tgz:602286.got - 2010.06.03 11:33:40.
