data_PCOD9010823
_publ_section_title
;
Structure prediction by ZEFSAII (Michael W. Deem and Ramdas Pophale) SiO2 
 PCOD9010823
Probable space group: P -1
;
_chemical_formula_sum "Si O2"
_cell_formula_units_Z 16
_cell_length_a 15.972998
_cell_length_b 5.466741
_cell_length_c 26.927082
_cell_angle_alpha 52.724878
_cell_angle_beta 22.600774
_cell_angle_gamma 53.753779
_cell_volume 715.061271
_symmetry_space_group_name_H-M "P -1"
_symmetry_group_IT_number 2
_symmetry_cell_setting 'triclinic'
loop_
_space_group_symop_operation_xyz
x,y,z
-x,-y,-z
loop_
_atom_site_type_symbol
_atom_site_label
_atom_site_fract_x
_atom_site_fract_y
_atom_site_fract_z
Si Si1 0.795848 0.629274 0.148604
Si Si2 0.248845 0.134712 0.613323
Si Si3 0.651332 0.448811 0.739885
Si Si4 0.749921 0.132166 0.617606
Si Si5 0.848658 0.944487 0.218804
Si Si6 0.795037 0.271093 0.021647
Si Si7 0.556986 0.256827 0.583462
Si Si8 0.110507 0.253839 0.567125
O O1 0.802755 0.270411 0.174177
O O2 0.609308 0.675755 0.287513
O O3 0.750323 0.911066 0.100574
O O4 0.032862 0.658710 0.038644
O O5 0.284395 0.494089 0.550852
O O6 0.135959 0.097119 0.626641
O O7 0.500000 0.000000 0.500000
O O8 0.122898 0.007439 0.744257
O O9 0.668418 0.272226 0.699078
O O10 0.411134 0.468729 0.894367
O O11 0.865339 0.316066 0.671369
O O12 0.657648 0.820030 0.688377
O O13 0.774487 0.428113 0.533116
O O14 0.000000 0.000000 0.500000
O O15 0.625245 0.787594 0.353446
O O16 0.059404 0.747862 0.105248
O O17 0.725607 0.953034 0.532812
#
# Coordination Sequence:
#
# PCOD9010823 Si02
#       8
#     2   2   2   2   2   2   2   2
#     4  10  21  40  64  93 127 165 221 272 336 392
#     4  12  24  40  62  96 129 170 220 280 337 394
#     4  11  25  43  67  98 139 178 220 272 332 406
#     4  10  23  41  65  98 135 175 217 270 335 396
#     4  11  23  41  62  91 131 172 222 276 328 395
#     4  10  24  39  64  93 130 177 219 268 326 399
#     4  11  22  37  65  94 131 162 218 278 347 388
#     4  11  24  37  64  95 130 172 214 274 340 398
#
# _framework density 22.375703999999999
#
# number of rings (size 3 to 8) (size 9 to 14) (size 15 to 20)
#    0.000    1.250    2.500    3.000   10.500    0.000 
#    0.000    0.625    0.000    1.500    0.000    0.000 
#    0.000    0.000    0.000    0.000    0.000    0.000 
#
# Total GULP energy -89215.374095 kJ/mol
# GULP energy per Si atom -5575.960881 kJ/mol
# Density = 2.232478 g / cm^3
# Si number density = 22.375704 Si / 1000 Ang^3
#
#
#
# Elastic Constant Matrix: (Units=GPa)
#
#
# Indices 1 2 3 4 5 6 
#
# 1 112.1093 16.6305 51.0764 25.9571 3.3158 -13.0419
# 2 16.6305 95.2681 36.9665 28.8827 0.5180 5.1618
# 3 51.0764 36.9665 100.8563 48.7014 0.7213 -4.1483
# 4 25.9571 28.8827 48.7014 53.6692 3.7295 -5.5947
# 5 3.3158 0.5180 0.7213 3.7295 35.5654 3.7876
# 6 -13.0419 5.1618 -4.1483 -5.5947 3.7876 34.0379
#
#
#
# Elastic Compliance Matrix: (Units=1/GPa)
#
#
# Indices 1 2 3 4 5 6 
#
# 1 0.012165 -0.000041 -0.006037 0.000148 -0.001465 0.004119
# 2 -0.000041 0.013218 -0.002400 -0.005310 0.000765 -0.003271
# 3 -0.006037 -0.002400 0.021165 -0.015354 0.002004 -0.002117
# 4 0.000148 -0.005310 -0.015354 0.036190 -0.003993 0.005384
# 5 -0.001465 0.000765 0.002004 -0.003993 0.029081 -0.004326
# 6 0.004119 -0.003271 -0.002117 0.005384 -0.004326 0.032561
#
#
# Mechanical properties :
#
#
# Convention : Reuss Voigt Hill
#
# Bulk Modulus (GPa) = 33.79357 57.50894 45.65126
# Shear Modulus (GPa) = 29.20546 38.22518 33.71532
#
# Velocity S-wave (km/s) = 3.61672 4.13768 3.88594
# Velocity P-wave (km/s) = 5.70758 6.97026 6.37028
#
# Compressibility (1/GPa) = 0.02959142
#
# Stress axis : x y z
#
# Youngs Moduli (GPa) = 82.20558 75.65483 47.24775
#
# Poissons Ratio (x) = 0.00311 0.28524
# Poissons Ratio (y) = 0.00338 0.11339
# Poissons Ratio (z) = 0.49628 0.18156
#
# Static dielectric constant tensor:
#      x y z
#    x 1.943910 0.068810 -0.024140 
#    y 0.068810 1.604540 0.024310 
#    z -0.024140 0.024310 1.907590 
# 
# From -- ./inp_files/623775.got.cif
#   From: 2010.05.17/outbox.cif.g08.bks.cpg/sg2_312_cif.got.tgz:623775.got - 2010.06.03 11:33:40.
