data_PCOD9010592
_publ_section_title
;
Structure prediction by ZEFSAII (Michael W. Deem and Ramdas Pophale) SiO2 
 PCOD9010592
Probable space group: P -1
;
_chemical_formula_sum "Si O2"
_cell_formula_units_Z 14
_cell_length_a 19.117634
_cell_length_b 21.458720
_cell_length_c 9.203862
_cell_angle_alpha 50.218165
_cell_angle_beta 39.855940
_cell_angle_gamma 15.498091
_cell_volume 525.198753
_symmetry_space_group_name_H-M "P -1"
_symmetry_group_IT_number 2
_symmetry_cell_setting 'triclinic'
loop_
_space_group_symop_operation_xyz
x,y,z
-x,-y,-z
loop_
_atom_site_type_symbol
_atom_site_label
_atom_site_fract_x
_atom_site_fract_y
_atom_site_fract_z
Si Si1 0.437279 0.456700 0.738800
Si Si2 0.479991 0.272190 0.771181
Si Si3 0.442128 0.548580 0.849963
Si Si4 0.456591 0.841576 0.632966
Si Si5 0.571585 0.922862 0.169007
Si Si6 0.606073 0.246617 0.328246
Si Si7 0.462360 0.911302 0.816658
O O1 0.500000 0.500000 0.500000
O O2 0.611438 0.256895 0.675568
O O3 0.581094 0.373725 0.794576
O O4 0.984390 0.757064 0.010750
O O5 0.692858 0.120635 0.504043
O O6 0.534585 0.157849 0.959156
O O7 0.033165 0.593879 0.953428
O O8 0.587727 0.536838 0.608995
O O9 0.500000 0.500000 0.000000
O O10 0.983978 0.871544 0.061689
O O11 0.445513 0.922134 0.414091
O O12 0.626975 0.638298 0.591932
O O13 0.636901 0.749834 0.629746
O O14 0.406547 0.100823 0.292232
O O15 0.500000 0.000000 0.000000
O O16 0.000000 0.000000 0.000000
#
# Coordination Sequence:
#
# PCOD9010592 Si02
#       7
#     2   2   2   2   2   2   2
#     4  10  21  40  63  96 130 171 215 262 324 382
#     4  11  24  43  67  98 131 173 220 268 331 386
#     4  10  22  38  62  93 132 170 208 267 322 382
#     4  10  23  43  63  94 130 169 217 267 325 382
#     4  11  25  44  69  95 130 171 220 272 323 391
#     4  10  22  40  61  94 129 166 219 261 323 388
#     4  10  24  43  66  96 132 170 218 271 321 394
#
# _framework density 26.656576999999999
#
# number of rings (size 3 to 8) (size 9 to 14) (size 15 to 20)
#    0.000    1.714    1.429    1.286    4.000    5.714 
#    0.000    0.000    0.000    0.000    0.000    0.000 
#    0.000    0.000    0.000    0.000    0.000    0.000 
#
# Total GULP energy -78300.666687 kJ/mol
# GULP energy per Si atom -5592.904763 kJ/mol
# Density = 2.659591 g / cm^3
# Si number density = 26.656577 Si / 1000 Ang^3
#
#
#
# Elastic Constant Matrix: (Units=GPa)
#
#
# Indices 1 2 3 4 5 6 
#
# 1 264.8281 53.7279 53.5434 -9.1362 -16.4381 0.2139
# 2 53.7279 62.4448 9.9293 0.9508 -3.3191 -20.6552
# 3 53.5434 9.9293 86.9535 -29.2399 -0.9022 13.6417
# 4 -9.1362 0.9508 -29.2399 42.5870 -0.8739 -3.2777
# 5 -16.4381 -3.3191 -0.9022 -0.8739 48.3890 -14.2846
# 6 0.2139 -20.6552 13.6417 -3.2777 -14.2846 46.4071
#
#
#
# Elastic Compliance Matrix: (Units=1/GPa)
#
#
# Indices 1 2 3 4 5 6 
#
# 1 0.005272 -0.004244 -0.002901 -0.000798 0.001212 -0.000744
# 2 -0.004244 0.024674 -0.003019 -0.002457 0.003969 0.012937
# 3 -0.002901 -0.003019 0.018577 0.011623 -0.002638 -0.006782
# 4 -0.000798 -0.002457 0.011623 0.031151 -0.000375 -0.002422
# 5 0.001212 0.003969 -0.002638 -0.000375 0.024237 0.009970
# 6 -0.000744 0.012937 -0.006782 -0.002422 0.009970 0.032202
#
#
# Mechanical properties :
#
#
# Convention : Reuss Voigt Hill
#
# Bulk Modulus (GPa) = 35.46761 72.06975 53.76868
# Shear Modulus (GPa) = 30.15004 47.27833 38.71418
#
# Velocity S-wave (km/s) = 3.36676 4.21599 3.81508
# Velocity P-wave (km/s) = 5.33364 7.12703 6.29453
#
# Compressibility (1/GPa) = 0.02819474
#
# Stress axis : x y z
#
# Youngs Moduli (GPa) = 189.68711 40.52928 53.83137
#
# Poissons Ratio (x) = 0.17202 0.15615
# Poissons Ratio (y) = 0.80508 0.16250
# Poissons Ratio (z) = 0.55023 0.12234
#
# Static dielectric constant tensor:
#      x y z
#    x 2.166680 0.140610 0.107500 
#    y 0.140610 2.256350 0.061490 
#    z 0.107500 0.061490 2.191280 
# 
# From -- ./inp_files/285631.got.cif
#   From: 2010.05.17/outbox.cif.g08.bks.cpg/sg2_143_cif.got.tgz:285631.got - 2010.06.03 11:33:40.
