data_PCOD9010370
_publ_section_title
;
Structure prediction by ZEFSAII (Michael W. Deem and Ramdas Pophale) SiO2 
 PCOD9010370
Probable space group: P -1
;
_chemical_formula_sum "Si O2"
_cell_formula_units_Z 12
_cell_length_a 8.319473
_cell_length_b 7.781986
_cell_length_c 13.546113
_cell_angle_alpha 131.612336
_cell_angle_beta 45.241323
_cell_angle_gamma 127.368409
_cell_volume 449.272906
_symmetry_space_group_name_H-M "P -1"
_symmetry_group_IT_number 2
_symmetry_cell_setting 'triclinic'
loop_
_space_group_symop_operation_xyz
x,y,z
-x,-y,-z
loop_
_atom_site_type_symbol
_atom_site_label
_atom_site_fract_x
_atom_site_fract_y
_atom_site_fract_z
Si Si1 0.133517 0.434932 0.663710
Si Si2 0.919656 0.727050 0.588181
Si Si3 0.479397 0.868557 0.855653
Si Si4 0.926647 0.671760 0.992835
Si Si5 0.713553 0.801051 0.317094
Si Si6 0.390113 0.985758 0.740065
O O1 0.060564 0.274261 0.538950
O O2 0.920984 0.465431 0.837617
O O3 0.307657 0.331656 0.618920
O O4 0.256505 0.706052 0.678147
O O5 0.649216 0.694607 0.722953
O O6 0.000000 0.500000 0.500000
O O7 0.073093 0.964419 0.664563
O O8 0.201984 0.787301 0.928142
O O9 0.560449 0.996673 0.763418
O O10 0.500000 0.000000 0.000000
O O11 0.213183 0.140632 0.910259
O O12 0.812937 0.629791 0.134399
O O13 0.538101 0.895567 0.354376
#
# Coordination Sequence:
#
# PCOD9010370 Si02
#       6
#     2   2   2   2   2   2
#     4  11  20  37  64  88 123 158 204 245 302 356
#     4  12  24  38  62  93 124 163 196 250 308 350
#     4  11  20  37  66  88 122 159 205 245 299 365
#     4   9  20  39  65  89 117 161 203 247 299 354
#     4  10  21  40  63  88 120 165 199 243 303 364
#     4   9  21  38  65  91 115 163 201 246 302 352
#
# _framework density 26.709821999999999
#
# number of rings (size 3 to 8) (size 9 to 14) (size 15 to 20)
#    1.000    0.667    3.333    3.000    2.333    2.667 
#    0.000    0.833    7.333    9.000    0.000    0.000 
#    0.000    0.000    0.000    0.000    0.000    0.000 
#
# Total GULP energy -66994.735590 kJ/mol
# GULP energy per Si atom -5582.894633 kJ/mol
# Density = 2.664903 g / cm^3
# Si number density = 26.709822 Si / 1000 Ang^3
#
#
#
# Elastic Constant Matrix: (Units=GPa)
#
#
# Indices 1 2 3 4 5 6 
#
# 1 102.3987 45.1927 53.9814 5.1717 0.4487 -34.8044
# 2 45.1927 115.3807 31.6873 14.5778 0.3939 -47.9008
# 3 53.9814 31.6873 147.1228 -11.0249 11.3395 -21.5219
# 4 5.1717 14.5778 -11.0249 36.3442 -13.0585 4.4720
# 5 0.4487 0.3939 11.3395 -13.0585 57.1072 -4.9624
# 6 -34.8044 -47.9008 -21.5219 4.4720 -4.9624 63.2039
#
#
#
# Elastic Compliance Matrix: (Units=1/GPa)
#
#
# Indices 1 2 3 4 5 6 
#
# 1 0.015090 -0.001935 -0.004594 -0.003252 0.000546 0.005552
# 2 -0.001935 0.015154 -0.001568 -0.007792 -0.000657 0.010385
# 3 -0.004594 -0.001568 0.009035 0.003798 -0.000964 -0.000986
# 4 -0.003252 -0.007792 0.003798 0.035718 0.006763 -0.008399
# 5 0.000546 -0.000657 -0.000964 0.006763 0.019293 0.000510
# 6 0.005552 0.010385 -0.000986 -0.008399 0.000510 0.027048
#
#
# Mechanical properties :
#
#
# Convention : Reuss Voigt Hill
#
# Bulk Modulus (GPa) = 43.31740 69.62499 56.47120
# Shear Modulus (GPa) = 34.42878 46.93379 40.68129
#
# Velocity S-wave (km/s) = 3.59415 4.19641 3.90690
# Velocity P-wave (km/s) = 5.78592 7.04298 6.44517
#
# Compressibility (1/GPa) = 0.02308541
#
# Stress axis : x y z
#
# Youngs Moduli (GPa) = 66.26773 65.99092 110.68156
#
# Poissons Ratio (x) = 0.12771 0.50843
# Poissons Ratio (y) = 0.12825 0.17353
# Poissons Ratio (z) = 0.30441 0.10346
#
# Static dielectric constant tensor:
#      x y z
#    x 2.076290 -0.057110 0.009270 
#    y -0.057110 2.213500 -0.080640 
#    z 0.009270 -0.080640 2.212500 
# 
# From -- ./inp_files/234948.got.cif
#   From: 2010.05.17/outbox.cif.g08.bks.cpg/sg2_118_cif.got.tgz:234948.got - 2010.06.03 11:33:40.
