data_PCOD9010212
_publ_section_title
;
Structure prediction by ZEFSAII (Michael W. Deem and Ramdas Pophale) SiO2 
 PCOD9010212
Probable space group: P -1
;
_chemical_formula_sum "Si O2"
_cell_formula_units_Z 16
_cell_length_a 16.846822
_cell_length_b 8.481031
_cell_length_c 12.790580
_cell_angle_alpha 99.326328
_cell_angle_beta 22.966527
_cell_angle_gamma 98.276146
_cell_volume 703.585639
_symmetry_space_group_name_H-M "P -1"
_symmetry_group_IT_number 2
_symmetry_cell_setting 'triclinic'
loop_
_space_group_symop_operation_xyz
x,y,z
-x,-y,-z
loop_
_atom_site_type_symbol
_atom_site_label
_atom_site_fract_x
_atom_site_fract_y
_atom_site_fract_z
Si Si1 0.096006 0.596275 0.747736
Si Si2 0.373103 0.147562 0.985824
Si Si3 0.963313 0.745796 0.719631
Si Si4 0.089652 0.098630 0.530478
Si Si5 0.627629 0.691039 0.666581
Si Si6 0.638660 0.345287 0.827652
Si Si7 0.339609 0.816425 0.881675
Si Si8 0.296841 0.604206 0.724617
O O1 0.002841 0.723918 0.792231
O O2 0.246105 0.471871 0.492147
O O3 0.234168 0.644747 0.684802
O O4 0.898987 0.497249 0.011847
O O5 0.222218 0.112006 0.264832
O O6 0.259794 0.273061 0.059346
O O7 0.570369 0.221703 0.807379
O O8 0.407521 0.991619 0.856281
O O9 0.124440 0.626358 0.458155
O O10 0.029521 0.919757 0.615506
O O11 0.220736 0.169968 0.472750
O O12 0.878665 0.199164 0.797331
O O13 0.522580 0.701322 0.684050
O O14 0.439636 0.721268 0.975481
O O15 0.500000 0.500000 0.000000
O O16 0.303522 0.768856 0.800860
O O17 0.500000 0.500000 0.500000
#
# Coordination Sequence:
#
# PCOD9010212 Si02
#       8
#     2   2   2   2   2   2   2   2
#     4  11  24  41  63  96 121 157 218 269 318 367
#     4  10  23  39  61  94 133 171 213 240 305 394
#     4  11  22  40  61  93 135 165 201 266 309 362
#     4  10  21  40  62  91 133 173 206 244 307 389
#     4  11  20  37  63  93 124 168 208 249 309 389
#     4  11  22  36  58  97 134 165 199 247 314 378
#     4  11  20  37  66  87 114 168 212 256 310 367
#     4  11  24  44  67  89 120 164 220 269 320 371
#
# _framework density 22.740658
#
# number of rings (size 3 to 8) (size 9 to 14) (size 15 to 20)
#    0.000    1.250    3.750    3.750    0.000    4.500 
#    0.000    2.500    0.000    4.500    0.000    0.000 
#    0.000    0.000    0.000    0.000    0.000    0.000 
#
# Total GULP energy -89240.655292 kJ/mol
# GULP energy per Si atom -5577.540956 kJ/mol
# Density = 2.268890 g / cm^3
# Si number density = 22.740658 Si / 1000 Ang^3
#
#
#
# Elastic Constant Matrix: (Units=GPa)
#
#
# Indices 1 2 3 4 5 6 
#
# 1 155.8086 23.8309 28.9751 8.0513 -8.5539 2.3005
# 2 23.8309 30.3946 3.0330 8.6405 1.3995 -4.6576
# 3 28.9751 3.0330 66.4046 15.0456 -13.2548 -4.4785
# 4 8.0513 8.6405 15.0456 25.4025 -4.0097 -0.5579
# 5 -8.5539 1.3995 -13.2548 -4.0097 30.2459 15.8640
# 6 2.3005 -4.6576 -4.4785 -0.5579 15.8640 39.3244
#
#
#
# Elastic Compliance Matrix: (Units=1/GPa)
#
#
# Indices 1 2 3 4 5 6 
#
# 1 0.008270 -0.007396 -0.003386 0.002316 0.003047 -0.002942
# 2 -0.007396 0.045008 0.003569 -0.016442 -0.010025 0.009981
# 3 -0.003386 0.003569 0.020117 -0.011093 0.006061 0.000310
# 4 0.002316 -0.016442 -0.011093 0.051639 0.006052 -0.005055
# 5 0.003047 -0.010025 0.006061 0.006052 0.048396 -0.020113
# 6 -0.002942 0.009981 0.000310 -0.005055 -0.020113 0.034861
#
#
# Mechanical properties :
#
#
# Convention : Reuss Voigt Hill
#
# Bulk Modulus (GPa) = 16.95759 40.47619 28.71689
# Shear Modulus (GPa) = 20.62930 32.11247 26.37088
#
# Velocity S-wave (km/s) = 3.01517 3.76189 3.40904
# Velocity P-wave (km/s) = 4.42660 6.05861 5.30573
#
# Compressibility (1/GPa) = 0.05897064
#
# Stress axis : x y z
#
# Youngs Moduli (GPa) = 120.91914 22.21809 49.70814
#
# Poissons Ratio (x) = 0.16432 0.16829
# Poissons Ratio (y) = 0.89429 -0.17740
# Poissons Ratio (z) = 0.40939 -0.07929
#
# Static dielectric constant tensor:
#      x y z
#    x 1.882820 -0.050210 0.016750 
#    y -0.050210 1.908350 0.010690 
#    z 0.016750 0.010690 1.877030 
# 
# From -- ./inp_files/447452.got.cif
#   From: 2010.05.17/outbox.cif.g08.bks.cpg/sg2_224_cif.got.tgz:447452.got - 2010.06.03 11:33:40.
