data_PCOD9010184
_publ_section_title
;
Structure prediction by ZEFSAII (Michael W. Deem and Ramdas Pophale) SiO2 
 PCOD9010184
Probable space group: P -1
;
_chemical_formula_sum "Si O2"
_cell_formula_units_Z 16
_cell_length_a 14.677582
_cell_length_b 13.414823
_cell_length_c 7.794263
_cell_angle_alpha 130.605638
_cell_angle_beta 60.736260
_cell_angle_gamma 146.458878
_cell_volume 638.490385
_symmetry_space_group_name_H-M "P -1"
_symmetry_group_IT_number 2
_symmetry_cell_setting 'triclinic'
loop_
_space_group_symop_operation_xyz
x,y,z
-x,-y,-z
loop_
_atom_site_type_symbol
_atom_site_label
_atom_site_fract_x
_atom_site_fract_y
_atom_site_fract_z
Si Si1 0.516358 0.258754 0.955383
Si Si2 0.563558 0.369921 0.649687
Si Si3 0.833156 0.170311 0.908342
Si Si4 0.186482 0.849216 0.713645
Si Si5 0.088694 0.223955 0.141354
Si Si6 0.625929 0.077065 0.704290
Si Si7 0.145549 0.306100 0.771133
Si Si8 0.347336 0.276134 0.482702
O O1 0.577072 0.364054 0.832243
O O2 0.527056 0.114019 0.816219
O O3 0.321559 0.093618 0.914703
O O4 0.666171 0.453987 0.155341
O O5 0.745093 0.601802 0.702132
O O6 0.420412 0.326573 0.664209
O O7 0.506545 0.169371 0.419839
O O8 0.756383 0.196810 0.873944
O O9 0.003820 0.267738 0.798348
O O10 0.700450 0.917852 0.747750
O O11 0.854904 0.248483 0.168624
O O12 0.272522 0.849741 0.484483
O O13 0.027361 0.766619 0.693950
O O14 0.108484 0.254296 0.950261
O O15 0.000000 0.000000 0.000000
O O16 0.179352 0.195413 0.538916
O O17 0.500000 0.500000 0.500000
#
# Coordination Sequence:
#
# PCOD9010184 Si02
#       8
#     2   2   2   2   2   2   2   2
#     4  10  21  41  66  90 123 169 218 265 316 371
#     4   9  21  38  58  90 123 158 216 255 312 376
#     4  10  23  41  60  96 128 163 214 263 319 380
#     4  10  21  40  62  90 127 163 212 261 312 380
#     4  10  23  34  60  91 127 167 207 256 324 380
#     4  10  22  43  68  89 124 172 217 267 316 370
#     4  10  23  39  59  92 132 164 210 265 317 384
#     4  11  23  37  62  89 131 174 207 261 322 389
#
# _framework density 25.05911
#
# number of rings (size 3 to 8) (size 9 to 14) (size 15 to 20)
#    0.000    2.000    0.000    2.625   10.500    3.000 
#    0.000   11.250    0.000    0.000    0.000    0.000 
#    0.000    0.000    0.000    0.000    0.000    0.000 
#
# Total GULP energy -89226.435943 kJ/mol
# GULP energy per Si atom -5576.652246 kJ/mol
# Density = 2.500207 g / cm^3
# Si number density = 25.059110 Si / 1000 Ang^3
#
#
#
# Elastic Constant Matrix: (Units=GPa)
#
#
# Indices 1 2 3 4 5 6 
#
# 1 92.5823 21.9551 17.4861 -4.2553 22.4850 3.2746
# 2 21.9551 44.5807 18.4715 -18.6524 4.9813 20.1728
# 3 17.4861 18.4715 24.4307 22.6106 4.2535 -8.9087
# 4 -4.2553 -18.6524 22.6106 -22.7760 14.9404 11.6787
# 5 22.4850 4.9813 4.2535 14.9404 32.7464 4.8979
# 6 3.2746 20.1728 -8.9087 11.6787 4.8979 26.8457
#
#
#
# Elastic Compliance Matrix: (Units=1/GPa)
#
#
# Indices 1 2 3 4 5 6 
#
# 1 0.015270 -0.008840 -0.000540 0.000391 -0.010189 0.006289
# 2 -0.008840 0.024163 -0.001941 -0.018002 0.012685 -0.012206
# 3 -0.000540 -0.001941 0.026590 0.021312 -0.013028 0.003454
# 4 0.000391 -0.018002 0.021312 0.000351 -0.003608 0.021057
# 5 -0.010189 0.012685 -0.013028 -0.003608 0.041734 -0.018657
# 6 0.006289 -0.012206 0.003454 0.021057 -0.018657 0.041044
#
#
# Mechanical properties :
#
#
# Convention : Reuss Voigt Hill
#
# Bulk Modulus (GPa) = 23.05227 30.82433 26.93830
# Shear Modulus (GPa) = 26.84510 14.27527 20.56018
#
# Velocity S-wave (km/s) = 3.27658 2.38935 2.86749
# Velocity P-wave (km/s) = 4.85116 4.46535 4.66225
#
# Compressibility (1/GPa) = 0.04337967
#
# Stress axis : x y z
#
# Youngs Moduli (GPa) = 65.48935 41.38544 37.60879
#
# Poissons Ratio (x) = 0.36584 0.02032
# Poissons Ratio (y) = 0.57892 0.07300
# Poissons Ratio (z) = 0.03538 0.08034
#
# Static dielectric constant tensor:
#      x y z
#    x 1.901580 -0.016430 -0.049650 
#    y -0.016430 2.133270 -0.056650 
#    z -0.049650 -0.056650 2.113800 
# 
# From -- ./inp_files/315739.got.cif
#   From: 2010.05.17/outbox.cif.g08.bks.cpg/sg2_158_cif.got.tgz:315739.got - 2010.06.03 11:33:40.
