data_PCOD9010185
_publ_section_title
;
Structure prediction by ZEFSAII (Michael W. Deem and Ramdas Pophale) SiO2 
 PCOD9010185
Probable space group: P -1
;
_chemical_formula_sum "Si O2"
_cell_formula_units_Z 14
_cell_length_a 7.048610
_cell_length_b 10.136532
_cell_length_c 17.477716
_cell_angle_alpha 35.617279
_cell_angle_beta 71.550544
_cell_angle_gamma 59.234434
_cell_volume 612.446740
_symmetry_space_group_name_H-M "P -1"
_symmetry_group_IT_number 2
_symmetry_cell_setting 'triclinic'
loop_
_space_group_symop_operation_xyz
x,y,z
-x,-y,-z
loop_
_atom_site_type_symbol
_atom_site_label
_atom_site_fract_x
_atom_site_fract_y
_atom_site_fract_z
Si Si1 0.780384 0.161572 0.001415
Si Si2 0.688843 0.898438 0.720283
Si Si3 0.470006 0.301229 0.281434
Si Si4 0.877003 0.880408 0.517251
Si Si5 0.020609 0.389415 0.963390
Si Si6 0.451024 0.936426 0.167704
Si Si7 0.361426 0.591441 0.553026
O O1 0.608819 0.402116 0.859226
O O2 0.853278 0.275016 0.012097
O O3 0.666155 0.984973 0.118466
O O4 0.000000 0.000000 0.000000
O O5 0.516313 0.800666 0.759172
O O6 0.934017 0.649153 0.802056
O O7 0.655025 0.987774 0.769457
O O8 0.631448 0.143615 0.559659
O O9 0.267162 0.257272 0.366448
O O10 0.699185 0.118959 0.379081
O O11 0.096005 0.673175 0.540871
O O12 0.000000 0.000000 0.500000
O O13 0.000000 0.500000 0.000000
O O14 0.265398 0.148282 0.036978
O O15 0.525839 0.636255 0.292824
O O16 0.500000 0.500000 0.500000
#
# Coordination Sequence:
#
# PCOD9010185 Si02
#       7
#     2   2   2   2   2   2   2
#     4  11  24  41  62  96 133 168 214 267 327 392
#     4   9  19  41  62  93 123 163 220 258 313 390
#     4  10  23  39  64  97 121 168 223 260 323 390
#     4  11  22  40  65  90 126 165 213 273 316 384
#     4   9  21  40  65  91 123 166 215 260 315 386
#     4  10  22  40  62  91 133 165 205 269 325 376
#     4  10  21  40  62  90 127 168 210 261 322 380
#
# _framework density 22.85913
#
# number of rings (size 3 to 8) (size 9 to 14) (size 15 to 20)
#    0.000    2.000    1.429    0.857    2.000    6.857 
#    7.714    1.429    0.000    0.000    0.000    0.000 
#    0.000    0.000    0.000    0.000    0.000    0.000 
#
# Total GULP energy -77984.584230 kJ/mol
# GULP energy per Si atom -5570.327445 kJ/mol
# Density = 2.280710 g / cm^3
# Si number density = 22.859130 Si / 1000 Ang^3
#
#
#
# Elastic Constant Matrix: (Units=GPa)
#
#
# Indices 1 2 3 4 5 6 
#
# 1 89.0493 18.5553 43.5604 -4.8878 19.2191 -9.7554
# 2 18.5553 52.9166 25.8494 -14.9848 7.9334 -17.2279
# 3 43.5604 25.8494 162.0845 -50.4924 7.6358 -5.5150
# 4 -4.8878 -14.9848 -50.4924 28.1435 -7.6411 7.1917
# 5 19.2191 7.9334 7.6358 -7.6411 45.7249 1.4192
# 6 -9.7554 -17.2279 -5.5150 7.1917 1.4192 33.4314
#
#
#
# Elastic Compliance Matrix: (Units=1/GPa)
#
#
# Indices 1 2 3 4 5 6 
#
# 1 0.018897 -0.004098 -0.010764 -0.022523 -0.009411 0.006871
# 2 -0.004098 0.026875 0.001223 0.012842 -0.001314 0.010148
# 3 -0.010764 0.001223 0.020739 0.040172 0.007812 -0.008063
# 4 -0.022523 0.012842 0.040172 0.121572 0.021479 -0.020392
# 5 -0.009411 -0.001314 0.007812 0.021479 0.028586 -0.007969
# 6 0.006871 0.010148 -0.008063 -0.020392 -0.007969 0.040542
#
#
# Mechanical properties :
#
#
# Convention : Reuss Voigt Hill
#
# Bulk Modulus (GPa) = 25.48935 53.33115 39.41025
# Shear Modulus (GPa) = 16.80295 35.86565 26.33430
#
# Velocity S-wave (km/s) = 2.71415 3.96534 3.39783
# Velocity P-wave (km/s) = 4.58225 6.65930 5.71591
#
# Compressibility (1/GPa) = 0.03923207
#
# Stress axis : x y z
#
# Youngs Moduli (GPa) = 52.91861 37.20990 48.21753
#
# Poissons Ratio (x) = 0.15249 0.51903
# Poissons Ratio (y) = 0.21686 -0.05897
# Poissons Ratio (z) = 0.56963 -0.04551
#
# Static dielectric constant tensor:
#      x y z
#    x 1.839650 0.005850 0.005220 
#    y 0.005850 1.921760 0.010500 
#    z 0.005220 0.010500 1.890480 
# 
# From -- ./inp_files/370224.got.cif
#   From: 2010.05.17/outbox.cif.g08.bks.cpg/sg2_186_cif.got.tgz:370224.got - 2010.06.03 11:33:40.
