data_PCOD9010208
_publ_section_title
;
Structure prediction by ZEFSAII (Michael W. Deem and Ramdas Pophale) SiO2 
 PCOD9010208
Probable space group: P -1
;
_chemical_formula_sum "Si O2"
_cell_formula_units_Z 16
_cell_length_a 6.721345
_cell_length_b 15.257589
_cell_length_c 8.819239
_cell_angle_alpha 127.461005
_cell_angle_beta 90.975024
_cell_angle_gamma 87.943949
_cell_volume 717.428886
_symmetry_space_group_name_H-M "P -1"
_symmetry_group_IT_number 2
_symmetry_cell_setting 'triclinic'
loop_
_space_group_symop_operation_xyz
x,y,z
-x,-y,-z
loop_
_atom_site_type_symbol
_atom_site_label
_atom_site_fract_x
_atom_site_fract_y
_atom_site_fract_z
Si Si1 0.972913 0.671805 0.806269
Si Si2 0.189671 0.919541 0.377916
Si Si3 0.527851 0.802099 0.446339
Si Si4 0.873713 0.139714 0.191585
Si Si5 0.266797 0.505591 0.498272
Si Si6 0.085457 0.281156 0.814488
Si Si7 0.274595 0.030190 0.187854
Si Si8 0.207392 0.654488 0.370994
O O1 0.824974 0.614859 0.624962
O O2 0.029733 0.792693 0.875657
O O3 0.167875 0.590073 0.707402
O O4 0.876532 0.669075 0.967938
O O5 0.364811 0.890513 0.469053
O O6 0.084145 0.804490 0.236886
O O7 0.289368 0.963023 0.273425
O O8 0.000000 0.000000 0.500000
O O9 0.609437 0.858137 0.660036
O O10 0.419263 0.684733 0.332548
O O11 0.720425 0.779989 0.318764
O O12 0.817730 0.235359 0.409542
O O13 0.044306 0.068081 0.202120
O O14 0.705854 0.058715 0.041763
O O15 0.500000 0.500000 0.500000
O O16 0.212054 0.556329 0.386466
O O17 0.972051 0.353212 0.759012
#
# Coordination Sequence:
#
# PCOD9010208 Si02
#       8
#     2   2   2   2   2   2   2   2
#     4  10  23  44  68  92 122 166 203 262 321 366
#     4  11  21  38  57  90 133 168 216 262 299 365
#     4  11  23  37  63  92 128 173 211 255 318 368
#     4  10  21  40  62  91 130 167 207 265 306 363
#     4  10  24  44  70  95 123 158 206 257 324 383
#     4  11  22  41  65  89 126 164 211 259 312 371
#     4  11  20  35  62  91 125 171 215 245 308 373
#     4  10  23  42  62  92 128 162 206 270 306 371
#
# _framework density 22.301863999999998
#
# number of rings (size 3 to 8) (size 9 to 14) (size 15 to 20)
#    0.000    1.500    3.750    1.125    1.750    4.000 
#    0.000    1.250    0.000    0.000    0.000    0.000 
#    0.000    0.000    0.000    0.000    0.000    0.000 
#
# Total GULP energy -89222.226627 kJ/mol
# GULP energy per Si atom -5576.389164 kJ/mol
# Density = 2.225110 g / cm^3
# Si number density = 22.301864 Si / 1000 Ang^3
#
#
#
# Elastic Constant Matrix: (Units=GPa)
#
#
# Indices 1 2 3 4 5 6 
#
# 1 96.5403 4.3542 19.1136 2.0666 -0.5316 -2.7245
# 2 4.3542 62.0672 9.4420 -6.7341 5.0737 -5.2582
# 3 19.1136 9.4420 79.2034 -2.3433 -2.3589 -3.8546
# 4 2.0666 -6.7341 -2.3433 30.5234 6.8102 6.5607
# 5 -0.5316 5.0737 -2.3589 6.8102 30.1536 -1.8100
# 6 -2.7245 -5.2582 -3.8546 6.5607 -1.8100 22.5447
#
#
#
# Elastic Compliance Matrix: (Units=1/GPa)
#
#
# Indices 1 2 3 4 5 6 
#
# 1 0.010953 -0.000466 -0.002556 -0.001407 0.000463 0.001225
# 2 -0.000466 0.017373 -0.001846 0.004121 -0.003876 0.002169
# 3 -0.002556 -0.001846 0.013589 0.000142 0.001396 0.001655
# 4 -0.001407 0.004121 0.000142 0.038422 -0.010056 -0.011173
# 5 0.000463 -0.003876 0.001396 -0.010056 0.036519 0.005249
# 6 0.001225 0.002169 0.001655 -0.011173 0.005249 0.048966
#
#
# Mechanical properties :
#
#
# Convention : Reuss Voigt Hill
#
# Bulk Modulus (GPa) = 31.07775 33.73673 32.40724
# Shear Modulus (GPa) = 26.84060 30.30442 28.57251
#
# Velocity S-wave (km/s) = 3.47293 3.69023 3.58323
# Velocity P-wave (km/s) = 5.48151 5.77211 5.62869
#
# Compressibility (1/GPa) = 0.03217736
#
# Stress axis : x y z
#
# Youngs Moduli (GPa) = 91.30225 57.56059 73.58943
#
# Poissons Ratio (x) = 0.02684 0.18808
# Poissons Ratio (y) = 0.04258 0.13588
# Poissons Ratio (z) = 0.23335 0.10628
#
# Static dielectric constant tensor:
#      x y z
#    x 1.864850 0.037410 0.005690 
#    y 0.037410 1.851290 -0.002970 
#    z 0.005690 -0.002970 1.920080 
# 
# From -- ./inp_files/37485.got.cif
#   From: 2010.05.17/outbox.cif.g08.bks.cpg/sg2_19_cif.got.tgz:37485.got - 2010.06.03 11:33:40.
