data_PCOD9010623
_publ_section_title
;
Structure prediction by ZEFSAII (Michael W. Deem and Ramdas Pophale) SiO2 
 PCOD9010623
Probable space group: P -1
;
_chemical_formula_sum "Si O2"
_cell_formula_units_Z 16
_cell_length_a 15.288896
_cell_length_b 11.854082
_cell_length_c 9.584957
_cell_angle_alpha 35.979835
_cell_angle_beta 121.662894
_cell_angle_gamma 102.643705
_cell_volume 791.610446
_symmetry_space_group_name_H-M "P -1"
_symmetry_group_IT_number 2
_symmetry_cell_setting 'triclinic'
loop_
_space_group_symop_operation_xyz
x,y,z
-x,-y,-z
loop_
_atom_site_type_symbol
_atom_site_label
_atom_site_fract_x
_atom_site_fract_y
_atom_site_fract_z
Si Si1 0.098413 0.627604 0.321651
Si Si2 0.257942 0.829585 0.192253
Si Si3 0.285354 0.519252 0.984917
Si Si4 0.552879 0.764230 0.838964
Si Si5 0.704261 0.753636 0.244029
Si Si6 0.619507 0.512655 0.596656
Si Si7 0.312844 0.843128 0.528548
Si Si8 0.850930 0.673305 0.063654
O O1 0.141270 0.814452 0.156562
O O2 0.175860 0.446515 0.461648
O O3 0.128272 0.498017 0.623162
O O4 0.967245 0.695467 0.118444
O O5 0.306172 0.668598 0.267614
O O6 0.328655 0.763218 0.461998
O O7 0.266998 0.044024 0.940833
O O8 0.376837 0.381531 0.082823
O O9 0.336902 0.517749 0.179321
O O10 0.239479 0.751220 0.648196
O O11 0.193553 0.420652 0.006959
O O12 0.436602 0.747566 0.797068
O O13 0.500000 0.000000 0.500000
O O14 0.632459 0.744268 0.056870
O O15 0.630856 0.722809 0.339442
O O16 0.500000 0.500000 0.500000
O O17 0.245992 0.095742 0.214429
#
# Coordination Sequence:
#
# PCOD9010623 Si02
#       8
#     2   2   2   2   2   2   2   2
#     4  10  21  40  63  98 125 155 210 269 321 363
#     4  11  21  40  61  90 124 164 206 253 314 373
#     4  12  23  41  60  93 130 163 209 260 311 370
#     4  12  20  38  65  93 123 161 206 261 318 370
#     4  11  22  43  65  91 128 169 208 255 321 374
#     4  11  26  41  60  91 132 174 206 250 307 382
#     4  12  22  37  65  96 123 160 210 262 316 373
#     4  11  22  38  66  98 123 158 211 271 314 365
#
# _framework density 20.211960000000001
#
# number of rings (size 3 to 8) (size 9 to 14) (size 15 to 20)
#    0.000    0.750    6.250    2.625    0.000    3.000 
#    0.000    2.500    0.000    4.500    0.000    0.000 
#    0.000    0.000    0.000    0.000    0.000    0.000 
#
# Total GULP energy -89250.502294 kJ/mol
# GULP energy per Si atom -5578.156393 kJ/mol
# Density = 2.016596 g / cm^3
# Si number density = 20.211960 Si / 1000 Ang^3
#
#
#
# Elastic Constant Matrix: (Units=GPa)
#
#
# Indices 1 2 3 4 5 6 
#
# 1 127.7657 47.4469 42.1452 -0.1137 -3.6032 34.3720
# 2 47.4469 114.5258 48.0843 6.4533 -10.4075 20.0402
# 3 42.1452 48.0843 76.1514 2.7679 -10.6113 6.9928
# 4 -0.1137 6.4533 2.7679 25.3309 8.4574 -9.9358
# 5 -3.6032 -10.4075 -10.6113 8.4574 45.5676 1.8556
# 6 34.3720 20.0402 6.9928 -9.9358 1.8556 37.8131
#
#
#
# Elastic Compliance Matrix: (Units=1/GPa)
#
#
# Indices 1 2 3 4 5 6 
#
# 1 0.013007 -0.000844 -0.005366 -0.003887 0.000774 -0.011443
# 2 -0.000844 0.013930 -0.007008 -0.006616 0.003004 -0.007205
# 3 -0.005366 -0.007008 0.020391 0.000640 0.002406 0.004871
# 4 -0.003887 -0.006616 0.000640 0.053755 -0.012528 0.021661
# 5 0.000774 0.003004 0.002406 -0.012528 0.025876 -0.007302
# 6 -0.011443 -0.007205 0.004871 0.021661 -0.007302 0.045816
#
#
# Mechanical properties :
#
#
# Convention : Reuss Voigt Hill
#
# Bulk Modulus (GPa) = 47.86352 65.97730 56.92041
# Shear Modulus (GPa) = 24.25118 33.79341 29.02230
#
# Velocity S-wave (km/s) = 3.46763 4.09339 3.79343
# Velocity P-wave (km/s) = 6.30594 7.41988 6.88547
#
# Compressibility (1/GPa) = 0.02089274
#
# Stress axis : x y z
#
# Youngs Moduli (GPa) = 76.88114 71.78505 49.04066
#
# Poissons Ratio (x) = 0.06060 0.26314
# Poissons Ratio (y) = 0.06490 0.34368
# Poissons Ratio (z) = 0.41252 0.50308
#
# Static dielectric constant tensor:
#      x y z
#    x 1.821950 0.078800 -0.022990 
#    y 0.078800 1.777160 -0.041210 
#    z -0.022990 -0.041210 1.720930 
# 
# From -- ./inp_files/306320.got.cif
#   From: 2010.05.17/outbox.cif.g08.bks.cpg/sg2_154_cif.got.tgz:306320.got - 2010.06.03 11:33:40.
