data_PCOD9010123
_publ_section_title
;
Structure prediction by ZEFSAII (Michael W. Deem and Ramdas Pophale) SiO2 
 PCOD9010123
Probable space group: P -1
;
_chemical_formula_sum "Si O2"
_cell_formula_units_Z 13
_cell_length_a 7.892724
_cell_length_b 7.677027
_cell_length_c 15.769021
_cell_angle_alpha 135.859813
_cell_angle_beta 104.785664
_cell_angle_gamma 59.276718
_cell_volume 562.025663
_symmetry_space_group_name_H-M "P -1"
_symmetry_group_IT_number 2
_symmetry_cell_setting 'triclinic'
loop_
_space_group_symop_operation_xyz
x,y,z
-x,-y,-z
loop_
_atom_site_type_symbol
_atom_site_label
_atom_site_fract_x
_atom_site_fract_y
_atom_site_fract_z
Si Si1 0.000000 0.000000 0.500000
Si Si2 0.530122 0.090611 0.301152
Si Si3 0.273447 0.055567 0.985303
Si Si4 0.672453 0.180929 0.916480
Si Si5 0.955811 0.574029 0.224335
Si Si6 0.245813 0.561601 0.531015
Si Si7 0.934334 0.176161 0.231080
O O1 0.131758 0.735166 0.493310
O O2 0.034481 0.768314 0.348228
O O3 0.375325 0.226176 0.407949
O O4 0.598363 0.328386 0.381853
O O5 0.413613 0.032481 0.191876
O O6 0.731358 0.795823 0.242476
O O7 0.221023 0.935409 0.852877
O O8 0.104376 0.377283 0.100607
O O9 0.500000 0.000000 0.000000
O O10 0.251970 0.876797 0.998396
O O11 0.500000 0.500000 0.000000
O O12 0.849649 0.104828 0.846605
O O13 0.937581 0.380082 0.228351
O O14 0.103337 0.656246 0.627458
#
# Coordination Sequence:
#
# PCOD9010123 Si02
#       7
#     1   2   2   2   2   2   2
#     4  10  22  40  62  88 120 162 200 250 304 358
#     4  10  21  40  62  87 121 163 202 250 305 364
#     4  11  23  40  63  90 124 162 204 251 306 365
#     4  11  22  38  61  89 125 161 201 250 303 361
#     4  10  22  41  64  90 127 161 203 254 303 362
#     4  10  22  40  63  88 121 161 207 253 305 359
#     4  11  23  40  63  92 123 160 205 256 304 362
#
# _framework density 23.130614000000001
#
# number of rings (size 3 to 8) (size 9 to 14) (size 15 to 20)
#    0.000    1.538    0.000    6.462    0.000    8.000 
#    0.000    8.462    0.000    0.000    0.000    0.000 
#    0.000    0.000    0.000    0.000    0.000    0.000 
#
# Total GULP energy -72374.937586 kJ/mol
# GULP energy per Si atom -5567.302891 kJ/mol
# Density = 2.307797 g / cm^3
# Si number density = 23.130614 Si / 1000 Ang^3
#
#
#
# Elastic Constant Matrix: (Units=GPa)
#
#
# Indices 1 2 3 4 5 6 
#
# 1 67.9460 15.5678 24.9417 6.5058 -13.6208 -20.3200
# 2 15.5678 72.4054 45.7601 11.4973 -16.1494 -23.2166
# 3 24.9417 45.7601 157.7678 7.5580 -19.0808 -22.9095
# 4 6.5058 11.4973 7.5580 47.8833 -8.5988 -2.1298
# 5 -13.6208 -16.1494 -19.0808 -8.5988 48.3275 5.9062
# 6 -20.3200 -23.2166 -22.9095 -2.1298 5.9062 25.6308
#
#
#
# Elastic Compliance Matrix: (Units=1/GPa)
#
#
# Indices 1 2 3 4 5 6 
#
# 1 0.020427 0.002803 -0.001051 -0.001836 0.003906 0.016741
# 2 0.002803 0.023008 -0.003766 -0.003760 0.004068 0.018447
# 3 -0.001051 -0.003766 0.008152 0.000125 0.001351 0.002742
# 4 -0.001836 -0.003760 0.000125 0.022342 0.002680 -0.003511
# 5 0.003906 0.004068 0.001351 0.002680 0.023830 0.002721
# 6 0.016741 0.018447 0.002742 -0.003511 0.002721 0.070530
#
#
# Mechanical properties :
#
#
# Convention : Reuss Voigt Hill
#
# Bulk Modulus (GPa) = 21.02604 52.29537 36.66071
# Shear Modulus (GPa) = 26.57192 38.49161 32.53176
#
# Velocity S-wave (km/s) = 3.39304 4.08376 3.75432
# Velocity P-wave (km/s) = 4.94572 6.70029 5.88872
#
# Compressibility (1/GPa) = 0.04756006
#
# Stress axis : x y z
#
# Youngs Moduli (GPa) = 48.95564 43.46353 122.66397
#
# Poissons Ratio (x) = -0.12184 0.12891
# Poissons Ratio (y) = -0.13723 0.46190
# Poissons Ratio (z) = 0.05145 0.16367
#
# Static dielectric constant tensor:
#      x y z
#    x 2.000930 -0.006940 -0.042560 
#    y -0.006940 1.847130 0.019370 
#    z -0.042560 0.019370 1.861200 
# 
# From -- ./inp_files/154410.got.cif
#   From: 2010.05.17/outbox.cif.g08.bks.cpg/sg2_78_cif.got.tgz:154410.got - 2010.06.03 11:33:40.
