data_PCOD9010194
_publ_section_title
;
Structure prediction by ZEFSAII (Michael W. Deem and Ramdas Pophale) SiO2 
 PCOD9010194
Probable space group: P -1
;
_chemical_formula_sum "Si O2"
_cell_formula_units_Z 16
_cell_length_a 8.680736
_cell_length_b 10.928739
_cell_length_c 9.468134
_cell_angle_alpha 104.210147
_cell_angle_beta 136.846503
_cell_angle_gamma 73.016214
_cell_volume 586.839931
_symmetry_space_group_name_H-M "P -1"
_symmetry_group_IT_number 2
_symmetry_cell_setting 'triclinic'
loop_
_space_group_symop_operation_xyz
x,y,z
-x,-y,-z
loop_
_atom_site_type_symbol
_atom_site_label
_atom_site_fract_x
_atom_site_fract_y
_atom_site_fract_z
Si Si1 0.589080 0.367471 0.815834
Si Si2 0.689734 0.740107 0.947337
Si Si3 0.150415 0.314039 0.393039
Si Si4 0.705082 0.359815 0.215637
Si Si5 0.755426 0.500172 0.733501
Si Si6 0.132495 0.025427 0.262857
Si Si7 0.452210 0.014738 0.248429
Si Si8 0.838243 0.934901 0.268964
O O1 0.405907 0.284553 0.617241
O O2 0.423380 0.504842 0.774838
O O3 0.764220 0.374673 0.805783
O O4 0.687936 0.343045 0.030636
O O5 0.435431 0.738906 0.836915
O O6 0.775006 0.601899 0.900599
O O7 0.645774 0.840118 0.820392
O O8 0.852026 0.786125 0.187800
O O9 0.131184 0.434222 0.304203
O O10 0.104820 0.177685 0.269485
O O11 0.973299 0.345693 0.413088
O O12 0.500000 0.500000 0.500000
O O13 0.245153 0.962433 0.175753
O O14 0.341791 0.986312 0.502539
O O15 0.911122 0.992201 0.185381
O O16 0.591226 0.957591 0.186297
O O17 0.000000 0.000000 0.500000
#
# Coordination Sequence:
#
# PCOD9010194 Si02
#       8
#     2   2   2   2   2   2   2   2
#     4   9  21  40  63  93 131 162 214 277 332 405
#     4  11  21  41  63  91 128 174 217 272 334 395
#     4  11  20  39  66  93 126 172 217 268 339 404
#     4  10  22  38  64  96 124 169 219 271 336 403
#     4   9  20  40  66  92 129 164 212 276 338 397
#     4  10  22  40  62  94 130 173 225 269 330 403
#     4  10  21  40  62  90 134 171 221 281 322 384
#     4  10  23  40  60  92 131 175 223 273 329 395
#
# _framework density 27.264672999999998
#
# number of rings (size 3 to 8) (size 9 to 14) (size 15 to 20)
#    0.000    2.000    1.250    1.500    3.500    1.000 
#    2.250    1.250    5.500    0.000    0.000    0.000 
#    0.000    0.000    0.000    0.000    0.000    0.000 
#
# Total GULP energy -89241.801259 kJ/mol
# GULP energy per Si atom -5577.612579 kJ/mol
# Density = 2.720262 g / cm^3
# Si number density = 27.264673 Si / 1000 Ang^3
#
#
#
# Elastic Constant Matrix: (Units=GPa)
#
#
# Indices 1 2 3 4 5 6 
#
# 1 213.0139 26.5037 50.1608 10.3106 13.9460 43.7597
# 2 26.5037 58.3995 18.9320 12.7061 3.5910 15.0563
# 3 50.1608 18.9320 87.2865 18.5712 -10.7787 10.5761
# 4 10.3106 12.7061 18.5712 48.9048 12.9255 -0.8785
# 5 13.9460 3.5910 -10.7787 12.9255 52.1560 -0.5305
# 6 43.7597 15.0563 10.5761 -0.8785 -0.5305 47.3141
#
#
#
# Elastic Compliance Matrix: (Units=1/GPa)
#
#
# Indices 1 2 3 4 5 6 
#
# 1 0.006885 -0.000524 -0.003691 0.000730 -0.002804 -0.005394
# 2 -0.000524 0.020622 -0.002744 -0.004068 -0.000895 -0.005550
# 3 -0.003691 -0.002744 0.016176 -0.006245 0.006073 0.000623
# 4 0.000730 -0.004068 -0.006245 0.025766 -0.007567 0.002409
# 5 -0.002804 -0.000895 0.006073 -0.007567 0.023132 0.001639
# 6 -0.005394 -0.005550 0.000623 0.002409 0.001639 0.027814
#
#
# Mechanical properties :
#
#
# Convention : Reuss Voigt Hill
#
# Bulk Modulus (GPa) = 33.59674 61.09923 47.34799
# Shear Modulus (GPa) = 34.66576 47.21521 40.94048
#
# Velocity S-wave (km/s) = 3.56961 4.16593 3.87925
# Velocity P-wave (km/s) = 5.41652 6.75265 6.12115
#
# Compressibility (1/GPa) = 0.02976479
#
# Stress axis : x y z
#
# Youngs Moduli (GPa) = 145.23861 48.49216 61.81965
#
# Poissons Ratio (x) = 0.02541 0.22818
# Poissons Ratio (y) = 0.07611 0.16964
# Poissons Ratio (z) = 0.53609 0.13307
#
# Static dielectric constant tensor:
#      x y z
#    x 2.184670 -0.058360 0.068160 
#    y -0.058360 2.197520 -0.052220 
#    z 0.068160 -0.052220 2.189250 
# 
# From -- ./inp_files/188948.got.cif
#   From: 2010.05.17/outbox.cif.g08.bks.cpg/sg2_95_cif.got.tgz:188948.got - 2010.06.03 11:33:40.
