data_PCOD9010487
_publ_section_title
;
Structure prediction by ZEFSAII (Michael W. Deem and Ramdas Pophale) SiO2 
 PCOD9010487
Probable space group: P -1
;
_chemical_formula_sum "Si O2"
_cell_formula_units_Z 16
_cell_length_a 9.701291
_cell_length_b 7.067093
_cell_length_c 15.791437
_cell_angle_alpha 117.855346
_cell_angle_beta 141.239903
_cell_angle_gamma 63.161462
_cell_volume 591.801051
_symmetry_space_group_name_H-M "P -1"
_symmetry_group_IT_number 2
_symmetry_cell_setting 'triclinic'
loop_
_space_group_symop_operation_xyz
x,y,z
-x,-y,-z
loop_
_atom_site_type_symbol
_atom_site_label
_atom_site_fract_x
_atom_site_fract_y
_atom_site_fract_z
Si Si1 0.538191 0.833140 0.903161
Si Si2 0.762953 0.021119 0.847525
Si Si3 0.441928 0.415578 0.861851
Si Si4 0.612358 0.063387 0.433396
Si Si5 0.494876 0.654417 0.390301
Si Si6 0.964391 0.233715 0.843790
Si Si7 0.979965 0.542018 0.599127
Si Si8 0.075039 0.996894 0.683622
O O1 0.481720 0.604274 0.856540
O O2 0.330631 0.934633 0.765966
O O3 0.800474 0.780293 0.997324
O O4 0.500000 0.000000 0.000000
O O5 0.615738 0.211000 0.871856
O O6 0.584742 0.861664 0.711149
O O7 0.847819 0.056184 0.799287
O O8 0.000000 0.000000 0.000000
O O9 0.179928 0.405039 0.719930
O O10 0.500000 0.500000 0.000000
O O11 0.576304 0.818989 0.394006
O O12 0.871619 0.038581 0.530176
O O13 0.573535 0.208442 0.529031
O O14 0.261143 0.586863 0.232087
O O15 0.729201 0.507430 0.494501
O O16 0.046904 0.190328 0.778800
O O17 0.018701 0.794151 0.673143
O O18 0.000000 0.500000 0.500000
#
# Coordination Sequence:
#
# PCOD9010487 Si02
#       8
#     2   2   2   2   2   2   2   2
#     4   9  19  35  60  82 112 154 186 229 281 345
#     4  11  23  33  54  81 119 152 179 234 293 335
#     4  11  25  37  55  90 120 145 188 240 292 338
#     4   8  14  28  47  76 107 133 188 228 273 324
#     4   8  14  25  51  76  99 137 181 239 268 317
#     4   9  17  33  54  82 106 141 199 227 271 336
#     4  10  17  29  51  77 112 142 188 234 279 327
#     4   8  15  28  53  80 102 140 186 236 269 323
#
# _framework density 27.036114000000001
#
# number of rings (size 3 to 8) (size 9 to 14) (size 15 to 20)
#    0.000    2.750    0.000    4.500    7.000    0.500 
#    0.000    0.000    0.000    1.500   16.250    0.000 
#    0.000    0.000    0.000    0.000    0.000    0.000 
#
# Total GULP energy -89176.272290 kJ/mol
# GULP energy per Si atom -5573.517018 kJ/mol
# Density = 2.697458 g / cm^3
# Si number density = 27.036114 Si / 1000 Ang^3
#
#
#
# Elastic Constant Matrix: (Units=GPa)
#
#
# Indices 1 2 3 4 5 6 
#
# 1 124.3173 35.1226 60.5459 -18.3725 26.2325 -32.9167
# 2 35.1226 92.9026 59.6681 -32.2343 18.1671 -26.7618
# 3 60.5459 59.6681 241.5459 -66.3986 55.7845 -52.7958
# 4 -18.3725 -32.2343 -66.3986 66.6556 -34.1702 8.5386
# 5 26.2325 18.1671 55.7845 -34.1702 64.9050 -10.8096
# 6 -32.9167 -26.7618 -52.7958 8.5386 -10.8096 37.6115
#
#
#
# Elastic Compliance Matrix: (Units=1/GPa)
#
#
# Indices 1 2 3 4 5 6 
#
# 1 0.011130 -0.001386 -0.000154 -0.000175 -0.002774 0.007781
# 2 -0.001386 0.016005 -0.000091 0.006738 0.001181 0.008858
# 3 -0.000154 -0.000091 0.008515 0.005855 -0.002533 0.009696
# 4 -0.000175 0.006738 0.005855 0.027585 0.009215 0.009246
# 5 -0.002774 0.001181 -0.002533 0.009215 0.023128 -0.000589
# 6 0.007781 0.008858 0.009696 0.009246 -0.000589 0.051041
#
#
# Mechanical properties :
#
#
# Convention : Reuss Voigt Hill
#
# Bulk Modulus (GPa) = 30.87491 85.49323 58.18407
# Shear Modulus (GPa) = 33.01178 54.06305 43.53741
#
# Velocity S-wave (km/s) = 3.49811 4.47661 4.01726
# Velocity P-wave (km/s) = 5.26881 7.64268 6.56395
#
# Compressibility (1/GPa) = 0.03238876
#
# Stress axis : x y z
#
# Youngs Moduli (GPa) = 89.84460 62.48216 117.44244
#
# Poissons Ratio (x) = 0.08657 0.01812
# Poissons Ratio (y) = 0.12449 0.01064
# Poissons Ratio (z) = 0.01386 0.00566
#
# Static dielectric constant tensor:
#      x y z
#    x 2.101870 0.098580 -0.005700 
#    y 0.098580 2.231900 -0.074250 
#    z -0.005700 -0.074250 2.261940 
# 
# From -- ./inp_files/568203.got.cif
#   From: 2010.05.17/outbox.cif.g08.bks.cpg/sg2_285_cif.got.tgz:568203.got - 2010.06.03 11:33:40.
