data_PCOD9010144
_publ_section_title
;
Structure prediction by ZEFSAII (Michael W. Deem and Ramdas Pophale) SiO2 
 PCOD9010144
Probable space group: P -1
;
_chemical_formula_sum "Si O2"
_cell_formula_units_Z 15
_cell_length_a 14.182503
_cell_length_b 8.948869
_cell_length_c 13.406915
_cell_angle_alpha 91.656662
_cell_angle_beta 31.091810
_cell_angle_gamma 111.566192
_cell_volume 656.666281
_symmetry_space_group_name_H-M "P -1"
_symmetry_group_IT_number 2
_symmetry_cell_setting 'triclinic'
loop_
_space_group_symop_operation_xyz
x,y,z
-x,-y,-z
loop_
_atom_site_type_symbol
_atom_site_label
_atom_site_fract_x
_atom_site_fract_y
_atom_site_fract_z
Si Si1 0.622601 0.140782 0.488300
Si Si2 0.051432 0.389976 0.526236
Si Si3 0.544144 0.873796 0.717796
Si Si4 0.274706 0.192520 0.778009
Si Si5 0.500000 0.500000 0.000000
Si Si6 0.749868 0.950961 0.746663
Si Si7 0.581165 0.616923 0.556277
Si Si8 0.967751 0.572340 0.228128
O O1 0.412500 0.141476 0.714882
O O2 0.858267 0.372283 0.263284
O O3 0.500000 0.000000 0.500000
O O4 0.679400 0.051437 0.519199
O O5 0.092250 0.478933 0.601044
O O6 0.000000 0.500000 0.500000
O O7 0.275315 0.416975 0.278704
O O8 0.831419 0.148011 0.732437
O O9 0.632229 0.944757 0.750292
O O10 0.598834 0.732697 0.636250
O O11 0.256176 0.741154 0.959225
O O12 0.337429 0.384112 0.775533
O O13 0.412776 0.282825 0.548056
O O14 0.000000 0.000000 0.000000
O O15 0.580761 0.726324 0.937398
O O16 0.000000 0.000000 0.500000
O O17 0.813333 0.633691 0.337974
#
# Coordination Sequence:
#
# PCOD9010144 Si02
#       8
#     2   2   2   2   1   2   2   2
#     4  11  24  43  65 100 135 175 232 277 331 411
#     4  11  23  43  67  98 136 173 226 278 339 412
#     4  12  24  42  69  97 134 181 219 281 341 395
#     4  10  21  40  62  88 124 173 214 272 331 378
#     4  10  22  42  68  94 132 176 214 276 340 394
#     4  10  23  43  69 101 134 178 227 278 343 410
#     4  10  22  40  60  90 128 164 222 269 318 396
#     4  11  26  42  64 101 134 175 228 278 336 405
#
# _framework density 22.842654
#
# number of rings (size 3 to 8) (size 9 to 14) (size 15 to 20)
#    0.000    1.333    1.333    4.000    1.867    4.800 
#    0.000    6.667    0.000    0.000    0.000    0.000 
#    0.000    0.000    0.000    0.000    0.000    0.000 
#
# Total GULP energy -83536.627459 kJ/mol
# GULP energy per Si atom -5569.108497 kJ/mol
# Density = 2.279066 g / cm^3
# Si number density = 22.842654 Si / 1000 Ang^3
#
#
#
# Elastic Constant Matrix: (Units=GPa)
#
#
# Indices 1 2 3 4 5 6 
#
# 1 65.1161 24.0682 6.3975 -16.5444 -10.4787 -6.9855
# 2 24.0682 114.8951 19.5281 -20.7314 2.0990 -6.4172
# 3 6.3975 19.5281 52.3248 -11.9226 -5.6683 -4.7772
# 4 -16.5444 -20.7314 -11.9226 40.1215 -0.3227 1.8448
# 5 -10.4787 2.0990 -5.6683 -0.3227 28.5006 -2.5252
# 6 -6.9855 -6.4172 -4.7772 1.8448 -2.5252 36.8968
#
#
#
# Elastic Compliance Matrix: (Units=1/GPa)
#
#
# Indices 1 2 3 4 5 6 
#
# 1 0.019829 -0.003113 0.001538 0.006924 0.008225 0.003629
# 2 -0.003113 0.010524 -0.003033 0.003209 -0.002440 0.000521
# 3 0.001538 -0.003033 0.022171 0.005574 0.005503 0.002732
# 4 0.006924 0.003209 0.005574 0.031066 0.003885 0.001304
# 5 0.008225 -0.002440 0.005503 0.003885 0.039817 0.004376
# 6 0.003629 0.000521 0.002732 0.001304 0.004376 0.028468
#
#
# Mechanical properties :
#
#
# Convention : Reuss Voigt Hill
#
# Bulk Modulus (GPa) = 23.09077 36.92483 30.00780
# Shear Modulus (GPa) = 28.48563 33.25994 30.87278
#
# Velocity S-wave (km/s) = 3.53517 3.81996 3.68032
# Velocity P-wave (km/s) = 5.17627 5.97127 5.58793
#
# Compressibility (1/GPa) = 0.04330735
#
# Stress axis : x y z
#
# Youngs Moduli (GPa) = 50.43104 95.02129 45.10418
#
# Poissons Ratio (x) = 0.29583 -0.06935
# Poissons Ratio (y) = 0.15701 0.13678
# Poissons Ratio (z) = -0.07754 0.28816
#
# Static dielectric constant tensor:
#      x y z
#    x 1.876310 -0.014160 -0.018330 
#    y -0.014160 1.951520 -0.011500 
#    z -0.018330 -0.011500 1.823830 
# 
# From -- ./inp_files/529759.got.cif
#   From: 2010.05.17/outbox.cif.g08.bks.cpg/sg2_265_cif.got.tgz:529759.got - 2010.06.03 11:33:40.
