data_PCOD9010090
_publ_section_title
;
Structure prediction by ZEFSAII (Michael W. Deem and Ramdas Pophale) SiO2 
 PCOD9010090
Probable space group: P -1
;
_chemical_formula_sum "Si O2"
_cell_formula_units_Z 16
_cell_length_a 15.664266
_cell_length_b 13.404410
_cell_length_c 14.856714
_cell_angle_alpha 138.077535
_cell_angle_beta 32.910336
_cell_angle_gamma 152.263940
_cell_volume 788.793342
_symmetry_space_group_name_H-M "P -1"
_symmetry_group_IT_number 2
_symmetry_cell_setting 'triclinic'
loop_
_space_group_symop_operation_xyz
x,y,z
-x,-y,-z
loop_
_atom_site_type_symbol
_atom_site_label
_atom_site_fract_x
_atom_site_fract_y
_atom_site_fract_z
Si Si1 0.253062 0.955628 0.417208
Si Si2 0.974474 0.047917 0.781156
Si Si3 0.182226 0.463393 0.573461
Si Si4 0.545328 0.159513 0.114201
Si Si5 0.844936 0.849124 0.119001
Si Si6 0.540309 0.921322 0.495819
Si Si7 0.019722 0.642799 0.123072
Si Si8 0.532260 0.615054 0.797404
O O1 0.349100 0.951404 0.421840
O O2 0.168841 0.066602 0.587992
O O3 0.031517 0.719937 0.421523
O O4 0.422053 0.073977 0.262944
O O5 0.735332 0.813814 0.811560
O O6 0.997910 0.079402 0.887419
O O7 0.998385 0.221977 0.828916
O O8 0.103693 0.432602 0.723599
O O9 0.359101 0.447104 0.397785
O O10 0.303909 0.691347 0.581536
O O11 0.820166 0.391802 0.071652
O O12 0.533064 0.296022 0.151981
O O13 0.315527 0.897168 0.081639
O O14 0.668710 0.590526 0.102322
O O15 0.696593 0.893173 0.303428
O O16 0.000000 0.000000 0.000000
O O17 0.500000 0.000000 0.500000
#
# Coordination Sequence:
#
# PCOD9010090 Si02
#       8
#     2   2   2   2   2   2   2   2
#     4  10  21  40  63  84 120 160 198 240 294 365
#     4  10  21  40  62  84 118 164 199 233 298 365
#     4  10  21  40  62  84 118 164 199 233 298 365
#     4  12  21  35  57  95 127 144 191 249 297 349
#     4  10  23  41  60  86 115 154 205 251 293 349
#     4  10  23  41  60  86 115 154 205 251 293 349
#     4  12  23  35  57  93 127 155 193 246 303 355
#     4  10  21  40  63  84 120 160 198 240 294 365
#
# _framework density 20.284147000000001
#
# number of rings (size 3 to 8) (size 9 to 14) (size 15 to 20)
#    0.000    1.500    2.500    2.250    0.000    6.000 
#    0.000    5.000    0.000    0.000    0.000    0.000 
#    0.000    0.000    0.000    0.000    0.000    0.000 
#
# Total GULP energy -89235.803482 kJ/mol
# GULP energy per Si atom -5577.237718 kJ/mol
# Density = 2.023798 g / cm^3
# Si number density = 20.284147 Si / 1000 Ang^3
#
#
#
# Elastic Constant Matrix: (Units=GPa)
#
#
# Indices 1 2 3 4 5 6 
#
# 1 190.2050 99.7208 69.7434 -7.7383 11.1151 -25.6699
# 2 99.7208 149.5273 77.0524 -12.4046 21.7667 -9.4005
# 3 69.7434 77.0524 84.2216 -24.1870 25.3237 -11.2448
# 4 -7.7383 -12.4046 -24.1870 37.4128 -1.6581 5.3304
# 5 11.1151 21.7667 25.3237 -1.6581 32.2594 -9.0965
# 6 -25.6699 -9.4005 -11.2448 5.3304 -9.0965 42.2040
#
#
#
# Elastic Compliance Matrix: (Units=1/GPa)
#
#
# Indices 1 2 3 4 5 6 
#
# 1 0.010131 -0.004031 -0.007035 -0.004267 0.006005 0.005223
# 2 -0.004031 0.014851 -0.011163 -0.002884 -0.000544 -0.001871
# 3 -0.007035 -0.011163 0.039491 0.019912 -0.020944 -0.003273
# 4 -0.004267 -0.002884 0.019912 0.037992 -0.011746 -0.005263
# 5 0.006005 -0.000544 -0.020944 -0.011746 0.047885 0.009756
# 6 0.005223 -0.001871 -0.003273 -0.005263 0.009756 0.028350
#
#
# Mechanical properties :
#
#
# Convention : Reuss Voigt Hill
#
# Bulk Modulus (GPa) = 49.96514 101.88744 75.92629
# Shear Modulus (GPa) = 21.75523 34.20438 27.97981
#
# Velocity S-wave (km/s) = 3.27849 4.11087 3.71805
# Velocity P-wave (km/s) = 6.24639 8.53648 7.47960
#
# Compressibility (1/GPa) = 0.02001395
#
# Stress axis : x y z
#
# Youngs Moduli (GPa) = 98.70916 67.33724 25.32206
#
# Poissons Ratio (x) = 0.27142 0.17815
# Poissons Ratio (y) = 0.39787 0.28267
# Poissons Ratio (z) = 0.69447 0.75170
#
# Static dielectric constant tensor:
#      x y z
#    x -13.070030 -19.658000 1.032930 
#    y -19.658000 -24.883950 1.491940 
#    z 1.032930 1.491940 1.604770 
# 
# From -- ./inp_files/531944.got.cif
#   From: 2010.05.17/outbox.cif.g08.bks.cpg/sg2_266_cif.got.tgz:531944.got - 2010.06.03 11:33:40.
