data_PCOD9010187
_publ_section_title
;
Structure prediction by ZEFSAII (Michael W. Deem and Ramdas Pophale) SiO2 
 PCOD9010187
Probable space group: P -1
;
_chemical_formula_sum "Si O2"
_cell_formula_units_Z 14
_cell_length_a 6.549623
_cell_length_b 22.180569
_cell_length_c 15.692763
_cell_angle_alpha 157.289372
_cell_angle_beta 63.221804
_cell_angle_gamma 128.780405
_cell_volume 621.801116
_symmetry_space_group_name_H-M "P -1"
_symmetry_group_IT_number 2
_symmetry_cell_setting 'triclinic'
loop_
_space_group_symop_operation_xyz
x,y,z
-x,-y,-z
loop_
_atom_site_type_symbol
_atom_site_label
_atom_site_fract_x
_atom_site_fract_y
_atom_site_fract_z
Si Si1 0.797407 0.470833 0.116550
Si Si2 0.307041 0.568392 0.648057
Si Si3 0.710736 0.960153 0.363104
Si Si4 0.111867 0.773677 0.606749
Si Si5 0.334116 0.905483 0.997196
Si Si6 0.189869 0.086702 0.900489
Si Si7 0.827554 0.649922 0.163246
O O1 0.853234 0.588151 0.172344
O O2 0.927626 0.621509 0.366627
O O3 0.463866 0.275736 0.913983
O O4 0.980384 0.387080 0.976913
O O5 0.500000 0.500000 0.500000
O O6 0.010786 0.368560 0.474231
O O7 0.294806 0.704792 0.761626
O O8 0.488471 0.722534 0.891228
O O9 0.779303 0.007345 0.311348
O O10 0.500000 0.000000 0.500000
O O11 0.016322 0.116521 0.556838
O O12 0.458620 0.922758 0.747138
O O13 0.066265 0.938766 0.811951
O O14 0.026641 0.861013 0.002819
O O15 0.500000 0.000000 0.000000
O O16 0.500000 0.500000 0.000000
#
# Coordination Sequence:
#
# PCOD9010187 Si02
#       7
#     2   2   2   2   2   2   2
#     4  10  21  40  62  90 128 171 216 272 322 387
#     4  11  24  44  70  96 130 176 221 271 340 401
#     4  10  21  41  65  92 133 173 218 270 322 388
#     4  11  23  41  68  94 132 174 220 271 333 396
#     4  11  26  44  66 102 136 169 222 281 333 398
#     4  11  23  43  67  97 134 177 218 276 333 391
#     4  10  22  39  63  92 126 169 219 269 327 385
#
# _framework density 22.515239000000001
#
# number of rings (size 3 to 8) (size 9 to 14) (size 15 to 20)
#    0.000    1.429    2.857    1.714    2.000    6.286 
#    2.571    0.000    0.000    0.000    0.000    0.000 
#    0.000    0.000    0.000    0.000    0.000    0.000 
#
# Total GULP energy -77983.260165 kJ/mol
# GULP energy per Si atom -5570.232869 kJ/mol
# Density = 2.246399 g / cm^3
# Si number density = 22.515239 Si / 1000 Ang^3
#
#
#
# Elastic Constant Matrix: (Units=GPa)
#
#
# Indices 1 2 3 4 5 6 
#
# 1 81.7634 18.0255 30.3280 7.5414 -0.9297 4.5422
# 2 18.0255 72.1642 26.2428 12.9394 -15.7647 -7.0444
# 3 30.3280 26.2428 131.0636 26.7232 16.9897 -0.8797
# 4 7.5414 12.9394 26.7232 38.3171 -10.3766 7.5497
# 5 -0.9297 -15.7647 16.9897 -10.3766 42.8191 14.8224
# 6 4.5422 -7.0444 -0.8797 7.5497 14.8224 21.7041
#
#
#
# Elastic Compliance Matrix: (Units=1/GPa)
#
#
# Indices 1 2 3 4 5 6 
#
# 1 0.014665 -0.002502 -0.004620 0.004578 0.005631 -0.009506
# 2 -0.002502 0.017723 -0.003488 -0.001660 0.006717 0.002125
# 3 -0.004620 -0.003488 0.015443 -0.017386 -0.018305 0.019010
# 4 0.004578 -0.001660 -0.017386 0.056993 0.036436 -0.046910
# 5 0.005631 0.006717 -0.018305 0.036436 0.060686 -0.053859
# 6 -0.009506 0.002125 0.019010 -0.046910 -0.053859 0.102623
#
#
# Mechanical properties :
#
#
# Convention : Reuss Voigt Hill
#
# Bulk Modulus (GPa) = 37.57724 48.24266 42.90995
# Shear Modulus (GPa) = 16.76597 34.59438 25.68017
#
# Velocity S-wave (km/s) = 2.73179 3.92406 3.38089
# Velocity P-wave (km/s) = 5.16489 6.48106 5.86005
#
# Compressibility (1/GPa) = 0.02661186
#
# Stress axis : x y z
#
# Youngs Moduli (GPa) = 68.18742 56.42407 64.75585
#
# Poissons Ratio (x) = 0.14118 0.29916
# Poissons Ratio (y) = 0.17061 0.22585
# Poissons Ratio (z) = 0.31501 0.19679
#
# Static dielectric constant tensor:
#      x y z
#    x 1.840450 -0.014030 0.000930 
#    y -0.014030 1.878020 0.053380 
#    z 0.000930 0.053380 1.862770 
# 
# From -- ./inp_files/111648.got.cif
#   From: 2010.05.17/outbox.cif.g08.bks.cpg/sg2_56_cif.got.tgz:111648.got - 2010.06.03 11:33:40.
