data_PCOD9010551
_publ_section_title
;
Structure prediction by ZEFSAII (Michael W. Deem and Ramdas Pophale) SiO2 
 PCOD9010551
Probable space group: P -1
;
_chemical_formula_sum "Si O2"
_cell_formula_units_Z 14
_cell_length_a 5.783697
_cell_length_b 8.931917
_cell_length_c 23.542976
_cell_angle_alpha 40.832705
_cell_angle_beta 49.761102
_cell_angle_gamma 66.768516
_cell_volume 596.107407
_symmetry_space_group_name_H-M "P -1"
_symmetry_group_IT_number 2
_symmetry_cell_setting 'triclinic'
loop_
_space_group_symop_operation_xyz
x,y,z
-x,-y,-z
loop_
_atom_site_type_symbol
_atom_site_label
_atom_site_fract_x
_atom_site_fract_y
_atom_site_fract_z
Si Si1 0.451828 0.411582 0.970020
Si Si2 0.843323 0.121297 0.937978
Si Si3 0.987308 0.925308 0.195816
Si Si4 0.385972 0.330157 0.469236
Si Si5 0.048877 0.873853 0.586568
Si Si6 0.902111 0.260304 0.657647
Si Si7 0.456450 0.153293 0.237804
O O1 0.766484 0.354775 0.910091
O O2 0.366519 0.610469 0.886629
O O3 0.500000 0.500000 0.000000
O O4 0.212830 0.172518 0.081575
O O5 0.061496 0.156425 0.838056
O O6 0.500000 0.000000 0.000000
O O7 0.000000 0.000000 0.000000
O O8 0.695483 0.983992 0.258983
O O9 0.121697 0.760144 0.265082
O O10 0.740453 0.314346 0.407594
O O11 0.282616 0.546301 0.391898
O O12 0.241414 0.330903 0.554966
O O13 0.219165 0.084414 0.539049
O O14 0.731490 0.787743 0.695075
O O15 0.000000 0.000000 0.500000
O O16 0.763755 0.001710 0.729220
#
# Coordination Sequence:
#
# PCOD9010551 Si02
#       7
#     2   2   2   2   2   2   2
#     4  11  22  43  66  96 134 179 225 282 347 403
#     4  10  24  43  65  96 134 182 233 289 347 409
#     4  11  23  41  68  94 137 178 231 284 344 426
#     4   9  21  40  64  91 135 167 218 287 337 414
#     4  10  21  40  63  94 129 168 220 277 346 410
#     4  10  21  40  63  96 127 179 223 274 352 411
#     4  11  23  38  63  96 127 176 228 275 344 411
#
# _framework density 23.485699
#
# number of rings (size 3 to 8) (size 9 to 14) (size 15 to 20)
#    0.000    1.714    1.429    2.143    2.000    4.571 
#    0.000    4.286    0.000    0.000    0.000    0.000 
#    0.000    0.000    0.000    0.000    0.000    0.000 
#
# Total GULP energy -78141.558484 kJ/mol
# GULP energy per Si atom -5581.539892 kJ/mol
# Density = 2.343224 g / cm^3
# Si number density = 23.485699 Si / 1000 Ang^3
#
#
#
# Elastic Constant Matrix: (Units=GPa)
#
#
# Indices 1 2 3 4 5 6 
#
# 1 70.2489 35.5217 46.3822 13.6614 26.2502 -5.2909
# 2 35.5217 141.3263 46.5065 26.6771 17.1170 -19.0748
# 3 46.3822 46.5065 140.2290 16.2829 31.1606 -2.8454
# 4 13.6614 26.6771 16.2829 41.5376 3.6992 -5.5172
# 5 26.2502 17.1170 31.1606 3.6992 49.7715 -6.8450
# 6 -5.2909 -19.0748 -2.8454 -5.5172 -6.8450 34.7555
#
#
#
# Elastic Compliance Matrix: (Units=1/GPa)
#
#
# Indices 1 2 3 4 5 6 
#
# 1 0.021877 -0.002608 -0.004276 -0.003216 -0.007794 -0.000496
# 2 -0.002608 0.009640 -0.001787 -0.004092 0.000048 0.004107
# 3 -0.004276 -0.001787 0.010044 -0.001295 -0.003558 -0.001716
# 4 -0.003216 -0.004092 -0.001295 0.028357 0.002091 0.002072
# 5 -0.007794 0.000048 -0.003558 0.002091 0.026831 0.004165
# 6 -0.000496 0.004107 -0.001716 0.002072 0.004165 0.031960
#
#
# Mechanical properties :
#
#
# Convention : Reuss Voigt Hill
#
# Bulk Modulus (GPa) = 41.28632 67.62500 54.45566
# Shear Modulus (GPa) = 32.44135 40.10583 36.27359
#
# Velocity S-wave (km/s) = 3.72065 4.13688 3.93427
# Velocity P-wave (km/s) = 6.00626 7.18853 6.62383
#
# Compressibility (1/GPa) = 0.02422110
#
# Stress axis : x y z
#
# Youngs Moduli (GPa) = 45.70934 103.73210 99.55821
#
# Poissons Ratio (x) = 0.27049 0.42573
# Poissons Ratio (y) = 0.11919 0.17788
# Poissons Ratio (z) = 0.19546 0.18534
#
# Static dielectric constant tensor:
#      x y z
#    x 1.984570 -0.029720 -0.080120 
#    y -0.029720 1.896800 0.019400 
#    z -0.080120 0.019400 1.898050 
# 
# From -- ./inp_files/37175.got.cif
#   From: 2010.05.17/outbox.cif.g08.bks.cpg/sg2_19_cif.got.tgz:37175.got - 2010.06.03 11:33:40.
