data_PCOD9010944
_publ_section_title
;
Structure prediction by ZEFSAII (Michael W. Deem and Ramdas Pophale) SiO2 
 PCOD9010944
Probable space group: P -1
;
_chemical_formula_sum "Si O2"
_cell_formula_units_Z 16
_cell_length_a 14.238126
_cell_length_b 12.938920
_cell_length_c 5.841881
_cell_angle_alpha 113.188609
_cell_angle_beta 116.368753
_cell_angle_gamma 40.126221
_cell_volume 618.694295
_symmetry_space_group_name_H-M "P -1"
_symmetry_group_IT_number 2
_symmetry_cell_setting 'triclinic'
loop_
_space_group_symop_operation_xyz
x,y,z
-x,-y,-z
loop_
_atom_site_type_symbol
_atom_site_label
_atom_site_fract_x
_atom_site_fract_y
_atom_site_fract_z
Si Si1 0.745703 0.881432 0.017158
Si Si2 0.594578 0.513375 0.959669
Si Si3 0.881861 0.326134 0.419007
Si Si4 0.462980 0.205514 0.750695
Si Si5 0.918008 0.921428 0.957564
Si Si6 0.141975 0.408972 0.402110
Si Si7 0.672480 0.094872 0.505564
Si Si8 0.200915 0.783524 0.390745
O O1 0.872286 0.873172 0.066963
O O2 0.816297 0.711417 0.857182
O O3 0.589913 0.024513 0.831419
O O4 0.708704 0.948574 0.294040
O O5 0.738033 0.433982 0.196224
O O6 0.527604 0.687668 0.995390
O O7 0.500000 0.500000 0.000000
O O8 0.663737 0.395968 0.717189
O O9 0.884757 0.449426 0.623983
O O10 0.860414 0.235357 0.475502
O O11 0.019305 0.200250 0.290024
O O12 0.292618 0.294609 0.624491
O O13 0.510543 0.204115 0.540672
O O14 0.760997 0.077046 0.811235
O O15 0.053581 0.895746 0.164708
O O16 0.000000 0.500000 0.500000
O O17 0.727283 0.150208 0.440928
#
# Coordination Sequence:
#
# PCOD9010944 Si02
#       8
#     2   2   2   2   2   2   2   2
#     4  11  24  43  74 100 139 187 237 287 351 409
#     4  10  21  40  64  96 140 183 223 286 352 410
#     4  10  23  40  68 101 132 178 242 285 348 413
#     4  10  24  44  70 102 138 182 233 287 353 418
#     4  10  22  43  64  99 142 183 228 278 351 416
#     4  11  23  49  76  98 139 186 236 300 347 408
#     4  11  24  41  68 107 144 179 230 283 350 427
#     4  11  23  40  69 103 144 183 230 286 348 423
#
# _framework density 25.860914999999999
#
# number of rings (size 3 to 8) (size 9 to 14) (size 15 to 20)
#    0.000    1.500    2.500    1.500    1.750    6.000 
#    0.000   10.000    0.000    0.000    0.000    0.000 
#    0.000    0.000    0.000    0.000    0.000    0.000 
#
# Total GULP energy -89396.327510 kJ/mol
# GULP energy per Si atom -5587.270469 kJ/mol
# Density = 2.580205 g / cm^3
# Si number density = 25.860915 Si / 1000 Ang^3
#
#
#
# Elastic Constant Matrix: (Units=GPa)
#
#
# Indices 1 2 3 4 5 6 
#
# 1 94.9031 44.2721 17.0762 11.8970 8.9129 -21.8624
# 2 44.2721 110.8406 50.6096 27.4038 6.9870 -13.8549
# 3 17.0762 50.6096 90.0684 21.8824 13.7361 -2.1863
# 4 11.8970 27.4038 21.8824 67.9303 -5.5089 8.4823
# 5 8.9129 6.9870 13.7361 -5.5089 34.0529 -0.9158
# 6 -21.8624 -13.8549 -2.1863 8.4823 -0.9158 49.0104
#
#
#
# Elastic Compliance Matrix: (Units=1/GPa)
#
#
# Indices 1 2 3 4 5 6 
#
# 1 0.014415 -0.004941 0.001133 -0.001836 -0.003370 0.005339
# 2 -0.004941 0.015194 -0.006801 -0.003333 0.000444 0.002373
# 3 0.001133 -0.006801 0.016401 -0.003198 -0.006041 -0.000245
# 4 -0.001836 -0.003333 -0.003198 0.018472 0.005308 -0.005002
# 5 -0.003370 0.000444 -0.006041 0.005308 0.033400 -0.001942
# 6 0.005339 0.002373 -0.000245 -0.005002 -0.001942 0.024275
#
#
# Mechanical properties :
#
#
# Convention : Reuss Voigt Hill
#
# Bulk Modulus (GPa) = 40.33546 57.74755 49.04151
# Shear Modulus (GPa) = 32.97317 42.45567 37.71442
#
# Velocity S-wave (km/s) = 3.57462 4.05618 3.82299
# Velocity P-wave (km/s) = 5.71560 6.65697 6.20417
#
# Compressibility (1/GPa) = 0.02479208
#
# Stress axis : x y z
#
# Youngs Moduli (GPa) = 69.37354 65.81738 60.97048
#
# Poissons Ratio (x) = 0.32522 -0.06909
# Poissons Ratio (y) = 0.34279 0.41464
# Poissons Ratio (z) = -0.07861 0.44760
#
# Static dielectric constant tensor:
#      x y z
#    x 2.009520 0.144200 -0.063060 
#    y 0.144200 2.042630 0.026460 
#    z -0.063060 0.026460 1.997910 
# 
# From -- ./inp_files/98627.got.cif
#   From: 2010.05.17/outbox.cif.g08.bks.cpg/sg2_50_cif.got.tgz:98627.got - 2010.06.03 11:33:40.
