data_PCOD9010587
_publ_section_title
;
Structure prediction by ZEFSAII (Michael W. Deem and Ramdas Pophale) SiO2 
 PCOD9010587
Probable space group: P -1
;
_chemical_formula_sum "Si O2"
_cell_formula_units_Z 16
_cell_length_a 21.491878
_cell_length_b 9.752437
_cell_length_c 10.169190
_cell_angle_alpha 107.810565
_cell_angle_beta 137.842271
_cell_angle_gamma 39.284045
_cell_volume 703.117926
_symmetry_space_group_name_H-M "P -1"
_symmetry_group_IT_number 2
_symmetry_cell_setting 'triclinic'
loop_
_space_group_symop_operation_xyz
x,y,z
-x,-y,-z
loop_
_atom_site_type_symbol
_atom_site_label
_atom_site_fract_x
_atom_site_fract_y
_atom_site_fract_z
Si Si1 0.013080 0.765424 0.925331
Si Si2 0.613845 0.008457 0.057798
Si Si3 0.791484 0.304201 0.609627
Si Si4 0.398960 0.748625 0.126864
Si Si5 0.840155 0.135882 0.362832
Si Si6 0.475652 0.186651 0.178011
Si Si7 0.654329 0.169765 0.643968
Si Si8 0.904009 0.421580 0.271605
O O1 0.067284 0.585895 0.840485
O O2 0.956348 0.981740 0.814141
O O3 0.838844 0.959835 0.795336
O O4 0.173019 0.598673 0.224733
O O5 0.815128 0.674138 0.281296
O O6 0.549863 0.140829 0.140076
O O7 0.494734 0.025933 0.838218
O O8 0.610636 0.124137 0.968503
O O9 0.608999 0.466690 0.408525
O O10 0.785530 0.315698 0.446707
O O11 0.302054 0.916515 0.159917
O O12 0.318128 0.709004 0.932172
O O13 0.000000 0.000000 0.500000
O O14 0.921905 0.881312 0.481111
O O15 0.567066 0.150801 0.427411
O O16 0.259426 0.478307 0.941125
O O17 0.500000 0.500000 0.500000
#
# Coordination Sequence:
#
# PCOD9010587 Si02
#       8
#     2   2   2   2   2   2   2   2
#     4  10  21  40  63  96 125 174 220 265 338 383
#     4   9  23  44  71  95 128 182 231 261 325 396
#     4  10  22  38  62  91 132 170 217 272 325 395
#     4  12  25  40  64 100 130 177 223 274 326 397
#     4  11  25  37  63  99 137 169 216 280 338 382
#     4   9  22  45  70  93 126 184 219 269 331 398
#     4  12  25  40  67  99 136 173 218 275 339 401
#     4   9  21  43  67  91 124 180 216 277 318 394
#
# _framework density 22.755786000000001
#
# number of rings (size 3 to 8) (size 9 to 14) (size 15 to 20)
#    0.750    1.000    1.250    1.875   10.500    1.000 
#    0.000    0.625    0.000    0.000    0.000    0.000 
#    0.000    0.000    0.000    0.000    0.000    0.000 
#
# Total GULP energy -89310.086368 kJ/mol
# GULP energy per Si atom -5581.880398 kJ/mol
# Density = 2.270399 g / cm^3
# Si number density = 22.755786 Si / 1000 Ang^3
#
#
#
# Elastic Constant Matrix: (Units=GPa)
#
#
# Indices 1 2 3 4 5 6 
#
# 1 114.2163 46.0229 31.2712 15.5479 -7.8320 -33.3470
# 2 46.0229 90.2077 40.9210 10.4734 -2.2389 -29.2187
# 3 31.2712 40.9210 129.9742 22.4870 18.1780 -11.0278
# 4 15.5479 10.4734 22.4870 33.0197 -5.5813 -2.2111
# 5 -7.8320 -2.2389 18.1780 -5.5813 26.9030 0.0715
# 6 -33.3470 -29.2187 -11.0278 -2.2111 0.0715 49.7199
#
#
#
# Elastic Compliance Matrix: (Units=1/GPa)
#
#
# Indices 1 2 3 4 5 6 
#
# 1 0.013084 -0.003513 -0.001566 -0.002894 0.003958 0.006229
# 2 -0.003513 0.017167 -0.004542 0.000350 0.003530 0.006735
# 3 -0.001566 -0.004542 0.012308 -0.008124 -0.010832 -0.001336
# 4 -0.002894 0.000350 -0.008124 0.039110 0.012795 -0.001816
# 5 0.003958 0.003530 -0.010832 0.012795 0.048583 0.002826
# 6 0.006229 0.006735 -0.001336 -0.001816 0.002826 0.027868
#
#
# Mechanical properties :
#
#
# Convention : Reuss Voigt Hill
#
# Bulk Modulus (GPa) = 42.89014 63.42539 53.15777
# Shear Modulus (GPa) = 27.00748 36.34071 31.67410
#
# Velocity S-wave (km/s) = 3.44879 4.00057 3.73488
# Velocity P-wave (km/s) = 5.89473 7.01941 6.48151
#
# Compressibility (1/GPa) = 0.02331538
#
# Stress axis : x y z
#
# Youngs Moduli (GPa) = 76.43189 58.25165 81.24757
#
# Poissons Ratio (x) = 0.20462 0.12726
# Poissons Ratio (y) = 0.26849 0.36907
# Poissons Ratio (z) = 0.11972 0.26461
#
# Static dielectric constant tensor:
#      x y z
#    x 1.867700 0.005310 -0.007810 
#    y 0.005310 1.899690 -0.006840 
#    z -0.007810 -0.006840 1.876920 
# 
# From -- ./inp_files/346191.got.cif
#   From: 2010.05.17/outbox.cif.g08.bks.cpg/sg2_174_cif.got.tgz:346191.got - 2010.06.03 11:33:40.
