data_PCOD9010983
_publ_section_title
;
Structure prediction by ZEFSAII (Michael W. Deem and Ramdas Pophale) SiO2 
 PCOD9010983
Probable space group: P -1
;
_chemical_formula_sum "Si O2"
_cell_formula_units_Z 14
_cell_length_a 12.685387
_cell_length_b 9.668926
_cell_length_c 15.777256
_cell_angle_alpha 128.611836
_cell_angle_beta 153.867369
_cell_angle_gamma 47.419651
_cell_volume 626.778438
_symmetry_space_group_name_H-M "P -1"
_symmetry_group_IT_number 2
_symmetry_cell_setting 'triclinic'
loop_
_space_group_symop_operation_xyz
x,y,z
-x,-y,-z
loop_
_atom_site_type_symbol
_atom_site_label
_atom_site_fract_x
_atom_site_fract_y
_atom_site_fract_z
Si Si1 0.110007 0.103240 0.495750
Si Si2 0.832132 0.592269 0.237614
Si Si3 0.793941 0.245659 0.656149
Si Si4 0.809351 0.616009 0.733030
Si Si5 0.009424 0.072603 0.920939
Si Si6 0.672025 0.416324 0.213279
Si Si7 0.569554 0.174176 0.763665
O O1 0.148304 0.206242 0.647494
O O2 0.332824 0.113647 0.596019
O O3 0.844575 0.239264 0.320711
O O4 0.135561 0.887275 0.426765
O O5 0.835693 0.483042 0.287003
O O6 0.037770 0.464448 0.272829
O O7 0.556469 0.626212 0.013122
O O8 0.851290 0.436399 0.755354
O O9 0.490961 0.302362 0.472101
O O10 0.953125 0.127438 0.804244
O O11 0.906466 0.767829 0.908611
O O12 0.747260 0.074227 0.775922
O O13 0.235194 0.881554 0.036071
O O14 0.538300 0.603143 0.243517
#
# Coordination Sequence:
#
# PCOD9010983 Si02
#       7
#     2   2   2   2   2   2   2
#     4  11  24  40  61 100 126 160 208 255 320 379
#     4  10  22  39  67  87 131 162 201 262 311 372
#     4  11  27  41  67  89 128 171 214 256 306 364
#     4  11  24  47  63  91 123 173 217 257 300 370
#     4  11  23  41  66  94 127 163 212 261 313 374
#     4  10  22  38  64  95 129 163 197 258 328 371
#     4  10  21  40  64  99 127 159 203 263 325 370
#
# _framework density 22.336442000000002
#
# number of rings (size 3 to 8) (size 9 to 14) (size 15 to 20)
#    0.000    1.429    2.857    2.143   10.000    1.143 
#    0.000    0.714    0.000    0.000    0.000    0.000 
#    0.000    0.000    0.000    0.000    0.000    0.000 
#
# Total GULP energy -78295.139179 kJ/mol
# GULP energy per Si atom -5592.509941 kJ/mol
# Density = 2.228560 g / cm^3
# Si number density = 22.336442 Si / 1000 Ang^3
#
#
#
# Elastic Constant Matrix: (Units=GPa)
#
#
# Indices 1 2 3 4 5 6 
#
# 1 45.9123 17.3648 8.0539 4.5111 13.8547 -11.1411
# 2 17.3648 91.7926 28.3684 0.8418 11.7305 -18.1207
# 3 8.0539 28.3684 55.6312 -4.6838 5.7947 -2.6182
# 4 4.5111 0.8418 -4.6838 42.2905 -9.1553 -3.1704
# 5 13.8547 11.7305 5.7947 -9.1553 18.5092 -5.6933
# 6 -11.1411 -18.1207 -2.6182 -3.1704 -5.6933 28.9324
#
#
#
# Elastic Compliance Matrix: (Units=1/GPa)
#
#
# Indices 1 2 3 4 5 6 
#
# 1 0.032506 -0.001066 -0.001964 -0.008792 -0.025648 0.005661
# 2 -0.001066 0.015382 -0.006923 -0.001547 -0.005276 0.007389
# 3 -0.001964 -0.006923 0.021928 0.002390 -0.000746 -0.002993
# 4 -0.008792 -0.001547 0.002390 0.030093 0.022821 0.003650
# 5 -0.025648 -0.005276 -0.000746 0.022821 0.090248 0.007011
# 6 0.005661 0.007389 -0.002993 0.003650 0.007011 0.042880
#
#
# Mechanical properties :
#
#
# Convention : Reuss Voigt Hill
#
# Bulk Modulus (GPa) = 20.03622 33.43450 26.73536
# Shear Modulus (GPa) = 18.54730 27.24969 22.89849
#
# Velocity S-wave (km/s) = 2.88472 3.49659 3.20529
# Velocity P-wave (km/s) = 4.48165 5.59487 5.06891
#
# Compressibility (1/GPa) = 0.04990961
#
# Stress axis : x y z
#
# Youngs Moduli (GPa) = 30.76373 65.00924 45.60361
#
# Poissons Ratio (x) = 0.06932 0.08958
# Poissons Ratio (y) = 0.03280 0.31570
# Poissons Ratio (z) = 0.06043 0.45004
#
# Static dielectric constant tensor:
#      x y z
#    x 1.820410 -0.001990 -0.012090 
#    y -0.001990 1.839280 0.023200 
#    z -0.012090 0.023200 1.809740 
# 
# From -- ./inp_files/418174.got.cif
#   From: 2010.05.17/outbox.cif.g08.bks.cpg/sg2_210_cif.got.tgz:418174.got - 2010.06.03 11:33:40.
