data_PCOD9010244
_publ_section_title
;
Structure prediction by ZEFSAII (Michael W. Deem and Ramdas Pophale) SiO2 
 PCOD9010244
Probable space group: P -1
;
_chemical_formula_sum "Si O2"
_cell_formula_units_Z 16
_cell_length_a 31.036723
_cell_length_b 11.302875
_cell_length_c 28.460190
_cell_angle_alpha 149.862553
_cell_angle_beta 8.438376
_cell_angle_gamma 150.319761
_cell_volume 723.432297
_symmetry_space_group_name_H-M "P -1"
_symmetry_group_IT_number 2
_symmetry_cell_setting 'triclinic'
loop_
_space_group_symop_operation_xyz
x,y,z
-x,-y,-z
loop_
_atom_site_type_symbol
_atom_site_label
_atom_site_fract_x
_atom_site_fract_y
_atom_site_fract_z
Si Si1 0.149700 0.419364 0.959788
Si Si2 0.895474 0.713858 0.512705
Si Si3 0.431291 0.418843 0.844977
Si Si4 0.232433 0.297478 0.631788
Si Si5 0.106188 0.153590 0.187976
Si Si6 0.520156 0.741613 0.367434
Si Si7 0.562585 0.427040 0.855315
Si Si8 0.812049 0.680069 0.214463
O O1 0.420776 0.638896 0.732695
O O2 0.226789 0.336100 0.899578
O O3 0.190812 0.243010 0.810209
O O4 0.802350 0.429571 0.336045
O O5 0.723191 0.598505 0.611886
O O6 0.670319 0.635863 0.772722
O O7 0.000000 0.000000 0.500000
O O8 0.178428 0.583442 0.169507
O O9 0.433818 0.280507 0.745326
O O10 0.341624 0.224280 0.916179
O O11 0.174947 0.165153 0.699356
O O12 0.025221 0.123474 0.761024
O O13 0.089884 0.538426 0.869657
O O14 0.825757 0.276178 0.521238
O O15 0.266347 0.265276 0.099698
O O16 0.500000 0.000000 0.500000
O O17 0.500000 0.500000 0.000000
O O18 0.500000 0.500000 0.500000
#
# Coordination Sequence:
#
# PCOD9010244 Si02
#       8
#     2   2   2   2   2   2   2   2
#     4  11  23  42  58  90 130 161 226 266 310 379
#     4  10  21  44  70  93 125 171 215 268 334 392
#     4  10  23  43  63  96 128 165 225 262 303 408
#     4  10  21  40  62  93 124 168 212 261 327 376
#     4  10  23  39  69  91 127 166 207 257 323 392
#     4  12  26  43  64  90 133 182 216 270 324 370
#     4  10  22  43  63  98 131 155 209 269 326 405
#     4   9  20  36  61  86 127 164 209 266 307 379
#
# _framework density 22.116790999999999
#
# number of rings (size 3 to 8) (size 9 to 14) (size 15 to 20)
#    0.000    1.750    1.250    1.875    5.250    0.000 
#    9.000    0.000    0.000    0.000    0.000    0.000 
#    0.000    0.000    0.000    0.000    0.000    0.000 
#
# Total GULP energy -89256.415453 kJ/mol
# GULP energy per Si atom -5578.525966 kJ/mol
# Density = 2.206645 g / cm^3
# Si number density = 22.116791 Si / 1000 Ang^3
#
#
#
# Elastic Constant Matrix: (Units=GPa)
#
#
# Indices 1 2 3 4 5 6 
#
# 1 173.6577 26.8433 29.6319 -5.6141 11.2893 46.3884
# 2 26.8433 102.8739 13.2276 -12.6244 -0.1588 19.1823
# 3 29.6319 13.2276 69.8780 -14.3856 -10.3851 13.1587
# 4 -5.6141 -12.6244 -14.3856 26.3648 8.5039 -10.1716
# 5 11.2893 -0.1588 -10.3851 8.5039 52.9956 1.0535
# 6 46.3884 19.1823 13.1587 -10.1716 1.0535 35.7706
#
#
#
# Elastic Compliance Matrix: (Units=1/GPa)
#
#
# Indices 1 2 3 4 5 6 
#
# 1 0.009516 -0.000326 -0.002706 -0.003756 -0.001714 -0.012188
# 2 -0.000326 0.011104 -0.000504 0.003442 -0.000462 -0.004354
# 3 -0.002706 -0.000504 0.017669 0.007675 0.002818 -0.000620
# 4 -0.003756 0.003442 0.007675 0.050637 -0.006105 0.014781
# 5 -0.001714 -0.000462 0.002818 -0.006105 0.020783 -0.000915
# 6 -0.012188 -0.004354 -0.000620 0.014781 -0.000915 0.050555
#
#
# Mechanical properties :
#
#
# Convention : Reuss Voigt Hill
#
# Bulk Modulus (GPa) = 32.03356 53.97948 43.00652
# Shear Modulus (GPa) = 28.13033 41.47331 34.80182
#
# Velocity S-wave (km/s) = 3.57024 4.33505 3.97110
# Velocity P-wave (km/s) = 5.61344 7.03679 6.36503
#
# Compressibility (1/GPa) = 0.03121726
#
# Stress axis : x y z
#
# Youngs Moduli (GPa) = 105.08079 90.05731 56.59479
#
# Poissons Ratio (x) = 0.02936 0.15317
# Poissons Ratio (y) = 0.03426 0.02851
# Poissons Ratio (z) = 0.28440 0.04537
#
# Static dielectric constant tensor:
#      x y z
#    x 1.935500 -0.019640 0.030160 
#    y -0.019640 1.839490 -0.009750 
#    z 0.030160 -0.009750 1.818500 
# 
# From -- ./inp_files/621495.got.cif
#   From: 2010.05.17/outbox.cif.g08.bks.cpg/sg2_311_cif.got.tgz:621495.got - 2010.06.03 11:33:40.
