data_PCOD9010634
_publ_section_title
;
Structure prediction by ZEFSAII (Michael W. Deem and Ramdas Pophale) SiO2 
 PCOD9010634
Probable space group: P -1
;
_chemical_formula_sum "Si O2"
_cell_formula_units_Z 14
_cell_length_a 11.653694
_cell_length_b 12.472537
_cell_length_c 12.684611
_cell_angle_alpha 135.588432
_cell_angle_beta 29.254888
_cell_angle_gamma 141.574220
_cell_volume 557.089759
_symmetry_space_group_name_H-M "P -1"
_symmetry_group_IT_number 2
_symmetry_cell_setting 'triclinic'
loop_
_space_group_symop_operation_xyz
x,y,z
-x,-y,-z
loop_
_atom_site_type_symbol
_atom_site_label
_atom_site_fract_x
_atom_site_fract_y
_atom_site_fract_z
Si Si1 0.307258 0.508654 0.571261
Si Si2 0.166021 0.678777 0.063541
Si Si3 0.176215 0.087377 0.815618
Si Si4 0.225758 0.867919 0.441094
Si Si5 0.625480 0.643297 0.787236
Si Si6 0.311482 0.586758 0.273856
Si Si7 0.718771 0.144789 0.113843
O O1 0.500000 0.500000 0.500000
O O2 0.397261 0.506465 0.379943
O O3 0.262970 0.675352 0.732787
O O4 0.043097 0.335228 0.691511
O O5 0.401649 0.680104 0.942964
O O6 0.263102 0.831980 0.010003
O O7 0.000000 0.500000 0.000000
O O8 0.438790 0.257624 0.759030
O O9 0.269609 0.969521 0.589532
O O10 0.972760 0.128636 0.939333
O O11 0.000000 0.000000 0.000000
O O12 0.276231 0.700617 0.288243
O O13 0.910703 0.800715 0.641505
O O14 0.440650 0.997895 0.278415
O O15 0.627604 0.575091 0.856880
O O16 0.000000 0.500000 0.500000
#
# Coordination Sequence:
#
# PCOD9010634 Si02
#       7
#     2   2   2   2   2   2   2
#     4  11  22  40  70  96 128 173 224 274 329 392
#     4  10  21  40  64 100 127 170 224 268 334 390
#     4  12  25  43  70  97 138 175 222 274 335 404
#     4  11  26  44  65 100 136 179 219 270 346 393
#     4  11  23  43  67  96 138 175 220 280 327 397
#     4  10  22  44  69  97 132 173 223 274 327 394
#     4  11  24  41  71  98 131 174 226 271 336 397
#
# _framework density 25.130600999999999
#
# number of rings (size 3 to 8) (size 9 to 14) (size 15 to 20)
#    0.000    1.143    4.286    3.000    4.000    1.714 
#    0.000    2.857    0.000    0.000    0.000    0.000 
#    0.000    0.000    0.000    0.000    0.000    0.000 
#
# Total GULP energy -78119.318092 kJ/mol
# GULP energy per Si atom -5579.951292 kJ/mol
# Density = 2.507340 g / cm^3
# Si number density = 25.130601 Si / 1000 Ang^3
#
#
#
# Elastic Constant Matrix: (Units=GPa)
#
#
# Indices 1 2 3 4 5 6 
#
# 1 158.2217 51.8037 69.1721 -24.6461 -20.0497 -31.9588
# 2 51.8037 99.9206 57.3209 -31.4644 2.4462 -21.1930
# 3 69.1721 57.3209 102.6490 -18.2847 -36.9023 -19.6682
# 4 -24.6461 -31.4644 -18.2847 68.2065 1.7930 5.0241
# 5 -20.0497 2.4462 -36.9023 1.7930 64.9708 -11.9059
# 6 -31.9588 -21.1930 -19.6682 5.0241 -11.9059 56.4922
#
#
#
# Elastic Compliance Matrix: (Units=1/GPa)
#
#
# Indices 1 2 3 4 5 6 
#
# 1 0.009826 -0.001294 -0.004553 0.001439 0.001114 0.003595
# 2 -0.001294 0.019441 -0.011795 0.005526 -0.007929 0.000292
# 3 -0.004553 -0.011795 0.025314 -0.001040 0.014349 0.004929
# 4 0.001439 0.005526 -0.001040 0.017408 -0.000683 0.000833
# 5 0.001114 -0.007929 0.014349 -0.000683 0.025692 0.008126
# 6 0.003595 0.000292 0.004929 0.000833 0.008126 0.023200
#
#
# Mechanical properties :
#
#
# Convention : Reuss Voigt Hill
#
# Bulk Modulus (GPa) = 51.81981 79.70940 65.76460
# Shear Modulus (GPa) = 30.75088 50.10020 40.42554
#
# Velocity S-wave (km/s) = 3.50186 4.46981 4.01511
# Velocity P-wave (km/s) = 6.08405 7.64368 6.90802
#
# Compressibility (1/GPa) = 0.01929764
#
# Stress axis : x y z
#
# Youngs Moduli (GPa) = 101.77165 51.43754 39.50340
#
# Poissons Ratio (x) = 0.06655 0.17988
# Poissons Ratio (y) = 0.13167 0.46593
# Poissons Ratio (z) = 0.46341 0.60668
#
# Static dielectric constant tensor:
#      x y z
#    x 2.067790 -0.013810 0.033670 
#    y -0.013810 1.982920 0.015890 
#    z 0.033670 0.015890 2.027380 
# 
# From -- ./inp_files/338884.got.cif
#   From: 2010.05.17/outbox.cif.g08.bks.cpg/sg2_170_cif.got.tgz:338884.got - 2010.06.03 11:33:40.
