data_PCOD9010253
_publ_section_title
;
Structure prediction by ZEFSAII (Michael W. Deem and Ramdas Pophale) SiO2 
 PCOD9010253
Probable space group: P -1
;
_chemical_formula_sum "Si O2"
_cell_formula_units_Z 16
_cell_length_a 13.801535
_cell_length_b 11.602823
_cell_length_c 11.629559
_cell_angle_alpha 84.644283
_cell_angle_beta 62.673485
_cell_angle_gamma 32.062466
_cell_volume 684.186693
_symmetry_space_group_name_H-M "P -1"
_symmetry_group_IT_number 2
_symmetry_cell_setting 'triclinic'
loop_
_space_group_symop_operation_xyz
x,y,z
-x,-y,-z
loop_
_atom_site_type_symbol
_atom_site_label
_atom_site_fract_x
_atom_site_fract_y
_atom_site_fract_z
Si Si1 0.119689 0.758242 0.971273
Si Si2 0.690600 0.023135 0.114476
Si Si3 0.150609 0.448243 0.791797
Si Si4 0.007488 0.569208 0.305395
Si Si5 0.629797 0.538455 0.383232
Si Si6 0.694092 0.474860 0.876079
Si Si7 0.097688 0.927266 0.583394
Si Si8 0.615764 0.898465 0.694784
O O1 0.330918 0.534832 0.976340
O O2 0.234167 0.614474 0.799649
O O3 0.872309 0.913402 0.116087
O O4 0.000000 0.000000 0.000000
O O5 0.563096 0.243580 0.081555
O O6 0.472125 0.149906 0.273888
O O7 0.880258 0.759681 0.958118
O O8 0.294836 0.402696 0.636418
O O9 0.111438 0.368422 0.750993
O O10 0.354548 0.227236 0.804467
O O11 0.138059 0.567899 0.220019
O O12 0.227768 0.263390 0.256713
O O13 0.799937 0.766521 0.504702
O O14 0.328444 0.797922 0.497862
O O15 0.767835 0.319212 0.418263
O O16 0.850669 0.217127 0.759194
O O17 0.000000 0.000000 0.500000
#
# Coordination Sequence:
#
# PCOD9010253 Si02
#       8
#     2   2   2   2   2   2   2   2
#     4  11  23  43  66  89 133 172 216 270 320 383
#     4  10  25  39  63  99 127 175 217 263 325 391
#     4  11  22  40  63  93 133 167 213 263 321 383
#     4  10  23  40  66  99 128 173 213 265 324 388
#     4  10  25  43  62 100 123 171 223 261 327 396
#     4  11  24  43  67  98 132 171 225 267 326 389
#     4  11  25  44  68  92 129 169 216 281 328 378
#     4  10  21  40  62  93 132 168 216 259 321 385
#
# _framework density 23.385429999999999
#
# number of rings (size 3 to 8) (size 9 to 14) (size 15 to 20)
#    0.000    1.500    1.250    2.250    1.750   12.500 
#    0.000    0.000    0.000    0.000    0.000    0.000 
#    0.000    0.000    0.000    0.000    0.000    0.000 
#
# Total GULP energy -89459.448927 kJ/mol
# GULP energy per Si atom -5591.215558 kJ/mol
# Density = 2.333220 g / cm^3
# Si number density = 23.385430 Si / 1000 Ang^3
#
#
#
# Elastic Constant Matrix: (Units=GPa)
#
#
# Indices 1 2 3 4 5 6 
#
# 1 66.5258 11.1324 2.3745 -5.5309 -6.7071 -1.0502
# 2 11.1324 139.4624 17.7945 7.4511 1.4965 -24.6448
# 3 2.3745 17.7945 28.9231 -7.6941 -6.7709 -12.3844
# 4 -5.5309 7.4511 -7.6941 29.8007 -0.6980 -2.1948
# 5 -6.7071 1.4965 -6.7709 -0.6980 30.1361 -8.1627
# 6 -1.0502 -24.6448 -12.3844 -2.1948 -8.1627 34.9714
#
#
#
# Elastic Compliance Matrix: (Units=1/GPa)
#
#
# Indices 1 2 3 4 5 6 
#
# 1 0.016076 -0.001607 0.002665 0.004311 0.004814 0.001688
# 2 -0.001607 0.008807 -0.004610 -0.003405 -0.000792 0.004127
# 3 0.002665 -0.004610 0.056491 0.018373 0.020082 0.022677
# 4 0.004311 -0.003405 0.018373 0.040801 0.008585 0.008801
# 5 0.004814 -0.000792 0.020082 0.008585 0.043729 0.017444
# 6 0.001688 0.004127 0.022677 0.008801 0.017444 0.044208
#
#
# Mechanical properties :
#
#
# Convention : Reuss Voigt Hill
#
# Bulk Modulus (GPa) = 13.46455 33.05713 23.26084
# Shear Modulus (GPa) = 20.66360 32.55561 26.60960
#
# Velocity S-wave (km/s) = 2.97578 3.73518 3.37689
# Velocity P-wave (km/s) = 4.19252 5.72438 5.01726
#
# Compressibility (1/GPa) = 0.07426907
#
# Stress axis : x y z
#
# Youngs Moduli (GPa) = 62.20501 113.55141 17.70204
#
# Poissons Ratio (x) = 0.18247 -0.04718
# Poissons Ratio (y) = 0.09996 0.08161
# Poissons Ratio (z) = -0.16580 0.52353
#
# Static dielectric constant tensor:
#      x y z
#    x 1.914800 0.023330 -0.065220 
#    y 0.023330 1.891940 0.011850 
#    z -0.065220 0.011850 1.897850 
# 
# From -- ./inp_files/315398.got.cif
#   From: 2010.05.17/outbox.cif.g08.bks.cpg/sg2_158_cif.got.tgz:315398.got - 2010.06.03 11:33:40.
