data_PCOD9010586
_publ_section_title
;
Structure prediction by ZEFSAII (Michael W. Deem and Ramdas Pophale) SiO2 
 PCOD9010586
Probable space group: P -1
;
_chemical_formula_sum "Si O2"
_cell_formula_units_Z 16
_cell_length_a 10.597091
_cell_length_b 24.941628
_cell_length_c 17.858805
_cell_angle_alpha 162.345107
_cell_angle_beta 149.047857
_cell_angle_gamma 39.180958
_cell_volume 709.028014
_symmetry_space_group_name_H-M "P -1"
_symmetry_group_IT_number 2
_symmetry_cell_setting 'triclinic'
loop_
_space_group_symop_operation_xyz
x,y,z
-x,-y,-z
loop_
_atom_site_type_symbol
_atom_site_label
_atom_site_fract_x
_atom_site_fract_y
_atom_site_fract_z
Si Si1 0.013329 0.712659 0.669709
Si Si2 0.270364 0.328303 0.131827
Si Si3 0.205336 0.711344 0.256945
Si Si4 0.755307 0.822904 0.239260
Si Si5 0.322853 0.133792 0.402834
Si Si6 0.648905 0.135166 0.694787
Si Si7 0.817163 0.648562 0.724600
Si Si8 0.479072 0.465528 0.714419
O O1 0.880897 0.764781 0.596924
O O2 0.783813 0.609522 0.472044
O O3 0.168555 0.561640 0.535669
O O4 0.182944 0.915459 0.052518
O O5 0.500000 0.500000 0.500000
O O6 0.218747 0.246774 0.079242
O O7 0.328973 0.213317 0.938943
O O8 0.011957 0.373052 0.028675
O O9 0.458887 0.829341 0.501534
O O10 0.301508 0.572954 0.174071
O O11 0.046229 0.812023 0.363912
O O12 0.730425 0.012635 0.509382
O O13 0.590906 0.669092 0.007663
O O14 0.461132 0.223663 0.669416
O O15 0.500000 0.000000 0.500000
O O16 0.892225 0.257164 0.022982
O O17 0.601996 0.649520 0.556547
#
# Coordination Sequence:
#
# PCOD9010586 Si02
#       8
#     2   2   2   2   2   2   2   2
#     4  10  23  39  64  92 124 178 212 267 324 373
#     4  10  21  40  63  96 125 166 217 265 318 387
#     4   9  21  40  66  92 127 174 208 266 332 377
#     4  10  22  40  63  92 127 171 211 265 333 375
#     4  10  21  42  61  89 132 167 219 262 322 386
#     4  12  24  40  62  94 131 167 217 269 322 387
#     4  12  22  39  63  96 125 166 228 264 310 388
#     4  11  20  40  66  91 132 167 216 268 320 385
#
# _framework density 22.566105
#
# number of rings (size 3 to 8) (size 9 to 14) (size 15 to 20)
#    0.750    0.750    2.500    3.000    0.000    2.500 
#    2.250    0.625    0.000    0.000    0.000    0.000 
#    0.000    0.000    0.000    0.000    0.000    0.000 
#
# Total GULP energy -89099.619183 kJ/mol
# GULP energy per Si atom -5568.726199 kJ/mol
# Density = 2.251474 g / cm^3
# Si number density = 22.566105 Si / 1000 Ang^3
#
#
#
# Elastic Constant Matrix: (Units=GPa)
#
#
# Indices 1 2 3 4 5 6 
#
# 1 64.4432 2.7552 -4.7870 11.0532 0.2625 3.5790
# 2 2.7552 50.9315 5.5521 -13.8211 -9.3616 15.8977
# 3 -4.7870 5.5521 65.1110 -7.6659 11.7934 -1.3948
# 4 11.0532 -13.8211 -7.6659 36.4128 2.8071 4.3584
# 5 0.2625 -9.3616 11.7934 2.8071 40.8260 -1.3843
# 6 3.5790 15.8977 -1.3948 4.3584 -1.3843 29.7246
#
#
#
# Elastic Compliance Matrix: (Units=1/GPa)
#
#
# Indices 1 2 3 4 5 6 
#
# 1 0.016710 -0.002857 0.000885 -0.005973 -0.000594 0.000406
# 2 -0.002857 0.030437 -0.002731 0.013487 0.006257 -0.017749
# 3 0.000885 -0.002731 0.017014 0.002532 -0.005669 0.001517
# 4 -0.005973 0.013487 0.002532 0.036371 -0.000499 -0.011732
# 5 -0.000594 0.006257 -0.005669 -0.000499 0.027531 -0.002186
# 6 0.000406 -0.017749 0.001517 -0.011732 -0.002186 0.044775
#
#
# Mechanical properties :
#
#
# Convention : Reuss Voigt Hill
#
# Bulk Modulus (GPa) = 18.26355 20.83627 19.54991
# Shear Modulus (GPa) = 24.93823 33.19039 29.06431
#
# Velocity S-wave (km/s) = 3.32794 3.83927 3.59271
# Velocity P-wave (km/s) = 4.78308 5.37651 5.08845
#
# Compressibility (1/GPa) = 0.05475386
#
# Stress axis : x y z
#
# Youngs Moduli (GPa) = 59.84490 32.85509 58.77570
#
# Poissons Ratio (x) = 0.09388 -0.05203
# Poissons Ratio (y) = 0.17099 0.16052
# Poissons Ratio (z) = -0.05297 0.08973
#
# Static dielectric constant tensor:
#      x y z
#    x 1.940450 -0.017740 0.059970 
#    y -0.017740 1.877060 -0.047590 
#    z 0.059970 -0.047590 1.924070 
# 
# From -- ./inp_files/571002.got.cif
#   From: 2010.05.17/outbox.cif.g08.bks.cpg/sg2_286_cif.got.tgz:571002.got - 2010.06.03 11:33:40.
