data_PCOD9010943
_publ_section_title
;
Structure prediction by ZEFSAII (Michael W. Deem and Ramdas Pophale) SiO2 
 PCOD9010943
Probable space group: P -1
;
_chemical_formula_sum "Si O2"
_cell_formula_units_Z 16
_cell_length_a 14.430375
_cell_length_b 9.151316
_cell_length_c 27.241490
_cell_angle_alpha 142.473356
_cell_angle_beta 21.566848
_cell_angle_gamma 128.162004
_cell_volume 680.820978
_symmetry_space_group_name_H-M "P -1"
_symmetry_group_IT_number 2
_symmetry_cell_setting 'triclinic'
loop_
_space_group_symop_operation_xyz
x,y,z
-x,-y,-z
loop_
_atom_site_type_symbol
_atom_site_label
_atom_site_fract_x
_atom_site_fract_y
_atom_site_fract_z
Si Si1 0.905704 0.279919 0.390150
Si Si2 0.312054 0.361367 0.744333
Si Si3 0.858073 0.331868 0.897881
Si Si4 0.798266 0.382288 0.356010
Si Si5 0.147783 0.168015 0.407500
Si Si6 0.350409 0.910121 0.347535
Si Si7 0.309717 0.367882 0.042437
Si Si8 0.813809 0.898874 0.171986
O O1 0.634301 0.291187 0.554969
O O2 0.791827 0.387193 0.419297
O O3 0.967820 0.500836 0.445151
O O4 0.159764 0.945556 0.173820
O O5 0.283673 0.259783 0.784701
O O6 0.172437 0.241928 0.743643
O O7 0.074565 0.698376 0.952682
O O8 0.835489 0.482729 0.897917
O O9 0.598843 0.580453 0.125121
O O10 0.500000 0.500000 0.500000
O O11 0.046348 0.436789 0.227538
O O12 0.929676 0.052226 0.189046
O O13 0.897646 0.096256 0.499419
O O14 0.226331 0.060080 0.396480
O O15 0.447979 0.966556 0.175303
O O16 0.512114 0.058972 0.331095
O O17 0.500000 0.500000 0.000000
#
# Coordination Sequence:
#
# PCOD9010943 Si02
#       8
#     2   2   2   2   2   2   2   2
#     4  12  24  40  69 100 138 171 228 278 340 402
#     4  10  21  40  64  96 134 176 210 281 343 393
#     4  10  22  42  66  99 133 176 215 282 341 393
#     4  12  26  40  69 105 133 174 229 282 329 400
#     4  10  23  44  65  92 133 184 223 266 339 412
#     4   9  21  41  69  92 132 181 224 272 335 397
#     4  11  27  47  69  96 138 181 228 277 337 404
#     4  10  21  40  66  96 133 168 229 275 330 392
#
# _framework density 23.501037
#
# number of rings (size 3 to 8) (size 9 to 14) (size 15 to 20)
#    0.000    1.500    1.250    2.625    8.750    0.500 
#    0.000    6.250    0.000    0.000    0.000    0.000 
#    0.000    0.000    0.000    0.000    0.000    0.000 
#
# Total GULP energy -89371.223991 kJ/mol
# GULP energy per Si atom -5585.701499 kJ/mol
# Density = 2.344755 g / cm^3
# Si number density = 23.501037 Si / 1000 Ang^3
#
#
#
# Elastic Constant Matrix: (Units=GPa)
#
#
# Indices 1 2 3 4 5 6 
#
# 1 38.6302 -6.6511 -14.0428 -7.9423 7.7962 6.1947
# 2 -6.6511 81.7036 20.3858 -0.3650 7.9001 18.8825
# 3 -14.0428 20.3858 68.0346 -12.1001 11.8665 -4.6898
# 4 -7.9423 -0.3650 -12.1001 34.8308 2.7442 6.6544
# 5 7.7962 7.9001 11.8665 2.7442 24.7890 1.5975
# 6 6.1947 18.8825 -4.6898 6.6544 1.5975 40.0736
#
#
#
# Elastic Compliance Matrix: (Units=1/GPa)
#
#
# Indices 1 2 3 4 5 6 
#
# 1 0.041015 0.004190 0.013581 0.017529 -0.022112 -0.008754
# 2 0.004190 0.015858 -0.003366 0.001956 -0.004419 -0.008662
# 3 0.013581 -0.003366 0.023530 0.012329 -0.015881 0.000826
# 4 0.017529 0.001956 0.012329 0.039826 -0.015921 -0.008167
# 5 -0.022112 -0.004419 -0.015881 -0.015921 0.057811 0.003981
# 6 -0.008754 -0.008662 0.000826 -0.008167 0.003981 0.031683
#
#
# Mechanical properties :
#
#
# Convention : Reuss Voigt Hill
#
# Bulk Modulus (GPa) = 9.15627 20.86136 15.00882
# Shear Modulus (GPa) = 23.00793 32.51712 27.76252
#
# Velocity S-wave (km/s) = 3.13232 3.72377 3.44078
# Velocity P-wave (km/s) = 4.12147 5.23304 4.71016
#
# Compressibility (1/GPa) = 0.10921472
#
# Stress axis : x y z
#
# Youngs Moduli (GPa) = 24.38106 63.05917 42.49954
#
# Poissons Ratio (x) = -0.26421 -0.57720
# Poissons Ratio (y) = -0.10215 0.14303
# Poissons Ratio (z) = -0.33113 0.21223
#
# Static dielectric constant tensor:
#      x y z
#    x 1.937620 -0.005670 -0.093250 
#    y -0.005670 1.952000 0.120540 
#    z -0.093250 0.120540 1.973130 
# 
# From -- ./inp_files/619283.got.cif
#   From: 2010.05.17/outbox.cif.g08.bks.cpg/sg2_310_cif.got.tgz:619283.got - 2010.06.03 11:33:40.
