data_PCOD9010448
_publ_section_title
;
Structure prediction by ZEFSAII (Michael W. Deem and Ramdas Pophale) SiO2 
 PCOD9010448
Probable space group: P -1
;
_chemical_formula_sum "Si O2"
_cell_formula_units_Z 12
_cell_length_a 7.716193
_cell_length_b 10.991851
_cell_length_c 6.548215
_cell_angle_alpha 76.404075
_cell_angle_beta 73.212940
_cell_angle_gamma 69.617098
_cell_volume 492.799445
_symmetry_space_group_name_H-M "P -1"
_symmetry_group_IT_number 2
_symmetry_cell_setting 'triclinic'
loop_
_space_group_symop_operation_xyz
x,y,z
-x,-y,-z
loop_
_atom_site_type_symbol
_atom_site_label
_atom_site_fract_x
_atom_site_fract_y
_atom_site_fract_z
Si Si1 0.600410 0.778518 0.486547
Si Si2 0.095336 0.890816 0.244986
Si Si3 0.060878 0.390490 0.297396
Si Si4 0.284035 0.679355 0.571533
Si Si5 0.688628 0.022201 0.194305
Si Si6 0.907546 0.337409 0.974135
O O1 0.794604 0.695348 0.557277
O O2 0.494567 0.683024 0.454615
O O3 0.467394 0.862968 0.679946
O O4 0.630790 0.889329 0.283277
O O5 0.160244 0.819187 0.464019
O O6 0.253117 0.945673 0.064372
O O7 0.076245 0.776516 0.144035
O O8 0.887733 0.993367 0.262758
O O9 0.840556 0.412255 0.427814
O O10 0.066774 0.314714 0.107808
O O11 0.099177 0.525619 0.177972
O O12 0.274312 0.656486 0.825921
#
# Coordination Sequence:
#
# PCOD9010448 Si02
#       6
#     2   2   2   2   2   2
#     4  11  21  42  64  92 124 162 205 249 307 362
#     4  11  21  42  64  92 124 162 205 249 307 362
#     4   9  20  43  64  89 123 163 201 252 308 360
#     4  10  21  40  63  91 124 164 196 253 314 352
#     4  10  22  40  60  92 126 160 208 248 298 368
#     4   9  20  43  64  89 123 163 201 252 308 360
#
# _framework density 24.350677999999998
#
# number of rings (size 3 to 8) (size 9 to 14) (size 15 to 20)
#    1.000    1.000    3.333    0.000    0.000    2.667 
#   15.000    0.833    0.000    0.000    0.000    0.000 
#    0.000    0.000    0.000    0.000    0.000    0.000 
#
# Total GULP energy -66959.278511 kJ/mol
# GULP energy per Si atom -5579.939876 kJ/mol
# Density = 2.429525 g / cm^3
# Si number density = 24.350678 Si / 1000 Ang^3
#
#
#
# Elastic Constant Matrix: (Units=GPa)
#
#
# Indices 1 2 3 4 5 6 
#
# 1 114.9300 43.1914 44.6799 -18.6431 -17.4454 8.4447
# 2 43.1914 73.7259 49.8669 -15.7636 -9.0221 9.8164
# 3 44.6799 49.8669 125.9666 -40.6809 -36.8256 24.3686
# 4 -18.6431 -15.7636 -40.6809 44.2383 10.7248 -3.8688
# 5 -17.4454 -9.0221 -36.8256 10.7248 45.1133 -2.7712
# 6 8.4447 9.8164 24.3686 -3.8688 -2.7712 33.8345
#
#
#
# Elastic Compliance Matrix: (Units=1/GPa)
#
#
# Indices 1 2 3 4 5 6 
#
# 1 0.011787 -0.005844 -0.000424 0.001825 0.002578 -0.000522
# 2 -0.005844 0.021742 -0.008361 -0.001281 -0.004391 0.000666
# 3 -0.000424 -0.008361 0.020606 0.012134 0.011487 -0.009982
# 4 0.001825 -0.001281 0.012134 0.033122 0.002182 -0.004857
# 5 0.002578 -0.004391 0.011487 0.002182 0.030844 -0.004867
# 6 -0.000522 0.000666 -0.009982 -0.004857 -0.004867 0.035728
#
#
# Mechanical properties :
#
#
# Convention : Reuss Voigt Hill
#
# Bulk Modulus (GPa) = 40.19242 65.56655 52.87948
# Shear Modulus (GPa) = 26.12605 36.42952 31.27778
#
# Velocity S-wave (km/s) = 3.27908 3.87206 3.58784
# Velocity P-wave (km/s) = 5.55680 6.85382 6.23911
#
# Compressibility (1/GPa) = 0.02488032
#
# Stress axis : x y z
#
# Youngs Moduli (GPa) = 84.83588 45.99304 48.52852
#
# Poissons Ratio (x) = 0.26878 0.02056
# Poissons Ratio (y) = 0.49577 0.40572
# Poissons Ratio (z) = 0.03594 0.38452
#
# Static dielectric constant tensor:
#      x y z
#    x 1.945700 0.011080 -0.043350 
#    y 0.011080 1.903020 0.023310 
#    z -0.043350 0.023310 1.953320 
# 
# From -- ./inp_files/167359.got.cif
#   From: 2010.05.17/outbox.cif.g08.bks.cpg/sg2_84_cif.got.tgz:167359.got - 2010.06.03 11:33:40.
