data_PCOD9010015
_publ_section_title
;
Structure prediction by ZEFSAII (Michael W. Deem and Ramdas Pophale) SiO2 
 PCOD9010015
Probable space group: P -1
;
_chemical_formula_sum "Si O2"
_cell_formula_units_Z 16
_cell_length_a 7.424679
_cell_length_b 11.556531
_cell_length_c 20.296932
_cell_angle_alpha 148.060101
_cell_angle_beta 45.502119
_cell_angle_gamma 131.104816
_cell_volume 648.037378
_symmetry_space_group_name_H-M "P -1"
_symmetry_group_IT_number 2
_symmetry_cell_setting 'triclinic'
loop_
_space_group_symop_operation_xyz
x,y,z
-x,-y,-z
loop_
_atom_site_type_symbol
_atom_site_label
_atom_site_fract_x
_atom_site_fract_y
_atom_site_fract_z
Si Si1 0.569967 0.808733 0.794971
Si Si2 0.687740 0.728619 0.575781
Si Si3 0.853375 0.463897 0.590791
Si Si4 0.445844 0.267904 0.038357
Si Si5 0.421775 0.276697 0.694943
Si Si6 0.006615 0.402377 0.150551
Si Si7 0.912009 0.406203 0.906064
Si Si8 0.252500 0.905131 0.368634
O O1 0.660635 0.809325 0.696229
O O2 0.775944 0.706869 0.736202
O O3 0.295259 0.648430 0.786962
O O4 0.522484 0.049178 0.943358
O O5 0.500000 0.500000 0.500000
O O6 0.962345 0.644519 0.460511
O O7 0.637525 0.920334 0.631732
O O8 0.580845 0.305692 0.599844
O O9 0.000000 0.500000 0.500000
O O10 0.617527 0.308872 0.947433
O O11 0.513694 0.480454 0.170142
O O12 0.153109 0.249238 0.083200
O O13 0.112675 0.243129 0.754046
O O14 0.542227 0.121018 0.639632
O O15 0.146243 0.653817 0.251202
O O16 0.056167 0.391470 0.054986
O O17 0.000000 0.500000 0.000000
O O18 0.000000 0.000000 0.500000
#
# Coordination Sequence:
#
# PCOD9010015 Si02
#       8
#     2   2   2   2   2   2   2   2
#     4  11  23  41  64  95 131 173 209 261 328 384
#     4  11  24  42  66  96 129 163 216 266 323 385
#     4  10  22  42  64  91 135 168 211 266 322 384
#     4  10  23  39  65  95 129 168 216 268 319 377
#     4  10  21  42  67  95 130 169 220 265 319 387
#     4  11  22  41  65  92 130 169 215 265 318 383
#     4  10  21  40  61  90 127 170 210 260 318 379
#     4  11  22  40  68  93 125 170 216 269 318 380
#
# _framework density 24.689935999999999
#
# number of rings (size 3 to 8) (size 9 to 14) (size 15 to 20)
#    0.000    1.500    2.500    2.250    1.750    3.500 
#    0.000    5.000    0.000    0.000    0.000    0.000 
#    0.000    0.000    0.000    0.000    0.000    0.000 
#
# Total GULP energy -89362.555736 kJ/mol
# GULP energy per Si atom -5585.159733 kJ/mol
# Density = 2.463374 g / cm^3
# Si number density = 24.689936 Si / 1000 Ang^3
#
#
#
# Elastic Constant Matrix: (Units=GPa)
#
#
# Indices 1 2 3 4 5 6 
#
# 1 56.7666 14.1646 45.0820 7.7640 -22.7072 -6.9383
# 2 14.1646 120.4761 40.4133 0.0663 -4.5135 -16.3930
# 3 45.0820 40.4133 126.5153 25.5252 -20.1268 -4.0588
# 4 7.7640 0.0663 25.5252 52.2234 1.8068 -6.1905
# 5 -22.7072 -4.5135 -20.1268 1.8068 41.9190 1.7195
# 6 -6.9383 -16.3930 -4.0588 -6.1905 1.7195 43.8908
#
#
#
# Elastic Compliance Matrix: (Units=1/GPa)
#
#
# Indices 1 2 3 4 5 6 
#
# 1 0.029527 0.000335 -0.008611 -0.000172 0.011760 0.003512
# 2 0.000335 0.010014 -0.003782 0.002264 -0.000809 0.003795
# 3 -0.008611 -0.003782 0.013529 -0.005673 0.001767 -0.002392
# 4 -0.000172 0.002264 -0.005673 0.022500 -0.003691 0.003612
# 5 0.011760 -0.000809 0.001767 -0.003691 0.031147 -0.000021
# 6 0.003512 0.003795 -0.002392 0.003612 -0.000021 0.025045
#
#
# Mechanical properties :
#
#
# Convention : Reuss Voigt Hill
#
# Bulk Modulus (GPa) = 34.53469 55.89754 45.21612
# Shear Modulus (GPa) = 30.20597 41.21319 35.70958
#
# Velocity S-wave (km/s) = 3.50153 4.09005 3.80718
# Velocity P-wave (km/s) = 5.51047 6.70773 6.13836
#
# Compressibility (1/GPa) = 0.02895639
#
# Stress axis : x y z
#
# Youngs Moduli (GPa) = 33.86692 99.85549 73.91285
#
# Poissons Ratio (x) = -0.03348 0.63643
# Poissons Ratio (y) = -0.01135 0.27955
# Poissons Ratio (z) = 0.29161 0.37767
#
# Static dielectric constant tensor:
#      x y z
#    x 2.064140 -0.017000 0.002890 
#    y -0.017000 2.022780 -0.033180 
#    z 0.002890 -0.033180 2.000830 
# 
# From -- ./inp_files/607635.got.cif
#   From: 2010.05.17/outbox.cif.g08.bks.cpg/sg2_304_cif.got.tgz:607635.got - 2010.06.03 11:33:40.
