data_PCOD9010635
_publ_section_title
;
Structure prediction by ZEFSAII (Michael W. Deem and Ramdas Pophale) SiO2 
 PCOD9010635
Probable space group: P -1
;
_chemical_formula_sum "Si O2"
_cell_formula_units_Z 16
_cell_length_a 6.596785
_cell_length_b 12.848570
_cell_length_c 10.589058
_cell_angle_alpha 98.760437
_cell_angle_beta 83.281624
_cell_angle_gamma 133.257967
_cell_volume 645.917663
_symmetry_space_group_name_H-M "P -1"
_symmetry_group_IT_number 2
_symmetry_cell_setting 'triclinic'
loop_
_space_group_symop_operation_xyz
x,y,z
-x,-y,-z
loop_
_atom_site_type_symbol
_atom_site_label
_atom_site_fract_x
_atom_site_fract_y
_atom_site_fract_z
Si Si1 0.680188 0.210239 0.032568
Si Si2 0.264982 0.356430 0.365284
Si Si3 0.213675 0.130154 0.871385
Si Si4 0.739799 0.407636 0.598145
Si Si5 0.913203 0.705415 0.194833
Si Si6 0.248014 0.569533 0.753891
Si Si7 0.730645 0.166246 0.556094
Si Si8 0.072086 0.869893 0.860948
O O1 0.677698 0.311927 0.136914
O O2 0.658334 0.104154 0.111983
O O3 0.469344 0.165720 0.929345
O O4 0.954945 0.281487 0.946414
O O5 0.380412 0.516830 0.392056
O O6 0.513633 0.357847 0.357687
O O7 0.007840 0.257119 0.463856
O O8 0.123206 0.279835 0.226116
O O9 0.250904 0.242129 0.798460
O O10 0.083851 0.978939 0.792870
O O11 0.039873 0.118711 0.998621
O O12 0.614100 0.245902 0.568783
O O13 0.000000 0.500000 0.500000
O O14 0.926052 0.471759 0.724464
O O15 0.146271 0.804053 0.305385
O O16 0.737639 0.541407 0.210082
O O17 0.500000 0.000000 0.500000
#
# Coordination Sequence:
#
# PCOD9010635 Si02
#       8
#     2   2   2   2   2   2   2   2
#     4  11  21  40  69  98 136 178 216 282 333 399
#     4  11  22  43  73  95 132 175 231 274 330 396
#     4  10  22  41  63  99 140 175 222 274 338 399
#     4   9  21  42  68  97 133 172 223 277 326 396
#     4  10  25  42  64 100 142 173 222 276 340 402
#     4  11  22  41  69 102 132 175 226 273 335 399
#     4  10  24  47  70  99 132 181 226 276 343 399
#     4  10  21  40  64 100 129 177 229 271 330 398
#
# _framework density 24.770959000000001
#
# number of rings (size 3 to 8) (size 9 to 14) (size 15 to 20)
#    0.000    1.750    2.500    0.750    1.750    7.000 
#    4.500    1.875    0.000    0.000    0.000    0.000 
#    0.000    0.000    0.000    0.000    0.000    0.000 
#
# Total GULP energy -89219.878529 kJ/mol
# GULP energy per Si atom -5576.242408 kJ/mol
# Density = 2.471458 g / cm^3
# Si number density = 24.770959 Si / 1000 Ang^3
#
#
#
# Elastic Constant Matrix: (Units=GPa)
#
#
# Indices 1 2 3 4 5 6 
#
# 1 120.6932 47.8055 32.2419 4.8682 -13.3054 -23.5362
# 2 47.8055 136.5430 45.9243 21.2418 -5.6870 -38.6849
# 3 32.2419 45.9243 90.0307 25.8454 -19.8165 -20.0419
# 4 4.8682 21.2418 25.8454 38.0914 -2.9987 -2.1957
# 5 -13.3054 -5.6870 -19.8165 -2.9987 41.6231 -3.5827
# 6 -23.5362 -38.6849 -20.0419 -2.1957 -3.5827 37.9878
#
#
#
# Elastic Compliance Matrix: (Units=1/GPa)
#
#
# Indices 1 2 3 4 5 6 
#
# 1 0.010571 -0.002178 -0.001626 0.001402 0.002737 0.003813
# 2 -0.002178 0.012280 -0.001736 -0.004760 0.000675 0.010028
# 3 -0.001626 -0.001736 0.019126 -0.010723 0.008219 0.007470
# 4 0.001402 -0.004760 -0.010723 0.035276 -0.003448 -0.007923
# 5 0.002737 0.000675 0.008219 -0.003448 0.029457 0.009298
# 6 0.003813 0.010028 0.007470 -0.007923 0.009298 0.043259
#
#
# Mechanical properties :
#
#
# Convention : Reuss Voigt Hill
#
# Bulk Modulus (GPa) = 32.36680 66.57891 49.47286
# Shear Modulus (GPa) = 29.18015 38.29348 33.73682
#
# Velocity S-wave (km/s) = 3.43592 3.93606 3.69446
# Velocity P-wave (km/s) = 5.36987 6.89876 6.18177
#
# Compressibility (1/GPa) = 0.03089585
#
# Stress axis : x y z
#
# Youngs Moduli (GPa) = 94.59595 81.43179 52.28535
#
# Poissons Ratio (x) = 0.17737 0.08502
# Poissons Ratio (y) = 0.20604 0.09079
# Poissons Ratio (z) = 0.15383 0.14140
#
# Static dielectric constant tensor:
#      x y z
#    x 2.102260 0.072450 0.089130 
#    y 0.072450 2.063810 -0.082300 
#    z 0.089130 -0.082300 2.062230 
# 
# From -- ./inp_files/364790.got.cif
#   From: 2010.05.17/outbox.cif.g08.bks.cpg/sg2_183_cif.got.tgz:364790.got - 2010.06.03 11:33:40.
