data_PCOD9010076
_publ_section_title
;
Structure prediction by ZEFSAII (Michael W. Deem and Ramdas Pophale) SiO2 
 PCOD9010076
Probable space group: P -1
;
_chemical_formula_sum "Si O2"
_cell_formula_units_Z 16
_cell_length_a 13.242312
_cell_length_b 33.120026
_cell_length_c 10.008216
_cell_angle_alpha 29.768566
_cell_angle_beta 48.701591
_cell_angle_gamma 26.745622
_cell_volume 840.401861
_symmetry_space_group_name_H-M "P -1"
_symmetry_group_IT_number 2
_symmetry_cell_setting 'triclinic'
loop_
_space_group_symop_operation_xyz
x,y,z
-x,-y,-z
loop_
_atom_site_type_symbol
_atom_site_label
_atom_site_fract_x
_atom_site_fract_y
_atom_site_fract_z
Si Si1 0.756861 0.306018 0.067815
Si Si2 0.624221 0.276868 0.752851
Si Si3 0.104246 0.010763 0.777102
Si Si4 0.322625 0.047689 0.905778
Si Si5 0.937690 0.126574 0.158482
Si Si6 0.815715 0.354030 0.319930
Si Si7 0.898201 0.393200 0.845827
Si Si8 0.526790 0.906543 0.838913
O O1 0.869623 0.217112 0.084885
O O2 0.445483 0.478331 0.860265
O O3 0.879322 0.327193 0.949188
O O4 0.865732 0.182703 0.428539
O O5 0.765370 0.282890 0.544056
O O6 0.335861 0.427427 0.511323
O O7 0.745719 0.124666 0.068754
O O8 0.679543 0.266772 0.888065
O O9 0.301316 0.966327 0.809187
O O10 0.000000 0.000000 0.000000
O O11 0.072474 0.228521 0.548320
O O12 0.482022 0.946440 0.920759
O O13 0.182118 0.040971 0.112154
O O14 0.500000 0.000000 0.000000
O O15 0.000000 0.000000 0.500000
O O16 0.850994 0.380952 0.070290
O O17 0.187186 0.278008 0.909309
O O18 0.500000 0.000000 0.500000
#
# Coordination Sequence:
#
# PCOD9010076 Si02
#       8
#     2   2   2   2   2   2   2   2
#     4  11  21  36  68  90 126 173 208 260 324 373
#     4  10  22  37  61  92 127 162 210 265 313 363
#     4  12  22  38  64  92 124 168 216 260 315 372
#     4  11  24  41  65  93 130 168 212 264 316 378
#     4  11  23  41  62  93 130 167 215 257 312 385
#     4  10  21  40  62 100 125 160 217 266 311 380
#     4  11  21  40  63  95 130 159 214 271 313 371
#     4  12  24  40  66  96 127 171 217 257 319 385
#
# _framework density 19.038511
#
# number of rings (size 3 to 8) (size 9 to 14) (size 15 to 20)
#    0.000    1.000    3.750    5.250    0.000    6.000 
#    0.000    0.000    0.000    1.500    0.000    0.000 
#    0.000    0.000    0.000    0.000    0.000    0.000 
#
# Total GULP energy -89274.070757 kJ/mol
# GULP energy per Si atom -5579.629422 kJ/mol
# Density = 1.899518 g / cm^3
# Si number density = 19.038511 Si / 1000 Ang^3
#
#
#
# Elastic Constant Matrix: (Units=GPa)
#
#
# Indices 1 2 3 4 5 6 
#
# 1 78.3424 27.4462 27.5087 8.8620 13.9692 2.3621
# 2 27.4462 93.2970 24.4178 7.7419 7.3800 -3.0410
# 3 27.5087 24.4178 87.5660 -8.9834 13.7222 -9.6715
# 4 8.8620 7.7419 -8.9834 34.6430 -1.4238 7.7983
# 5 13.9692 7.3800 13.7222 -1.4238 35.7521 -5.6386
# 6 2.3621 -3.0410 -9.6715 7.7983 -5.6386 38.5167
#
#
#
# Elastic Compliance Matrix: (Units=1/GPa)
#
#
# Indices 1 2 3 4 5 6 
#
# 1 0.016808 -0.003130 -0.004355 -0.004437 -0.004769 -0.002171
# 2 -0.003130 0.012647 -0.002682 -0.002976 -0.000307 0.001075
# 3 -0.004355 -0.002682 0.014742 0.004890 -0.002837 0.002352
# 4 -0.004437 -0.002976 0.004890 0.033169 0.000954 -0.005311
# 5 -0.004769 -0.000307 -0.002837 0.000954 0.031654 0.003997
# 6 -0.002171 0.001075 0.002352 -0.005311 0.003997 0.028432
#
#
# Mechanical properties :
#
#
# Convention : Reuss Voigt Hill
#
# Bulk Modulus (GPa) = 41.90535 46.43899 44.17217
# Shear Modulus (GPa) = 30.16768 33.77120 31.96944
#
# Velocity S-wave (km/s) = 3.98497 4.21626 4.10225
# Velocity P-wave (km/s) = 6.57510 6.93885 6.75942
#
# Compressibility (1/GPa) = 0.02386330
#
# Stress axis : x y z
#
# Youngs Moduli (GPa) = 59.49574 79.06733 67.83366
#
# Poissons Ratio (x) = 0.24749 0.29542
# Poissons Ratio (y) = 0.18623 0.18192
# Poissons Ratio (z) = 0.25910 0.21204
#
# Static dielectric constant tensor:
#      x y z
#    x 1.594800 -0.094120 0.064650 
#    y -0.094120 1.535700 0.064480 
#    z 0.064650 0.064480 1.631690 
# 
# From -- ./inp_files/286095.got.cif
#   From: 2010.05.17/outbox.cif.g08.bks.cpg/sg2_144_cif.got.tgz:286095.got - 2010.06.03 11:33:40.
