data_PCOD9010389
_publ_section_title
;
Structure prediction by ZEFSAII (Michael W. Deem and Ramdas Pophale) SiO2 
 PCOD9010389
Probable space group: P -1
;
_chemical_formula_sum "Si O2"
_cell_formula_units_Z 14
_cell_length_a 17.623293
_cell_length_b 14.935468
_cell_length_c 8.878815
_cell_angle_alpha 56.320686
_cell_angle_beta 136.200676
_cell_angle_gamma 156.112593
_cell_volume 606.921913
_symmetry_space_group_name_H-M "P -1"
_symmetry_group_IT_number 2
_symmetry_cell_setting 'triclinic'
loop_
_space_group_symop_operation_xyz
x,y,z
-x,-y,-z
loop_
_atom_site_type_symbol
_atom_site_label
_atom_site_fract_x
_atom_site_fract_y
_atom_site_fract_z
Si Si1 0.771805 0.927058 0.858012
Si Si2 0.947285 0.284099 0.593568
Si Si3 0.476517 0.682058 0.972739
Si Si4 0.531653 0.055653 0.818334
Si Si5 0.292610 0.375571 0.223928
Si Si6 0.860512 0.154780 0.240461
Si Si7 0.349770 0.586836 0.364374
O O1 0.877992 0.133197 0.756628
O O2 0.606589 0.792098 0.895390
O O3 0.587864 0.738513 0.635141
O O4 0.024172 0.087697 0.106549
O O5 0.885133 0.190975 0.420773
O O6 0.237693 0.548700 0.759199
O O7 0.739137 0.191370 0.409835
O O8 0.378448 0.482139 0.079756
O O9 0.677801 0.899996 0.174331
O O10 0.610828 0.249384 0.733153
O O11 0.740917 0.154041 0.984492
O O12 0.500000 0.000000 0.000000
O O13 0.500000 0.500000 0.500000
O O14 0.280921 0.477853 0.207003
O O15 0.124274 0.365608 0.355709
#
# Coordination Sequence:
#
# PCOD9010389 Si02
#       7
#     2   2   2   2   2   2   2
#     4  10  21  40  63  89 118 157 198 245 305 352
#     4   9  20  37  58  86 123 161 200 240 289 349
#     4  11  21  39  65  86 123 158 196 248 298 351
#     4   9  19  35  59  89 121 162 204 236 288 348
#     4  11  25  43  65  90 115 154 204 250 302 360
#     4  11  20  37  63  90 121 167 197 239 295 350
#     4  11  21  41  62  87 126 160 195 249 297 352
#
# _framework density 23.067216999999999
#
# number of rings (size 3 to 8) (size 9 to 14) (size 15 to 20)
#    0.000    1.714    2.857    3.000    0.000    1.714 
#    0.000    7.857    0.000    0.000    0.000    0.000 
#    0.000    0.000    0.000    0.000    0.000    0.000 
#
# Total GULP energy -78087.496406 kJ/mol
# GULP energy per Si atom -5577.678315 kJ/mol
# Density = 2.301472 g / cm^3
# Si number density = 23.067217 Si / 1000 Ang^3
#
#
#
# Elastic Constant Matrix: (Units=GPa)
#
#
# Indices 1 2 3 4 5 6 
#
# 1 41.3222 32.3957 22.2233 0.4164 -6.9936 15.5514
# 2 32.3957 115.8213 43.3556 24.1424 -0.6960 33.8047
# 3 22.2233 43.3556 140.7634 36.1467 7.7475 18.4293
# 4 0.4164 24.1424 36.1467 50.2168 11.2694 2.5882
# 5 -6.9936 -0.6960 7.7475 11.2694 35.7615 2.4430
# 6 15.5514 33.8047 18.4293 2.5882 2.4430 34.6456
#
#
#
# Elastic Compliance Matrix: (Units=1/GPa)
#
#
# Indices 1 2 3 4 5 6 
#
# 1 0.036166 -0.007331 -0.004110 0.005067 0.006753 -0.007749
# 2 -0.007331 0.015634 -0.000499 -0.006949 0.001942 -0.011317
# 3 -0.004110 -0.000499 0.009961 -0.006609 -0.000723 -0.002422
# 4 0.005067 -0.006949 -0.006609 0.029298 -0.007379 0.006353
# 5 0.006753 0.001942 -0.000723 -0.007379 0.032231 -0.006262
# 6 -0.007749 -0.011317 -0.002422 0.006353 -0.006262 0.044639
#
#
# Mechanical properties :
#
#
# Convention : Reuss Voigt Hill
#
# Bulk Modulus (GPa) = 26.39848 54.87290 40.63569
# Shear Modulus (GPa) = 24.45740 37.45361 30.95550
#
# Velocity S-wave (km/s) = 3.25971 4.03385 3.66726
# Velocity P-wave (km/s) = 5.06326 6.74803 5.96542
#
# Compressibility (1/GPa) = 0.03788096
#
# Stress axis : x y z
#
# Youngs Moduli (GPa) = 27.65022 63.96138 100.39537
#
# Poissons Ratio (x) = 0.46891 0.41263
# Poissons Ratio (y) = 0.20271 0.05008
# Poissons Ratio (z) = 0.11364 0.03191
#
# Static dielectric constant tensor:
#      x y z
#    x 1.910910 -0.015430 0.086320 
#    y -0.015430 1.873600 0.020320 
#    z 0.086320 0.020320 1.912040 
# 
# From -- ./inp_files/315452.got.cif
#   From: 2010.05.17/outbox.cif.g08.bks.cpg/sg2_158_cif.got.tgz:315452.got - 2010.06.03 11:33:40.
