data_PCOD9010879
_publ_section_title
;
Structure prediction by ZEFSAII (Michael W. Deem and Ramdas Pophale) SiO2 
 PCOD9010879
Probable space group: P -1
;
_chemical_formula_sum "Si O2"
_cell_formula_units_Z 16
_cell_length_a 7.287825
_cell_length_b 8.113953
_cell_length_c 19.626125
_cell_angle_alpha 133.757011
_cell_angle_beta 128.798463
_cell_angle_gamma 65.190781
_cell_volume 653.094193
_symmetry_space_group_name_H-M "P -1"
_symmetry_group_IT_number 2
_symmetry_cell_setting 'triclinic'
loop_
_space_group_symop_operation_xyz
x,y,z
-x,-y,-z
loop_
_atom_site_type_symbol
_atom_site_label
_atom_site_fract_x
_atom_site_fract_y
_atom_site_fract_z
Si Si1 0.835059 0.575688 0.308390
Si Si2 0.350767 0.111734 0.173107
Si Si3 0.202400 0.955927 0.816087
Si Si4 0.833341 0.965606 0.026761
Si Si5 0.852117 0.718531 0.505395
Si Si6 0.641145 0.406619 0.624773
Si Si7 0.315319 0.516770 0.898337
Si Si8 0.904474 0.163929 0.717714
O O1 0.808489 0.311074 0.248349
O O2 0.809416 0.708254 0.411360
O O3 0.665867 0.591035 0.206024
O O4 0.109024 0.618724 0.361558
O O5 0.600748 0.001730 0.184038
O O6 0.385684 0.326421 0.290980
O O7 0.117188 0.967038 0.097810
O O8 0.272239 0.192172 0.101740
O O9 0.270356 0.083794 0.937747
O O10 0.941626 0.030231 0.757422
O O11 0.763438 0.223022 0.061192
O O12 0.608542 0.695918 0.485941
O O13 0.000000 0.500000 0.500000
O O14 0.966527 0.961584 0.621150
O O15 0.677082 0.274944 0.666996
O O16 0.086391 0.374298 0.828660
O O17 0.500000 0.500000 0.000000
#
# Coordination Sequence:
#
# PCOD9010879 Si02
#       8
#     2   2   2   2   2   2   2   2
#     4  10  22  42  68  94 129 174 220 257 328 390
#     4  11  19  37  66  86 124 173 214 263 312 382
#     4  11  20  40  64  91 127 169 219 258 317 389
#     4  10  22  38  63  92 126 174 223 255 318 387
#     4  12  24  44  71  97 126 173 225 265 322 397
#     4  11  23  43  65  94 136 165 210 283 324 374
#     4  10  21  40  64  94 135 170 208 267 326 376
#     4  11  23  42  63  99 134 165 215 276 325 373
#
# _framework density 24.498760999999998
#
# number of rings (size 3 to 8) (size 9 to 14) (size 15 to 20)
#    0.000    1.250    6.250    1.500    0.000    3.500 
#    0.000    5.625    0.000    0.000    0.000    0.000 
#    0.000    0.000    0.000    0.000    0.000    0.000 
#
# Total GULP energy -89158.778016 kJ/mol
# GULP energy per Si atom -5572.423626 kJ/mol
# Density = 2.444300 g / cm^3
# Si number density = 24.498761 Si / 1000 Ang^3
#
#
#
# Elastic Constant Matrix: (Units=GPa)
#
#
# Indices 1 2 3 4 5 6 
#
# 1 122.9740 15.1086 37.3350 -8.3895 18.0093 -4.1594
# 2 15.1086 56.1062 12.3508 -8.2403 14.0473 -3.4583
# 3 37.3350 12.3508 102.5747 -10.9207 3.3068 6.9435
# 4 -8.3895 -8.2403 -10.9207 37.8760 1.9528 1.7923
# 5 18.0093 14.0473 3.3068 1.9528 45.6371 -10.8805
# 6 -4.1594 -3.4583 6.9435 1.7923 -10.8805 17.1881
#
#
#
# Elastic Compliance Matrix: (Units=1/GPa)
#
#
# Indices 1 2 3 4 5 6 
#
# 1 0.009834 -0.000890 -0.003359 0.001102 -0.003050 0.001512
# 2 -0.000890 0.020516 -0.001540 0.004113 -0.005947 0.000341
# 3 -0.003359 -0.001540 0.011926 0.002718 -0.000783 -0.006720
# 4 0.001102 0.004113 0.002718 0.028837 -0.004534 -0.005881
# 5 -0.003050 -0.005947 -0.000783 -0.004534 0.029354 0.017436
# 6 0.001512 0.000341 -0.006720 -0.005881 0.017436 0.072979
#
#
# Mechanical properties :
#
#
# Convention : Reuss Voigt Hill
#
# Bulk Modulus (GPa) = 32.57465 45.69377 39.13421
# Shear Modulus (GPa) = 25.60735 34.59760 30.10247
#
# Velocity S-wave (km/s) = 3.23654 3.76203 3.50913
# Velocity P-wave (km/s) = 5.22420 6.12882 5.69450
#
# Compressibility (1/GPa) = 0.03069872
#
# Stress axis : x y z
#
# Youngs Moduli (GPa) = 101.68930 48.74255 83.84718
#
# Poissons Ratio (x) = 0.04339 0.28163
# Poissons Ratio (y) = 0.09051 0.12911
# Poissons Ratio (z) = 0.34156 0.07506
#
# Static dielectric constant tensor:
#      x y z
#    x 2.036670 0.008880 -0.018290 
#    y 0.008880 1.991400 -0.073940 
#    z -0.018290 -0.073940 2.001020 
# 
# From -- ./inp_files/587550.got.cif
#   From: 2010.05.17/outbox.cif.g08.bks.cpg/sg2_294_cif.got.tgz:587550.got - 2010.06.03 11:33:40.
