data_PCOD9010054
_publ_section_title
;
Structure prediction by ZEFSAII (Michael W. Deem and Ramdas Pophale) SiO2 
 PCOD9010054
Probable space group: P -1
;
_chemical_formula_sum "Si O2"
_cell_formula_units_Z 16
_cell_length_a 8.980531
_cell_length_b 21.098743
_cell_length_c 5.090850
_cell_angle_alpha 63.383433
_cell_angle_beta 125.203213
_cell_angle_gamma 120.266289
_cell_volume 663.592703
_symmetry_space_group_name_H-M "P -1"
_symmetry_group_IT_number 2
_symmetry_cell_setting 'triclinic'
loop_
_space_group_symop_operation_xyz
x,y,z
-x,-y,-z
loop_
_atom_site_type_symbol
_atom_site_label
_atom_site_fract_x
_atom_site_fract_y
_atom_site_fract_z
Si Si1 0.416342 0.296997 0.395322
Si Si2 0.771758 0.928716 0.189729
Si Si3 0.051960 0.614397 0.160460
Si Si4 0.625634 0.196773 0.085597
Si Si5 0.019177 0.777777 0.921404
Si Si6 0.298119 0.661125 0.803753
Si Si7 0.394912 0.454154 0.228884
Si Si8 0.999084 0.908051 0.964733
O O1 0.204797 0.239448 0.342065
O O2 0.481532 0.320461 0.116166
O O3 0.424194 0.373325 0.403652
O O4 0.556589 0.254401 0.725069
O O5 0.835958 0.913548 0.576539
O O6 0.560168 0.877820 0.971372
O O7 0.920354 0.912263 0.165873
O O8 0.816552 0.018076 0.042142
O O9 0.177298 0.606604 0.550541
O O10 0.024617 0.693130 0.077366
O O11 0.834623 0.560375 0.990284
O O12 0.179617 0.621960 0.014390
O O13 0.692629 0.251288 0.305876
O O14 0.807317 0.181410 0.173105
O O15 0.041484 0.831860 0.092075
O O16 0.500000 0.500000 0.500000
O O17 0.500000 0.500000 0.000000
#
# Coordination Sequence:
#
# PCOD9010054 Si02
#       8
#     2   2   2   2   2   2   2   2
#     4  11  23  44  70  96 130 175 215 269 329 386
#     4  10  22  39  63  90 135 171 222 267 326 391
#     4  10  23  42  68  97 131 167 219 267 316 392
#     4  11  23  40  68  99 132 170 224 271 327 382
#     4  10  21  40  66  97 127 171 220 271 319 385
#     4  11  21  42  66  97 130 166 220 268 317 380
#     4  11  26  47  70 100 137 173 214 267 328 393
#     4  10  21  40  61  94 127 179 216 268 331 380
#
# _framework density 24.111177999999999
#
# number of rings (size 3 to 8) (size 9 to 14) (size 15 to 20)
#    0.000    1.500    3.750    1.500    1.750    2.500 
#    4.500    3.750    0.000    5.250    0.000    0.000 
#    0.000    0.000    0.000    0.000    0.000    0.000 
#
# Total GULP energy -89275.237162 kJ/mol
# GULP energy per Si atom -5579.702323 kJ/mol
# Density = 2.405630 g / cm^3
# Si number density = 24.111178 Si / 1000 Ang^3
#
#
#
# Elastic Constant Matrix: (Units=GPa)
#
#
# Indices 1 2 3 4 5 6 
#
# 1 110.2550 37.4390 39.9466 19.0173 14.5655 20.0024
# 2 37.4390 143.4365 37.5718 28.3787 2.9479 15.8967
# 3 39.9466 37.5718 81.6123 15.6850 -10.8936 10.6727
# 4 19.0173 28.3787 15.6850 36.4217 -2.0816 7.6823
# 5 14.5655 2.9479 -10.8936 -2.0816 32.8642 13.1931
# 6 20.0024 15.8967 10.6727 7.6823 13.1931 53.5538
#
#
#
# Elastic Compliance Matrix: (Units=1/GPa)
#
#
# Indices 1 2 3 4 5 6 
#
# 1 0.013592 -0.000803 -0.006450 -0.003927 -0.007922 -0.001038
# 2 -0.000803 0.009104 -0.002871 -0.005375 -0.001473 -0.000696
# 3 -0.006450 -0.002871 0.018735 -0.001269 0.010390 -0.002850
# 4 -0.003927 -0.005375 -0.001269 0.035179 0.005244 -0.003023
# 5 -0.007922 -0.001473 0.010390 0.005244 0.041746 -0.009711
# 6 -0.001038 -0.000696 -0.002850 -0.003023 -0.009711 0.022661
#
#
# Mechanical properties :
#
#
# Convention : Reuss Voigt Hill
#
# Bulk Modulus (GPa) = 47.20663 62.80208 55.00436
# Shear Modulus (GPa) = 29.70433 39.25769 34.48101
#
# Velocity S-wave (km/s) = 3.51376 4.03947 3.78575
# Velocity P-wave (km/s) = 6.00693 6.91808 6.47854
#
# Compressibility (1/GPa) = 0.02118346
#
# Stress axis : x y z
#
# Youngs Moduli (GPa) = 73.57425 109.83814 53.37599
#
# Poissons Ratio (x) = 0.08824 0.34427
# Poissons Ratio (y) = 0.05911 0.15322
# Poissons Ratio (z) = 0.47454 0.31530
#
# Static dielectric constant tensor:
#      x y z
#    x 1.882540 0.008540 0.008130 
#    y 0.008540 1.951050 -0.024760 
#    z 0.008130 -0.024760 2.080630 
# 
# From -- ./inp_files/51218.got.cif
#   From: 2010.05.17/outbox.cif.g08.bks.cpg/sg2_26_cif.got.tgz:51218.got - 2010.06.03 11:33:40.
