data_PCOD9010682
_publ_section_title
;
Structure prediction by ZEFSAII (Michael W. Deem and Ramdas Pophale) SiO2 
 PCOD9010682
Probable space group: P -1
;
_chemical_formula_sum "Si O2"
_cell_formula_units_Z 16
_cell_length_a 6.638879
_cell_length_b 21.080958
_cell_length_c 9.244894
_cell_angle_alpha 43.538270
_cell_angle_beta 131.029353
_cell_angle_gamma 121.757747
_cell_volume 669.165601
_symmetry_space_group_name_H-M "P -1"
_symmetry_group_IT_number 2
_symmetry_cell_setting 'triclinic'
loop_
_space_group_symop_operation_xyz
x,y,z
-x,-y,-z
loop_
_atom_site_type_symbol
_atom_site_label
_atom_site_fract_x
_atom_site_fract_y
_atom_site_fract_z
Si Si1 0.593584 0.742390 0.471495
Si Si2 0.222789 0.901340 0.044014
Si Si3 0.375330 0.142690 0.204658
Si Si4 0.819885 0.315684 0.137304
Si Si5 0.482508 0.999700 0.738233
Si Si6 0.482610 0.379087 0.628899
Si Si7 0.757137 0.554609 0.337597
Si Si8 0.431478 0.598641 0.870160
O O1 0.470646 0.838442 0.271238
O O2 0.547595 0.708309 0.342648
O O3 0.433685 0.670104 0.623709
O O4 0.904154 0.730395 0.668180
O O5 0.261131 0.962694 0.105353
O O6 0.935486 0.843378 0.992210
O O7 0.266965 0.963428 0.818182
O O8 0.581483 0.232949 0.170376
O O9 0.397637 0.081098 0.461132
O O10 0.461826 0.082415 0.208739
O O11 0.806894 0.382786 0.160608
O O12 0.740673 0.372410 0.865158
O O13 0.525016 0.470931 0.399535
O O14 0.237451 0.388752 0.606024
O O15 0.000000 0.500000 0.500000
O O16 0.681432 0.617592 0.066892
O O17 0.500000 0.500000 0.000000
#
# Coordination Sequence:
#
# PCOD9010682 Si02
#       8
#     2   2   2   2   2   2   2   2
#     4  12  26  43  69  99 141 179 228 282 344 401
#     4  11  25  44  72 105 137 178 225 276 337 407
#     4  11  24  46  72 101 141 179 223 276 337 407
#     4  11  27  44  65 101 140 179 227 282 345 403
#     4  10  24  44  73 105 136 176 224 276 334 405
#     4  10  23  41  61  92 126 171 219 279 330 397
#     4  10  21  40  64  88 121 166 225 279 338 390
#     4  11  24  43  65  96 129 180 233 287 337 399
#
# _framework density 23.910371999999999
#
# number of rings (size 3 to 8) (size 9 to 14) (size 15 to 20)
#    0.000    1.250    1.250    3.000    1.750   14.500 
#    0.000    0.000    0.000    0.000    0.000    0.000 
#    0.000    0.000    0.000    0.000    0.000    0.000 
#
# Total GULP energy -89450.998514 kJ/mol
# GULP energy per Si atom -5590.687407 kJ/mol
# Density = 2.385595 g / cm^3
# Si number density = 23.910372 Si / 1000 Ang^3
#
#
#
# Elastic Constant Matrix: (Units=GPa)
#
#
# Indices 1 2 3 4 5 6 
#
# 1 87.7897 35.4240 31.2498 11.1730 9.1608 -14.4629
# 2 35.4240 93.7386 23.9091 5.0627 -9.1546 -21.4603
# 3 31.2498 23.9091 86.4170 4.3661 -5.7321 -14.7960
# 4 11.1730 5.0627 4.3661 41.3161 -4.3009 -3.2781
# 5 9.1608 -9.1546 -5.7321 -4.3009 38.8011 6.8017
# 6 -14.4629 -21.4603 -14.7960 -3.2781 6.8017 41.0132
#
#
#
# Elastic Compliance Matrix: (Units=1/GPa)
#
#
# Indices 1 2 3 4 5 6 
#
# 1 0.016575 -0.005017 -0.004436 -0.003896 -0.006605 0.002404
# 2 -0.005017 0.014255 -0.001105 0.000478 0.003608 0.004731
# 3 -0.004436 -0.001105 0.014065 0.000306 0.002451 0.002550
# 4 -0.003896 0.000478 0.000306 0.025598 0.003846 0.000395
# 5 -0.006605 0.003608 0.002451 0.003846 0.029704 -0.004176
# 6 0.002404 0.004731 0.002550 0.000395 -0.004176 0.029350
#
#
# Mechanical properties :
#
#
# Convention : Reuss Voigt Hill
#
# Bulk Modulus (GPa) = 42.04920 49.90125 45.97523
# Shear Modulus (GPa) = 31.52816 36.05022 33.78919
#
# Velocity S-wave (km/s) = 3.63519 3.88715 3.76328
# Velocity P-wave (km/s) = 5.93665 6.40797 6.17681
#
# Compressibility (1/GPa) = 0.02378166
#
# Stress axis : x y z
#
# Youngs Moduli (GPa) = 60.33099 70.14929 71.09783
#
# Poissons Ratio (x) = 0.35193 0.31536
# Poissons Ratio (y) = 0.30267 0.07853
# Poissons Ratio (z) = 0.26760 0.07749
#
# Static dielectric constant tensor:
#      x y z
#    x 1.938730 -0.008620 0.008990 
#    y -0.008620 1.958060 -0.002710 
#    z 0.008990 -0.002710 1.883870 
# 
# From -- ./inp_files/141186.got.cif
#   From: 2010.05.17/outbox.cif.g08.bks.cpg/sg2_71_cif.got.tgz:141186.got - 2010.06.03 11:33:40.
