data_PCOD9010864
_publ_section_title
;
Structure prediction by ZEFSAII (Michael W. Deem and Ramdas Pophale) SiO2 
 PCOD9010864
Probable space group: P -1
;
_chemical_formula_sum "Si O2"
_cell_formula_units_Z 16
_cell_length_a 5.890639
_cell_length_b 17.175581
_cell_length_c 9.366621
_cell_angle_alpha 94.682638
_cell_angle_beta 96.982915
_cell_angle_gamma 50.241601
_cell_volume 723.105736
_symmetry_space_group_name_H-M "P -1"
_symmetry_group_IT_number 2
_symmetry_cell_setting 'triclinic'
loop_
_space_group_symop_operation_xyz
x,y,z
-x,-y,-z
loop_
_atom_site_type_symbol
_atom_site_label
_atom_site_fract_x
_atom_site_fract_y
_atom_site_fract_z
Si Si1 0.397857 0.748059 0.971601
Si Si2 0.574329 0.417332 0.879985
Si Si3 0.297600 0.403789 0.584735
Si Si4 0.135563 0.037532 0.369451
Si Si5 0.659904 0.843992 0.481145
Si Si6 0.205040 0.281271 0.779105
Si Si7 0.504157 0.754005 0.660717
Si Si8 0.803267 0.963662 0.943144
O O1 0.548192 0.718234 0.822115
O O2 0.048427 0.841047 0.951134
O O3 0.465177 0.653371 0.043763
O O4 0.533135 0.781704 0.096280
O O5 0.421160 0.441201 0.713966
O O6 0.914164 0.355154 0.857969
O O7 0.500000 0.500000 0.000000
O O8 0.243337 0.343606 0.679410
O O9 0.496715 0.320541 0.459550
O O10 0.000000 0.500000 0.500000
O O11 0.229000 0.095467 0.464515
O O12 0.283884 0.007352 0.222350
O O13 0.790313 0.128111 0.329342
O O14 0.301616 0.928302 0.438537
O O15 0.813304 0.787070 0.337844
O O16 0.722026 0.768062 0.600092
O O17 0.500000 0.000000 0.000000
O O18 0.000000 0.000000 0.000000
#
# Coordination Sequence:
#
# PCOD9010864 Si02
#       8
#     2   2   2   2   2   2   2   2
#     4  10  25  42  70  98 137 186 227 304 355 435
#     4  11  26  44  68 100 132 184 236 295 369 434
#     4  10  24  44  67  97 130 176 225 297 356 436
#     4  10  22  38  65  95 133 176 232 281 347 424
#     4  10  21  40  64  94 128 180 220 293 342 430
#     4  10  23  44  68  95 135 175 232 284 364 424
#     4  10  22  41  63  94 132 172 232 283 360 418
#     4  11  26  44  69 108 148 192 243 296 363 434
#
# _framework density 22.126777000000001
#
# number of rings (size 3 to 8) (size 9 to 14) (size 15 to 20)
#    0.000    1.750    0.000    1.875   10.500    2.500 
#    9.000    0.000    0.000    0.000    0.000    0.000 
#    0.000    0.000    0.000    0.000    0.000    0.000 
#
# Total GULP energy -89099.532860 kJ/mol
# GULP energy per Si atom -5568.720804 kJ/mol
# Density = 2.207641 g / cm^3
# Si number density = 22.126777 Si / 1000 Ang^3
#
#
#
# Elastic Constant Matrix: (Units=GPa)
#
#
# Indices 1 2 3 4 5 6 
#
# 1 32.7551 2.6766 35.0480 10.1707 -10.6054 -5.0313
# 2 2.6766 63.8415 49.7375 9.8328 -3.3917 -6.3840
# 3 35.0480 49.7375 165.3019 7.5147 -24.9671 7.1657
# 4 10.1707 9.8328 7.5147 49.9820 -3.5559 7.4427
# 5 -10.6054 -3.3917 -24.9671 -3.5559 29.2500 9.4929
# 6 -5.0313 -6.3840 7.1657 7.4427 9.4929 21.1333
#
#
#
# Elastic Compliance Matrix: (Units=1/GPa)
#
#
# Indices 1 2 3 4 5 6 
#
# 1 0.060383 0.020068 -0.020863 -0.019354 -0.008290 0.038052
# 2 0.020068 0.032932 -0.017375 -0.013970 -0.016064 0.032753
# 3 -0.020863 -0.017375 0.018998 0.010153 0.016902 -0.027825
# 4 -0.019354 -0.013970 0.010153 0.030395 0.013089 -0.028854
# 5 -0.008290 -0.016064 0.016902 0.013089 0.059598 -0.043938
# 6 0.038052 0.032753 -0.027825 -0.028854 -0.043938 0.105605
#
#
# Mechanical properties :
#
#
# Convention : Reuss Voigt Hill
#
# Bulk Modulus (GPa) = 13.16234 48.53584 30.84909
# Shear Modulus (GPa) = 13.52899 31.70215 22.61557
#
# Velocity S-wave (km/s) = 2.47539 3.78928 3.20048
# Velocity P-wave (km/s) = 3.75920 6.41309 5.25640
#
# Compressibility (1/GPa) = 0.07597432
#
# Stress axis : x y z
#
# Youngs Moduli (GPa) = 16.56087 30.36546 52.63614
#
# Poissons Ratio (x) = -0.60936 1.09812
# Poissons Ratio (y) = -0.33234 0.91454
# Poissons Ratio (z) = 0.34550 0.52759
#
# Static dielectric constant tensor:
#      x y z
#    x 1.860730 0.056480 0.081440 
#    y 0.056480 1.487450 -0.180210 
#    z 0.081440 -0.180210 1.770860 
# 
# From -- ./inp_files/122924.got.cif
#   From: 2010.05.17/outbox.cif.g08.bks.cpg/sg2_62_cif.got.tgz:122924.got - 2010.06.03 11:33:40.
