data_PCOD9010121
_publ_section_title
;
Structure prediction by ZEFSAII (Michael W. Deem and Ramdas Pophale) SiO2 
 PCOD9010121
Probable space group: P -1
;
_chemical_formula_sum "Si O2"
_cell_formula_units_Z 14
_cell_length_a 8.402320
_cell_length_b 21.474144
_cell_length_c 11.376165
_cell_angle_alpha 144.850939
_cell_angle_beta 141.051943
_cell_angle_gamma 64.003718
_cell_volume 622.347202
_symmetry_space_group_name_H-M "P -1"
_symmetry_group_IT_number 2
_symmetry_cell_setting 'triclinic'
loop_
_space_group_symop_operation_xyz
x,y,z
-x,-y,-z
loop_
_atom_site_type_symbol
_atom_site_label
_atom_site_fract_x
_atom_site_fract_y
_atom_site_fract_z
Si Si1 0.168465 0.392405 0.690227
Si Si2 0.121710 0.245463 0.213992
Si Si3 0.775508 0.374142 0.836743
Si Si4 0.849578 0.945745 0.604940
Si Si5 0.650925 0.946307 0.241302
Si Si6 0.909514 0.230076 0.506990
Si Si7 0.608794 0.174971 0.631434
O O1 0.033152 0.293648 0.352571
O O2 0.153238 0.316497 0.680420
O O3 0.500000 0.500000 0.000000
O O4 0.035271 0.477787 0.784914
O O5 0.477663 0.343824 0.548561
O O6 0.918792 0.237875 0.979005
O O7 0.046843 0.100945 0.965759
O O8 0.933110 0.320587 0.765748
O O9 0.632524 0.282146 0.726087
O O10 0.629416 0.913068 0.316315
O O11 0.660370 0.888284 0.526844
O O12 0.038420 0.880626 0.593540
O O13 0.587235 0.058975 0.367247
O O14 0.412182 0.834702 0.845729
O O15 0.000000 0.000000 0.500000
#
# Coordination Sequence:
#
# PCOD9010121 Si02
#       7
#     2   2   2   2   2   2   2
#     4  10  22  41  63  86 117 162 209 247 290 352
#     4  10  21  40  62  87 120 156 200 254 299 347
#     4  11  24  39  59  87 121 163 203 242 295 357
#     4  11  22  37  63  94 120 155 200 248 307 363
#     4  11  23  39  62  94 126 156 196 248 308 365
#     4  12  23  40  63  89 126 160 194 250 306 354
#     4  11  22  38  61  91 122 156 203 249 300 362
#
# _framework density 22.495483
#
# number of rings (size 3 to 8) (size 9 to 14) (size 15 to 20)
#    0.000    1.143    0.000    9.000    0.000    4.000 
#    0.000    2.857    0.000    9.429    0.000    0.000 
#    0.000    0.000    0.000    0.000    0.000    0.000 
#
# Total GULP energy -78298.661353 kJ/mol
# GULP energy per Si atom -5592.761525 kJ/mol
# Density = 2.244428 g / cm^3
# Si number density = 22.495483 Si / 1000 Ang^3
#
#
#
# Elastic Constant Matrix: (Units=GPa)
#
#
# Indices 1 2 3 4 5 6 
#
# 1 70.2371 -2.0871 27.4111 11.1271 -16.4659 -11.9695
# 2 -2.0871 65.7941 40.7055 10.7848 -14.7099 -6.1951
# 3 27.4111 40.7055 71.1214 18.8899 -23.5994 -10.4596
# 4 11.1271 10.7848 18.8899 17.4987 -11.7395 -2.3618
# 5 -16.4659 -14.7099 -23.5994 -11.7395 47.2802 10.0770
# 6 -11.9695 -6.1951 -10.4596 -2.3618 10.0770 37.0873
#
#
#
# Elastic Compliance Matrix: (Units=1/GPa)
#
#
# Indices 1 2 3 4 5 6 
#
# 1 0.020582 0.008702 -0.010001 -0.005294 0.002671 0.004213
# 2 0.008702 0.027232 -0.017557 -0.001848 0.001903 0.001771
# 3 -0.010001 -0.017557 0.033762 -0.016765 0.003455 0.001355
# 4 -0.005294 -0.001848 -0.016765 0.087050 0.011765 -0.004399
# 5 0.002671 0.001903 0.003455 0.011765 0.028341 -0.004797
# 6 0.004213 0.001771 0.001355 -0.004399 -0.004797 0.030024
#
#
# Mechanical properties :
#
#
# Convention : Reuss Voigt Hill
#
# Bulk Modulus (GPa) = 22.79754 37.69019 30.24387
# Shear Modulus (GPa) = 17.90024 29.78144 23.84084
#
# Velocity S-wave (km/s) = 2.82392 3.64247 3.25900
# Velocity P-wave (km/s) = 4.55949 5.87206 5.25690
#
# Compressibility (1/GPa) = 0.04386439
#
# Stress axis : x y z
#
# Youngs Moduli (GPa) = 48.58633 36.72086 29.61889
#
# Poissons Ratio (x) = -0.31954 0.29622
# Poissons Ratio (y) = -0.42280 0.52002
# Poissons Ratio (z) = 0.48591 0.64471
#
# Static dielectric constant tensor:
#      x y z
#    x 1.894300 -0.014020 -0.009280 
#    y -0.014020 1.803720 0.014050 
#    z -0.009280 0.014050 1.832880 
# 
# From -- ./inp_files/191107.got.cif
#   From: 2010.05.17/outbox.cif.g08.bks.cpg/sg2_96_cif.got.tgz:191107.got - 2010.06.03 11:33:40.
