data_PCOD9010917
_publ_section_title
;
Structure prediction by ZEFSAII (Michael W. Deem and Ramdas Pophale) SiO2 
 PCOD9010917
Probable space group: P -1
;
_chemical_formula_sum "Si O2"
_cell_formula_units_Z 12
_cell_length_a 9.991354
_cell_length_b 13.227134
_cell_length_c 7.768415
_cell_angle_alpha 72.441438
_cell_angle_beta 75.139375
_cell_angle_gamma 32.143799
_cell_volume 520.774958
_symmetry_space_group_name_H-M "P -1"
_symmetry_group_IT_number 2
_symmetry_cell_setting 'triclinic'
loop_
_space_group_symop_operation_xyz
x,y,z
-x,-y,-z
loop_
_atom_site_type_symbol
_atom_site_label
_atom_site_fract_x
_atom_site_fract_y
_atom_site_fract_z
Si Si1 0.680775 0.093924 0.621523
Si Si2 0.148169 0.515345 0.444525
Si Si3 0.213525 0.421020 0.086081
Si Si4 0.014963 0.037750 0.741606
Si Si5 0.603704 0.332530 0.953540
Si Si6 0.294095 0.146114 0.347481
O O1 0.422129 0.316827 0.536965
O O2 0.837952 0.053710 0.733727
O O3 0.661651 0.981726 0.726866
O O4 0.852927 0.994667 0.446312
O O5 0.155857 0.525797 0.227632
O O6 0.000000 0.500000 0.500000
O O7 0.975576 0.687967 0.550619
O O8 0.377783 0.399552 0.933921
O O9 0.344474 0.229733 0.209190
O O10 0.000000 0.500000 0.000000
O O11 0.807704 0.243491 0.794727
O O12 0.230184 0.851368 0.886263
O O13 0.500000 0.500000 0.000000
O O14 0.500000 0.000000 0.500000
#
# Coordination Sequence:
#
# PCOD9010917 Si02
#       6
#     2   2   2   2   2   2
#     4  11  22  43  68  98 128 173 232 274 331 383
#     4  10  21  40  64  95 136 162 219 282 325 393
#     4  11  25  43  65 101 134 168 224 277 331 402
#     4  10  25  43  66  95 132 176 228 274 314 419
#     4  11  25  46  65  92 140 178 216 270 349 390
#     4  11  22  41  71  97 131 174 220 275 343 384
#
# _framework density 23.042581999999999
#
# number of rings (size 3 to 8) (size 9 to 14) (size 15 to 20)
#    0.000    1.333    5.000    0.000    9.333    0.000 
#    0.000    5.000    0.000    0.000    0.000    0.000 
#    0.000    0.000    0.000    0.000    0.000    0.000 
#
# Total GULP energy -66903.066868 kJ/mol
# GULP energy per Si atom -5575.255572 kJ/mol
# Density = 2.299014 g / cm^3
# Si number density = 23.042582 Si / 1000 Ang^3
#
#
#
# Elastic Constant Matrix: (Units=GPa)
#
#
# Indices 1 2 3 4 5 6 
#
# 1 119.8928 43.7653 0.5120 -11.8017 11.1319 -10.7797
# 2 43.7653 125.2762 10.4674 18.7862 4.8861 -3.9307
# 3 0.5120 10.4674 41.0580 6.9240 -0.0714 -9.8921
# 4 -11.8017 18.7862 6.9240 28.8275 -10.5163 -3.1818
# 5 11.1319 4.8861 -0.0714 -10.5163 35.7613 -2.2289
# 6 -10.7797 -3.9307 -9.8921 -3.1818 -2.2289 32.9689
#
#
#
# Elastic Compliance Matrix: (Units=1/GPa)
#
#
# Indices 1 2 3 4 5 6 
#
# 1 0.011417 -0.005153 0.000778 0.008241 -0.000167 0.004136
# 2 -0.005153 0.011580 -0.001581 -0.010686 -0.003250 -0.002030
# 3 0.000778 -0.001581 0.027413 -0.004693 -0.000867 0.007779
# 4 0.008241 -0.010686 -0.004693 0.052144 0.014595 0.006031
# 5 -0.000167 -0.003250 -0.000867 0.014595 0.032932 0.002933
# 6 0.004136 -0.002030 0.007779 0.006031 0.002933 0.034556
#
#
# Mechanical properties :
#
#
# Convention : Reuss Voigt Hill
#
# Bulk Modulus (GPa) = 25.97461 43.96850 34.97156
# Shear Modulus (GPa) = 25.66890 34.94369 30.30629
#
# Velocity S-wave (km/s) = 3.34125 3.89843 3.63054
# Velocity P-wave (km/s) = 5.11685 6.27587 5.72576
#
# Compressibility (1/GPa) = 0.03849913
#
# Stress axis : x y z
#
# Youngs Moduli (GPa) = 87.58786 86.35410 36.47859
#
# Poissons Ratio (x) = 0.44499 -0.02837
# Poissons Ratio (y) = 0.45135 0.05766
# Poissons Ratio (z) = -0.06813 0.13649
#
# Static dielectric constant tensor:
#      x y z
#    x 1.842650 -0.240180 0.284000 
#    y -0.240180 1.466420 0.347580 
#    z 0.284000 0.347580 2.034460 
# 
# From -- ./inp_files/133416.got.cif
#   From: 2010.05.17/outbox.cif.g08.bks.cpg/sg2_67_cif.got.tgz:133416.got - 2010.06.03 11:33:40.
