data_PCOD9010746
_publ_section_title
;
Structure prediction by ZEFSAII (Michael W. Deem and Ramdas Pophale) SiO2 
 PCOD9010746
Probable space group: P -1
;
_chemical_formula_sum "Si O2"
_cell_formula_units_Z 16
_cell_length_a 9.009104
_cell_length_b 13.215919
_cell_length_c 10.859799
_cell_angle_alpha 73.813221
_cell_angle_beta 39.457011
_cell_angle_gamma 60.962588
_cell_volume 707.615413
_symmetry_space_group_name_H-M "P -1"
_symmetry_group_IT_number 2
_symmetry_cell_setting 'triclinic'
loop_
_space_group_symop_operation_xyz
x,y,z
-x,-y,-z
loop_
_atom_site_type_symbol
_atom_site_label
_atom_site_fract_x
_atom_site_fract_y
_atom_site_fract_z
Si Si1 0.849088 0.512371 0.854365
Si Si2 0.678011 0.144028 0.157292
Si Si3 0.197604 0.089539 0.173116
Si Si4 0.135341 0.276288 0.340230
Si Si5 0.805843 0.883391 0.102234
Si Si6 0.325886 0.531036 0.289059
Si Si7 0.331405 0.864422 0.543802
Si Si8 0.582912 0.595373 0.473290
O O1 0.873912 0.632941 0.789463
O O2 0.788101 0.488668 0.760329
O O3 0.133572 0.419922 0.747610
O O4 0.605462 0.525541 0.085178
O O5 0.406394 0.239079 0.249438
O O6 0.646884 0.123284 0.328208
O O7 0.752409 0.020305 0.084430
O O8 0.918957 0.177388 0.981681
O O9 0.152112 0.162351 0.301551
O O10 0.964825 0.050298 0.333182
O O11 0.153909 0.161099 0.048265
O O12 0.500000 0.000000 0.000000
O O13 0.886510 0.345756 0.561660
O O14 0.558188 0.881407 0.324603
O O15 0.372862 0.436139 0.398846
O O16 0.383061 0.729566 0.532922
O O17 0.500000 0.500000 0.500000
#
# Coordination Sequence:
#
# PCOD9010746 Si02
#       8
#     2   2   2   2   2   2   2   2
#     4  10  22  40  65  93 120 160 212 256 308 376
#     4  10  21  40  64  90 127 160 207 266 309 358
#     4  11  24  43  60  88 130 166 205 259 307 366
#     4  11  21  39  65  90 126 167 202 254 318 363
#     4  10  23  42  62  90 124 166 212 257 308 370
#     4  10  22  41  63  94 125 159 209 260 308 370
#     4  11  23  40  66  92 122 170 214 251 316 375
#     4  11  23  40  62  91 133 164 201 260 312 372
#
# _framework density 22.611151
#
# number of rings (size 3 to 8) (size 9 to 14) (size 15 to 20)
#    0.000    1.500    1.250    4.875    0.000    8.000 
#    2.250    0.000    0.000    0.000    0.000    0.000 
#    0.000    0.000    0.000    0.000    0.000    0.000 
#
# Total GULP energy -89415.398030 kJ/mol
# GULP energy per Si atom -5588.462377 kJ/mol
# Density = 2.255969 g / cm^3
# Si number density = 22.611151 Si / 1000 Ang^3
#
#
#
# Elastic Constant Matrix: (Units=GPa)
#
#
# Indices 1 2 3 4 5 6 
#
# 1 88.8100 13.5468 53.6192 9.7723 -28.1703 4.3391
# 2 13.5468 34.7431 30.2324 15.5807 -2.6339 8.1903
# 3 53.6192 30.2324 190.0332 -6.1552 -39.3551 5.6549
# 4 9.7723 15.5807 -6.1552 31.3435 1.7923 -5.0766
# 5 -28.1703 -2.6339 -39.3551 1.7923 38.9220 11.2702
# 6 4.3391 8.1903 5.6549 -5.0766 11.2702 24.8482
#
#
#
# Elastic Compliance Matrix: (Units=1/GPa)
#
#
# Indices 1 2 3 4 5 6 
#
# 1 0.019440 0.005143 -0.002933 -0.012433 0.016163 -0.014294
# 2 0.005143 0.060542 -0.009625 -0.039047 0.008748 -0.030609
# 3 -0.002933 -0.009625 0.009077 0.007204 0.005960 0.000388
# 4 -0.012433 -0.039047 0.007204 0.063102 -0.017126 0.034062
# 5 0.016163 0.008748 0.005960 -0.017126 0.055091 -0.035549
# 6 -0.014294 -0.030609 0.000388 0.034062 -0.035549 0.075824
#
#
# Mechanical properties :
#
#
# Convention : Reuss Voigt Hill
#
# Bulk Modulus (GPa) = 13.47178 56.48702 34.97940
# Shear Modulus (GPa) = 15.49667 33.43525 24.46596
#
# Velocity S-wave (km/s) = 2.62077 3.84957 3.29299
# Velocity P-wave (km/s) = 3.88958 6.69291 5.47375
#
# Compressibility (1/GPa) = 0.07422924
#
# Stress axis : x y z
#
# Youngs Moduli (GPa) = 51.44061 16.51733 110.16572
#
# Poissons Ratio (x) = -0.08495 0.32316
# Poissons Ratio (y) = -0.26457 1.06035
# Poissons Ratio (z) = 0.15089 0.15898
#
# Static dielectric constant tensor:
#      x y z
#    x 1.881010 0.013820 -0.021780 
#    y 0.013820 1.867790 0.036900 
#    z -0.021780 0.036900 1.838640 
# 
# From -- ./inp_files/399089.got.cif
#   From: 2010.05.17/outbox.cif.g08.bks.cpg/sg2_200_cif.got.tgz:399089.got - 2010.06.03 11:33:40.
