data_PCOD9010292
_publ_section_title
;
Structure prediction by ZEFSAII (Michael W. Deem and Ramdas Pophale) SiO2 
 PCOD9010292
Probable space group: P -1
;
_chemical_formula_sum "Si O2"
_cell_formula_units_Z 16
_cell_length_a 6.569044
_cell_length_b 16.170859
_cell_length_c 11.829947
_cell_angle_alpha 55.776599
_cell_angle_beta 86.688253
_cell_angle_gamma 48.444001
_cell_volume 669.004905
_symmetry_space_group_name_H-M "P -1"
_symmetry_group_IT_number 2
_symmetry_cell_setting 'triclinic'
loop_
_space_group_symop_operation_xyz
x,y,z
-x,-y,-z
loop_
_atom_site_type_symbol
_atom_site_label
_atom_site_fract_x
_atom_site_fract_y
_atom_site_fract_z
Si Si1 0.261884 0.357960 0.427448
Si Si2 0.733434 0.502540 0.495692
Si Si3 0.098441 0.977411 0.351327
Si Si4 0.893075 0.955657 0.950365
Si Si5 0.217370 0.563946 0.883985
Si Si6 0.866288 0.611915 0.068271
Si Si7 0.207839 0.220177 0.860303
Si Si8 0.872847 0.880406 0.565385
O O1 0.415760 0.350645 0.541550
O O2 0.522573 0.179390 0.524228
O O3 0.920137 0.451004 0.413751
O O4 0.183703 0.456959 0.245967
O O5 0.500000 0.500000 0.500000
O O6 0.000961 0.371180 0.676841
O O7 0.027050 0.041512 0.179692
O O8 0.941427 0.929080 0.421374
O O9 0.002527 0.098532 0.350014
O O10 0.515709 0.086117 0.878601
O O11 0.993354 0.804648 0.091320
O O12 0.000000 0.000000 0.000000
O O13 0.306560 0.427816 0.921842
O O14 0.069873 0.703672 0.700007
O O15 0.500000 0.500000 0.000000
O O16 0.950768 0.631215 0.932204
O O17 0.710547 0.751714 0.048545
O O18 0.500000 0.000000 0.500000
#
# Coordination Sequence:
#
# PCOD9010292 Si02
#       8
#     2   2   2   2   2   2   2   2
#     4  10  21  40  62  96 133 174 222 279 331 409
#     4  10  22  37  64  92 131 171 222 269 333 399
#     4  11  24  44  68  98 140 179 231 288 342 416
#     4  11  25  42  67  96 139 185 226 280 344 416
#     4  11  24  44  69  99 131 178 231 289 353 411
#     4  10  23  41  68  94 134 172 222 288 340 405
#     4  10  23  43  62  98 133 175 227 275 339 415
#     4  11  26  45  71 102 134 182 235 290 354 413
#
# _framework density 23.916118000000001
#
# number of rings (size 3 to 8) (size 9 to 14) (size 15 to 20)
#    0.000    1.500    1.250    2.250    1.750   12.000 
#    0.000    0.000    0.000    0.000    0.000    0.000 
#    0.000    0.000    0.000    0.000    0.000    0.000 
#
# Total GULP energy -89442.333157 kJ/mol
# GULP energy per Si atom -5590.145822 kJ/mol
# Density = 2.386168 g / cm^3
# Si number density = 23.916118 Si / 1000 Ang^3
#
#
#
# Elastic Constant Matrix: (Units=GPa)
#
#
# Indices 1 2 3 4 5 6 
#
# 1 130.6557 15.4405 22.0913 5.9909 -25.3976 12.9227
# 2 15.4405 64.7759 5.9901 10.0858 -19.6543 12.4424
# 3 22.0913 5.9901 84.0022 16.5055 -36.2487 0.7150
# 4 5.9909 10.0858 16.5055 36.5760 -3.1195 -2.5609
# 5 -25.3976 -19.6543 -36.2487 -3.1195 43.5663 -0.9565
# 6 12.9227 12.4424 0.7150 -2.5609 -0.9565 37.0573
#
#
#
# Elastic Compliance Matrix: (Units=1/GPa)
#
#
# Indices 1 2 3 4 5 6 
#
# 1 0.009014 0.000324 0.000271 -0.001448 0.005452 -0.003217
# 2 0.000324 0.022009 0.006361 -0.008291 0.014645 -0.007820
# 3 0.000271 0.006361 0.022462 -0.010350 0.020913 -0.002839
# 4 -0.001448 -0.008291 -0.010350 0.034017 -0.010638 0.005565
# 5 0.005452 0.014645 0.020913 -0.010638 0.049231 -0.006686
# 6 -0.003217 -0.007820 -0.002839 0.005565 -0.006686 0.030999
#
#
# Mechanical properties :
#
#
# Convention : Reuss Voigt Hill
#
# Bulk Modulus (GPa) = 14.83768 40.71975 27.77872
# Shear Modulus (GPa) = 28.36303 39.16739 33.76521
#
# Velocity S-wave (km/s) = 3.44748 4.05124 3.76149
# Velocity P-wave (km/s) = 4.69727 6.24071 5.52317
#
# Compressibility (1/GPa) = 0.06739598
#
# Stress axis : x y z
#
# Youngs Moduli (GPa) = 110.93883 45.43583 44.51995
#
# Poissons Ratio (x) = -0.01472 -0.01207
# Poissons Ratio (y) = -0.03594 -0.28317
# Poissons Ratio (z) = -0.03007 -0.28900
#
# Static dielectric constant tensor:
#      x y z
#    x 1.961580 0.057950 0.000100 
#    y 0.057950 2.024630 -0.022730 
#    z 0.000100 -0.022730 1.876560 
# 
# From -- ./inp_files/367599.got.cif
#   From: 2010.05.17/outbox.cif.g08.bks.cpg/sg2_184_cif.got.tgz:367599.got - 2010.06.03 11:33:40.
