data_PCOD9010806
_publ_section_title
;
Structure prediction by ZEFSAII (Michael W. Deem and Ramdas Pophale) SiO2 
 PCOD9010806
Probable space group: P -1
;
_chemical_formula_sum "Si O2"
_cell_formula_units_Z 14
_cell_length_a 9.127573
_cell_length_b 9.821023
_cell_length_c 7.615685
_cell_angle_alpha 76.970716
_cell_angle_beta 73.646115
_cell_angle_gamma 58.026518
_cell_volume 553.237383
_symmetry_space_group_name_H-M "P -1"
_symmetry_group_IT_number 2
_symmetry_cell_setting 'triclinic'
loop_
_space_group_symop_operation_xyz
x,y,z
-x,-y,-z
loop_
_atom_site_type_symbol
_atom_site_label
_atom_site_fract_x
_atom_site_fract_y
_atom_site_fract_z
Si Si1 0.275932 0.075346 0.515829
Si Si2 0.345976 0.334815 0.339021
Si Si3 0.842333 0.064931 0.678398
Si Si4 0.608167 0.446157 0.297574
Si Si5 0.738193 0.964850 0.068637
Si Si6 0.370274 0.269129 0.976881
Si Si7 0.118489 0.662175 0.503353
O O1 0.397892 0.158427 0.447690
O O2 0.302630 0.954585 0.381302
O O3 0.239161 0.028356 0.733215
O O4 0.088663 0.234504 0.479604
O O5 0.516236 0.359025 0.256894
O O6 0.206824 0.478847 0.465131
O O7 0.269121 0.349779 0.166821
O O8 0.804999 0.245075 0.668425
O O9 0.868256 0.976721 0.880080
O O10 0.000000 0.000000 0.500000
O O11 0.500000 0.500000 0.500000
O O12 0.596612 0.600512 0.166215
O O13 0.808685 0.336971 0.327035
O O14 0.726822 0.804256 0.081940
O O15 0.552134 0.117163 0.027751
#
# Coordination Sequence:
#
# PCOD9010806 Si02
#       7
#     2   2   2   2   2   2   2
#     4  11  24  44  71  99 135 182 221 278 342 399
#     4  11  22  42  67 101 133 177 230 271 341 400
#     4  10  23  44  65  96 137 178 224 268 336 408
#     4  10  21  40  64  92 135 172 219 273 333 391
#     4  11  23  43  68  99 141 172 230 281 334 398
#     4  11  24  41  65 104 135 177 225 282 336 406
#     4  10  23  43  66  96 138 173 223 278 336 399
#
# _framework density 25.305589999999999
#
# number of rings (size 3 to 8) (size 9 to 14) (size 15 to 20)
#    0.000    1.429    1.429    4.286    2.000    4.000 
#    5.143    1.429    0.000    0.000    0.000    0.000 
#    0.000    0.000    0.000    0.000    0.000    0.000 
#
# Total GULP energy -78294.882679 kJ/mol
# GULP energy per Si atom -5592.491620 kJ/mol
# Density = 2.524799 g / cm^3
# Si number density = 25.305590 Si / 1000 Ang^3
#
#
#
# Elastic Constant Matrix: (Units=GPa)
#
#
# Indices 1 2 3 4 5 6 
#
# 1 42.9121 -2.4754 23.7240 -5.2964 1.5456 11.3906
# 2 -2.4754 102.6599 36.1071 -27.0495 -8.9852 42.4592
# 3 23.7240 36.1071 179.8749 -29.6831 -5.7486 20.1094
# 4 -5.2964 -27.0495 -29.6831 53.1620 10.8156 -8.5314
# 5 1.5456 -8.9852 -5.7486 10.8156 35.2211 -4.0673
# 6 11.3906 42.4592 20.1094 -8.5314 -4.0673 41.8056
#
#
#
# Elastic Compliance Matrix: (Units=1/GPa)
#
#
# Indices 1 2 3 4 5 6 
#
# 1 0.030405 0.009055 -0.003594 0.003693 -0.002505 -0.015242
# 2 0.009055 0.021694 -0.001865 0.007347 0.000024 -0.022102
# 3 -0.003594 -0.001865 0.006810 0.002506 0.000037 0.000113
# 4 0.003693 0.007347 0.002506 0.024713 -0.006070 -0.005221
# 5 -0.002505 0.000024 0.000037 -0.006070 0.030654 0.002384
# 6 -0.015242 -0.022102 0.000113 -0.005221 0.002384 0.049633
#
#
# Mechanical properties :
#
#
# Convention : Reuss Voigt Hill
#
# Bulk Modulus (GPa) = 15.12839 48.90648 32.01744
# Shear Modulus (GPa) = 27.97190 43.91048 35.94119
#
# Velocity S-wave (km/s) = 3.32831 4.17010 3.77276
# Velocity P-wave (km/s) = 4.55647 6.52339 5.62655
#
# Compressibility (1/GPa) = 0.06610089
#
# Stress axis : x y z
#
# Youngs Moduli (GPa) = 32.88943 46.09486 146.84366
#
# Poissons Ratio (x) = -0.41740 0.52782
# Poissons Ratio (y) = -0.29782 0.27385
# Poissons Ratio (z) = 0.11822 0.08596
#
# Static dielectric constant tensor:
#      x y z
#    x 2.239340 0.009750 -0.057910 
#    y 0.009750 2.054350 -0.005500 
#    z -0.057910 -0.005500 1.970640 
# 
# From -- ./inp_files/237534.got.cif
#   From: 2010.05.17/outbox.cif.g08.bks.cpg/sg2_119_cif.got.tgz:237534.got - 2010.06.03 11:33:40.
