data_PCOD9010534
_publ_section_title
;
Structure prediction by ZEFSAII (Michael W. Deem and Ramdas Pophale) SiO2 
 PCOD9010534
Probable space group: P -1
;
_chemical_formula_sum "Si O2"
_cell_formula_units_Z 15
_cell_length_a 13.416138
_cell_length_b 13.408931
_cell_length_c 9.588373
_cell_angle_alpha 113.280930
_cell_angle_beta 86.785454
_cell_angle_gamma 35.551667
_cell_volume 651.474231
_symmetry_space_group_name_H-M "P -1"
_symmetry_group_IT_number 2
_symmetry_cell_setting 'triclinic'
loop_
_space_group_symop_operation_xyz
x,y,z
-x,-y,-z
loop_
_atom_site_type_symbol
_atom_site_label
_atom_site_fract_x
_atom_site_fract_y
_atom_site_fract_z
Si Si1 0.155427 0.293288 0.495272
Si Si2 0.500000 0.500000 0.000000
Si Si3 0.985028 0.708569 0.248869
Si Si4 0.366456 0.482309 0.455957
Si Si5 0.286702 0.720511 0.839112
Si Si6 0.476520 0.179364 0.461769
Si Si7 0.889395 0.008014 0.610910
Si Si8 0.490842 0.247709 0.814444
O O1 0.997718 0.400248 0.692974
O O2 0.342878 0.197397 0.482657
O O3 0.000000 0.500000 0.500000
O O4 0.317390 0.029161 0.293768
O O5 0.339548 0.641255 0.948964
O O6 0.781797 0.232436 0.720216
O O7 0.899734 0.904768 0.437902
O O8 0.768166 0.885611 0.262680
O O9 0.237502 0.482400 0.035715
O O10 0.399445 0.520097 0.614671
O O11 0.585227 0.295382 0.231293
O O12 0.370692 0.356105 0.442255
O O13 0.111406 0.768228 0.563936
O O14 0.000000 0.000000 0.000000
O O15 0.446241 0.263868 0.663931
O O16 0.614872 0.242812 0.833890
#
# Coordination Sequence:
#
# PCOD9010534 Si02
#       8
#     2   1   2   2   2   2   2   2
#     4  10  21  40  63  93 133 170 220 279 323 398
#     4  12  24  46  70  96 132 174 224 286 338 390
#     4  10  22  40  63  95 130 177 222 267 343 397
#     4  11  24  45  65  97 137 174 221 274 342 403
#     4  11  25  46  67 100 132 173 225 276 335 411
#     4  10  21  40  65  93 132 171 217 281 326 398
#     4  10  23  42  65  97 132 173 219 281 331 400
#     4  10  22  41  64  97 132 173 226 267 339 399
#
# _framework density 23.024702000000001
#
# number of rings (size 3 to 8) (size 9 to 14) (size 15 to 20)
#    0.000    1.867    1.333    4.800    1.867    5.333 
#    2.400    1.333    0.000    0.000    0.000    0.000 
#    0.000    0.000    0.000    0.000    0.000    0.000 
#
# Total GULP energy -83686.193375 kJ/mol
# GULP energy per Si atom -5579.079558 kJ/mol
# Density = 2.297230 g / cm^3
# Si number density = 23.024702 Si / 1000 Ang^3
#
#
#
# Elastic Constant Matrix: (Units=GPa)
#
#
# Indices 1 2 3 4 5 6 
#
# 1 131.0892 32.7696 1.3722 3.0483 -6.8067 2.0093
# 2 32.7696 179.6972 30.7491 13.6070 -3.1539 0.6430
# 3 1.3722 30.7491 46.5383 15.9211 -8.2487 1.0168
# 4 3.0483 13.6070 15.9211 27.5286 -9.5474 0.6467
# 5 -6.8067 -3.1539 -8.2487 -9.5474 31.4718 0.6343
# 6 2.0093 0.6430 1.0168 0.6467 0.6343 44.2895
#
#
#
# Elastic Compliance Matrix: (Units=1/GPa)
#
#
# Indices 1 2 3 4 5 6 
#
# 1 0.008135 -0.001651 0.001242 -0.000140 0.001885 -0.000399
# 2 -0.001651 0.006641 -0.004171 -0.001076 -0.001113 0.000106
# 3 0.001242 -0.004171 0.029612 -0.014022 0.003369 -0.000519
# 4 -0.000140 -0.001076 -0.014022 0.048812 0.011005 -0.000526
# 5 0.001885 -0.001113 0.003369 0.011005 0.036309 -0.000827
# 6 -0.000399 0.000106 -0.000519 -0.000526 -0.000827 0.022627
#
#
# Mechanical properties :
#
#
# Convention : Reuss Voigt Hill
#
# Bulk Modulus (GPa) = 28.38619 54.12294 41.25457
# Shear Modulus (GPa) = 28.89521 40.15357 34.52439
#
# Velocity S-wave (km/s) = 3.54639 4.18057 3.87647
# Velocity P-wave (km/s) = 5.39672 6.84547 6.16380
#
# Compressibility (1/GPa) = 0.03522839
#
# Stress axis : x y z
#
# Youngs Moduli (GPa) = 122.92050 150.57396 33.76995
#
# Poissons Ratio (x) = 0.24859 -0.04193
# Poissons Ratio (y) = 0.20293 0.14085
# Poissons Ratio (z) = -0.15262 0.62802
#
# Static dielectric constant tensor:
#      x y z
#    x 2.448090 0.044910 -0.930760 
#    y 0.044910 1.827910 0.040660 
#    z -0.930760 0.040660 3.668470 
# 
# From -- ./inp_files/315606.got.cif
#   From: 2010.05.17/outbox.cif.g08.bks.cpg/sg2_158_cif.got.tgz:315606.got - 2010.06.03 11:33:40.
