data_PCOD9010282
_publ_section_title
;
Structure prediction by ZEFSAII (Michael W. Deem and Ramdas Pophale) SiO2 
 PCOD9010282
Probable space group: P -1
;
_chemical_formula_sum "Si O2"
_cell_formula_units_Z 16
_cell_length_a 8.876446
_cell_length_b 16.163197
_cell_length_c 9.673723
_cell_angle_alpha 38.204383
_cell_angle_beta 61.634131
_cell_angle_gamma 68.515748
_cell_volume 755.248235
_symmetry_space_group_name_H-M "P -1"
_symmetry_group_IT_number 2
_symmetry_cell_setting 'triclinic'
loop_
_space_group_symop_operation_xyz
x,y,z
-x,-y,-z
loop_
_atom_site_type_symbol
_atom_site_label
_atom_site_fract_x
_atom_site_fract_y
_atom_site_fract_z
Si Si1 0.480841 0.057503 0.278499
Si Si2 0.585834 0.645555 0.002653
Si Si3 0.916897 0.624505 0.697747
Si Si4 0.262479 0.641503 0.940542
Si Si5 0.144799 0.932704 0.616282
Si Si6 0.685822 0.377738 0.383930
Si Si7 0.024449 0.075858 0.748154
Si Si8 0.639952 0.094661 0.884789
O O1 0.430004 0.211744 0.107729
O O2 0.500000 0.000000 0.500000
O O3 0.321192 0.969059 0.414301
O O4 0.629226 0.056399 0.102236
O O5 0.774496 0.638178 0.861909
O O6 0.432403 0.639727 0.963852
O O7 0.582305 0.513934 0.271223
O O8 0.112582 0.604228 0.687739
O O9 0.916446 0.773134 0.439925
O O10 0.847512 0.495687 0.813445
O O11 0.149734 0.773137 0.844323
O O12 0.317186 0.647905 0.746874
O O13 0.000000 0.000000 0.500000
O O14 0.134733 0.005536 0.674108
O O15 0.607897 0.251168 0.664796
O O16 0.831802 0.079006 0.767121
O O17 0.000000 0.000000 0.000000
O O18 0.500000 0.000000 0.000000
#
# Coordination Sequence:
#
# PCOD9010282 Si02
#       8
#     2   2   2   2   2   2   2   2
#     4  12  24  42  67  97 132 167 218 269 323 383
#     4  11  22  37  66  95 127 172 215 267 319 386
#     4  10  21  40  62  96 126 171 212 266 322 382
#     4  11  22  37  65  98 128 166 223 268 311 390
#     4  12  24  41  66  99 124 166 222 269 313 383
#     4  10  22  41  63  94 132 169 213 265 332 381
#     4  11  24  42  67  91 131 170 210 260 335 381
#     4  11  25  43  64  96 131 170 210 272 326 384
#
# _framework density 21.185088
#
# number of rings (size 3 to 8) (size 9 to 14) (size 15 to 20)
#    0.000    1.000    2.500    6.750    1.750    1.500 
#    0.000    0.625    0.000    0.000    0.000    0.000 
#    0.000    0.000    0.000    0.000    0.000    0.000 
#
# Total GULP energy -89287.873787 kJ/mol
# GULP energy per Si atom -5580.492112 kJ/mol
# Density = 2.113687 g / cm^3
# Si number density = 21.185088 Si / 1000 Ang^3
#
#
#
# Elastic Constant Matrix: (Units=GPa)
#
#
# Indices 1 2 3 4 5 6 
#
# 1 43.7668 13.3129 32.8194 -3.5312 -7.3746 0.1391
# 2 13.3129 81.1342 50.0230 -27.1583 2.5938 -10.7936
# 3 32.8194 50.0230 154.9135 -20.4256 0.7982 2.6360
# 4 -3.5312 -27.1583 -20.4256 40.1603 4.3741 -0.2991
# 5 -7.3746 2.5938 0.7982 4.3741 39.6472 -2.8058
# 6 0.1391 -10.7936 2.6360 -0.2991 -2.8058 29.1632
#
#
#
# Elastic Compliance Matrix: (Units=1/GPa)
#
#
# Indices 1 2 3 4 5 6 
#
# 1 0.028580 -0.002176 -0.005714 -0.002502 0.005857 0.000113
# 2 -0.002176 0.020694 -0.004805 0.011678 -0.002385 0.007994
# 3 -0.005714 -0.004805 0.009423 0.001157 -0.001258 -0.002712
# 4 -0.002502 0.011678 0.001157 0.033706 -0.004679 0.004125
# 5 0.005857 -0.002385 -0.001258 -0.004679 0.027135 0.001766
# 6 0.000113 0.007994 -0.002712 0.004125 0.001766 0.037705
#
#
# Mechanical properties :
#
#
# Convention : Reuss Voigt Hill
#
# Bulk Modulus (GPa) = 30.02541 52.45835 41.24188
# Shear Modulus (GPa) = 25.80844 34.03809 29.92326
#
# Velocity S-wave (km/s) = 3.49411 4.01272 3.76236
# Velocity P-wave (km/s) = 5.52106 6.80330 6.19544
#
# Compressibility (1/GPa) = 0.03330512
#
# Stress axis : x y z
#
# Youngs Moduli (GPa) = 34.98964 48.32400 106.12788
#
# Poissons Ratio (x) = 0.10517 0.60642
# Poissons Ratio (y) = 0.07615 0.50995
# Poissons Ratio (z) = 0.19993 0.23220
#
# Static dielectric constant tensor:
#      x y z
#    x 1.782550 0.013200 0.002560 
#    y 0.013200 1.777540 -0.021680 
#    z 0.002560 -0.021680 1.766980 
# 
# From -- ./inp_files/205068.got.cif
#   From: 2010.05.17/outbox.cif.g08.bks.cpg/sg2_103_cif.got.tgz:205068.got - 2010.06.03 11:33:40.
