data_PCOD9010206
_publ_section_title
;
Structure prediction by ZEFSAII (Michael W. Deem and Ramdas Pophale) SiO2 
 PCOD9010206
Probable space group: P -1
;
_chemical_formula_sum "Si O2"
_cell_formula_units_Z 14
_cell_length_a 12.137676
_cell_length_b 13.409863
_cell_length_c 12.232193
_cell_angle_alpha 133.976975
_cell_angle_beta 23.322878
_cell_angle_gamma 133.214625
_cell_volume 559.432790
_symmetry_space_group_name_H-M "P -1"
_symmetry_group_IT_number 2
_symmetry_cell_setting 'triclinic'
loop_
_space_group_symop_operation_xyz
x,y,z
-x,-y,-z
loop_
_atom_site_type_symbol
_atom_site_label
_atom_site_fract_x
_atom_site_fract_y
_atom_site_fract_z
Si Si1 0.612545 0.320622 0.925399
Si Si2 0.935556 0.235820 0.140807
Si Si3 0.708335 0.147208 0.921529
Si Si4 0.388591 0.055236 0.529811
Si Si5 0.993782 0.227823 0.342797
Si Si6 0.292883 0.294377 0.530544
Si Si7 0.602781 0.474253 0.564853
O O1 0.531465 0.461191 0.159345
O O2 0.323653 0.244422 0.075863
O O3 0.684392 0.222585 0.884394
O O4 0.855087 0.336929 0.625711
O O5 0.673670 0.114357 0.252111
O O6 0.947833 0.240492 0.265343
O O7 0.833245 0.377362 0.305734
O O8 0.218171 0.182945 0.804134
O O9 0.037616 0.164210 0.664450
O O10 0.581091 0.241779 0.198232
O O11 0.500000 0.000000 0.000000
O O12 0.500000 0.000000 0.500000
O O13 0.173431 0.923601 0.581266
O O14 0.350857 0.388327 0.656278
O O15 0.251607 0.397546 0.546576
#
# Coordination Sequence:
#
# PCOD9010206 Si02
#       7
#     2   2   2   2   2   2   2
#     4  11  24  40  63  92 135 173 211 274 327 391
#     4  11  23  39  67  96 129 174 225 269 315 409
#     4  11  24  44  69  99 126 167 224 275 337 398
#     4  10  21  40  62  91 128 169 221 275 324 376
#     4  11  22  40  62  92 132 175 211 270 340 377
#     4  10  24  45  69  93 135 174 214 286 331 378
#     4  10  25  44  66  99 133 180 230 263 330 394
#
# _framework density 25.025347
#
# number of rings (size 3 to 8) (size 9 to 14) (size 15 to 20)
#    0.000    1.429    0.000    6.429    0.000   15.429 
#    0.000    0.000    0.000    0.000    0.000    0.000 
#    0.000    0.000    0.000    0.000    0.000    0.000 
#
# Total GULP energy -78445.480003 kJ/mol
# GULP energy per Si atom -5603.248572 kJ/mol
# Density = 2.496839 g / cm^3
# Si number density = 25.025347 Si / 1000 Ang^3
#
#
#
# Elastic Constant Matrix: (Units=GPa)
#
#
# Indices 1 2 3 4 5 6 
#
# 1 68.3781 17.2428 22.1958 -5.1928 -2.5132 6.4911
# 2 17.2428 66.7536 6.5921 -0.1993 -1.8063 7.9409
# 3 22.1958 6.5921 116.8424 -1.3437 -11.1358 -2.8653
# 4 -5.1928 -0.1993 -1.3437 46.4278 9.7359 -5.7357
# 5 -2.5132 -1.8063 -11.1358 9.7359 28.9734 6.5746
# 6 6.4911 7.9409 -2.8653 -5.7357 6.5746 28.7983
#
#
#
# Elastic Compliance Matrix: (Units=1/GPa)
#
#
# Indices 1 2 3 4 5 6 
#
# 1 0.016936 -0.003721 -0.003037 0.001381 0.000259 -0.002878
# 2 -0.003721 0.016544 -0.000150 -0.001350 0.002124 -0.004492
# 3 -0.003037 -0.000150 0.009482 -0.000694 0.003435 0.000747
# 4 0.001381 -0.001350 -0.000694 0.024693 -0.010170 0.007232
# 5 0.000259 0.002124 0.003435 -0.010170 0.042117 -0.011943
# 6 -0.002878 -0.004492 0.000747 0.007232 -0.011943 0.040853
#
#
# Mechanical properties :
#
#
# Convention : Reuss Voigt Hill
#
# Bulk Modulus (GPa) = 34.31068 38.22617 36.26842
# Shear Modulus (GPa) = 28.70958 34.56943 31.63950
#
# Velocity S-wave (km/s) = 3.39074 3.72072 3.55955
# Velocity P-wave (km/s) = 5.39162 5.81089 5.60518
#
# Compressibility (1/GPa) = 0.02914545
#
# Stress axis : x y z
#
# Youngs Moduli (GPa) = 59.04419 60.44380 105.46622
#
# Poissons Ratio (x) = 0.22494 0.32034
# Poissons Ratio (y) = 0.21973 0.01579
# Poissons Ratio (z) = 0.17934 0.00905
#
# Static dielectric constant tensor:
#      x y z
#    x 1.979090 0.014770 -0.010310 
#    y 0.014770 2.048020 -0.009710 
#    z -0.010310 -0.009710 1.963220 
# 
# From -- ./inp_files/534391.got.cif
#   From: 2010.05.17/outbox.cif.g08.bks.cpg/sg2_268_cif.got.tgz:534391.got - 2010.06.03 11:33:40.
