data_PCOD9010848
_publ_section_title
;
Structure prediction by ZEFSAII (Michael W. Deem and Ramdas Pophale) SiO2 
 PCOD9010848
Probable space group: P -1
;
_chemical_formula_sum "Si O2"
_cell_formula_units_Z 14
_cell_length_a 14.268475
_cell_length_b 7.528025
_cell_length_c 5.460664
_cell_angle_alpha 91.249776
_cell_angle_beta 72.632317
_cell_angle_gamma 92.465483
_cell_volume 559.264303
_symmetry_space_group_name_H-M "P -1"
_symmetry_group_IT_number 2
_symmetry_cell_setting 'triclinic'
loop_
_space_group_symop_operation_xyz
x,y,z
-x,-y,-z
loop_
_atom_site_type_symbol
_atom_site_label
_atom_site_fract_x
_atom_site_fract_y
_atom_site_fract_z
Si Si1 0.401974 0.304329 0.084476
Si Si2 0.193821 0.220626 0.321133
Si Si3 0.597885 0.384985 0.242006
Si Si4 0.454385 0.869157 0.333258
Si Si5 0.099725 0.565978 0.289607
Si Si6 0.738053 0.153199 0.810070
Si Si7 0.014469 0.115410 0.750074
O O1 0.303219 0.284394 0.311917
O O2 0.494597 0.360424 0.179052
O O3 0.207703 0.028389 0.176540
O O4 0.452891 0.139299 0.917679
O O5 0.148415 0.377248 0.197610
O O6 0.124204 0.192106 0.609657
O O7 0.370793 0.423438 0.880002
O O8 0.571146 0.325132 0.532972
O O9 0.679207 0.250828 0.074431
O O10 0.348058 0.906276 0.311892
O O11 0.500000 0.000000 0.500000
O O12 0.185245 0.694540 0.351127
O O13 0.055884 0.716755 0.153026
O O14 0.000000 0.500000 0.500000
O O15 0.000000 0.000000 0.500000
O O16 0.000000 0.000000 0.000000
#
# Coordination Sequence:
#
# PCOD9010848 Si02
#       7
#     2   2   2   2   2   2   2
#     4  10  21  40  64  97 137 194 241 306 356 451
#     4  11  22  44  73 105 142 195 249 304 383 455
#     4  10  21  40  64  93 147 186 246 299 368 430
#     4  11  23  39  62 104 144 195 245 301 370 445
#     4  10  23  46  75 106 145 190 248 310 383 456
#     4  11  22  42  72  99 146 190 245 302 371 438
#     4  11  25  51  80 108 152 195 247 322 390 453
#
# _framework density 25.032885
#
# number of rings (size 3 to 8) (size 9 to 14) (size 15 to 20)
#    0.000    1.429    2.857    2.143    0.000    3.429 
#    7.714    7.857    0.000    0.000    0.000    0.000 
#    0.000    0.000    0.000    0.000    0.000    0.000 
#
# Total GULP energy -77994.873470 kJ/mol
# GULP energy per Si atom -5571.062391 kJ/mol
# Density = 2.497591 g / cm^3
# Si number density = 25.032885 Si / 1000 Ang^3
#
#
#
# Elastic Constant Matrix: (Units=GPa)
#
#
# Indices 1 2 3 4 5 6 
#
# 1 136.0391 59.9332 63.8897 -7.8479 -42.0334 -17.0553
# 2 59.9332 168.7486 41.4272 -14.4590 -3.1045 -50.7698
# 3 63.8897 41.4272 83.8693 -26.4383 -10.5438 -13.9482
# 4 -7.8479 -14.4590 -26.4383 51.2174 -6.8705 -1.0415
# 5 -42.0334 -3.1045 -10.5438 -6.8705 39.9377 -11.3772
# 6 -17.0553 -50.7698 -13.9482 -1.0415 -11.3772 67.1415
#
#
#
# Elastic Compliance Matrix: (Units=1/GPa)
#
#
# Indices 1 2 3 4 5 6 
#
# 1 0.020236 -0.003051 -0.011187 -0.000910 0.019009 0.003716
# 2 -0.003051 0.009083 -0.000736 0.001737 -0.000736 0.005843
# 3 -0.011187 -0.000736 0.023622 0.009809 -0.003609 0.001050
# 4 -0.000910 0.001737 0.009809 0.026059 0.007622 0.004816
# 5 0.019009 -0.000736 -0.003609 0.007622 0.048737 0.011899
# 6 0.003716 0.005843 0.001050 0.004816 0.011899 0.022565
#
#
# Mechanical properties :
#
#
# Convention : Reuss Voigt Hill
#
# Bulk Modulus (GPa) = 43.49072 79.90636 61.69854
# Shear Modulus (GPa) = 26.60784 46.55311 36.58048
#
# Velocity S-wave (km/s) = 3.26378 4.31708 3.82684
# Velocity P-wave (km/s) = 5.62264 7.53919 6.65032
#
# Compressibility (1/GPa) = 0.02299341
#
# Stress axis : x y z
#
# Youngs Moduli (GPa) = 49.41763 110.09158 42.33343
#
# Poissons Ratio (x) = 0.33585 0.47359
# Poissons Ratio (y) = 0.15076 0.03116
# Poissons Ratio (z) = 0.55284 0.08102
#
# Static dielectric constant tensor:
#      x y z
#    x 7.326770 4.237930 4.436080 
#    y 4.237930 5.522250 3.453250 
#    z 4.436080 3.453250 5.670210 
# 
# From -- ./inp_files/90041.got.cif
#   From: 2010.05.17/outbox.cif.g08.bks.cpg/sg2_46_cif.got.tgz:90041.got - 2010.06.03 11:33:40.
