data_PCOD9010098
_publ_section_title
;
Structure prediction by ZEFSAII (Michael W. Deem and Ramdas Pophale) SiO2 
 PCOD9010098
Probable space group: P -1
;
_chemical_formula_sum "Si O2"
_cell_formula_units_Z 14
_cell_length_a 16.261057
_cell_length_b 22.100468
_cell_length_c 7.153130
_cell_angle_alpha 105.914964
_cell_angle_beta 71.165029
_cell_angle_gamma 162.531559
_cell_volume 725.174266
_symmetry_space_group_name_H-M "P -1"
_symmetry_group_IT_number 2
_symmetry_cell_setting 'triclinic'
loop_
_space_group_symop_operation_xyz
x,y,z
-x,-y,-z
loop_
_atom_site_type_symbol
_atom_site_label
_atom_site_fract_x
_atom_site_fract_y
_atom_site_fract_z
Si Si1 0.269388 0.603522 0.847583
Si Si2 0.342284 0.893377 0.722594
Si Si3 0.386651 0.826943 0.957129
Si Si4 0.307305 0.539787 0.105374
Si Si5 0.830794 0.785407 0.477915
Si Si6 0.587106 0.528372 0.155549
Si Si7 0.595643 0.751010 0.455577
O O1 0.339517 0.609589 0.623378
O O2 0.937068 0.383612 0.926901
O O3 0.412535 0.770173 0.870748
O O4 0.370494 0.634340 0.979773
O O5 0.005577 0.662223 0.759178
O O6 0.500000 0.000000 0.500000
O O7 0.427813 0.013340 0.883376
O O8 0.431890 0.895798 0.788948
O O9 0.529219 0.696909 0.242009
O O10 0.320631 0.479389 0.957467
O O11 0.819763 0.727478 0.269309
O O12 0.677122 0.653524 0.662843
O O13 0.653532 0.723265 0.481595
O O14 0.133988 0.020164 0.507083
O O15 0.500000 0.500000 0.000000
#
# Coordination Sequence:
#
# PCOD9010098 Si02
#       7
#     2   2   2   2   2   2   2
#     4  10  21  40  62  85 125 154 203 246 297 361
#     4  10  21  40  62  89 123 153 200 248 293 360
#     4   9  21  40  61  88 117 165 190 246 309 347
#     4  11  23  38  64  89 119 162 203 242 300 353
#     4  10  24  40  62  85 123 158 200 248 301 346
#     4  11  22  43  60  88 121 159 201 250 295 358
#     4  11  22  40  60  92 116 160 198 251 295 356
#
# _framework density 19.305703999999999
#
# number of rings (size 3 to 8) (size 9 to 14) (size 15 to 20)
#    0.000    1.714    2.857    0.857    2.000    2.857 
#    2.571    4.286    0.000    0.000    0.000    0.000 
#    0.000    0.000    0.000    0.000    0.000    0.000 
#
# Total GULP energy -78205.057414 kJ/mol
# GULP energy per Si atom -5586.075530 kJ/mol
# Density = 1.926176 g / cm^3
# Si number density = 19.305704 Si / 1000 Ang^3
#
#
#
# Elastic Constant Matrix: (Units=GPa)
#
#
# Indices 1 2 3 4 5 6 
#
# 1 95.0427 23.4523 47.4671 12.4610 -8.5216 -14.7543
# 2 23.4523 39.4287 36.3097 22.1151 4.9374 -16.5470
# 3 47.4671 36.3097 119.0662 16.8076 -4.5170 -10.6322
# 4 12.4610 22.1151 16.8076 32.2790 0.3040 -2.6390
# 5 -8.5216 4.9374 -4.5170 0.3040 27.3056 0.6133
# 6 -14.7543 -16.5470 -10.6322 -2.6390 0.6133 25.2037
#
#
#
# Elastic Compliance Matrix: (Units=1/GPa)
#
#
# Indices 1 2 3 4 5 6 
#
# 1 0.014572 -0.002433 -0.004279 -0.001370 0.004185 0.004882
# 2 -0.002433 0.093014 -0.016875 -0.049895 -0.020888 0.047807
# 3 -0.004279 -0.016875 0.014017 0.005286 0.004138 -0.007218
# 4 -0.001370 -0.049895 0.005286 0.060793 0.009358 -0.025192
# 5 0.004185 -0.020888 0.004138 0.009358 0.042501 -0.009572
# 6 0.004882 0.047807 -0.007218 -0.025192 -0.009572 0.068472
#
#
# Mechanical properties :
#
#
# Convention : Reuss Voigt Hill
#
# Bulk Modulus (GPa) = 13.43580 51.99954 32.71767
# Shear Modulus (GPa) = 13.68538 26.71156 20.19847
#
# Velocity S-wave (km/s) = 2.66536 3.72373 3.23808
# Velocity P-wave (km/s) = 4.05547 6.74399 5.56454
#
# Compressibility (1/GPa) = 0.07442803
#
# Stress axis : x y z
#
# Youngs Moduli (GPa) = 68.62487 10.75107 71.34221
#
# Poissons Ratio (x) = 0.02616 0.30527
# Poissons Ratio (y) = 0.16700 1.20390
# Poissons Ratio (z) = 0.29364 0.18142
#
# Static dielectric constant tensor:
#      x y z
#    x 1.662430 -0.002010 -0.003200 
#    y -0.002010 1.676960 -0.006470 
#    z -0.003200 -0.006470 1.645260 
# 
# From -- ./inp_files/33571.got.cif
#   From: 2010.05.17/outbox.cif.g08.bks.cpg/sg2_17_cif.got.tgz:33571.got - 2010.06.03 11:33:40.
