data_PCOD9010235
_publ_section_title
;
Structure prediction by ZEFSAII (Michael W. Deem and Ramdas Pophale) SiO2 
 PCOD9010235
Probable space group: P -1
;
_chemical_formula_sum "Si O2"
_cell_formula_units_Z 16
_cell_length_a 12.021353
_cell_length_b 12.357110
_cell_length_c 12.462353
_cell_angle_alpha 34.332440
_cell_angle_beta 103.855669
_cell_angle_gamma 76.520128
_cell_volume 625.629938
_symmetry_space_group_name_H-M "P -1"
_symmetry_group_IT_number 2
_symmetry_cell_setting 'triclinic'
loop_
_space_group_symop_operation_xyz
x,y,z
-x,-y,-z
loop_
_atom_site_type_symbol
_atom_site_label
_atom_site_fract_x
_atom_site_fract_y
_atom_site_fract_z
Si Si1 0.274125 0.885234 0.458788
Si Si2 0.032483 0.853547 0.432783
Si Si3 0.046448 0.411356 0.254930
Si Si4 0.939499 0.886547 0.165720
Si Si5 0.407255 0.152049 0.052349
Si Si6 0.586125 0.041814 0.406774
Si Si7 0.366299 0.746333 0.362013
Si Si8 0.230410 0.266596 0.640320
O O1 0.126244 0.924802 0.433135
O O2 0.415637 0.762196 0.683927
O O3 0.374494 0.672643 0.549009
O O4 0.150849 0.232520 0.108789
O O5 0.948270 0.825561 0.526765
O O6 0.920045 0.039947 0.143296
O O7 0.198231 0.499980 0.717058
O O8 0.122220 0.396652 0.396010
O O9 0.196670 0.269330 0.316893
O O10 0.833212 0.833632 0.225190
O O11 0.144906 0.558355 0.443575
O O12 0.830968 0.066549 0.882950
O O13 0.484396 0.146348 0.184747
O O14 0.399821 0.931127 0.228553
O O15 0.554021 0.014982 0.107143
O O16 0.500000 0.000000 0.500000
O O17 0.500000 0.500000 0.500000
#
# Coordination Sequence:
#
# PCOD9010235 Si02
#       8
#     2   2   2   2   2   2   2   2
#     4  12  25  45  69 104 137 185 238 276 349 413
#     4  11  25  43  69 102 140 184 227 286 343 413
#     4  10  21  46  69  98 138 177 232 287 341 413
#     4  10  21  40  62  92 141 178 224 277 344 402
#     4  11  23  43  68  98 140 176 236 283 347 405
#     4  11  23  45  77 101 136 186 225 293 349 404
#     4  12  26  42  65 103 142 180 231 288 335 418
#     4   9  19  36  66  93 126 186 224 274 338 409
#
# _framework density 25.574224000000001
#
# number of rings (size 3 to 8) (size 9 to 14) (size 15 to 20)
#    0.000    1.250    3.750    1.875    3.500    4.500 
#    0.000    0.000    0.000    0.000    0.000    0.000 
#    0.000    0.000    0.000    0.000    0.000    0.000 
#
# Total GULP energy -89457.855461 kJ/mol
# GULP energy per Si atom -5591.115966 kJ/mol
# Density = 2.551602 g / cm^3
# Si number density = 25.574224 Si / 1000 Ang^3
#
#
#
# Elastic Constant Matrix: (Units=GPa)
#
#
# Indices 1 2 3 4 5 6 
#
# 1 127.5153 45.0199 0.3322 8.2089 -13.8536 -2.8675
# 2 45.0199 167.2574 33.6298 22.3615 4.4072 1.0923
# 3 0.3322 33.6298 41.5788 9.0539 6.3225 -0.9360
# 4 8.2089 22.3615 9.0539 21.3781 -2.2106 17.3865
# 5 -13.8536 4.4072 6.3225 -2.2106 34.4363 -4.2880
# 6 -2.8675 1.0923 -0.9360 17.3865 -4.2880 59.6285
#
#
#
# Elastic Compliance Matrix: (Units=1/GPa)
#
#
# Indices 1 2 3 4 5 6 
#
# 1 0.009410 -0.002737 0.002150 -0.002528 0.003771 0.001545
# 2 -0.002737 0.008788 -0.005183 -0.007487 -0.001543 0.001698
# 3 0.002150 -0.005183 0.031767 -0.012626 -0.004611 0.004047
# 4 -0.002528 -0.007487 -0.012626 0.080326 0.004517 -0.023279
# 5 0.003771 -0.001543 -0.004611 0.004517 0.032030 0.001123
# 6 0.001545 0.001698 0.004047 -0.023279 0.001123 0.023746
#
#
# Mechanical properties :
#
#
# Convention : Reuss Voigt Hill
#
# Bulk Modulus (GPa) = 26.02398 54.92393 40.47395
# Shear Modulus (GPa) = 23.76256 40.24656 32.00456
#
# Velocity S-wave (km/s) = 3.05152 3.97131 3.54140
# Velocity P-wave (km/s) = 4.75538 6.52314 5.70811
#
# Compressibility (1/GPa) = 0.03842610
#
# Stress axis : x y z
#
# Youngs Moduli (GPa) = 106.27065 113.79037 31.47903
#
# Poissons Ratio (x) = 0.31141 -0.06768
# Poissons Ratio (y) = 0.29083 0.16315
# Poissons Ratio (z) = -0.22848 0.58976
#
# Static dielectric constant tensor:
#      x y z
#    x 2.048710 0.017910 0.013690 
#    y 0.017910 2.047150 0.080380 
#    z 0.013690 0.080380 2.169690 
# 
# From -- ./inp_files/427418.got.cif
#   From: 2010.05.17/outbox.cif.g08.bks.cpg/sg2_214_cif.got.tgz:427418.got - 2010.06.03 11:33:40.
