data_PCOD9010050
_publ_section_title
;
Structure prediction by ZEFSAII (Michael W. Deem and Ramdas Pophale) SiO2 
 PCOD9010050
Probable space group: P -1
;
_chemical_formula_sum "Si O2"
_cell_formula_units_Z 14
_cell_length_a 10.844489
_cell_length_b 8.388676
_cell_length_c 12.705514
_cell_angle_alpha 37.716056
_cell_angle_beta 70.427748
_cell_angle_gamma 88.766104
_cell_volume 603.875395
_symmetry_space_group_name_H-M "P -1"
_symmetry_group_IT_number 2
_symmetry_cell_setting 'triclinic'
loop_
_space_group_symop_operation_xyz
x,y,z
-x,-y,-z
loop_
_atom_site_type_symbol
_atom_site_label
_atom_site_fract_x
_atom_site_fract_y
_atom_site_fract_z
Si Si1 0.816557 0.181397 0.656703
Si Si2 0.547172 0.887491 0.761417
Si Si3 0.540948 0.648370 0.524558
Si Si4 0.078969 0.292471 0.392161
Si Si5 0.821752 0.790138 0.285264
Si Si6 0.865620 0.081308 0.921004
Si Si7 0.579876 0.450871 0.834201
O O1 0.798145 0.470484 0.488068
O O2 0.783318 0.097185 0.831113
O O3 0.979048 0.231121 0.556875
O O4 0.706673 0.962513 0.721059
O O5 0.508413 0.626577 0.828783
O O6 0.538701 0.142745 0.563020
O O7 0.454735 0.814090 0.935661
O O8 0.500000 0.500000 0.500000
O O9 0.714601 0.854622 0.357951
O O10 0.524235 0.441014 0.736390
O O11 0.082831 0.607320 0.197343
O O12 0.247165 0.371874 0.314289
O O13 0.000000 0.000000 0.500000
O O14 0.994502 0.960711 0.138108
O O15 0.779809 0.832753 0.156030
#
# Coordination Sequence:
#
# PCOD9010050 Si02
#       7
#     2   2   2   2   2   2   2
#     4  11  21  40  67  92 122 166 208 256 316 367
#     4  11  25  42  64  93 128 172 206 254 319 376
#     4  12  24  39  65  93 125 165 208 255 312 376
#     4  11  21  40  68  92 122 168 210 255 316 368
#     4  10  21  40  61  94 125 158 208 260 310 360
#     4  10  22  38  67  91 126 159 208 266 304 373
#     4  11  25  45  63  90 133 167 208 262 310 375
#
# _framework density 23.183589000000001
#
# number of rings (size 3 to 8) (size 9 to 14) (size 15 to 20)
#    0.000    1.143    2.857    4.714    2.000    0.571 
#    0.000    0.000    0.000    8.571    0.000    0.000 
#    0.000    0.000    0.000    0.000    0.000    0.000 
#
# Total GULP energy -78040.742852 kJ/mol
# GULP energy per Si atom -5574.338775 kJ/mol
# Density = 2.313082 g / cm^3
# Si number density = 23.183589 Si / 1000 Ang^3
#
#
#
# Elastic Constant Matrix: (Units=GPa)
#
#
# Indices 1 2 3 4 5 6 
#
# 1 88.7012 18.9178 44.3742 12.1507 1.6843 2.5660
# 2 18.9178 67.7937 13.9264 4.7801 19.2418 3.1410
# 3 44.3742 13.9264 120.0278 34.1091 17.4643 6.0329
# 4 12.1507 4.7801 34.1091 33.7270 3.5027 4.6792
# 5 1.6843 19.2418 17.4643 3.5027 43.8082 3.2854
# 6 2.5660 3.1410 6.0329 4.6792 3.2854 24.3291
#
#
#
# Elastic Compliance Matrix: (Units=1/GPa)
#
#
# Indices 1 2 3 4 5 6 
#
# 1 0.014818 -0.003969 -0.005688 0.000654 0.003406 -0.000226
# 2 -0.003969 0.018057 0.000881 -0.001074 -0.007980 -0.000847
# 3 -0.005688 0.000881 0.014543 -0.012254 -0.004979 -0.000091
# 4 0.000654 -0.001074 -0.012254 0.042462 0.002340 -0.005374
# 5 0.003406 -0.007980 -0.004979 0.002340 0.028175 -0.002349
# 6 -0.000226 -0.000847 -0.000091 -0.005374 -0.002349 0.042610
#
#
# Mechanical properties :
#
#
# Convention : Reuss Voigt Hill
#
# Bulk Modulus (GPa) = 33.48082 47.88441 40.68262
# Shear Modulus (GPa) = 26.57147 33.65981 30.11564
#
# Velocity S-wave (km/s) = 3.38913 3.81449 3.60808
# Velocity P-wave (km/s) = 5.45783 6.33243 5.91133
#
# Compressibility (1/GPa) = 0.02986785
#
# Stress axis : x y z
#
# Youngs Moduli (GPa) = 67.48602 55.37964 68.76014
#
# Poissons Ratio (x) = 0.21979 0.39108
# Poissons Ratio (y) = 0.26784 -0.06059
# Poissons Ratio (z) = 0.38384 -0.04880
#
# Static dielectric constant tensor:
#      x y z
#    x 1.940550 -0.009180 -0.005350 
#    y -0.009180 1.887480 -0.001230 
#    z -0.005350 -0.001230 1.920900 
# 
# From -- ./inp_files/274236.got.cif
#   From: 2010.05.17/outbox.cif.g08.bks.cpg/sg2_138_cif.got.tgz:274236.got - 2010.06.03 11:33:40.
