data_PCOD9010730
_publ_section_title
;
Structure prediction by ZEFSAII (Michael W. Deem and Ramdas Pophale) SiO2 
 PCOD9010730
Probable space group: P -1
;
_chemical_formula_sum "Si O2"
_cell_formula_units_Z 14
_cell_length_a 5.706851
_cell_length_b 12.115219
_cell_length_c 11.859529
_cell_angle_alpha 133.155796
_cell_angle_beta 82.046667
_cell_angle_gamma 82.217812
_cell_volume 561.573951
_symmetry_space_group_name_H-M "P -1"
_symmetry_group_IT_number 2
_symmetry_cell_setting 'triclinic'
loop_
_space_group_symop_operation_xyz
x,y,z
-x,-y,-z
loop_
_atom_site_type_symbol
_atom_site_label
_atom_site_fract_x
_atom_site_fract_y
_atom_site_fract_z
Si Si1 0.678744 0.203586 0.657850
Si Si2 0.612703 0.209548 0.173359
Si Si3 0.964843 0.998976 0.835430
Si Si4 0.378971 0.473662 0.705759
Si Si5 0.724830 0.794507 0.602947
Si Si6 0.296756 0.066429 0.691491
Si Si7 0.786586 0.417497 0.968608
O O1 0.602888 0.337726 0.658116
O O2 0.770389 0.029338 0.475001
O O3 0.847185 0.258834 0.776063
O O4 0.423850 0.196052 0.732391
O O5 0.565678 0.395984 0.286250
O O6 0.382459 0.204239 0.261976
O O7 0.855331 0.117541 0.167253
O O8 0.699305 0.107902 0.980985
O O9 0.938831 0.872946 0.656557
O O10 0.107328 0.105248 0.836659
O O11 0.231069 0.374830 0.577467
O O12 0.241846 0.578926 0.893131
O O13 0.522006 0.923350 0.632738
O O14 0.500000 0.500000 0.000000
O O15 0.000000 0.500000 0.000000
#
# Coordination Sequence:
#
# PCOD9010730 Si02
#       7
#     2   2   2   2   2   2   2
#     4   9  20  42  64  96 128 171 214 271 330 402
#     4  10  22  41  59  91 126 161 218 270 330 394
#     4  10  22  39  64  91 122 168 215 269 332 389
#     4  10  22  40  63  94 125 170 213 268 336 391
#     4  10  21  40  64  90 123 166 216 268 326 393
#     4   9  20  40  66  91 129 166 218 265 329 398
#     4  10  23  42  63  95 139 177 222 274 336 405
#
# _framework density 24.929931
#
# number of rings (size 3 to 8) (size 9 to 14) (size 15 to 20)
#    0.000    2.286    0.000    0.857    4.000    2.857 
#    5.143    2.143    0.000    0.000    0.000    0.000 
#    0.000    0.000    0.000    0.000    0.000    0.000 
#
# Total GULP energy -78102.706438 kJ/mol
# GULP energy per Si atom -5578.764746 kJ/mol
# Density = 2.487319 g / cm^3
# Si number density = 24.929931 Si / 1000 Ang^3
#
#
#
# Elastic Constant Matrix: (Units=GPa)
#
#
# Indices 1 2 3 4 5 6 
#
# 1 71.9259 40.3957 55.6459 6.1319 18.9068 25.0451
# 2 40.3957 109.1178 31.6600 8.2655 -13.7799 14.1903
# 3 55.6459 31.6600 161.6930 19.9607 10.9538 16.1059
# 4 6.1319 8.2655 19.9607 42.9879 2.9798 -6.7235
# 5 18.9068 -13.7799 10.9538 2.9798 39.2193 8.4007
# 6 25.0451 14.1903 16.1059 -6.7235 8.4007 26.0505
#
#
#
# Elastic Compliance Matrix: (Units=1/GPa)
#
#
# Indices 1 2 3 4 5 6 
#
# 1 0.036724 -0.010470 -0.007246 -0.002113 -0.014717 -0.020922
# 2 -0.010470 0.014785 0.000569 -0.002763 0.010839 -0.002548
# 3 -0.007246 0.000569 0.008897 -0.003341 0.001503 -0.000191
# 4 -0.002113 -0.002763 -0.003341 0.028163 -0.004207 0.014227
# 5 -0.014717 0.010839 0.001503 -0.004207 0.037560 -0.005883
# 6 -0.020922 -0.002548 -0.000191 0.014227 -0.005883 0.065576
#
#
# Mechanical properties :
#
#
# Convention : Reuss Voigt Hill
#
# Bulk Modulus (GPa) = 38.29980 66.45999 52.37989
# Shear Modulus (GPa) = 21.30342 35.98722 28.64532
#
# Velocity S-wave (km/s) = 2.92641 3.80351 3.39342
# Velocity P-wave (km/s) = 5.17830 6.78274 6.03408
#
# Compressibility (1/GPa) = 0.02610980
#
# Stress axis : x y z
#
# Youngs Moduli (GPa) = 27.23023 67.63647 112.40363
#
# Poissons Ratio (x) = 0.70818 0.81452
# Poissons Ratio (y) = 0.28511 -0.06396
# Poissons Ratio (z) = 0.19732 -0.03849
#
# Static dielectric constant tensor:
#      x y z
#    x 2.067920 0.048830 -0.065640 
#    y 0.048830 2.035150 -0.026620 
#    z -0.065640 -0.026620 2.100030 
# 
# From -- ./inp_files/365375.got.cif
#   From: 2010.05.17/outbox.cif.g08.bks.cpg/sg2_183_cif.got.tgz:365375.got - 2010.06.03 11:33:40.
