data_PCOD9010826
_publ_section_title
;
Structure prediction by ZEFSAII (Michael W. Deem and Ramdas Pophale) SiO2 
 PCOD9010826
Probable space group: P -1
;
_chemical_formula_sum "Si O2"
_cell_formula_units_Z 16
_cell_length_a 9.048949
_cell_length_b 12.479189
_cell_length_c 11.567189
_cell_angle_alpha 37.237396
_cell_angle_beta 85.826292
_cell_angle_gamma 83.223142
_cell_volume 784.401628
_symmetry_space_group_name_H-M "P -1"
_symmetry_group_IT_number 2
_symmetry_cell_setting 'triclinic'
loop_
_space_group_symop_operation_xyz
x,y,z
-x,-y,-z
loop_
_atom_site_type_symbol
_atom_site_label
_atom_site_fract_x
_atom_site_fract_y
_atom_site_fract_z
Si Si1 0.044731 0.189101 0.684737
Si Si2 0.349679 0.349240 0.507804
Si Si3 0.715528 0.831864 0.923268
Si Si4 0.947366 0.711330 0.823309
Si Si5 0.862397 0.975602 0.404729
Si Si6 0.491631 0.705268 0.207821
Si Si7 0.204737 0.921502 0.084983
Si Si8 0.461511 0.037666 0.604945
O O1 0.174576 0.320826 0.553839
O O2 0.026588 0.113584 0.622335
O O3 0.888512 0.233658 0.722540
O O4 0.117428 0.024616 0.898281
O O5 0.389793 0.548257 0.323437
O O6 0.431897 0.294891 0.670776
O O7 0.423645 0.233329 0.496325
O O8 0.846893 0.740818 0.917136
O O9 0.779450 0.950931 0.916411
O O10 0.597140 0.945527 0.750713
O O11 0.619757 0.699301 0.111408
O O12 0.852507 0.813439 0.636056
O O13 0.077981 0.844456 0.706399
O O14 0.000000 0.500000 0.000000
O O15 0.700803 0.031980 0.311702
O O16 0.370032 0.873109 0.070363
O O17 0.500000 0.000000 0.500000
#
# Coordination Sequence:
#
# PCOD9010826 Si02
#       8
#     2   2   2   2   2   2   2   2
#     4  10  21  40  64  93 128 166 216 265 326 399
#     4  10  22  39  59  94 133 164 215 269 328 391
#     4  12  22  43  65  95 129 174 222 267 334 402
#     4  11  25  46  69  95 132 179 227 271 332 400
#     4  10  22  45  66  96 133 174 219 276 331 391
#     4  11  22  39  62  95 131 167 212 272 327 392
#     4  11  21  39  67  93 127 173 211 262 336 404
#     4  11  22  41  68  90 128 177 222 270 330 391
#
# _framework density 20.397715000000002
#
# number of rings (size 3 to 8) (size 9 to 14) (size 15 to 20)
#    0.000    1.250    5.000    1.875    0.000    1.500 
#   13.500    1.250    0.000    0.000    0.000    0.000 
#    0.000    0.000    0.000    0.000    0.000    0.000 
#
# Total GULP energy -89134.093944 kJ/mol
# GULP energy per Si atom -5570.880871 kJ/mol
# Density = 2.035129 g / cm^3
# Si number density = 20.397715 Si / 1000 Ang^3
#
#
#
# Elastic Constant Matrix: (Units=GPa)
#
#
# Indices 1 2 3 4 5 6 
#
# 1 43.2503 13.4120 6.7462 -16.4279 -14.7376 -3.9017
# 2 13.4120 103.1139 47.3934 2.6686 -2.2231 -0.4437
# 3 6.7462 47.3934 69.5676 -2.8755 -20.6976 -6.4251
# 4 -16.4279 2.6686 -2.8755 35.0991 2.5405 -4.6839
# 5 -14.7376 -2.2231 -20.6976 2.5405 32.6976 2.3384
# 6 -3.9017 -0.4437 -6.4251 -4.6839 2.3384 32.1856
#
#
#
# Elastic Compliance Matrix: (Units=1/GPa)
#
#
# Indices 1 2 3 4 5 6 
#
# 1 0.041003 -0.010778 0.011855 0.020446 0.023057 0.008489
# 2 -0.010778 0.018341 -0.015980 -0.007405 -0.012837 -0.004389
# 3 0.011855 -0.015980 0.032090 0.008659 0.023383 0.007184
# 4 0.020446 -0.007405 0.008659 0.039796 0.010448 0.009137
# 5 0.023057 -0.012837 0.023383 0.010448 0.053742 0.004902
# 6 0.008489 -0.004389 0.007184 0.009137 0.004902 0.034446
#
#
# Mechanical properties :
#
#
# Convention : Reuss Voigt Hill
#
# Bulk Modulus (GPa) = 16.22646 39.00389 27.61517
# Shear Modulus (GPa) = 18.53461 29.88845 24.21153
#
# Velocity S-wave (km/s) = 3.01767 3.83206 3.44898
# Velocity P-wave (km/s) = 4.48487 6.22437 5.42480
#
# Compressibility (1/GPa) = 0.06162774
#
# Stress axis : x y z
#
# Youngs Moduli (GPa) = 24.38869 54.52353 31.16241
#
# Poissons Ratio (x) = 0.58763 -0.36943
# Poissons Ratio (y) = 0.26285 0.49798
# Poissons Ratio (z) = -0.28913 0.87130
#
# Static dielectric constant tensor:
#      x y z
#    x 1.761420 -0.007350 -0.014800 
#    y -0.007350 1.736680 0.020550 
#    z -0.014800 0.020550 1.741220 
# 
# From -- ./inp_files/272276.got.cif
#   From: 2010.05.17/outbox.cif.g08.bks.cpg/sg2_137_cif.got.tgz:272276.got - 2010.06.03 11:33:40.
