data_PCOD9010446
_publ_section_title
;
Structure prediction by ZEFSAII (Michael W. Deem and Ramdas Pophale) SiO2 
 PCOD9010446
Probable space group: P -1
;
_chemical_formula_sum "Si O2"
_cell_formula_units_Z 14
_cell_length_a 10.991651
_cell_length_b 9.088054
_cell_length_c 13.980684
_cell_angle_alpha 131.718184
_cell_angle_beta 137.788171
_cell_angle_gamma 58.808009
_cell_volume 699.513396
_symmetry_space_group_name_H-M "P -1"
_symmetry_group_IT_number 2
_symmetry_cell_setting 'triclinic'
loop_
_space_group_symop_operation_xyz
x,y,z
-x,-y,-z
loop_
_atom_site_type_symbol
_atom_site_label
_atom_site_fract_x
_atom_site_fract_y
_atom_site_fract_z
Si Si1 0.740577 0.125727 0.639135
Si Si2 0.011465 0.187454 0.652595
Si Si3 0.166798 0.630599 0.689856
Si Si4 0.634310 0.698046 0.441114
Si Si5 0.712589 0.945857 0.098727
Si Si6 0.043032 0.386874 0.262015
Si Si7 0.956016 0.702916 0.000383
O O1 0.565997 0.267847 0.619374
O O2 0.880879 0.155868 0.819761
O O3 0.852166 0.183351 0.636374
O O4 0.682165 0.901156 0.504177
O O5 0.202160 0.177245 0.815702
O O6 0.981766 0.378090 0.654072
O O7 0.000000 0.000000 0.500000
O O8 0.335718 0.487955 0.692812
O O9 0.124368 0.673495 0.795233
O O10 0.000000 0.500000 0.500000
O O11 0.186326 0.846745 0.750831
O O12 0.774746 0.673538 0.600379
O O13 0.777286 0.815382 0.988514
O O14 0.500000 0.000000 0.000000
O O15 0.050467 0.326880 0.129553
O O16 0.000000 0.500000 0.000000
#
# Coordination Sequence:
#
# PCOD9010446 Si02
#       7
#     2   2   2   2   2   2   2
#     4  10  22  40  61  87 128 165 202 255 319 365
#     4  11  21  38  60  88 122 164 209 258 307 372
#     4  10  21  40  63  91 124 161 209 259 312 365
#     4  10  22  39  63  91 122 161 211 262 300 372
#     4  11  25  41  64  91 128 167 206 259 315 369
#     4  11  21  37  65  90 117 167 211 249 314 368
#     4  11  22  42  61  86 130 165 199 254 318 372
#
# _framework density 20.013912000000001
#
# number of rings (size 3 to 8) (size 9 to 14) (size 15 to 20)
#    0.000    1.429    2.857    6.000    2.000    4.000 
#    0.000    4.286    0.000    0.000    0.000    0.000 
#    0.000    0.000    0.000    0.000    0.000    0.000 
#
# Total GULP energy -78131.654970 kJ/mol
# GULP energy per Si atom -5580.832498 kJ/mol
# Density = 1.996836 g / cm^3
# Si number density = 20.013912 Si / 1000 Ang^3
#
#
#
# Elastic Constant Matrix: (Units=GPa)
#
#
# Indices 1 2 3 4 5 6 
#
# 1 104.5294 52.2198 28.9480 -23.8051 -16.3325 -23.7376
# 2 52.2198 95.1644 -0.5032 -1.2587 8.9614 -22.1766
# 3 28.9480 -0.5032 31.8011 4.1595 -6.4038 -9.2874
# 4 -23.8051 -1.2587 4.1595 29.8194 -3.8508 -0.9853
# 5 -16.3325 8.9614 -6.4038 -3.8508 36.1733 1.5551
# 6 -23.7376 -22.1766 -9.2874 -0.9853 1.5551 41.4535
#
#
#
# Elastic Compliance Matrix: (Units=1/GPa)
#
#
# Indices 1 2 3 4 5 6 
#
# 1 0.069313 -0.039972 -0.063892 0.067461 0.036887 0.004212
# 2 -0.039972 0.035531 0.038495 -0.038770 -0.024366 0.004736
# 3 -0.063892 0.038495 0.094406 -0.066129 -0.028912 0.004671
# 4 0.067461 -0.038770 -0.066129 0.100126 0.038844 0.003996
# 5 0.036887 -0.024366 -0.028912 0.038844 0.049323 0.000683
# 6 0.004212 0.004736 0.004671 0.003996 0.000683 0.030185
#
#
# Mechanical properties :
#
#
# Convention : Reuss Voigt Hill
#
# Bulk Modulus (GPa) = 14.59587 43.64714 29.12150
# Shear Modulus (GPa) = 9.39040 31.54461 20.46750
#
# Velocity S-wave (km/s) = 2.16844 3.97436 3.20138
# Velocity P-wave (km/s) = 3.68486 6.55107 5.31482
#
# Compressibility (1/GPa) = 0.06851254
#
# Stress axis : x y z
#
# Youngs Moduli (GPa) = 14.42735 28.14457 10.59250
#
# Poissons Ratio (x) = 1.12499 0.67678
# Poissons Ratio (y) = 0.57669 -0.40776
# Poissons Ratio (z) = 0.92180 -1.08344
#
# Static dielectric constant tensor:
#      x y z
#    x 1.733020 -0.014050 -0.005410 
#    y -0.014050 1.719050 0.024460 
#    z -0.005410 0.024460 1.736320 
# 
# From -- ./inp_files/402444.got.cif
#   From: 2010.05.17/outbox.cif.g08.bks.cpg/sg2_202_cif.got.tgz:402444.got - 2010.06.03 11:33:40.
