data_PCOD9010706
_publ_section_title
;
Structure prediction by ZEFSAII (Michael W. Deem and Ramdas Pophale) SiO2 
 PCOD9010706
Probable space group: P -1
;
_chemical_formula_sum "Si O2"
_cell_formula_units_Z 16
_cell_length_a 9.875446
_cell_length_b 18.334436
_cell_length_c 8.025891
_cell_angle_alpha 66.945325
_cell_angle_beta 76.590766
_cell_angle_gamma 29.447278
_cell_volume 637.944486
_symmetry_space_group_name_H-M "P -1"
_symmetry_group_IT_number 2
_symmetry_cell_setting 'triclinic'
loop_
_space_group_symop_operation_xyz
x,y,z
-x,-y,-z
loop_
_atom_site_type_symbol
_atom_site_label
_atom_site_fract_x
_atom_site_fract_y
_atom_site_fract_z
Si Si1 0.322862 0.366015 0.536516
Si Si2 0.988076 0.363139 0.107540
Si Si3 0.531447 0.110221 0.352545
Si Si4 0.367993 0.184150 0.836564
Si Si5 0.554466 0.279091 0.177214
Si Si6 0.008713 0.825938 0.697085
Si Si7 0.175230 0.125187 0.813672
Si Si8 0.354506 0.656434 0.403616
O O1 0.465233 0.217076 0.700506
O O2 0.418628 0.338496 0.347777
O O3 0.411497 0.392328 0.609404
O O4 0.000000 0.500000 0.500000
O O5 0.189717 0.277989 0.286686
O O6 0.956235 0.283899 0.168697
O O7 0.181773 0.294164 0.957005
O O8 0.689858 0.556986 0.008980
O O9 0.620614 0.154527 0.227442
O O10 0.641426 0.990563 0.296286
O O11 0.691236 0.008227 0.568384
O O12 0.171863 0.221280 0.752828
O O13 0.649645 0.996615 0.974009
O O14 0.830096 0.196506 0.201271
O O15 0.175210 0.753187 0.538463
O O16 0.873413 0.233930 0.776928
O O17 0.500000 0.500000 0.500000
#
# Coordination Sequence:
#
# PCOD9010706 Si02
#       8
#     2   2   2   2   2   2   2   2
#     4  11  22  39  63  88 122 162 207 250 309 364
#     4  11  22  40  65  93 124 160 210 254 309 369
#     4  10  22  41  62  93 125 162 207 255 311 371
#     4  10  21  40  64  89 124 164 204 250 308 371
#     4  11  23  40  65  91 126 160 209 258 311 367
#     4  10  23  42  63  91 123 167 205 251 316 370
#     4   9  21  41  61  90 126 160 206 254 305 368
#     4  10  22  40  64  91 122 160 207 256 305 366
#
# _framework density 25.080552999999998
#
# number of rings (size 3 to 8) (size 9 to 14) (size 15 to 20)
#    0.000    1.750    1.250    2.250    1.750    6.500 
#    4.500    0.000    0.000    0.000    0.000    0.000 
#    0.000    0.000    0.000    0.000    0.000    0.000 
#
# Total GULP energy -89579.670544 kJ/mol
# GULP energy per Si atom -5598.729409 kJ/mol
# Density = 2.502347 g / cm^3
# Si number density = 25.080553 Si / 1000 Ang^3
#
#
#
# Elastic Constant Matrix: (Units=GPa)
#
#
# Indices 1 2 3 4 5 6 
#
# 1 192.2463 36.8721 54.6095 -23.4547 10.1856 0.2756
# 2 36.8721 60.0707 31.7169 -11.7842 11.9949 -4.8466
# 3 54.6095 31.7169 120.9817 -27.4023 5.3768 -6.4201
# 4 -23.4547 -11.7842 -27.4023 44.5329 1.2723 -1.5695
# 5 10.1856 11.9949 5.3768 1.2723 38.1776 -8.1557
# 6 0.2756 -4.8466 -6.4201 -1.5695 -8.1557 39.1296
#
#
#
# Elastic Compliance Matrix: (Units=1/GPa)
#
#
# Indices 1 2 3 4 5 6 
#
# 1 0.006469 -0.002549 -0.001901 0.001559 -0.000879 -0.000794
# 2 -0.002549 0.021829 -0.003745 0.002323 -0.005503 0.001053
# 3 -0.001901 -0.003745 0.011320 0.005024 0.000278 0.001666
# 4 0.001559 0.002323 0.005024 0.027111 -0.002396 0.001689
# 5 -0.000879 -0.005503 0.000278 -0.002396 0.029349 0.005391
# 6 -0.000794 0.001053 0.001666 0.001689 0.005391 0.027157
#
#
# Mechanical properties :
#
#
# Convention : Reuss Voigt Hill
#
# Bulk Modulus (GPa) = 43.05623 68.85507 55.95565
# Shear Modulus (GPa) = 33.92866 41.04136 37.48501
#
# Velocity S-wave (km/s) = 3.68202 4.04961 3.87018
# Velocity P-wave (km/s) = 5.93976 7.02702 6.50614
#
# Compressibility (1/GPa) = 0.02322544
#
# Stress axis : x y z
#
# Youngs Moduli (GPa) = 154.59132 45.81064 88.34108
#
# Poissons Ratio (x) = 0.11678 0.16797
# Poissons Ratio (y) = 0.39410 0.33086
# Poissons Ratio (z) = 0.29394 0.17157
#
# Static dielectric constant tensor:
#      x y z
#    x 1.993120 -0.002520 -0.019770 
#    y -0.002520 2.003570 -0.020490 
#    z -0.019770 -0.020490 2.094750 
# 
# From -- ./inp_files/217011.got.cif
#   From: 2010.05.17/outbox.cif.g08.bks.cpg/sg2_109_cif.got.tgz:217011.got - 2010.06.03 11:33:40.
