data_PCOD9010894
_publ_section_title
;
Structure prediction by ZEFSAII (Michael W. Deem and Ramdas Pophale) SiO2 
 PCOD9010894
Probable space group: P -1
;
_chemical_formula_sum "Si O2"
_cell_formula_units_Z 16
_cell_length_a 18.307753
_cell_length_b 5.500277
_cell_length_c 16.418779
_cell_angle_alpha 121.123591
_cell_angle_beta 149.272457
_cell_angle_gamma 59.420814
_cell_volume 715.294785
_symmetry_space_group_name_H-M "P -1"
_symmetry_group_IT_number 2
_symmetry_cell_setting 'triclinic'
loop_
_space_group_symop_operation_xyz
x,y,z
-x,-y,-z
loop_
_atom_site_type_symbol
_atom_site_label
_atom_site_fract_x
_atom_site_fract_y
_atom_site_fract_z
Si Si1 0.028205 0.578459 0.902435
Si Si2 0.718720 0.867348 0.475643
Si Si3 0.167579 0.152793 0.105115
Si Si4 0.261113 0.690054 0.824801
Si Si5 0.776956 0.243598 0.383552
Si Si6 0.507846 0.839459 0.565677
Si Si7 0.442914 0.105452 0.848388
Si Si8 0.013722 0.964304 0.320562
O O1 0.876862 0.709056 0.824151
O O2 0.027666 0.349322 0.790049
O O3 0.105324 0.381263 0.015777
O O4 0.102977 0.851816 0.994122
O O5 0.764435 0.531298 0.473180
O O6 0.621698 0.888115 0.303767
O O7 0.624155 0.018491 0.482013
O O8 0.866141 0.993074 0.623555
O O9 0.337321 0.105953 0.243588
O O10 0.190017 0.715199 0.671261
O O11 0.353660 0.373351 0.858849
O O12 0.387700 0.887344 0.988454
O O13 0.128367 0.797923 0.775368
O O14 0.896885 0.026268 0.507651
O O15 0.615409 0.163771 0.214691
O O16 0.500000 0.500000 0.500000
O O17 0.500000 0.000000 0.500000
#
# Coordination Sequence:
#
# PCOD9010894 Si02
#       8
#     2   2   2   2   2   2   2   2
#     4  10  23  42  67  97 133 174 217 284 329 401
#     4  10  25  41  63  94 133 172 226 279 332 408
#     4  10  23  44  66  96 135 172 225 273 338 395
#     4  10  21  40  64  95 127 174 217 277 347 400
#     4  10  22  40  62  93 130 172 220 281 335 406
#     4  12  27  44  74 101 138 184 227 279 342 408
#     4   9  21  41  65  91 132 168 221 279 336 410
#     4  11  24  38  65  94 134 174 227 276 340 402
#
# _framework density 22.368400999999999
#
# number of rings (size 3 to 8) (size 9 to 14) (size 15 to 20)
#    0.000    1.750    0.000    2.250    8.750    7.500 
#    0.000    0.000    0.000    0.000    0.000    0.000 
#    0.000    0.000    0.000    0.000    0.000    0.000 
#
# Total GULP energy -89340.558473 kJ/mol
# GULP energy per Si atom -5583.784905 kJ/mol
# Density = 2.231749 g / cm^3
# Si number density = 22.368401 Si / 1000 Ang^3
#
#
#
# Elastic Constant Matrix: (Units=GPa)
#
#
# Indices 1 2 3 4 5 6 
#
# 1 96.6974 59.1846 25.5277 -14.4302 21.9509 -23.7547
# 2 59.1846 74.2434 32.2629 0.8251 22.0101 -5.0351
# 3 25.5277 32.2629 60.4864 -17.6071 16.9291 -19.3203
# 4 -14.4302 0.8251 -17.6071 36.0895 -1.2224 5.2353
# 5 21.9509 22.0101 16.9291 -1.2224 36.2333 -7.7041
# 6 -23.7547 -5.0351 -19.3203 5.2353 -7.7041 36.6143
#
#
#
# Elastic Compliance Matrix: (Units=1/GPa)
#
#
# Indices 1 2 3 4 5 6 
#
# 1 0.036653 -0.034388 0.017724 0.020379 -0.003654 0.024721
# 2 -0.034388 0.053130 -0.028570 -0.025076 -0.004786 -0.027501
# 3 0.017724 -0.028570 0.040841 0.023915 -0.006483 0.024337
# 4 0.020379 -0.025076 0.023915 0.045788 -0.003532 0.015102
# 5 -0.003654 -0.004786 -0.006483 -0.003532 0.035975 0.001625
# 6 0.024721 -0.027501 0.024337 0.015102 0.001625 0.050593
#
#
# Mechanical properties :
#
#
# Convention : Reuss Voigt Hill
#
# Bulk Modulus (GPa) = 24.90260 51.70861 38.30561
# Shear Modulus (GPa) = 13.63019 29.41752 21.52386
#
# Velocity S-wave (km/s) = 2.47118 3.63042 3.10537
# Velocity P-wave (km/s) = 4.39311 6.38281 5.47903
#
# Compressibility (1/GPa) = 0.04015645
#
# Stress axis : x y z
#
# Youngs Moduli (GPa) = 27.28268 18.82188 24.48514
#
# Poissons Ratio (x) = 0.64724 -0.43397
# Poissons Ratio (y) = 0.93819 0.69954
# Poissons Ratio (z) = -0.48355 0.53774
#
# Static dielectric constant tensor:
#      x y z
#    x 1.838700 0.029890 -0.043810 
#    y 0.029890 1.848070 -0.009650 
#    z -0.043810 -0.009650 1.878180 
# 
# From -- ./inp_files/90440.got.cif
#   From: 2010.05.17/outbox.cif.g08.bks.cpg/sg2_46_cif.got.tgz:90440.got - 2010.06.03 11:33:40.
