data_PCOD9010351
_publ_section_title
;
Structure prediction by ZEFSAII (Michael W. Deem and Ramdas Pophale) SiO2 
 PCOD9010351
Probable space group: P -1
;
_chemical_formula_sum "Si O2"
_cell_formula_units_Z 16
_cell_length_a 13.606983
_cell_length_b 8.366078
_cell_length_c 15.557140
_cell_angle_alpha 117.677310
_cell_angle_beta 140.043432
_cell_angle_gamma 91.287068
_cell_volume 751.734102
_symmetry_space_group_name_H-M "P -1"
_symmetry_group_IT_number 2
_symmetry_cell_setting 'triclinic'
loop_
_space_group_symop_operation_xyz
x,y,z
-x,-y,-z
loop_
_atom_site_type_symbol
_atom_site_label
_atom_site_fract_x
_atom_site_fract_y
_atom_site_fract_z
Si Si1 0.985208 0.356827 0.035631
Si Si2 0.745796 0.716029 0.890692
Si Si3 0.912533 0.896697 0.233547
Si Si4 0.311228 0.390470 0.570690
Si Si5 0.839329 0.440375 0.608466
Si Si6 0.209926 0.532720 0.838345
Si Si7 0.626693 0.019934 0.821160
Si Si8 0.503473 0.787970 0.944750
O O1 0.122441 0.289807 0.090793
O O2 0.067957 0.493117 0.217124
O O3 0.000000 0.500000 0.000000
O O4 0.747498 0.133266 0.841127
O O5 0.516679 0.457423 0.689340
O O6 0.711400 0.897938 0.887122
O O7 0.865661 0.795150 0.080181
O O8 0.857768 0.694337 0.210763
O O9 0.739961 0.912888 0.138927
O O10 0.146399 0.147307 0.452991
O O11 0.192691 0.386399 0.409787
O O12 0.403001 0.621882 0.750531
O O13 0.995159 0.461603 0.654076
O O14 0.615227 0.181740 0.398940
O O15 0.362004 0.606187 0.881874
O O16 0.322585 0.771094 0.031961
O O17 0.500000 0.000000 0.000000
#
# Coordination Sequence:
#
# PCOD9010351 Si02
#       8
#     2   2   2   2   2   2   2   2
#     4  11  23  38  59  91 124 156 196 246 305 358
#     4  10  21  40  63  87 119 158 202 247 294 353
#     4  11  23  39  60  88 123 156 193 248 302 350
#     4  10  23  40  62  90 116 156 204 244 292 351
#     4  10  22  40  61  87 118 156 202 245 293 354
#     4  11  23  39  60  89 125 158 194 246 301 351
#     4  10  22  40  62  87 119 160 202 245 292 352
#     4  11  23  41  64  89 119 158 203 244 290 353
#
# _framework density 21.284123000000001
#
# number of rings (size 3 to 8) (size 9 to 14) (size 15 to 20)
#    0.000    1.500    0.000    6.750    0.000   10.000 
#    0.000    0.000    0.000    0.000    0.000    0.000 
#    0.000    0.000    0.000    0.000    0.000    0.000 
#
# Total GULP energy -89383.458698 kJ/mol
# GULP energy per Si atom -5586.466169 kJ/mol
# Density = 2.123568 g / cm^3
# Si number density = 21.284123 Si / 1000 Ang^3
#
#
#
# Elastic Constant Matrix: (Units=GPa)
#
#
# Indices 1 2 3 4 5 6 
#
# 1 97.2520 -0.3559 8.3826 10.3133 15.2574 16.6759
# 2 -0.3559 63.5250 -5.7227 31.2872 -14.0193 19.0620
# 3 8.3826 -5.7227 37.5632 30.4270 6.9104 2.4915
# 4 10.3133 31.2872 30.4270 14.0635 23.8973 11.6338
# 5 15.2574 -14.0193 6.9104 23.8973 19.2772 -0.6553
# 6 16.6759 19.0620 2.4915 11.6338 -0.6553 40.7809
#
#
#
# Elastic Compliance Matrix: (Units=1/GPa)
#
#
# Indices 1 2 3 4 5 6 
#
# 1 0.012216 0.002031 0.001235 -0.002888 -0.005235 -0.005281
# 2 0.002031 0.009805 -0.007132 0.012572 -0.007801 -0.008690
# 3 0.001235 -0.007132 0.023130 0.008401 -0.024918 -0.001382
# 4 -0.002888 0.012572 0.008401 -0.012543 0.023924 -0.001246
# 5 -0.005235 -0.007801 -0.024918 0.023924 0.029652 0.000961
# 6 -0.005281 -0.008690 -0.001382 -0.001246 0.000961 0.031198
#
#
# Mechanical properties :
#
#
# Convention : Reuss Voigt Hill
#
# Bulk Modulus (GPa) = 26.72267 22.54981 24.63624
# Shear Modulus (GPa) = 43.99021 27.89340 35.94180
#
# Velocity S-wave (km/s) = 4.55115 3.62405 4.11380
# Velocity P-wave (km/s) = 6.34033 5.30370 5.84504
#
# Compressibility (1/GPa) = 0.03742140
#
# Stress axis : x y z
#
# Youngs Moduli (GPa) = 81.85678 101.99181 43.23387
#
# Poissons Ratio (x) = -0.20718 -0.05341
# Poissons Ratio (y) = -0.16628 0.30833
# Poissons Ratio (z) = -0.10113 0.72737
#
# Static dielectric constant tensor:
#      x y z
#    x 1.780130 -0.000720 0.014440 
#    y -0.000720 1.802820 0.011420 
#    z 0.014440 0.011420 1.778000 
# 
# From -- ./inp_files/528575.got.cif
#   From: 2010.05.17/outbox.cif.g08.bks.cpg/sg2_265_cif.got.tgz:528575.got - 2010.06.03 11:33:40.
