data_PCOD9010245
_publ_section_title
;
Structure prediction by ZEFSAII (Michael W. Deem and Ramdas Pophale) SiO2 
 PCOD9010245
Probable space group: P -1
;
_chemical_formula_sum "Si O2"
_cell_formula_units_Z 16
_cell_length_a 22.449636
_cell_length_b 27.704513
_cell_length_c 7.732320
_cell_angle_alpha 51.574811
_cell_angle_beta 128.216432
_cell_angle_gamma 169.106398
_cell_volume 710.891537
_symmetry_space_group_name_H-M "P -1"
_symmetry_group_IT_number 2
_symmetry_cell_setting 'triclinic'
loop_
_space_group_symop_operation_xyz
x,y,z
-x,-y,-z
loop_
_atom_site_type_symbol
_atom_site_label
_atom_site_fract_x
_atom_site_fract_y
_atom_site_fract_z
Si Si1 0.220002 0.754612 0.924925
Si Si2 0.371368 0.188626 0.923557
Si Si3 0.694555 0.106750 0.733725
Si Si4 0.219689 0.602848 0.763018
Si Si5 0.349054 0.508149 0.537571
Si Si6 0.632918 0.729393 0.939396
Si Si7 0.229776 0.892639 0.462108
Si Si8 0.642390 0.614670 0.807430
O O1 0.124341 0.742595 0.681916
O O2 0.424364 0.872209 0.904411
O O3 0.954361 0.519067 0.098494
O O4 0.500000 0.000000 0.000000
O O5 0.584691 0.389134 0.716059
O O6 0.484134 0.207809 0.090141
O O7 0.408656 0.249327 0.043562
O O8 0.014291 0.915414 0.825509
O O9 0.827794 0.159383 0.731094
O O10 0.973785 0.366385 0.742790
O O11 0.500000 0.000000 0.500000
O O12 0.393275 0.795530 0.544371
O O13 0.529158 0.660853 0.706119
O O14 0.471388 0.541158 0.598394
O O15 0.983482 0.225075 0.564385
O O16 0.445265 0.520093 0.129381
O O17 0.000000 0.000000 0.000000
O O18 0.500000 0.500000 0.000000
#
# Coordination Sequence:
#
# PCOD9010245 Si02
#       8
#     2   2   2   2   2   2   2   2
#     4   9  20  40  63  93 123 157 209 256 315 395
#     4  12  23  42  65  93 133 172 213 272 321 376
#     4   9  21  40  65  92 124 159 210 260 315 390
#     4  11  22  39  67  92 127 171 207 259 331 373
#     4  11  23  42  64  94 133 165 222 268 316 385
#     4  11  23  40  64  88 125 175 215 265 322 370
#     4  11  22  41  64  93 129 166 206 270 316 376
#     4  10  21  40  62  93 124 171 221 260 316 386
#
# _framework density 22.506947
#
# number of rings (size 3 to 8) (size 9 to 14) (size 15 to 20)
#    0.000    1.500    3.750    2.625    0.000    5.500 
#    0.000    3.750    0.000    0.000    0.000    0.000 
#    0.000    0.000    0.000    0.000    0.000    0.000 
#
# Total GULP energy -89261.803273 kJ/mol
# GULP energy per Si atom -5578.862705 kJ/mol
# Density = 2.245572 g / cm^3
# Si number density = 22.506947 Si / 1000 Ang^3
#
#
#
# Elastic Constant Matrix: (Units=GPa)
#
#
# Indices 1 2 3 4 5 6 
#
# 1 59.6635 16.1638 5.4226 -3.5645 -5.9396 -3.8558
# 2 16.1638 97.6881 -0.4460 -21.3700 -11.1631 10.0471
# 3 5.4226 -0.4460 55.1217 -8.8894 -5.5909 6.3971
# 4 -3.5645 -21.3700 -8.8894 24.7998 5.2680 -1.6181
# 5 -5.9396 -11.1631 -5.5909 5.2680 31.0648 -4.3501
# 6 -3.8558 10.0471 6.3971 -1.6181 -4.3501 44.6479
#
#
#
# Elastic Compliance Matrix: (Units=1/GPa)
#
#
# Indices 1 2 3 4 5 6 
#
# 1 0.018204 -0.003318 -0.002106 -0.001351 0.002533 0.002818
# 2 -0.003318 0.014023 0.002988 0.011945 0.002469 -0.003197
# 3 -0.002106 0.002988 0.020421 0.008873 0.002390 -0.003226
# 4 -0.001351 0.011945 0.008873 0.054272 -0.003922 -0.002491
# 5 0.002533 0.002469 0.002390 -0.003922 0.035020 0.002591
# 6 0.002818 -0.003197 -0.003226 -0.002491 0.002591 0.023984
#
#
# Mechanical properties :
#
#
# Convention : Reuss Voigt Hill
#
# Bulk Modulus (GPa) = 20.93078 28.30600 24.61839
# Shear Modulus (GPa) = 26.77760 32.85803 29.81781
#
# Velocity S-wave (km/s) = 3.45301 3.82502 3.64377
# Velocity P-wave (km/s) = 5.02172 5.66670 5.35393
#
# Compressibility (1/GPa) = 0.04777653
#
# Stress axis : x y z
#
# Youngs Moduli (GPa) = 54.93150 71.31035 48.96981
#
# Poissons Ratio (x) = 0.23659 0.10312
# Poissons Ratio (y) = 0.18225 -0.14630
# Poissons Ratio (z) = 0.11567 -0.21305
#
# Static dielectric constant tensor:
#      x y z
#    x 1.968210 -0.016990 0.145050 
#    y -0.016990 1.828040 -0.040600 
#    z 0.145050 -0.040600 2.065280 
# 
# From -- ./inp_files/355715.got.cif
#   From: 2010.05.17/outbox.cif.g08.bks.cpg/sg2_178_cif.got.tgz:355715.got - 2010.06.03 11:33:40.
