data_PCOD9010299
_publ_section_title
;
Structure prediction by ZEFSAII (Michael W. Deem and Ramdas Pophale) SiO2 
 PCOD9010299
Probable space group: P -1
;
_chemical_formula_sum "Si O2"
_cell_formula_units_Z 14
_cell_length_a 20.153742
_cell_length_b 18.283556
_cell_length_c 11.483919
_cell_angle_alpha 31.373765
_cell_angle_beta 29.546504
_cell_angle_gamma 16.212936
_cell_volume 577.389690
_symmetry_space_group_name_H-M "P -1"
_symmetry_group_IT_number 2
_symmetry_cell_setting 'triclinic'
loop_
_space_group_symop_operation_xyz
x,y,z
-x,-y,-z
loop_
_atom_site_type_symbol
_atom_site_label
_atom_site_fract_x
_atom_site_fract_y
_atom_site_fract_z
Si Si1 0.482596 0.519913 0.362185
Si Si2 0.249076 0.733475 0.920572
Si Si3 0.203119 0.339963 0.545967
Si Si4 0.349957 0.410689 0.384351
Si Si5 0.553348 0.126190 0.101611
Si Si6 0.703730 0.607268 0.278391
Si Si7 0.696133 0.811903 0.805822
O O1 0.500000 0.500000 0.500000
O O2 0.737815 0.282537 0.216410
O O3 0.333461 0.512092 0.561343
O O4 0.388669 0.759096 0.145504
O O5 0.453459 0.664339 0.748024
O O6 0.297285 0.544124 0.166809
O O7 0.000000 0.000000 0.000000
O O8 0.408186 0.212364 0.503818
O O9 0.303803 0.305563 0.316081
O O10 0.935721 0.634003 0.599604
O O11 0.225403 0.154099 0.787260
O O12 0.160052 0.546065 0.597516
O O13 0.492185 0.124854 0.066268
O O14 0.456784 0.917544 0.279073
O O15 0.802935 0.622817 0.006575
#
# Coordination Sequence:
#
# PCOD9010299 Si02
#       7
#     2   2   2   2   2   2   2
#     4  11  22  42  68  95 135 170 212 275 340 382
#     4  10  23  42  67  97 130 176 219 269 331 393
#     4  11  24  41  68  96 128 178 222 270 330 389
#     4  10  21  40  62  97 127 163 225 271 312 391
#     4  11  23  44  64  94 135 172 218 277 325 400
#     4  10  23  42  67  95 132 171 221 278 320 399
#     4  11  23  44  65  96 132 176 222 265 333 390
#
# _framework density 24.247055
#
# number of rings (size 3 to 8) (size 9 to 14) (size 15 to 20)
#    0.000    1.429    4.286    0.429    4.000    0.571 
#    7.714    0.714    0.000    0.000    0.000    0.000 
#    0.000    0.000    0.000    0.000    0.000    0.000 
#
# Total GULP energy -77977.395183 kJ/mol
# GULP energy per Si atom -5569.813942 kJ/mol
# Density = 2.419187 g / cm^3
# Si number density = 24.247055 Si / 1000 Ang^3
#
#
#
# Elastic Constant Matrix: (Units=GPa)
#
#
# Indices 1 2 3 4 5 6 
#
# 1 132.3756 16.2333 55.2073 5.0785 14.9929 40.1093
# 2 16.2333 58.3308 14.0826 0.5202 -8.6875 20.7992
# 3 55.2073 14.0826 162.3027 -20.5679 -4.0931 16.5265
# 4 5.0785 0.5202 -20.5679 31.7929 19.3885 -2.2396
# 5 14.9929 -8.6875 -4.0931 19.3885 50.8336 3.2975
# 6 40.1093 20.7992 16.5265 -2.2396 3.2975 27.0082
#
#
#
# Elastic Compliance Matrix: (Units=1/GPa)
#
#
# Indices 1 2 3 4 5 6 
#
# 1 0.018060 0.007070 -0.004765 -0.008673 0.000763 -0.030161
# 2 0.007070 0.029204 -0.002745 -0.011325 0.009169 -0.033368
# 3 -0.004765 -0.002745 0.008448 0.007582 -0.001590 0.004844
# 4 -0.008673 -0.011325 0.007582 0.051845 -0.020079 0.023713
# 5 0.000763 0.009169 -0.001590 -0.020079 0.029353 -0.012470
# 6 -0.030161 -0.033368 0.004844 0.023713 -0.012470 0.108039
#
#
# Mechanical properties :
#
#
# Convention : Reuss Voigt Hill
#
# Bulk Modulus (GPa) = 18.23789 58.22840 38.23314
# Shear Modulus (GPa) = 18.93181 39.75932 29.34556
#
# Velocity S-wave (km/s) = 2.79729 4.05379 3.48267
# Velocity P-wave (km/s) = 4.23924 6.78068 5.65459
#
# Compressibility (1/GPa) = 0.05483090
#
# Stress axis : x y z
#
# Youngs Moduli (GPa) = 55.37208 34.24242 118.37333
#
# Poissons Ratio (x) = -0.24210 0.56406
# Poissons Ratio (y) = -0.39148 0.32494
# Poissons Ratio (z) = 0.26385 0.09400
#
# Static dielectric constant tensor:
#      x y z
#    x 3.037460 -0.022480 1.467700 
#    y -0.022480 1.964610 0.158290 
#    z 1.467700 0.158290 3.684050 
# 
# From -- ./inp_files/472319.got.cif
#   From: 2010.05.17/outbox.cif.g08.bks.cpg/sg2_237_cif.got.tgz:472319.got - 2010.06.03 11:33:40.
