data_PCOD9010908
_publ_section_title
;
Structure prediction by ZEFSAII (Michael W. Deem and Ramdas Pophale) SiO2 
 PCOD9010908
Probable space group: P -1
;
_chemical_formula_sum "Si O2"
_cell_formula_units_Z 14
_cell_length_a 6.651455
_cell_length_b 10.039485
_cell_length_c 13.776074
_cell_angle_alpha 112.206732
_cell_angle_beta 52.677558
_cell_angle_gamma 92.404259
_cell_volume 655.037694
_symmetry_space_group_name_H-M "P -1"
_symmetry_group_IT_number 2
_symmetry_cell_setting 'triclinic'
loop_
_space_group_symop_operation_xyz
x,y,z
-x,-y,-z
loop_
_atom_site_type_symbol
_atom_site_label
_atom_site_fract_x
_atom_site_fract_y
_atom_site_fract_z
Si Si1 0.660112 0.345173 0.954817
Si Si2 0.238630 0.152003 0.040852
Si Si3 0.291534 0.641637 0.831183
Si Si4 0.619138 0.869619 0.788754
Si Si5 0.450758 0.386482 0.564467
Si Si6 0.125155 0.864588 0.530763
Si Si7 0.044999 0.198727 0.635001
O O1 0.460972 0.240716 0.988859
O O2 0.895720 0.268512 0.794451
O O3 0.500000 0.500000 0.000000
O O4 0.745929 0.367731 0.045373
O O5 0.351165 0.999140 0.908025
O O6 0.238186 0.119701 0.147074
O O7 0.965924 0.250973 0.110640
O O8 0.534141 0.716280 0.764759
O O9 0.352937 0.485569 0.715536
O O10 0.819623 0.889546 0.653958
O O11 0.500000 0.500000 0.500000
O O12 0.707485 0.259068 0.481602
O O13 0.234699 0.299974 0.576027
O O14 0.154291 0.805648 0.395821
O O15 0.185323 0.025118 0.563871
#
# Coordination Sequence:
#
# PCOD9010908 Si02
#       7
#     2   2   2   2   2   2   2
#     4  11  23  41  65  96 134 170 215 268 325 389
#     4  10  21  40  64  95 131 166 214 267 320 385
#     4  11  24  40  66 100 129 171 212 266 328 383
#     4  10  21  41  66  95 127 169 216 266 322 383
#     4  12  26  44  67  99 133 171 219 273 327 393
#     4  11  24  45  69  94 132 176 221 267 328 387
#     4  11  25  45  66  97 130 177 220 267 327 389
#
# _framework density 21.372817999999999
#
# number of rings (size 3 to 8) (size 9 to 14) (size 15 to 20)
#    0.000    1.143    1.429    4.286    0.000    8.000 
#    5.143    0.000    0.000    0.000    0.000    0.000 
#    0.000    0.000    0.000    0.000    0.000    0.000 
#
# Total GULP energy -78319.106343 kJ/mol
# GULP energy per Si atom -5594.221882 kJ/mol
# Density = 2.132417 g / cm^3
# Si number density = 21.372818 Si / 1000 Ang^3
#
#
#
# Elastic Constant Matrix: (Units=GPa)
#
#
# Indices 1 2 3 4 5 6 
#
# 1 65.6221 38.9287 35.4423 6.5580 3.8299 6.0258
# 2 38.9287 135.2079 36.7903 4.4748 8.5715 6.4550
# 3 35.4423 36.7903 100.4684 -5.0157 13.7491 10.2161
# 4 6.5580 4.4748 -5.0157 36.8689 5.5173 1.0250
# 5 3.8299 8.5715 13.7491 5.5173 21.2243 4.9290
# 6 6.0258 6.4550 10.2161 1.0250 4.9290 41.0233
#
#
#
# Elastic Compliance Matrix: (Units=1/GPa)
#
#
# Indices 1 2 3 4 5 6 
#
# 1 0.021900 -0.004503 -0.006707 -0.004787 0.003727 -0.001166
# 2 -0.004503 0.009244 -0.001543 -0.000255 -0.001812 -0.000185
# 3 -0.006707 -0.001543 0.014410 0.004633 -0.008364 -0.001471
# 4 -0.004787 -0.000255 0.004633 0.030112 -0.009868 0.000023
# 5 0.003727 -0.001812 -0.008364 -0.009868 0.056248 -0.004691
# 6 -0.001166 -0.000185 -0.001471 0.000023 -0.004691 0.025506
#
#
# Mechanical properties :
#
#
# Convention : Reuss Voigt Hill
#
# Bulk Modulus (GPa) = 49.87668 58.18011 54.02840
# Shear Modulus (GPa) = 26.37005 32.49912 29.43458
#
# Velocity S-wave (km/s) = 3.51638 3.90369 3.71509
# Velocity P-wave (km/s) = 6.31456 6.89921 6.61335
#
# Compressibility (1/GPa) = 0.02004945
#
# Stress axis : x y z
#
# Youngs Moduli (GPa) = 45.66126 108.17483 69.39631
#
# Poissons Ratio (x) = 0.48706 0.46547
# Poissons Ratio (y) = 0.20559 0.10705
# Poissons Ratio (z) = 0.30627 0.16688
#
# Static dielectric constant tensor:
#      x y z
#    x 1.770920 0.034560 0.014220 
#    y 0.034560 1.806750 -0.013180 
#    z 0.014220 -0.013180 1.773760 
# 
# From -- ./inp_files/363135.got.cif
#   From: 2010.05.17/outbox.cif.g08.bks.cpg/sg2_182_cif.got.tgz:363135.got - 2010.06.03 11:33:40.
