data_PCOD9010225
_publ_section_title
;
Structure prediction by ZEFSAII (Michael W. Deem and Ramdas Pophale) SiO2 
 PCOD9010225
Probable space group: P -1
;
_chemical_formula_sum "Si O2"
_cell_formula_units_Z 16
_cell_length_a 11.819929
_cell_length_b 8.251626
_cell_length_c 10.435924
_cell_angle_alpha 56.241696
_cell_angle_beta 106.131167
_cell_angle_gamma 124.090672
_cell_volume 699.972218
_symmetry_space_group_name_H-M "P -1"
_symmetry_group_IT_number 2
_symmetry_cell_setting 'triclinic'
loop_
_space_group_symop_operation_xyz
x,y,z
-x,-y,-z
loop_
_atom_site_type_symbol
_atom_site_label
_atom_site_fract_x
_atom_site_fract_y
_atom_site_fract_z
Si Si1 0.376661 0.118997 0.003073
Si Si2 0.405319 0.648423 0.516508
Si Si3 0.164555 0.208583 0.770100
Si Si4 0.080284 0.900234 0.647805
Si Si5 0.710498 0.792299 0.602316
Si Si6 0.008756 0.564174 0.323147
Si Si7 0.293665 0.937681 0.308709
Si Si8 0.373880 0.670611 0.194109
O O1 0.254788 0.163532 0.917946
O O2 0.508361 0.285043 0.889318
O O3 0.397469 0.121597 0.160903
O O4 0.342347 0.866691 0.063688
O O5 0.276115 0.409963 0.623453
O O6 0.547327 0.689107 0.596444
O O7 0.363911 0.831674 0.462711
O O8 0.421876 0.688242 0.350002
O O9 0.076268 0.305563 0.765704
O O10 0.082617 0.980138 0.759037
O O11 0.037889 0.650526 0.691643
O O12 0.234035 0.064732 0.571460
O O13 0.000000 0.000000 0.500000
O O14 0.741148 0.592031 0.725647
O O15 0.772673 0.962843 0.663497
O O16 0.000000 0.500000 0.500000
O O17 0.169780 0.737067 0.279269
#
# Coordination Sequence:
#
# PCOD9010225 Si02
#       8
#     2   2   2   2   2   2   2   2
#     4  10  24  42  60  89 134 175 199 259 331 381
#     4  11  20  38  68  95 125 157 214 275 315 373
#     4  12  22  43  68  96 129 169 215 268 319 380
#     4  12  23  39  70 100 123 168 216 272 321 366
#     4  12  21  36  67 100 120 162 220 261 320 384
#     4  12  23  43  65  97 129 165 220 268 314 375
#     4  11  24  42  62  90 136 168 204 268 324 376
#     4  10  21  40  62  92 129 164 211 257 320 394
#
# _framework density 22.858048
#
# number of rings (size 3 to 8) (size 9 to 14) (size 15 to 20)
#    0.000    0.750    6.250    1.500    1.750    1.000 
#    2.250    0.625    0.000    0.000    0.000    0.000 
#    0.000    0.000    0.000    0.000    0.000    0.000 
#
# Total GULP energy -89278.528372 kJ/mol
# GULP energy per Si atom -5579.908023 kJ/mol
# Density = 2.280602 g / cm^3
# Si number density = 22.858048 Si / 1000 Ang^3
#
#
#
# Elastic Constant Matrix: (Units=GPa)
#
#
# Indices 1 2 3 4 5 6 
#
# 1 99.7918 24.2170 9.5997 -9.6061 17.3214 -7.1143
# 2 24.2170 92.5219 9.2760 -18.6008 6.9152 -24.1611
# 3 9.5997 9.2760 72.0640 -17.5351 13.4879 -6.2122
# 4 -9.6061 -18.6008 -17.5351 17.3439 0.1175 2.7123
# 5 17.3214 6.9152 13.4879 0.1175 42.6318 -7.2218
# 6 -7.1143 -24.1611 -6.2122 2.7123 -7.2218 41.2869
#
#
#
# Elastic Compliance Matrix: (Units=1/GPa)
#
#
# Indices 1 2 3 4 5 6 
#
# 1 0.011714 -0.001666 0.000933 0.005682 -0.004805 -0.000030
# 2 -0.001666 0.017419 0.004119 0.020557 -0.002014 0.008824
# 3 0.000933 0.004119 0.021143 0.025929 -0.007340 0.002766
# 4 0.005682 0.020557 0.025929 0.107969 -0.012862 0.007568
# 5 -0.004805 -0.002014 -0.007340 -0.012862 0.028556 0.002729
# 6 -0.000030 0.008824 0.002766 0.007568 0.002729 0.029775
#
#
# Mechanical properties :
#
#
# Convention : Reuss Voigt Hill
#
# Bulk Modulus (GPa) = 17.52841 38.95145 28.23993
# Shear Modulus (GPa) = 21.85126 35.00484 28.42805
#
# Velocity S-wave (km/s) = 3.09521 3.91756 3.53041
# Velocity P-wave (km/s) = 4.52314 6.12704 5.38513
#
# Compressibility (1/GPa) = 0.05705022
#
# Stress axis : x y z
#
# Youngs Moduli (GPa) = 85.36565 57.40917 47.29649
#
# Poissons Ratio (x) = 0.09564 -0.04415
# Poissons Ratio (y) = 0.14221 -0.19483
# Poissons Ratio (z) = -0.07969 -0.23649
#
# Static dielectric constant tensor:
#      x y z
#    x 1.936980 -0.034600 -0.022150 
#    y -0.034600 1.935170 -0.056110 
#    z -0.022150 -0.056110 1.837240 
# 
# From -- ./inp_files/418955.got.cif
#   From: 2010.05.17/outbox.cif.g08.bks.cpg/sg2_210_cif.got.tgz:418955.got - 2010.06.03 11:33:40.
