data_PCOD9010655
_publ_section_title
;
Structure prediction by ZEFSAII (Michael W. Deem and Ramdas Pophale) SiO2 
 PCOD9010655
Probable space group: P -1
;
_chemical_formula_sum "Si O2"
_cell_formula_units_Z 14
_cell_length_a 9.242987
_cell_length_b 8.144915
_cell_length_c 13.985384
_cell_angle_alpha 43.944809
_cell_angle_beta 134.820807
_cell_angle_gamma 109.575020
_cell_volume 485.402349
_symmetry_space_group_name_H-M "P -1"
_symmetry_group_IT_number 2
_symmetry_cell_setting 'triclinic'
loop_
_space_group_symop_operation_xyz
x,y,z
-x,-y,-z
loop_
_atom_site_type_symbol
_atom_site_label
_atom_site_fract_x
_atom_site_fract_y
_atom_site_fract_z
Si Si1 0.106183 0.362340 0.007996
Si Si2 0.358257 0.222454 0.666217
Si Si3 0.143933 0.989528 0.945080
Si Si4 0.249257 0.421946 0.735503
Si Si5 0.517671 0.855787 0.444718
Si Si6 0.185086 0.907627 0.416684
Si Si7 0.666692 0.295067 0.097641
O O1 0.345944 0.139451 0.221802
O O2 0.146614 0.586956 0.876067
O O3 0.970033 0.189707 0.979766
O O4 0.000000 0.500000 0.000000
O O5 0.224488 0.362281 0.637281
O O6 0.377988 0.304377 0.532510
O O7 0.608312 0.131748 0.856574
O O8 0.286091 0.978481 0.722789
O O9 0.129700 0.284812 0.807330
O O10 0.037673 0.984697 0.791856
O O11 0.182308 0.721236 0.578407
O O12 0.508521 0.308847 0.927002
O O13 0.706682 0.897816 0.576411
O O14 0.366392 0.755310 0.484081
O O15 0.500000 0.500000 0.000000
#
# Coordination Sequence:
#
# PCOD9010655 Si02
#       7
#     2   2   2   2   2   2   2
#     4  11  20  36  61  93 122 158 210 259 302 364
#     4  11  22  40  64  95 127 161 214 262 315 369
#     4  10  23  37  63  94 125 156 211 265 310 359
#     4  11  21  39  64  91 128 169 205 260 320 373
#     4  10  22  40  64  89 122 171 210 253 314 384
#     4  10  21  40  64  84 125 172 209 250 318 380
#     4  11  20  38  63  92 124 169 207 250 317 375
#
# _framework density 28.842051999999999
#
# number of rings (size 3 to 8) (size 9 to 14) (size 15 to 20)
#    0.000    1.429    2.857    3.857    0.000    2.857 
#    0.000    0.714    9.429    0.000    0.000    0.000 
#    0.000    0.000    0.000    0.000    0.000    0.000 
#
# Total GULP energy -78242.727249 kJ/mol
# GULP energy per Si atom -5588.766232 kJ/mol
# Density = 2.877641 g / cm^3
# Si number density = 28.842052 Si / 1000 Ang^3
#
#
#
# Elastic Constant Matrix: (Units=GPa)
#
#
# Indices 1 2 3 4 5 6 
#
# 1 176.8950 79.3862 37.5243 0.6538 3.0657 28.5197
# 2 79.3862 158.9845 12.3472 11.8315 -8.5115 30.2019
# 3 37.5243 12.3472 91.0270 15.8501 19.2233 28.1031
# 4 0.6538 11.8315 15.8501 37.7821 7.7995 -14.7809
# 5 3.0657 -8.5115 19.2233 7.7995 52.7031 -5.1636
# 6 28.5197 30.2019 28.1031 -14.7809 -5.1636 85.4945
#
#
#
# Elastic Compliance Matrix: (Units=1/GPa)
#
#
# Indices 1 2 3 4 5 6 
#
# 1 0.008128 -0.004065 -0.003273 0.002664 -0.000306 0.000243
# 2 -0.004065 0.009290 0.002123 -0.005379 0.001419 -0.003468
# 3 -0.003273 0.002123 0.016965 -0.009512 -0.004950 -0.007178
# 4 0.002664 -0.005379 -0.009512 0.036543 -0.001949 0.010338
# 5 -0.000306 0.001419 -0.004950 -0.001949 0.021530 0.002191
# 6 0.000243 -0.003468 -0.007178 0.010338 0.002191 0.017120
#
#
# Mechanical properties :
#
#
# Convention : Reuss Voigt Hill
#
# Bulk Modulus (GPa) = 41.74897 76.15798 58.95348
# Shear Modulus (GPa) = 39.06543 55.03920 47.05231
#
# Velocity S-wave (km/s) = 3.68429 4.37314 4.04341
# Velocity P-wave (km/s) = 5.71009 7.20845 6.50257
#
# Compressibility (1/GPa) = 0.02395268
#
# Stress axis : x y z
#
# Youngs Moduli (GPa) = 123.02990 107.64356 58.94536
#
# Poissons Ratio (x) = 0.43758 0.19295
# Poissons Ratio (y) = 0.50013 -0.12517
# Poissons Ratio (z) = 0.40273 -0.22857
#
# Static dielectric constant tensor:
#      x y z
#    x 2.351730 -0.104180 0.039310 
#    y -0.104180 2.282210 0.003450 
#    z 0.039310 0.003450 2.293920 
# 
# From -- ./inp_files/374217.got.cif
#   From: 2010.05.17/outbox.cif.g08.bks.cpg/sg2_188_cif.got.tgz:374217.got - 2010.06.03 11:33:40.
