data_PCOD9010658
_publ_section_title
;
Structure prediction by ZEFSAII (Michael W. Deem and Ramdas Pophale) SiO2 
 PCOD9010658
Probable space group: P -1
;
_chemical_formula_sum "Si O2"
_cell_formula_units_Z 14
_cell_length_a 14.161679
_cell_length_b 11.011705
_cell_length_c 6.773037
_cell_angle_alpha 81.214728
_cell_angle_beta 110.037008
_cell_angle_gamma 42.121115
_cell_volume 508.180244
_symmetry_space_group_name_H-M "P -1"
_symmetry_group_IT_number 2
_symmetry_cell_setting 'triclinic'
loop_
_space_group_symop_operation_xyz
x,y,z
-x,-y,-z
loop_
_atom_site_type_symbol
_atom_site_label
_atom_site_fract_x
_atom_site_fract_y
_atom_site_fract_z
Si Si1 0.453189 0.429456 0.722919
Si Si2 0.956809 0.827230 0.605539
Si Si3 0.256681 0.321025 0.820362
Si Si4 0.428611 0.906699 0.629991
Si Si5 0.102298 0.669255 0.328939
Si Si6 0.308115 0.581617 0.041397
Si Si7 0.251309 0.087521 0.074049
O O1 0.252067 0.621870 0.411417
O O2 0.578791 0.420153 0.795156
O O3 0.594377 0.171256 0.829270
O O4 0.376410 0.502471 0.876723
O O5 0.096143 0.561803 0.775134
O O6 0.970611 0.847780 0.378125
O O7 0.075972 0.808423 0.809892
O O8 0.740507 0.011810 0.448009
O O9 0.227372 0.421981 0.566927
O O10 0.469197 0.121819 0.118178
O O11 0.205366 0.233210 0.834266
O O12 0.599819 0.638211 0.749568
O O13 0.336145 0.067159 0.332578
O O14 0.945050 0.779006 0.041620
#
# Coordination Sequence:
#
# PCOD9010658 Si02
#       7
#     2   2   2   2   2   2   2
#     4  10  21  40  64  85 118 151 201 241 288 343
#     4   8  19  38  62  80 115 157 196 230 282 356
#     4   9  22  40  58  85 119 161 194 227 292 354
#     4  11  21  39  62  85 119 158 193 234 296 347
#     4   9  21  39  58  87 115 152 198 237 284 341
#     4   9  20  42  63  85 113 160 195 238 289 355
#     4  12  24  35  60  94 118 149 196 246 291 336
#
# _framework density 27.549281000000001
#
# number of rings (size 3 to 8) (size 9 to 14) (size 15 to 20)
#    0.857    1.429    1.429    1.714    0.000    6.286 
#    0.000    5.714    0.000    0.000    0.000    0.000 
#    0.000    0.000    0.000    0.000    0.000    0.000 
#
# Total GULP energy -78284.443615 kJ/mol
# GULP energy per Si atom -5591.745973 kJ/mol
# Density = 2.748658 g / cm^3
# Si number density = 27.549281 Si / 1000 Ang^3
#
#
#
# Elastic Constant Matrix: (Units=GPa)
#
#
# Indices 1 2 3 4 5 6 
#
# 1 108.2963 13.1390 34.7956 7.2918 31.8581 0.5247
# 2 13.1390 57.6531 16.9014 4.1827 13.8771 2.2617
# 3 34.7956 16.9014 167.9538 16.8889 55.8383 -1.8530
# 4 7.2918 4.1827 16.8889 32.4669 2.0294 2.4542
# 5 31.8581 13.8771 55.8383 2.0294 57.3857 1.5797
# 6 0.5247 2.2617 -1.8530 2.4542 1.5797 39.5718
#
#
#
# Elastic Compliance Matrix: (Units=1/GPa)
#
#
# Indices 1 2 3 4 5 6 
#
# 1 0.011237 -0.000993 -0.000074 -0.002011 -0.005862 0.000263
# 2 -0.000993 0.018683 -0.000323 -0.001731 -0.003569 -0.000820
# 3 -0.000074 -0.000323 0.009419 -0.004366 -0.008921 0.001087
# 4 -0.002011 -0.001731 -0.004366 0.033633 0.004658 -0.002351
# 5 -0.005862 -0.003569 -0.008921 0.004658 0.030104 -0.001627
# 6 0.000263 -0.000820 0.001087 -0.002351 -0.001627 0.025576
#
#
# Mechanical properties :
#
#
# Convention : Reuss Voigt Hill
#
# Bulk Modulus (GPa) = 27.35266 51.50837 39.43052
# Shear Modulus (GPa) = 34.81499 43.82269 39.31884
#
# Velocity S-wave (km/s) = 3.55876 3.99269 3.78195
# Velocity P-wave (km/s) = 5.18040 6.32399 5.78054
#
# Compressibility (1/GPa) = 0.03655951
#
# Stress axis : x y z
#
# Youngs Moduli (GPa) = 88.99346 53.52529 106.17024
#
# Poissons Ratio (x) = 0.05313 0.00786
# Poissons Ratio (y) = 0.08833 0.03428
# Poissons Ratio (z) = 0.00658 0.01728
#
# Static dielectric constant tensor:
#      x y z
#    x 2.163310 -0.055960 -0.050470 
#    y -0.055960 2.130970 0.096200 
#    z -0.050470 0.096200 2.220920 
# 
# From -- ./inp_files/109113.got.cif
#   From: 2010.05.17/outbox.cif.g08.bks.cpg/sg2_55_cif.got.tgz:109113.got - 2010.06.03 11:33:40.
