data_PCOD9010053
_publ_section_title
;
Structure prediction by ZEFSAII (Michael W. Deem and Ramdas Pophale) SiO2 
 PCOD9010053
Probable space group: P -1
;
_chemical_formula_sum "Si O2"
_cell_formula_units_Z 14
_cell_length_a 5.055920
_cell_length_b 17.863545
_cell_length_c 7.486142
_cell_angle_alpha 87.523416
_cell_angle_beta 62.023992
_cell_angle_gamma 91.996699
_cell_volume 595.391670
_symmetry_space_group_name_H-M "P -1"
_symmetry_group_IT_number 2
_symmetry_cell_setting 'triclinic'
loop_
_space_group_symop_operation_xyz
x,y,z
-x,-y,-z
loop_
_atom_site_type_symbol
_atom_site_label
_atom_site_fract_x
_atom_site_fract_y
_atom_site_fract_z
Si Si1 0.668182 0.854833 0.864124
Si Si2 0.961852 0.231582 0.978027
Si Si3 0.200082 0.326809 0.580490
Si Si4 0.146516 0.488550 0.646025
Si Si5 0.906546 0.350737 0.288658
Si Si6 0.178981 0.929182 0.516575
Si Si7 0.345796 0.993567 0.840479
O O1 0.923803 0.742932 0.255498
O O2 0.836132 0.829147 0.989464
O O3 0.929341 0.861466 0.628763
O O4 0.538652 0.937849 0.904351
O O5 0.616930 0.200577 0.080715
O O6 0.988943 0.300049 0.102664
O O7 0.089176 0.400758 0.712440
O O8 0.559202 0.332709 0.453776
O O9 0.087228 0.332116 0.412371
O O10 0.500000 0.500000 0.500000
O O11 0.050521 0.560081 0.780524
O O12 0.000000 0.500000 0.500000
O O13 0.457045 0.932083 0.294185
O O14 0.310361 0.946132 0.669405
O O15 0.000000 0.000000 0.500000
O O16 0.000000 0.000000 0.000000
#
# Coordination Sequence:
#
# PCOD9010053 Si02
#       7
#     2   2   2   2   2   2   2
#     4  11  23  43  63  93 132 169 208 265 323 382
#     4  12  24  41  64  89 138 176 210 262 319 402
#     4  10  21  40  61  94 127 167 222 273 315 374
#     4   8  16  33  60  87 122 159 216 281 312 360
#     4  10  21  40  63  90 124 175 220 262 329 378
#     4   9  20  41  67  91 126 157 202 266 320 363
#     4  10  21  43  71  96 121 161 214 269 317 377
#
# _framework density 23.513935
#
# number of rings (size 3 to 8) (size 9 to 14) (size 15 to 20)
#    0.000    2.000    1.429    1.714    0.000    2.857 
#    2.571    7.143    0.000   12.000    0.000    0.000 
#    0.000    0.000    0.000    0.000    0.000    0.000 
#
# Total GULP energy -78218.777967 kJ/mol
# GULP energy per Si atom -5587.055569 kJ/mol
# Density = 2.346042 g / cm^3
# Si number density = 23.513935 Si / 1000 Ang^3
#
#
#
# Elastic Constant Matrix: (Units=GPa)
#
#
# Indices 1 2 3 4 5 6 
#
# 1 124.8438 7.1230 20.7276 -25.3277 -26.5676 -16.9064
# 2 7.1230 67.0370 23.6836 -3.5108 -0.3608 -12.8417
# 3 20.7276 23.6836 106.0124 -12.3355 -6.7775 -9.5382
# 4 -25.3277 -3.5108 -12.3355 41.5860 -3.5691 5.4116
# 5 -26.5676 -0.3608 -6.7775 -3.5691 23.8887 -1.9821
# 6 -16.9064 -12.8417 -9.5382 5.4116 -1.9821 34.8588
#
#
#
# Elastic Compliance Matrix: (Units=1/GPa)
#
#
# Indices 1 2 3 4 5 6 
#
# 1 0.014851 0.000364 -0.000047 0.009760 0.018536 0.006863
# 2 0.000364 0.017145 -0.003395 -0.000051 0.000156 0.005580
# 3 -0.000047 -0.003395 0.010912 0.003040 0.003566 0.001443
# 4 0.009760 -0.000051 0.003040 0.032120 0.016640 0.001506
# 5 0.018536 0.000156 0.003566 0.016640 0.066909 0.011245
# 6 0.006863 0.005580 0.001443 0.001506 0.011245 0.034872
#
#
# Mechanical properties :
#
#
# Convention : Reuss Voigt Hill
#
# Bulk Modulus (GPa) = 27.20937 44.55130 35.88033
# Shear Modulus (GPa) = 25.61265 36.49062 31.05163
#
# Velocity S-wave (km/s) = 3.30397 3.94365 3.63790
# Velocity P-wave (km/s) = 5.11387 6.30273 5.73917
#
# Compressibility (1/GPa) = 0.03675205
#
# Stress axis : x y z
#
# Youngs Moduli (GPa) = 67.33555 58.32547 91.64129
#
# Poissons Ratio (x) = -0.02124 0.00430
# Poissons Ratio (y) = -0.02452 0.31115
# Poissons Ratio (z) = 0.00316 0.19803
#
# Static dielectric constant tensor:
#      x y z
#    x 1.925130 0.056310 0.069020 
#    y 0.056310 2.009280 0.045140 
#    z 0.069020 0.045140 1.904070 
# 
# From -- ./inp_files/140636.got.cif
#   From: 2010.05.17/outbox.cif.g08.bks.cpg/sg2_71_cif.got.tgz:140636.got - 2010.06.03 11:33:40.
