data_PCOD9010024
_publ_section_title
;
Structure prediction by ZEFSAII (Michael W. Deem and Ramdas Pophale) SiO2 
 PCOD9010024
Probable space group: P -1
;
_chemical_formula_sum "Si O2"
_cell_formula_units_Z 16
_cell_length_a 18.649598
_cell_length_b 24.951468
_cell_length_c 6.985589
_cell_angle_alpha 114.883975
_cell_angle_beta 122.621273
_cell_angle_gamma 18.725293
_cell_volume 829.086003
_symmetry_space_group_name_H-M "P -1"
_symmetry_group_IT_number 2
_symmetry_cell_setting 'triclinic'
loop_
_space_group_symop_operation_xyz
x,y,z
-x,-y,-z
loop_
_atom_site_type_symbol
_atom_site_label
_atom_site_fract_x
_atom_site_fract_y
_atom_site_fract_z
Si Si1 0.865931 0.301010 0.193459
Si Si2 0.428585 0.109237 0.659160
Si Si3 0.705363 0.918061 0.139337
Si Si4 0.386023 0.599624 0.679871
Si Si5 0.386640 0.924826 0.425895
Si Si6 0.906569 0.085416 0.289342
Si Si7 0.057094 0.625514 0.459194
Si Si8 0.602340 0.218013 0.729102
O O1 0.776813 0.340041 0.336976
O O2 0.969015 0.299764 0.333057
O O3 0.626653 0.454639 0.943713
O O4 0.104776 0.103634 0.193878
O O5 0.432572 0.157682 0.580715
O O6 0.156235 0.280489 0.631405
O O7 0.500000 0.000000 0.500000
O O8 0.648221 0.977268 0.934133
O O9 0.966008 0.712714 0.255998
O O10 0.653905 0.005664 0.343959
O O11 0.500000 0.000000 0.000000
O O12 0.500000 0.500000 0.500000
O O13 0.223497 0.764980 0.658758
O O14 0.464413 0.807607 0.403023
O O15 0.704489 0.176470 0.017997
O O16 0.000000 0.000000 0.500000
O O17 0.160450 0.925752 0.286303
O O18 0.347002 0.416451 0.582965
#
# Coordination Sequence:
#
# PCOD9010024 Si02
#       8
#     2   2   2   2   2   2   2   2
#     4  10  21  40  61  91 125 160 209 260 310 355
#     4  11  20  39  67  92 123 160 208 262 310 358
#     4   9  19  38  62  91 119 155 215 254 306 355
#     4  11  24  38  65  96 119 156 219 263 306 371
#     4  11  22  39  65  89 126 171 201 260 312 366
#     4  11  26  44  64  90 131 173 203 255 326 375
#     4  10  21  41  63  91 122 169 204 257 308 364
#     4  11  25  46  61  88 140 166 205 256 316 385
#
# _framework density 19.298359999999999
#
# number of rings (size 3 to 8) (size 9 to 14) (size 15 to 20)
#    0.000    1.500    6.250    0.000    3.500    3.500 
#    2.250    2.500    0.000    0.000    0.000    0.000 
#    0.000    0.000    0.000    0.000    0.000    0.000 
#
# Total GULP energy -89183.787992 kJ/mol
# GULP energy per Si atom -5573.986749 kJ/mol
# Density = 1.925444 g / cm^3
# Si number density = 19.298360 Si / 1000 Ang^3
#
#
#
# Elastic Constant Matrix: (Units=GPa)
#
#
# Indices 1 2 3 4 5 6 
#
# 1 83.6577 16.7698 49.4297 9.3353 -2.2176 7.7108
# 2 16.7698 94.4033 51.9322 -6.9815 -3.7543 15.7821
# 3 49.4297 51.9322 120.8112 -6.9328 -13.3825 10.2265
# 4 9.3353 -6.9815 -6.9328 23.7901 -8.5955 -4.1508
# 5 -2.2176 -3.7543 -13.3825 -8.5955 23.0710 -4.1859
# 6 7.7108 15.7821 10.2265 -4.1508 -4.1859 30.9898
#
#
#
# Elastic Compliance Matrix: (Units=1/GPa)
#
#
# Indices 1 2 3 4 5 6 
#
# 1 0.019599 0.001578 -0.010224 -0.014962 -0.010401 -0.005715
# 2 0.001578 0.015002 -0.006875 -0.000230 -0.002596 -0.006145
# 3 -0.010224 -0.006875 0.017279 0.012487 0.013264 0.003807
# 4 -0.014962 -0.000230 0.012487 0.065463 0.032493 0.012877
# 5 -0.010401 -0.002596 0.013264 0.032493 0.063995 0.012529
# 6 -0.005715 -0.006145 0.003807 0.012877 0.012529 0.038981
#
#
# Mechanical properties :
#
#
# Convention : Reuss Voigt Hill
#
# Bulk Modulus (GPa) = 47.98916 59.45949 53.72433
# Shear Modulus (GPa) = 19.35681 27.61957 23.48819
#
# Velocity S-wave (km/s) = 3.17050 3.78721 3.49249
# Velocity P-wave (km/s) = 6.19061 7.07117 6.64549
#
# Compressibility (1/GPa) = 0.02083804
#
# Stress axis : x y z
#
# Youngs Moduli (GPa) = 51.02344 66.65984 57.87212
#
# Poissons Ratio (x) = -0.10520 0.59170
# Poissons Ratio (y) = -0.08053 0.39787
# Poissons Ratio (z) = 0.52168 0.45828
#
# Static dielectric constant tensor:
#      x y z
#    x 1.701680 -0.019610 0.011550 
#    y -0.019610 1.663460 -0.015220 
#    z 0.011550 -0.015220 1.732710 
# 
# From -- ./inp_files/112937.got.cif
#   From: 2010.05.17/outbox.cif.g08.bks.cpg/sg2_57_cif.got.tgz:112937.got - 2010.06.03 11:33:40.
