data_PCOD9010213
_publ_section_title
;
Structure prediction by ZEFSAII (Michael W. Deem and Ramdas Pophale) SiO2 
 PCOD9010213
Probable space group: P -1
;
_chemical_formula_sum "Si O2"
_cell_formula_units_Z 16
_cell_length_a 9.364898
_cell_length_b 12.534230
_cell_length_c 18.296377
_cell_angle_alpha 30.026343
_cell_angle_beta 50.133982
_cell_angle_gamma 39.069614
_cell_volume 674.014951
_symmetry_space_group_name_H-M "P -1"
_symmetry_group_IT_number 2
_symmetry_cell_setting 'triclinic'
loop_
_space_group_symop_operation_xyz
x,y,z
-x,-y,-z
loop_
_atom_site_type_symbol
_atom_site_label
_atom_site_fract_x
_atom_site_fract_y
_atom_site_fract_z
Si Si1 0.652592 0.733064 0.151779
Si Si2 0.006747 0.803618 0.057025
Si Si3 0.151950 0.477396 0.562179
Si Si4 0.927175 0.894346 0.262506
Si Si5 0.510213 0.413779 0.131392
Si Si6 0.832137 0.429179 0.124736
Si Si7 0.918386 0.954297 0.449737
Si Si8 0.388156 0.690971 0.537056
O O1 0.789552 0.529109 0.162481
O O2 0.534957 0.605633 0.301208
O O3 0.807254 0.763359 0.139031
O O4 0.500000 0.000000 0.000000
O O5 0.247253 0.535620 0.156394
O O6 0.003085 0.929823 0.903651
O O7 0.000000 0.000000 0.000000
O O8 0.113041 0.253893 0.698738
O O9 0.975529 0.693213 0.548868
O O10 0.424058 0.326718 0.565557
O O11 0.094807 0.654536 0.402702
O O12 0.686401 0.102326 0.257348
O O13 0.613948 0.524904 0.086928
O O14 0.500000 0.500000 0.000000
O O15 0.933916 0.126941 0.280355
O O16 0.000000 0.500000 0.000000
O O17 0.143652 0.842069 0.489947
O O18 0.684596 0.142447 0.461294
#
# Coordination Sequence:
#
# PCOD9010213 Si02
#       8
#     2   2   2   2   2   2   2   2
#     4  11  24  41  67  97 134 173 221 286 337 407
#     4  11  24  42  65  98 136 174 221 283 345 410
#     4  11  22  43  68  92 134 179 220 282 333 407
#     4  10  23  41  63  95 127 174 228 264 343 412
#     4  10  21  40  62  91 134 168 217 280 331 403
#     4  11  22  39  67  96 127 177 227 280 343 402
#     4  10  23  42  65  95 134 170 228 280 338 398
#     4  10  24  42  67  99 132 173 231 280 337 408
#
# _framework density 23.738344000000001
#
# number of rings (size 3 to 8) (size 9 to 14) (size 15 to 20)
#    0.000    1.500    1.250    3.375    3.500    6.000 
#    0.000    1.250    0.000    0.000    0.000    0.000 
#    0.000    0.000    0.000    0.000    0.000    0.000 
#
# Total GULP energy -89238.421591 kJ/mol
# GULP energy per Si atom -5577.401349 kJ/mol
# Density = 2.368431 g / cm^3
# Si number density = 23.738344 Si / 1000 Ang^3
#
#
#
# Elastic Constant Matrix: (Units=GPa)
#
#
# Indices 1 2 3 4 5 6 
#
# 1 101.2967 15.5712 16.9636 -9.5235 -12.5508 15.6266
# 2 15.5712 73.0242 12.4361 -23.3834 -26.0495 11.7052
# 3 16.9636 12.4361 88.1976 -3.8528 -9.6709 -10.0666
# 4 -9.5235 -23.3834 -3.8528 39.9949 2.3352 1.1986
# 5 -12.5508 -26.0495 -9.6709 2.3352 37.8220 -3.1191
# 6 15.6266 11.7052 -10.0666 1.1986 -3.1191 29.7111
#
#
#
# Elastic Compliance Matrix: (Units=1/GPa)
#
#
# Indices 1 2 3 4 5 6 
#
# 1 0.012067 0.001505 -0.002880 0.003505 0.003454 -0.007694
# 2 0.001505 0.025944 -0.002813 0.014657 0.015846 -0.010894
# 3 -0.002880 -0.002813 0.013187 -0.001346 0.001161 0.007267
# 4 0.003505 0.014657 -0.001346 0.034062 0.008102 -0.008597
# 5 0.003454 0.015846 0.001161 0.008102 0.037965 -0.004007
# 6 -0.007694 -0.010894 0.007267 -0.008597 -0.004007 0.044384
#
#
# Mechanical properties :
#
#
# Convention : Reuss Voigt Hill
#
# Bulk Modulus (GPa) = 23.35228 39.16227 31.25727
# Shear Modulus (GPa) = 26.27979 36.00878 31.14428
#
# Velocity S-wave (km/s) = 3.33086 3.89897 3.62606
# Velocity P-wave (km/s) = 4.96504 6.06651 5.54320
#
# Compressibility (1/GPa) = 0.04282238
#
# Stress axis : x y z
#
# Youngs Moduli (GPa) = 82.86903 38.54382 75.83446
#
# Poissons Ratio (x) = -0.05800 0.21837
# Poissons Ratio (y) = -0.12470 0.21334
# Poissons Ratio (z) = 0.23862 0.10843
#
# Static dielectric constant tensor:
#      x y z
#    x 2.007720 -0.018710 0.075900 
#    y -0.018710 1.943600 0.102910 
#    z 0.075900 0.102910 1.885480 
# 
# From -- ./inp_files/259673.got.cif
#   From: 2010.05.17/outbox.cif.g08.bks.cpg/sg2_130_cif.got.tgz:259673.got - 2010.06.03 11:33:40.
