data_PCOD9010390
_publ_section_title
;
Structure prediction by ZEFSAII (Michael W. Deem and Ramdas Pophale) SiO2 
 PCOD9010390
Probable space group: P -1
;
_chemical_formula_sum "Si O2"
_cell_formula_units_Z 14
_cell_length_a 10.770869
_cell_length_b 15.630317
_cell_length_c 8.354938
_cell_angle_alpha 34.765716
_cell_angle_beta 131.261111
_cell_angle_gamma 134.817191
_cell_volume 557.575991
_symmetry_space_group_name_H-M "P -1"
_symmetry_group_IT_number 2
_symmetry_cell_setting 'triclinic'
loop_
_space_group_symop_operation_xyz
x,y,z
-x,-y,-z
loop_
_atom_site_type_symbol
_atom_site_label
_atom_site_fract_x
_atom_site_fract_y
_atom_site_fract_z
Si Si1 0.326663 0.174297 0.743001
Si Si2 0.088536 0.920804 0.449537
Si Si3 0.252658 0.629802 0.625363
Si Si4 0.372729 0.567009 0.507213
Si Si5 0.021450 0.401400 0.320326
Si Si6 0.740654 0.142249 0.995983
Si Si7 0.567912 0.853434 0.765344
O O1 0.416781 0.355430 0.465071
O O2 0.112911 0.092432 0.700582
O O3 0.363596 0.045099 0.855135
O O4 0.399369 0.187128 0.964573
O O5 0.087058 0.785187 0.527652
O O6 0.124942 0.872162 0.733355
O O7 0.249503 0.083126 0.280789
O O8 0.316936 0.533299 0.696071
O O9 0.069411 0.541771 0.697609
O O10 0.413926 0.710764 0.761112
O O11 0.217559 0.770073 0.276682
O O12 0.225676 0.430894 0.488564
O O13 0.328475 0.727300 0.180490
O O14 0.000000 0.500000 0.000000
O O15 0.500000 0.000000 0.500000
#
# Coordination Sequence:
#
# PCOD9010390 Si02
#       7
#     2   2   2   2   2   2   2
#     4  12  23  40  60  95 130 154 199 258 312 357
#     4  12  25  37  62  96 126 160 193 260 317 351
#     4  10  22  37  67  91 112 155 219 251 288 349
#     4  10  22  38  64  85 120 165 210 238 294 360
#     4  12  21  40  63  91 121 160 211 249 293 369
#     4  10  21  40  63  89 119 160 208 248 302 358
#     4  12  20  39  65  90 122 157 209 250 299 362
#
# _framework density 25.108684
#
# number of rings (size 3 to 8) (size 9 to 14) (size 15 to 20)
#    0.857    0.000    4.286    4.286    0.000    0.571 
#    0.000    0.000    0.000    2.571    0.000    0.000 
#    0.000    0.000    0.000    0.000    0.000    0.000 
#
# Total GULP energy -78190.425482 kJ/mol
# GULP energy per Si atom -5585.030392 kJ/mol
# Density = 2.505154 g / cm^3
# Si number density = 25.108684 Si / 1000 Ang^3
#
#
#
# Elastic Constant Matrix: (Units=GPa)
#
#
# Indices 1 2 3 4 5 6 
#
# 1 105.5409 27.0963 21.0594 12.1973 -1.1207 15.3377
# 2 27.0963 111.1001 25.7351 22.8890 -3.3772 3.2451
# 3 21.0594 25.7351 55.1277 19.0277 -14.4045 -17.9650
# 4 12.1973 22.8890 19.0277 33.9809 -5.2914 -11.8119
# 5 -1.1207 -3.3772 -14.4045 -5.2914 24.1562 3.9607
# 6 15.3377 3.2451 -17.9650 -11.8119 3.9607 36.6947
#
#
#
# Elastic Compliance Matrix: (Units=1/GPa)
#
#
# Indices 1 2 3 4 5 6 
#
# 1 0.012964 -0.000377 -0.007410 -0.004229 -0.003151 -0.010034
# 2 -0.000377 0.011901 -0.005322 -0.007180 -0.002186 -0.005576
# 3 -0.007410 -0.005322 0.034919 -0.004791 0.015830 0.017413
# 4 -0.004229 -0.007180 -0.004791 0.043769 0.003269 0.013793
# 5 -0.003151 -0.002186 0.015830 0.003269 0.050301 0.004884
# 6 -0.010034 -0.005576 0.017413 0.013793 0.004884 0.044377
#
#
# Mechanical properties :
#
#
# Convention : Reuss Voigt Hill
#
# Bulk Modulus (GPa) = 29.79136 46.61669 38.20403
# Shear Modulus (GPa) = 21.21909 32.15823 26.68866
#
# Velocity S-wave (km/s) = 2.91020 3.58265 3.26379
# Velocity P-wave (km/s) = 4.81488 5.97663 5.42693
#
# Compressibility (1/GPa) = 0.03356678
#
# Stress axis : x y z
#
# Youngs Moduli (GPa) = 77.13761 84.02584 28.63749
#
# Poissons Ratio (x) = 0.03165 0.21221
# Poissons Ratio (y) = 0.02906 0.15240
# Poissons Ratio (z) = 0.57161 0.44717
#
# Static dielectric constant tensor:
#      x y z
#    x 2.142880 0.055290 0.088590 
#    y 0.055290 2.007670 -0.025060 
#    z 0.088590 -0.025060 1.958850 
# 
# From -- ./inp_files/259032.got.cif
#   From: 2010.05.17/outbox.cif.g08.bks.cpg/sg2_130_cif.got.tgz:259032.got - 2010.06.03 11:33:40.
