data_PCOD9010102
_publ_section_title
;
Structure prediction by ZEFSAII (Michael W. Deem and Ramdas Pophale) SiO2 
 PCOD9010102
Probable space group: P -1
;
_chemical_formula_sum "Si O2"
_cell_formula_units_Z 14
_cell_length_a 8.410476
_cell_length_b 10.213004
_cell_length_c 11.500989
_cell_angle_alpha 71.876682
_cell_angle_beta 140.744858
_cell_angle_gamma 97.717911
_cell_volume 584.697674
_symmetry_space_group_name_H-M "P -1"
_symmetry_group_IT_number 2
_symmetry_cell_setting 'triclinic'
loop_
_space_group_symop_operation_xyz
x,y,z
-x,-y,-z
loop_
_atom_site_type_symbol
_atom_site_label
_atom_site_fract_x
_atom_site_fract_y
_atom_site_fract_z
Si Si1 0.452148 0.921459 0.613419
Si Si2 0.541914 0.807389 0.126457
Si Si3 0.083936 0.998457 0.761159
Si Si4 0.183941 0.192485 0.951583
Si Si5 0.074004 0.503064 0.878080
Si Si6 0.432789 0.401903 0.293234
Si Si7 0.153745 0.434267 0.493749
O O1 0.656771 0.911289 0.835705
O O2 0.465342 0.756923 0.639905
O O3 0.163283 0.993896 0.458296
O O4 0.500000 0.000000 0.500000
O O5 0.692618 0.937984 0.194061
O O6 0.660573 0.703190 0.321672
O O7 0.635191 0.760577 0.061285
O O8 0.237703 0.853945 0.938552
O O9 0.016175 0.103613 0.804339
O O10 0.057565 0.337316 0.899644
O O11 0.828338 0.580814 0.787344
O O12 0.046452 0.575678 0.717754
O O13 0.337707 0.494628 0.099059
O O14 0.656298 0.462360 0.465787
O O15 0.000000 0.500000 0.500000
#
# Coordination Sequence:
#
# PCOD9010102 Si02
#       7
#     2   2   2   2   2   2   2
#     4  11  23  38  62  84 114 161 204 236 296 359
#     4   9  20  39  60  89 120 152 196 242 304 353
#     4   9  20  41  56  84 124 149 191 252 285 348
#     4   9  19  40  59  86 119 154 192 250 296 342
#     4  10  21  40  62  85 127 157 196 250 295 354
#     4  10  24  41  58  92 124 155 200 251 297 350
#     4  12  21  38  65  91 118 160 201 240 306 359
#
# _framework density 23.943998000000001
#
# number of rings (size 3 to 8) (size 9 to 14) (size 15 to 20)
#    0.857    1.143    1.429    2.143    0.000    6.286 
#    2.571    0.000    0.000    0.000    0.000    0.000 
#    0.000    0.000    0.000    0.000    0.000    0.000 
#
# Total GULP energy -78111.586970 kJ/mol
# GULP energy per Si atom -5579.399069 kJ/mol
# Density = 2.388950 g / cm^3
# Si number density = 23.943998 Si / 1000 Ang^3
#
#
#
# Elastic Constant Matrix: (Units=GPa)
#
#
# Indices 1 2 3 4 5 6 
#
# 1 38.2790 -7.7455 19.5863 2.1868 -2.8750 -5.8403
# 2 -7.7455 19.0138 12.0944 -6.1675 -2.5764 -1.0054
# 3 19.5863 12.0944 189.0770 -11.6316 -13.2708 -0.8434
# 4 2.1868 -6.1675 -11.6316 34.4633 -4.3305 0.0329
# 5 -2.8750 -2.5764 -13.2708 -4.3305 42.1926 -1.5815
# 6 -5.8403 -1.0054 -0.8434 0.0329 -1.5815 25.3800
#
#
#
# Elastic Compliance Matrix: (Units=1/GPa)
#
#
# Indices 1 2 3 4 5 6 
#
# 1 0.033232 0.016956 -0.004351 -0.000272 0.002215 0.008312
# 2 0.016956 0.066916 -0.005060 0.009802 0.004906 0.006678
# 3 -0.004351 -0.005060 0.006268 0.001676 0.001504 -0.000902
# 4 -0.000272 0.009802 0.001676 0.031906 0.004405 0.000614
# 5 0.002215 0.004906 0.001504 0.004405 0.025163 0.002316
# 6 0.008312 0.006678 -0.000902 0.000614 0.002316 0.041692
#
#
# Mechanical properties :
#
#
# Convention : Reuss Voigt Hill
#
# Bulk Modulus (GPa) = 8.23000 32.69336 20.46168
# Shear Modulus (GPa) = 21.68360 35.23616 28.45988
#
# Velocity S-wave (km/s) = 3.01258 3.84031 3.45135
# Velocity P-wave (km/s) = 3.94278 5.77475 4.94435
#
# Compressibility (1/GPa) = 0.12150666
#
# Stress axis : x y z
#
# Youngs Moduli (GPa) = 30.09184 14.94403 159.54318
#
# Poissons Ratio (x) = -0.25340 0.69422
# Poissons Ratio (y) = -0.51025 0.80724
# Poissons Ratio (z) = 0.13094 0.07561
#
# Static dielectric constant tensor:
#      x y z
#    x 1.956910 -0.010020 -0.033990 
#    y -0.010020 1.924360 -0.047240 
#    z -0.033990 -0.047240 1.908640 
# 
# From -- ./inp_files/389859.got.cif
#   From: 2010.05.17/outbox.cif.g08.bks.cpg/sg2_195_cif.got.tgz:389859.got - 2010.06.03 11:33:40.
