data_PCOD9010466
_publ_section_title
;
Structure prediction by ZEFSAII (Michael W. Deem and Ramdas Pophale) SiO2 
 PCOD9010466
Probable space group: P -1
;
_chemical_formula_sum "Si O2"
_cell_formula_units_Z 16
_cell_length_a 14.923138
_cell_length_b 14.494206
_cell_length_c 15.114302
_cell_angle_alpha 29.826976
_cell_angle_beta 128.391917
_cell_angle_gamma 149.698625
_cell_volume 705.725649
_symmetry_space_group_name_H-M "P -1"
_symmetry_group_IT_number 2
_symmetry_cell_setting 'triclinic'
loop_
_space_group_symop_operation_xyz
x,y,z
-x,-y,-z
loop_
_atom_site_type_symbol
_atom_site_label
_atom_site_fract_x
_atom_site_fract_y
_atom_site_fract_z
Si Si1 0.283098 0.171052 0.188772
Si Si2 0.727942 0.260826 0.466994
Si Si3 0.983218 0.861290 0.014695
Si Si4 0.103389 0.819754 0.755360
Si Si5 0.311547 0.509470 0.591107
Si Si6 0.274170 0.107772 0.443028
Si Si7 0.301929 0.539551 0.177023
Si Si8 0.534612 0.236186 0.710447
O O1 0.167592 0.209161 0.073173
O O2 0.252878 0.093178 0.338441
O O3 0.232476 0.897062 0.349644
O O4 0.500000 0.500000 0.000000
O O5 0.756367 0.422456 0.438917
O O6 0.500000 0.000000 0.500000
O O7 0.886987 0.540403 0.255113
O O8 0.196703 0.167968 0.838442
O O9 0.000000 0.000000 0.000000
O O10 0.944835 0.764428 0.734032
O O11 0.098400 0.817272 0.647345
O O12 0.344900 0.128836 0.673054
O O13 0.000000 0.500000 0.000000
O O14 0.553009 0.813256 0.502115
O O15 0.300564 0.523051 0.468284
O O16 0.355017 0.417611 0.266533
O O17 0.362214 0.609205 0.259287
O O18 0.424782 0.884963 0.928819
#
# Coordination Sequence:
#
# PCOD9010466 Si02
#       8
#     2   2   2   2   2   2   2   2
#     4  12  24  41  69  96 131 176 223 268 330 397
#     4  11  21  43  67  90 133 175 216 278 325 388
#     4  10  23  43  62  96 131 169 223 274 326 393
#     4   9  20  41  64  89 128 164 216 269 323 395
#     4  10  22  41  63  91 131 165 216 269 329 396
#     4  11  23  40  63  96 125 168 218 268 331 395
#     4  10  21  40  63  91 130 160 217 272 322 398
#     4   9  21  40  63  90 124 172 208 265 338 388
#
# _framework density 22.671700000000001
#
# number of rings (size 3 to 8) (size 9 to 14) (size 15 to 20)
#    0.000    1.750    2.500    1.125    3.500    4.000 
#    6.750    0.000    0.000    0.000    0.000    0.000 
#    0.000    0.000    0.000    0.000    0.000    0.000 
#
# Total GULP energy -89191.478769 kJ/mol
# GULP energy per Si atom -5574.467423 kJ/mol
# Density = 2.262010 g / cm^3
# Si number density = 22.671700 Si / 1000 Ang^3
#
#
#
# Elastic Constant Matrix: (Units=GPa)
#
#
# Indices 1 2 3 4 5 6 
#
# 1 82.3107 5.5602 30.1292 -5.5429 -3.4622 0.8080
# 2 5.5602 35.2235 1.6414 6.9866 -8.4592 1.2456
# 3 30.1292 1.6414 138.2135 -6.0441 -11.6259 -3.8977
# 4 -5.5429 6.9866 -6.0441 28.5467 0.9119 0.5862
# 5 -3.4622 -8.4592 -11.6259 0.9119 43.4072 2.8491
# 6 0.8080 1.2456 -3.8977 0.5862 2.8491 21.5584
#
#
#
# Elastic Compliance Matrix: (Units=1/GPa)
#
#
# Indices 1 2 3 4 5 6 
#
# 1 0.013545 -0.002545 -0.002846 0.002675 -0.000173 -0.000925
# 2 -0.002545 0.032087 0.000282 -0.008446 0.006456 -0.002331
# 3 -0.002846 0.000282 0.008091 0.001005 0.001890 0.001276
# 4 0.002675 -0.008446 0.001005 0.037896 -0.001946 -0.000204
# 5 -0.000173 0.006456 0.001890 -0.001946 0.025045 -0.003282
# 6 -0.000925 -0.002331 0.001276 -0.000204 -0.003282 0.047225
#
#
# Mechanical properties :
#
#
# Convention : Reuss Voigt Hill
#
# Bulk Modulus (GPa) = 22.98634 36.71215 29.84924
# Shear Modulus (GPa) = 26.50994 33.26357 29.88675
#
# Velocity S-wave (km/s) = 3.42321 3.83454 3.63470
# Velocity P-wave (km/s) = 5.07792 5.98607 5.55060
#
# Compressibility (1/GPa) = 0.04350410
#
# Stress axis : x y z
#
# Youngs Moduli (GPa) = 73.82958 31.16531 123.59135
#
# Poissons Ratio (x) = 0.07931 0.35175
# Poissons Ratio (y) = 0.18789 -0.03481
# Poissons Ratio (z) = 0.21013 -0.00878
#
# Static dielectric constant tensor:
#      x y z
#    x 1.849700 0.100280 0.044040 
#    y 0.100280 1.945700 -0.053380 
#    z 0.044040 -0.053380 1.785710 
# 
# From -- ./inp_files/202290.got.cif
#   From: 2010.05.17/outbox.cif.g08.bks.cpg/sg2_102_cif.got.tgz:202290.got - 2010.06.03 11:33:40.
