data_PCOD9010888
_publ_section_title
;
Structure prediction by ZEFSAII (Michael W. Deem and Ramdas Pophale) SiO2 
 PCOD9010888
Probable space group: P -1
;
_chemical_formula_sum "Si O2"
_cell_formula_units_Z 16
_cell_length_a 11.209547
_cell_length_b 15.463118
_cell_length_c 6.772754
_cell_angle_alpha 144.222784
_cell_angle_beta 92.632385
_cell_angle_gamma 74.960436
_cell_volume 634.035578
_symmetry_space_group_name_H-M "P -1"
_symmetry_group_IT_number 2
_symmetry_cell_setting 'triclinic'
loop_
_space_group_symop_operation_xyz
x,y,z
-x,-y,-z
loop_
_atom_site_type_symbol
_atom_site_label
_atom_site_fract_x
_atom_site_fract_y
_atom_site_fract_z
Si Si1 0.761727 0.299521 0.517181
Si Si2 0.502469 0.639181 0.407615
Si Si3 0.934531 0.848443 0.788117
Si Si4 0.129905 0.351871 0.284440
Si Si5 0.751080 0.121358 0.533092
Si Si6 0.237031 0.054694 0.429987
Si Si7 0.469974 0.148577 0.513154
Si Si8 0.359661 0.432250 0.324800
O O1 0.646271 0.239136 0.346898
O O2 0.747496 0.283930 0.728104
O O3 0.710230 0.451637 0.648376
O O4 0.912065 0.215594 0.332674
O O5 0.567895 0.744697 0.492643
O O6 0.553347 0.554929 0.461817
O O7 0.500000 0.500000 0.000000
O O8 0.892523 0.712980 0.627147
O O9 0.860369 0.907751 0.689251
O O10 0.877271 0.992790 0.204859
O O11 0.244321 0.413180 0.402475
O O12 0.000000 0.500000 0.500000
O O13 0.173617 0.207769 0.858783
O O14 0.626465 0.073626 0.385246
O O15 0.760661 0.097312 0.722768
O O16 0.377116 0.053638 0.370802
O O17 0.442473 0.268980 0.917854
#
# Coordination Sequence:
#
# PCOD9010888 Si02
#       8
#     2   2   2   2   2   2   2   2
#     4  11  23  41  62  90 131 166 205 258 309 377
#     4  11  23  39  61  99 125 157 208 250 319 381
#     4  11  23  43  61  93 130 165 210 257 310 367
#     4  10  21  40  64  95 123 162 206 252 314 380
#     4  10  24  42  62  90 126 168 223 247 301 382
#     4  10  23  41  65  92 126 166 210 261 310 360
#     4  10  22  42  64  95 124 160 213 261 310 371
#     4  11  22  41  66  93 128 162 201 268 317 360
#
# _framework density 25.235177
#
# number of rings (size 3 to 8) (size 9 to 14) (size 15 to 20)
#    0.000    1.500    2.500    1.875    0.000    4.500 
#    2.250    0.000    0.000    0.000    0.000    0.000 
#    0.000    0.000    0.000    0.000    0.000    0.000 
#
# Total GULP energy -89281.994518 kJ/mol
# GULP energy per Si atom -5580.124657 kJ/mol
# Density = 2.517774 g / cm^3
# Si number density = 25.235177 Si / 1000 Ang^3
#
#
#
# Elastic Constant Matrix: (Units=GPa)
#
#
# Indices 1 2 3 4 5 6 
#
# 1 138.4210 74.6526 41.5874 -16.9697 -44.7484 6.1082
# 2 74.6526 237.4836 33.9706 -40.5731 -14.2332 18.9549
# 3 41.5874 33.9706 67.8009 -20.2070 -13.2398 -6.4740
# 4 -16.9697 -40.5731 -20.2070 35.9194 -2.9398 -8.5486
# 5 -44.7484 -14.2332 -13.2398 -2.9398 38.5622 2.6507
# 6 6.1082 18.9549 -6.4740 -8.5486 2.6507 48.8955
#
#
#
# Elastic Compliance Matrix: (Units=1/GPa)
#
#
# Indices 1 2 3 4 5 6 
#
# 1 0.015557 -0.002699 -0.004497 0.002616 0.015842 -0.001894
# 2 -0.002699 0.006009 0.000021 0.005238 -0.000436 -0.001050
# 3 -0.004497 0.000021 0.022119 0.011866 0.002917 0.005399
# 4 0.002616 0.005238 0.011866 0.044144 0.011977 0.006282
# 5 0.015842 -0.000436 0.002917 0.011977 0.046195 -0.001834
# 6 -0.001894 -0.001050 0.005399 0.006282 -0.001834 0.023008
#
#
# Mechanical properties :
#
#
# Convention : Reuss Voigt Hill
#
# Bulk Modulus (GPa) = 34.09137 82.68074 58.38606
# Shear Modulus (GPa) = 27.59982 44.24176 35.92079
#
# Velocity S-wave (km/s) = 3.31071 4.19164 3.77694
# Velocity P-wave (km/s) = 5.30596 7.50078 6.49672
#
# Compressibility (1/GPa) = 0.02933293
#
# Stress axis : x y z
#
# Youngs Moduli (GPa) = 64.27981 166.41611 45.21101
#
# Poissons Ratio (x) = 0.44922 0.20333
# Poissons Ratio (y) = 0.17352 -0.00094
# Poissons Ratio (z) = 0.28909 -0.00347
#
# Static dielectric constant tensor:
#      x y z
#    x 2.048850 0.005060 0.037130 
#    y 0.005060 2.063550 0.025040 
#    z 0.037130 0.025040 2.045380 
# 
# From -- ./inp_files/69908.got.cif
#   From: 2010.05.17/outbox.cif.g08.bks.cpg/sg2_35_cif.got.tgz:69908.got - 2010.06.03 11:33:40.
