data_PCOD9010147
_publ_section_title
;
Structure prediction by ZEFSAII (Michael W. Deem and Ramdas Pophale) SiO2 
 PCOD9010147
Probable space group: P -1
;
_chemical_formula_sum "Si O2"
_cell_formula_units_Z 16
_cell_length_a 30.215940
_cell_length_b 8.183521
_cell_length_c 24.277742
_cell_angle_alpha 129.590663
_cell_angle_beta 171.526503
_cell_angle_gamma 49.893488
_cell_volume 676.574106
_symmetry_space_group_name_H-M "P -1"
_symmetry_group_IT_number 2
_symmetry_cell_setting 'triclinic'
loop_
_space_group_symop_operation_xyz
x,y,z
-x,-y,-z
loop_
_atom_site_type_symbol
_atom_site_label
_atom_site_fract_x
_atom_site_fract_y
_atom_site_fract_z
Si Si1 0.176933 0.138156 0.909401
Si Si2 0.390561 0.383984 0.893217
Si Si3 0.106213 0.009878 0.571816
Si Si4 0.784908 0.269463 0.067413
Si Si5 0.165415 0.052302 0.035205
Si Si6 0.213107 0.442969 0.101323
Si Si7 0.114651 0.917877 0.063443
Si Si8 0.499195 0.377809 0.139483
O O1 0.151173 0.061838 0.799591
O O2 0.821198 0.228886 0.505544
O O3 0.320890 0.934754 0.076788
O O4 0.329494 0.331755 0.163140
O O5 0.069560 0.321253 0.465675
O O6 0.500000 0.500000 0.000000
O O7 0.604043 0.162835 0.115954
O O8 0.460277 0.508878 0.061955
O O9 0.000000 0.000000 0.500000
O O10 0.224077 0.237256 0.760132
O O11 0.560727 0.483051 0.849292
O O12 0.867210 0.166609 0.086834
O O13 0.071667 0.266027 0.927942
O O14 0.524389 0.064629 0.486796
O O15 0.021365 0.032855 0.914590
O O16 0.500000 0.500000 0.500000
O O17 0.044735 0.672060 0.925280
O O18 0.000000 0.000000 0.000000
#
# Coordination Sequence:
#
# PCOD9010147 Si02
#       8
#     2   2   2   2   2   2   2   2
#     4  10  21  40  62  88 126 162 204 260 305 377
#     4  11  22  37  56  87 122 161 207 257 301 367
#     4  11  22  38  58  88 122 165 210 250 310 370
#     4  11  21  39  64  86 126 165 203 256 314 366
#     4   9  22  41  61  95 125 162 210 258 318 387
#     4   9  20  40  65  90 126 162 201 266 325 369
#     4  10  21  40  67  91 125 161 206 266 320 382
#     4  11  22  38  61  86 122 168 202 250 310 365
#
# _framework density 23.648554000000001
#
# number of rings (size 3 to 8) (size 9 to 14) (size 15 to 20)
#    0.000    1.750    2.500    1.875    3.500    3.500 
#    0.000    1.250    0.000    0.000    0.000    0.000 
#    0.000    0.000    0.000    0.000    0.000    0.000 
#
# Total GULP energy -89127.576387 kJ/mol
# GULP energy per Si atom -5570.473524 kJ/mol
# Density = 2.359473 g / cm^3
# Si number density = 23.648554 Si / 1000 Ang^3
#
#
#
# Elastic Constant Matrix: (Units=GPa)
#
#
# Indices 1 2 3 4 5 6 
#
# 1 176.3071 49.2209 11.3467 8.5949 -11.6415 -5.8310
# 2 49.2209 118.6440 -5.3334 7.6756 -3.9799 -14.0490
# 3 11.3467 -5.3334 46.5566 8.9992 -17.0250 -3.6157
# 4 8.5949 7.6756 8.9992 25.4612 -6.8972 -10.0886
# 5 -11.6415 -3.9799 -17.0250 -6.8972 34.0247 3.4285
# 6 -5.8310 -14.0490 -3.6157 -10.0886 3.4285 40.8447
#
#
#
# Elastic Compliance Matrix: (Units=1/GPa)
#
#
# Indices 1 2 3 4 5 6 
#
# 1 0.006636 -0.002778 -0.001408 -0.000764 0.001128 -0.000416
# 2 -0.002778 0.010186 0.002757 -0.001713 0.000986 0.002845
# 3 -0.001408 0.002757 0.028025 -0.006675 0.012457 0.000534
# 4 -0.000764 -0.001713 -0.006675 0.047723 0.004855 0.010091
# 5 0.001128 0.000986 0.012457 0.004855 0.037141 -0.000315
# 6 -0.000416 0.002845 0.000534 0.010091 -0.000315 0.027968
#
#
# Mechanical properties :
#
#
# Convention : Reuss Voigt Hill
#
# Bulk Modulus (GPa) = 23.81596 50.21953 37.01774
# Shear Modulus (GPa) = 28.64773 39.15103 33.89938
#
# Velocity S-wave (km/s) = 3.48429 4.07324 3.79022
# Velocity P-wave (km/s) = 5.12637 6.58814 5.90268
#
# Compressibility (1/GPa) = 0.04198865
#
# Stress axis : x y z
#
# Youngs Moduli (GPa) = 150.68948 98.17461 35.68225
#
# Poissons Ratio (x) = 0.27277 0.05023
# Poissons Ratio (y) = 0.41867 -0.09837
# Poissons Ratio (z) = 0.21212 -0.27064
#
# Static dielectric constant tensor:
#      x y z
#    x 1.982320 0.023590 0.064080 
#    y 0.023590 2.030620 0.027430 
#    z 0.064080 0.027430 2.010850 
# 
# From -- ./inp_files/226258.got.cif
#   From: 2010.05.17/outbox.cif.g08.bks.cpg/sg2_114_cif.got.tgz:226258.got - 2010.06.03 11:33:40.
