data_PCOD9010110
_publ_section_title
;
Structure prediction by ZEFSAII (Michael W. Deem and Ramdas Pophale) SiO2 
 PCOD9010110
Probable space group: P -1
;
_chemical_formula_sum "Si O2"
_cell_formula_units_Z 16
_cell_length_a 20.931788
_cell_length_b 15.830277
_cell_length_c 8.637180
_cell_angle_alpha 49.216595
_cell_angle_beta 129.826997
_cell_angle_gamma 160.393532
_cell_volume 723.600647
_symmetry_space_group_name_H-M "P -1"
_symmetry_group_IT_number 2
_symmetry_cell_setting 'triclinic'
loop_
_space_group_symop_operation_xyz
x,y,z
-x,-y,-z
loop_
_atom_site_type_symbol
_atom_site_label
_atom_site_fract_x
_atom_site_fract_y
_atom_site_fract_z
Si Si1 0.952060 0.205205 0.652669
Si Si2 0.578454 0.828423 0.946687
Si Si3 0.776296 0.632439 0.266035
Si Si4 0.711061 0.226384 0.620050
Si Si5 0.250206 0.956645 0.733183
Si Si6 0.825543 0.936876 0.075710
Si Si7 0.708488 0.244976 0.958451
Si Si8 0.923942 0.706227 0.705249
O O1 0.758857 0.005724 0.498742
O O2 0.031153 0.185599 0.725669
O O3 0.115981 0.497672 0.524730
O O4 0.911073 0.126955 0.857919
O O5 0.387121 0.610280 0.811240
O O6 0.656855 0.801986 0.055827
O O7 0.717583 0.099026 0.788093
O O8 0.574835 0.830746 0.126767
O O9 0.783700 0.594459 0.498507
O O10 0.767509 0.754139 0.119613
O O11 0.708172 0.259183 0.755650
O O12 0.500000 0.000000 0.500000
O O13 0.087061 0.832002 0.716138
O O14 0.201012 0.767006 0.862053
O O15 0.975699 0.091519 0.259734
O O16 0.820460 0.485747 0.906906
O O17 0.500000 0.000000 0.000000
#
# Coordination Sequence:
#
# PCOD9010110 Si02
#       8
#     2   2   2   2   2   2   2   2
#     4  11  23  40  63  88 128 159 202 253 301 361
#     4  10  22  39  65  87 121 162 204 247 310 358
#     4  11  21  44  63  84 125 167 201 251 303 354
#     4  11  21  39  62  89 125 160 193 250 323 358
#     4   9  21  39  60  87 123 161 191 246 313 361
#     4  11  25  38  61  95 119 162 214 246 288 363
#     4  11  22  35  61  92 123 152 201 248 304 367
#     4  10  21  40  62  86 121 163 201 246 303 355
#
# _framework density 22.111646
#
# number of rings (size 3 to 8) (size 9 to 14) (size 15 to 20)
#    0.000    1.500    3.750    1.500    5.250    2.500 
#    0.000    0.625    0.000    0.000    0.000    0.000 
#    0.000    0.000    0.000    0.000    0.000    0.000 
#
# Total GULP energy -89230.841371 kJ/mol
# GULP energy per Si atom -5576.927586 kJ/mol
# Density = 2.206132 g / cm^3
# Si number density = 22.111646 Si / 1000 Ang^3
#
#
#
# Elastic Constant Matrix: (Units=GPa)
#
#
# Indices 1 2 3 4 5 6 
#
# 1 32.7670 23.1655 19.9814 -3.6520 8.7234 -14.6929
# 2 23.1655 69.1169 41.7138 16.9400 -1.6408 -25.0123
# 3 19.9814 41.7138 120.0538 27.0817 -0.9519 -9.5305
# 4 -3.6520 16.9400 27.0817 36.8421 -6.4048 -0.7835
# 5 8.7234 -1.6408 -0.9519 -6.4048 25.3118 -5.0408
# 6 -14.6929 -25.0123 -9.5305 -0.7835 -5.0408 21.1105
#
#
#
# Elastic Compliance Matrix: (Units=1/GPa)
#
#
# Indices 1 2 3 4 5 6 
#
# 1 0.057188 -0.010947 -0.007388 0.014336 -0.012897 0.020950
# 2 -0.010947 0.038149 -0.005748 -0.011802 0.010419 0.037036
# 3 -0.007388 -0.005748 0.012768 -0.007723 -0.000620 -0.006623
# 4 0.014336 -0.011802 -0.007723 0.040095 0.003101 -0.005263
# 5 -0.012897 0.010419 -0.000620 0.003101 0.048325 0.014743
# 6 0.020950 0.037036 -0.006623 -0.005263 0.014743 0.106167
#
#
# Mechanical properties :
#
#
# Convention : Reuss Voigt Hill
#
# Bulk Modulus (GPa) = 16.68366 43.51767 30.10067
# Shear Modulus (GPa) = 13.48298 25.79134 19.63716
#
# Velocity S-wave (km/s) = 2.47203 3.41899 2.98332
# Velocity P-wave (km/s) = 3.96352 5.94218 5.05069
#
# Compressibility (1/GPa) = 0.05993890
#
# Stress axis : x y z
#
# Youngs Moduli (GPa) = 17.48607 26.21291 78.32079
#
# Poissons Ratio (x) = 0.28696 0.57861
# Poissons Ratio (y) = 0.19143 0.45021
# Poissons Ratio (z) = 0.12918 0.15068
#
# Static dielectric constant tensor:
#      x y z
#    x 1.785780 -0.007060 0.001720 
#    y -0.007060 1.864160 0.029530 
#    z 0.001720 0.029530 1.858000 
# 
# From -- ./inp_files/205814.got.cif
#   From: 2010.05.17/outbox.cif.g08.bks.cpg/sg2_103_cif.got.tgz:205814.got - 2010.06.03 11:33:40.
