data_PCOD9010455
_publ_section_title
;
Structure prediction by ZEFSAII (Michael W. Deem and Ramdas Pophale) SiO2 
 PCOD9010455
Probable space group: P -1
;
_chemical_formula_sum "Si O2"
_cell_formula_units_Z 14
_cell_length_a 9.963849
_cell_length_b 15.566340
_cell_length_c 9.542795
_cell_angle_alpha 82.760733
_cell_angle_beta 42.868566
_cell_angle_gamma 56.288493
_cell_volume 727.259683
_symmetry_space_group_name_H-M "P -1"
_symmetry_group_IT_number 2
_symmetry_cell_setting 'triclinic'
loop_
_space_group_symop_operation_xyz
x,y,z
-x,-y,-z
loop_
_atom_site_type_symbol
_atom_site_label
_atom_site_fract_x
_atom_site_fract_y
_atom_site_fract_z
Si Si1 0.083314 0.889773 0.041822
Si Si2 0.205668 0.883426 0.268110
Si Si3 0.726956 0.295611 0.556744
Si Si4 0.559530 0.699274 0.504145
Si Si5 0.485479 0.541890 0.658252
Si Si6 0.859955 0.780581 0.152315
Si Si7 0.337463 0.127803 0.022924
O O1 0.114576 0.908198 0.173699
O O2 0.891274 0.862617 0.191696
O O3 0.348949 0.784694 0.770931
O O4 0.000000 0.000000 0.000000
O O5 0.237945 0.779145 0.326708
O O6 0.497097 0.839365 0.062553
O O7 0.000000 0.000000 0.500000
O O8 0.576532 0.290335 0.543159
O O9 0.588544 0.426687 0.684838
O O10 0.028869 0.222473 0.287393
O O11 0.669194 0.573558 0.505281
O O12 0.729837 0.734678 0.333811
O O13 0.500000 0.500000 0.500000
O O14 0.172273 0.659564 0.903504
O O15 0.687838 0.858602 0.129295
O O16 0.500000 0.000000 0.000000
#
# Coordination Sequence:
#
# PCOD9010455 Si02
#       7
#     2   2   2   2   2   2   2
#     4  11  24  42  61  90 129 167 210 256 312 382
#     4  12  25  41  63  93 128 165 206 260 317 378
#     4  11  21  40  64  97 128 163 210 265 310 368
#     4  10  21  40  63  91 127 162 211 260 309 371
#     4   9  19  37  64  95 126 159 216 266 302 363
#     4  11  22  40  66  93 123 171 210 258 315 374
#     4  12  22  36  63  92 128 161 204 257 316 369
#
# _framework density 19.250344999999999
#
# number of rings (size 3 to 8) (size 9 to 14) (size 15 to 20)
#    0.000    1.143    7.143    1.714    0.000    5.143 
#    0.000    2.857    0.000    5.143    0.000    0.000 
#    0.000    0.000    0.000    0.000    0.000    0.000 
#
# Total GULP energy -77948.796880 kJ/mol
# GULP energy per Si atom -5567.771206 kJ/mol
# Density = 1.920653 g / cm^3
# Si number density = 19.250345 Si / 1000 Ang^3
#
#
#
# Elastic Constant Matrix: (Units=GPa)
#
#
# Indices 1 2 3 4 5 6 
#
# 1 212.1018 227.8831 22.4711 -37.1398 35.5849 77.9316
# 2 227.8831 529.9439 0.9280 -59.0027 71.7974 142.2502
# 3 22.4711 0.9280 69.0228 -17.2273 -12.0915 -1.3219
# 4 -37.1398 -59.0027 -17.2273 43.0808 -1.3054 -19.3932
# 5 35.5849 71.7974 -12.0915 -1.3054 49.0514 12.3606
# 6 77.9316 142.2502 -1.3219 -19.3932 12.3606 84.4498
#
#
#
# Elastic Compliance Matrix: (Units=1/GPa)
#
#
# Indices 1 2 3 4 5 6 
#
# 1 0.010416 -0.002653 -0.003563 0.001899 -0.003427 -0.004261
# 2 -0.002653 0.005331 0.000624 0.002768 -0.004327 -0.005253
# 3 -0.003563 0.000624 0.018364 0.006764 0.005555 0.003264
# 4 0.001899 0.002768 0.006764 0.031922 -0.003291 0.001503
# 5 -0.003427 -0.004327 0.005555 -0.003291 0.029097 0.005524
# 6 -0.004261 -0.005253 0.003264 0.001503 0.005524 0.024209
#
#
# Mechanical properties :
#
#
# Convention : Reuss Voigt Hill
#
# Bulk Modulus (GPa) = 43.61809 145.95923 94.78866
# Shear Modulus (GPa) = 36.18837 72.63549 54.41193
#
# Velocity S-wave (km/s) = 4.34046 6.14931 5.32229
# Velocity P-wave (km/s) = 6.91571 11.24299 9.33359
#
# Compressibility (1/GPa) = 0.02292627
#
# Stress axis : x y z
#
# Youngs Moduli (GPa) = 96.00652 187.56708 54.45548
#
# Poissons Ratio (x) = 0.49770 0.19404
# Poissons Ratio (y) = 0.25475 -0.03400
# Poissons Ratio (z) = 0.34210 -0.11712
#
# Static dielectric constant tensor:
#      x y z
#    x 1.733910 -0.319370 -0.191330 
#    y -0.319370 4.356900 1.434990 
#    z -0.191330 1.434990 2.503040 
# 
# From -- ./inp_files/179810.got.cif
#   From: 2010.05.17/outbox.cif.g08.bks.cpg/sg2_90_cif.got.tgz:179810.got - 2010.06.03 11:33:40.
