data_PCOD9010737
_publ_section_title
;
Structure prediction by ZEFSAII (Michael W. Deem and Ramdas Pophale) SiO2 
 PCOD9010737
Probable space group: P -1
;
_chemical_formula_sum "Si O2"
_cell_formula_units_Z 16
_cell_length_a 6.100403
_cell_length_b 7.878847
_cell_length_c 19.398828
_cell_angle_alpha 113.810847
_cell_angle_beta 49.989714
_cell_angle_gamma 99.995284
_cell_volume 648.419085
_symmetry_space_group_name_H-M "P -1"
_symmetry_group_IT_number 2
_symmetry_cell_setting 'triclinic'
loop_
_space_group_symop_operation_xyz
x,y,z
-x,-y,-z
loop_
_atom_site_type_symbol
_atom_site_label
_atom_site_fract_x
_atom_site_fract_y
_atom_site_fract_z
Si Si1 0.444871 0.523384 0.283432
Si Si2 0.126814 0.788465 0.010555
Si Si3 0.300898 0.161367 0.525191
Si Si4 0.751267 0.116150 0.201934
Si Si5 0.229274 0.647092 0.490232
Si Si6 0.213610 0.016204 0.364663
Si Si7 0.232300 0.325273 0.175168
Si Si8 0.961316 0.470427 0.893697
O O1 0.586707 0.318507 0.248385
O O2 0.345180 0.651523 0.388983
O O3 0.219986 0.463953 0.264454
O O4 0.706738 0.600043 0.203455
O O5 0.158155 0.691579 0.064635
O O6 0.448108 0.784905 0.915643
O O7 0.935988 0.987281 0.087993
O O8 0.969531 0.647292 0.971958
O O9 0.468809 0.342763 0.528442
O O10 0.280923 0.094909 0.439701
O O11 0.500000 0.000000 0.500000
O O12 0.979434 0.152838 0.618603
O O13 0.508532 0.000848 0.261688
O O14 0.002917 0.180569 0.209170
O O15 0.000000 0.500000 0.500000
O O16 0.015329 0.818282 0.591859
O O17 0.177092 0.448926 0.136666
#
# Coordination Sequence:
#
# PCOD9010737 Si02
#       8
#     2   2   2   2   2   2   2   2
#     4  10  23  41  59  95 127 163 214 269 314 385
#     4  10  21  40  64  90 125 167 211 265 323 387
#     4   9  22  41  61  88 127 165 209 267 322 378
#     4  11  23  38  62  93 127 165 212 263 324 384
#     4  11  22  40  66  90 127 169 213 261 318 377
#     4  10  22  41  63  92 128 168 214 263 320 385
#     4  10  22  39  62  91 128 163 210 267 324 380
#     4   9  21  41  63  88 124 164 216 261 316 392
#
# _framework density 24.675398000000001
#
# number of rings (size 3 to 8) (size 9 to 14) (size 15 to 20)
#    0.000    2.000    1.250    0.750    1.750   11.000 
#    0.000    6.250    0.000    0.000    0.000    0.000 
#    0.000    0.000    0.000    0.000    0.000    0.000 
#
# Total GULP energy -89307.294778 kJ/mol
# GULP energy per Si atom -5581.705924 kJ/mol
# Density = 2.461924 g / cm^3
# Si number density = 24.675398 Si / 1000 Ang^3
#
#
#
# Elastic Constant Matrix: (Units=GPa)
#
#
# Indices 1 2 3 4 5 6 
#
# 1 94.6992 36.5291 19.4096 -6.7667 -5.6557 34.3490
# 2 36.5291 101.6139 30.5630 -0.2389 -28.3806 22.9741
# 3 19.4096 30.5630 100.4885 1.8080 -14.5565 24.2013
# 4 -6.7667 -0.2389 1.8080 35.4719 6.4913 -14.2551
# 5 -5.6557 -28.3806 -14.5565 6.4913 29.2083 -6.8003
# 6 34.3490 22.9741 24.2013 -14.2551 -6.8003 46.2449
#
#
#
# Elastic Compliance Matrix: (Units=1/GPa)
#
#
# Indices 1 2 3 4 5 6 
#
# 1 0.015663 -0.004301 0.000308 -0.000610 -0.003261 -0.010326
# 2 -0.004301 0.016820 -0.001050 -0.005009 0.015187 -0.003923
# 3 0.000308 -0.001050 0.012634 -0.004234 0.004661 -0.006938
# 4 -0.000610 -0.005009 -0.004234 0.036281 -0.011756 0.014612
# 5 -0.003261 0.015187 0.004661 -0.011756 0.052491 -0.003467
# 6 -0.010326 -0.003923 -0.006938 0.014612 -0.003467 0.038868
#
#
# Mechanical properties :
#
#
# Convention : Reuss Voigt Hill
#
# Bulk Modulus (GPa) = 28.54651 52.20054 40.37353
# Shear Modulus (GPa) = 25.70460 36.20502 30.95481
#
# Velocity S-wave (km/s) = 3.23105 3.83463 3.54571
# Velocity P-wave (km/s) = 5.05109 6.38801 5.75848
#
# Compressibility (1/GPa) = 0.03503055
#
# Stress axis : x y z
#
# Youngs Moduli (GPa) = 63.84645 59.45272 79.15393
#
# Poissons Ratio (x) = 0.25570 -0.02440
# Poissons Ratio (y) = 0.27460 0.08312
# Poissons Ratio (z) = -0.01968 0.06243
#
# Static dielectric constant tensor:
#      x y z
#    x 2.004030 -0.035730 -0.038560 
#    y -0.035730 2.067890 -0.008600 
#    z -0.038560 -0.008600 1.941400 
# 
# From -- ./inp_files/582486.got.cif
#   From: 2010.05.17/outbox.cif.g08.bks.cpg/sg2_292_cif.got.tgz:582486.got - 2010.06.03 11:33:40.
