data_PCOD9010676
_publ_section_title
;
Structure prediction by ZEFSAII (Michael W. Deem and Ramdas Pophale) SiO2 
 PCOD9010676
Probable space group: P -1
;
_chemical_formula_sum "Si O2"
_cell_formula_units_Z 16
_cell_length_a 22.753223
_cell_length_b 11.031419
_cell_length_c 19.045651
_cell_angle_alpha 150.520573
_cell_angle_beta 16.740773
_cell_angle_gamma 143.719406
_cell_volume 664.741851
_symmetry_space_group_name_H-M "P -1"
_symmetry_group_IT_number 2
_symmetry_cell_setting 'triclinic'
loop_
_space_group_symop_operation_xyz
x,y,z
-x,-y,-z
loop_
_atom_site_type_symbol
_atom_site_label
_atom_site_fract_x
_atom_site_fract_y
_atom_site_fract_z
Si Si1 0.510007 0.706938 0.357213
Si Si2 0.776257 0.115844 0.111705
Si Si3 0.841656 0.767057 0.321361
Si Si4 0.399861 0.388807 0.945956
Si Si5 0.627848 0.110038 0.127519
Si Si6 0.927094 0.414819 0.753283
Si Si7 0.060025 0.139981 0.587497
Si Si8 0.769176 0.499726 0.665602
O O1 0.314170 0.705882 0.630794
O O2 0.500000 0.000000 0.500000
O O3 0.539557 0.549874 0.171573
O O4 0.721493 0.606605 0.106791
O O5 0.671591 0.210283 0.204875
O O6 0.023077 0.073743 0.799606
O O7 0.697692 0.855856 0.076725
O O8 0.607812 0.796331 0.577965
O O9 0.839106 0.839703 0.442539
O O10 0.000000 0.500000 0.000000
O O11 0.240994 0.553137 0.265971
O O12 0.613064 0.358217 0.730995
O O13 0.809873 0.181241 0.907411
O O14 0.679260 0.803564 0.915762
O O15 0.023630 0.525880 0.630567
O O16 0.086515 0.336945 0.595924
O O17 0.874342 0.145795 0.657268
#
# Coordination Sequence:
#
# PCOD9010676 Si02
#       8
#     2   2   2   2   2   2   2   2
#     4  10  22  39  59  89 122 166 202 249 314 361
#     4   9  21  42  57  87 129 158 205 249 310 363
#     4  11  24  37  64  95 117 165 210 249 310 379
#     4   9  19  40  60  85 121 154 201 257 302 360
#     4   9  20  40  63  88 126 158 200 262 301 368
#     4  10  21  40  64  87 127 166 197 262 308 367
#     4   9  22  42  61  94 127 161 208 252 317 358
#     4   9  19  39  62  91 117 156 209 251 313 360
#
# _framework density 24.069493000000001
#
# number of rings (size 3 to 8) (size 9 to 14) (size 15 to 20)
#    0.000    2.500    0.000    0.750    5.250    2.500 
#   13.500    3.125    0.000    0.000    0.000    0.000 
#    0.000    0.000    0.000    0.000    0.000    0.000 
#
# Total GULP energy -89310.003133 kJ/mol
# GULP energy per Si atom -5581.875196 kJ/mol
# Density = 2.401471 g / cm^3
# Si number density = 24.069493 Si / 1000 Ang^3
#
#
#
# Elastic Constant Matrix: (Units=GPa)
#
#
# Indices 1 2 3 4 5 6 
#
# 1 100.9029 16.8899 46.5363 -24.6519 20.0011 -11.5591
# 2 16.8899 63.1097 28.9117 -6.0977 -4.5249 4.6282
# 3 46.5363 28.9117 118.7392 -4.1095 -8.4244 -8.0809
# 4 -24.6519 -6.0977 -4.1095 20.2263 -1.2298 -5.0141
# 5 20.0011 -4.5249 -8.4244 -1.2298 37.1408 -13.0867
# 6 -11.5591 4.6282 -8.0809 -5.0141 -13.0867 22.1453
#
#
#
# Elastic Compliance Matrix: (Units=1/GPa)
#
#
# Indices 1 2 3 4 5 6 
#
# 1 0.024549 -0.001439 -0.008265 0.029798 -0.010544 0.010615
# 2 -0.001439 0.018815 -0.004359 0.001578 0.000058 -0.005882
# 3 -0.008265 -0.004359 0.013420 -0.006923 0.008473 0.004933
# 4 0.029798 0.001578 -0.006923 0.092511 -0.003167 0.031772
# 5 -0.010544 0.000058 0.008473 -0.003167 0.042083 0.021728
# 6 0.010615 -0.005882 0.004933 0.031772 0.021728 0.073760
#
#
# Mechanical properties :
#
#
# Convention : Reuss Voigt Hill
#
# Bulk Modulus (GPa) = 34.89418 51.93640 43.41529
# Shear Modulus (GPa) = 16.51156 28.59675 22.55415
#
# Velocity S-wave (km/s) = 2.62199 3.45061 3.06444
# Velocity P-wave (km/s) = 4.86777 6.12374 5.53152
#
# Compressibility (1/GPa) = 0.02865807
#
# Stress axis : x y z
#
# Youngs Moduli (GPa) = 40.73416 53.14774 74.51639
#
# Poissons Ratio (x) = 0.07647 0.61591
# Poissons Ratio (y) = 0.05861 0.32482
# Poissons Ratio (z) = 0.33669 0.23167
#
# Static dielectric constant tensor:
#      x y z
#    x 1.986040 -0.069540 0.030660 
#    y -0.069540 1.993300 -0.006290 
#    z 0.030660 -0.006290 1.918700 
# 
# From -- ./inp_files/578016.got.cif
#   From: 2010.05.17/outbox.cif.g08.bks.cpg/sg2_290_cif.got.tgz:578016.got - 2010.06.03 11:33:40.
