data_PCOD9010986
_publ_section_title
;
Structure prediction by ZEFSAII (Michael W. Deem and Ramdas Pophale) SiO2 
 PCOD9010986
Probable space group: P -1
;
_chemical_formula_sum "Si O2"
_cell_formula_units_Z 14
_cell_length_a 9.649195
_cell_length_b 7.458738
_cell_length_c 15.160688
_cell_angle_alpha 54.280119
_cell_angle_beta 145.175886
_cell_angle_gamma 117.057596
_cell_volume 505.181609
_symmetry_space_group_name_H-M "P -1"
_symmetry_group_IT_number 2
_symmetry_cell_setting 'triclinic'
loop_
_space_group_symop_operation_xyz
x,y,z
-x,-y,-z
loop_
_atom_site_type_symbol
_atom_site_label
_atom_site_fract_x
_atom_site_fract_y
_atom_site_fract_z
Si Si1 0.279090 0.684559 0.847966
Si Si2 0.457694 0.221043 0.473666
Si Si3 0.950654 0.291117 0.807152
Si Si4 0.214030 0.853573 0.049177
Si Si5 0.728472 0.848570 0.259047
Si Si6 0.583666 0.528439 0.798966
Si Si7 0.257371 0.894101 0.588513
O O1 0.314560 0.896724 0.869557
O O2 0.204527 0.825728 0.680645
O O3 0.072574 0.520846 0.809171
O O4 0.500000 0.500000 0.000000
O O5 0.699151 0.301316 0.621881
O O6 0.398420 0.400316 0.314918
O O7 0.500000 0.000000 0.500000
O O8 0.297537 0.130293 0.496336
O O9 0.912878 0.210300 0.909616
O O10 0.114860 0.096233 0.900913
O O11 0.193925 0.653482 0.026795
O O12 0.506176 0.855269 0.214277
O O13 0.641271 0.616087 0.242126
O O14 0.015585 0.815833 0.434791
O O15 0.518036 0.757427 0.747448
#
# Coordination Sequence:
#
# PCOD9010986 Si02
#       7
#     2   2   2   2   2   2   2
#     4  12  24  41  64 102 129 170 217 265 328 385
#     4  10  23  41  65  94 127 175 216 258 322 383
#     4  11  22  42  67  92 137 168 211 275 320 379
#     4   9  22  40  68  94 128 170 220 257 328 382
#     4  10  21  40  64  99 128 163 221 260 322 385
#     4   9  21  44  63  94 126 171 217 261 320 383
#     4  11  23  40  65  92 135 169 213 274 316 379
#
# _framework density 27.712803000000001
#
# number of rings (size 3 to 8) (size 9 to 14) (size 15 to 20)
#    0.857    0.857    1.429    2.571    4.000    1.714 
#    0.000    8.571    0.000    0.000    0.000    0.000 
#    0.000    0.000    0.000    0.000    0.000    0.000 
#
# Total GULP energy -78026.254431 kJ/mol
# GULP energy per Si atom -5573.303888 kJ/mol
# Density = 2.764973 g / cm^3
# Si number density = 27.712803 Si / 1000 Ang^3
#
#
#
# Elastic Constant Matrix: (Units=GPa)
#
#
# Indices 1 2 3 4 5 6 
#
# 1 103.2354 42.4775 46.5780 -12.5326 -16.5922 32.4944
# 2 42.4775 178.3756 37.7511 -24.7011 -6.6357 33.2584
# 3 46.5780 37.7511 95.0308 -37.8050 -2.3453 1.5094
# 4 -12.5326 -24.7011 -37.8050 63.2396 -1.8139 9.0777
# 5 -16.5922 -6.6357 -2.3453 -1.8139 52.7118 -26.4735
# 6 32.4944 33.2584 1.5094 9.0777 -26.4735 49.2238
#
#
#
# Elastic Compliance Matrix: (Units=1/GPa)
#
#
# Indices 1 2 3 4 5 6 
#
# 1 0.016722 -0.000288 -0.007914 0.000023 -0.000617 -0.010938
# 2 -0.000288 0.007587 -0.001726 0.002771 -0.002502 -0.006740
# 3 -0.007914 -0.001726 0.018204 0.007976 0.000776 0.004779
# 4 0.000023 0.002771 0.007976 0.022686 -0.002302 -0.007553
# 5 -0.000617 -0.002502 0.000776 -0.002302 0.026952 0.016994
# 6 -0.010938 -0.006740 0.004779 -0.007553 0.016994 0.042476
#
#
# Mechanical properties :
#
#
# Convention : Reuss Voigt Hill
#
# Bulk Modulus (GPa) = 44.13387 70.02835 57.08111
# Shear Modulus (GPa) = 30.85750 49.69070 40.27410
#
# Velocity S-wave (km/s) = 3.34050 4.23905 3.81631
# Velocity P-wave (km/s) = 5.55325 7.02022 6.32938
#
# Compressibility (1/GPa) = 0.02265833
#
# Stress axis : x y z
#
# Youngs Moduli (GPa) = 59.80088 131.80230 54.93348
#
# Poissons Ratio (x) = 0.03790 0.43476
# Poissons Ratio (y) = 0.01719 0.09479
# Poissons Ratio (z) = 0.47329 0.22743
#
# Static dielectric constant tensor:
#      x y z
#    x 2.337940 -0.198280 -0.015990 
#    y -0.198280 2.360120 0.063300 
#    z -0.015990 0.063300 2.171110 
# 
# From -- ./inp_files/593418.got.cif
#   From: 2010.05.17/outbox.cif.g08.bks.cpg/sg2_297_cif.got.tgz:593418.got - 2010.06.03 11:33:40.
