data_PCOD9010181
_publ_section_title
;
Structure prediction by ZEFSAII (Michael W. Deem and Ramdas Pophale) SiO2 
 PCOD9010181
Probable space group: P -1
;
_chemical_formula_sum "Si O2"
_cell_formula_units_Z 14
_cell_length_a 12.766775
_cell_length_b 6.701987
_cell_length_c 11.880896
_cell_angle_alpha 100.960816
_cell_angle_beta 50.888756
_cell_angle_gamma 129.148345
_cell_volume 573.952091
_symmetry_space_group_name_H-M "P -1"
_symmetry_group_IT_number 2
_symmetry_cell_setting 'triclinic'
loop_
_space_group_symop_operation_xyz
x,y,z
-x,-y,-z
loop_
_atom_site_type_symbol
_atom_site_label
_atom_site_fract_x
_atom_site_fract_y
_atom_site_fract_z
Si Si1 0.409273 0.819263 0.383974
Si Si2 0.227106 0.803938 0.091475
Si Si3 0.202661 0.948647 0.899368
Si Si4 0.619775 0.418741 0.394578
Si Si5 0.355318 0.645402 0.167141
Si Si6 0.047251 0.995118 0.815922
Si Si7 0.915058 0.953067 0.673089
O O1 0.584240 0.850125 0.248209
O O2 0.495521 0.124155 0.387462
O O3 0.320436 0.628777 0.533644
O O4 0.309094 0.722513 0.321897
O O5 0.108016 0.839688 0.248782
O O6 0.250709 0.623851 0.126452
O O7 0.432426 0.104612 0.974635
O O8 0.164470 0.739907 0.997252
O O9 0.106951 0.863253 0.834008
O O10 0.135562 0.086257 0.021572
O O11 0.500000 0.500000 0.500000
O O12 0.797263 0.674563 0.236181
O O13 0.283863 0.350892 0.213753
O O14 0.035894 0.962156 0.686911
O O15 0.000000 0.000000 0.500000
#
# Coordination Sequence:
#
# PCOD9010181 Si02
#       7
#     2   2   2   2   2   2   2
#     4  10  22  39  63  91 119 160 210 252 300 365
#     4   9  21  42  62  89 122 164 212 252 300 359
#     4   9  19  42  59  90 121 157 214 247 301 358
#     4  11  22  40  61  90 124 159 201 255 309 363
#     4  10  21  42  63  91 121 161 212 252 301 364
#     4  10  21  40  62  90 126 162 202 253 310 359
#     4  11  23  40  62  93 128 165 198 251 316 368
#
# _framework density 24.392281000000001
#
# number of rings (size 3 to 8) (size 9 to 14) (size 15 to 20)
#    0.000    2.000    1.429    1.286    0.000    3.429 
#   28.286    0.000    0.000    0.000    0.000    0.000 
#    0.000    0.000    0.000    0.000    0.000    0.000 
#
# Total GULP energy -78211.638241 kJ/mol
# GULP energy per Si atom -5586.545589 kJ/mol
# Density = 2.433676 g / cm^3
# Si number density = 24.392281 Si / 1000 Ang^3
#
#
#
# Elastic Constant Matrix: (Units=GPa)
#
#
# Indices 1 2 3 4 5 6 
#
# 1 106.0282 12.3932 28.8955 3.6743 36.8520 -6.5033
# 2 12.3932 77.3851 34.4823 -20.1416 -1.0285 -2.8632
# 3 28.8955 34.4823 102.0236 -4.8277 26.8028 -10.8189
# 4 3.6743 -20.1416 -4.8277 33.7032 6.6089 5.5856
# 5 36.8520 -1.0285 26.8028 6.6089 51.8784 2.7115
# 6 -6.5033 -2.8632 -10.8189 5.5856 2.7115 16.6645
#
#
#
# Elastic Compliance Matrix: (Units=1/GPa)
#
#
# Indices 1 2 3 4 5 6 
#
# 1 0.013713 -0.002875 0.000435 -0.002428 -0.010111 0.007599
# 2 -0.002875 0.019291 -0.007293 0.010954 0.005166 -0.007054
# 3 0.000435 -0.007293 0.015523 -0.002319 -0.008763 0.011198
# 4 -0.002428 0.010954 -0.002319 0.038569 -0.001077 -0.013323
# 5 -0.010111 0.005166 -0.008763 -0.001077 0.031935 -0.013583
# 6 0.007599 -0.007054 0.011198 -0.013323 -0.013583 0.075707
#
#
# Mechanical properties :
#
#
# Convention : Reuss Voigt Hill
#
# Bulk Modulus (GPa) = 34.40883 48.55322 41.48103
# Shear Modulus (GPa) = 22.33224 34.42693 28.37959
#
# Velocity S-wave (km/s) = 3.02908 3.76092 3.41466
# Velocity P-wave (km/s) = 5.13525 6.22958 5.70870
#
# Compressibility (1/GPa) = 0.02906231
#
# Stress axis : x y z
#
# Youngs Moduli (GPa) = 72.92103 51.83766 64.41969
#
# Poissons Ratio (x) = 0.14904 -0.02802
# Poissons Ratio (y) = 0.20966 0.46978
# Poissons Ratio (z) = -0.03172 0.37803
#
# Static dielectric constant tensor:
#      x y z
#    x 1.992360 0.042090 0.027480 
#    y 0.042090 1.948040 0.000230 
#    z 0.027480 0.000230 1.933830 
# 
# From -- ./inp_files/71456.got.cif
#   From: 2010.05.17/outbox.cif.g08.bks.cpg/sg2_36_cif.got.tgz:71456.got - 2010.06.03 11:33:40.
