data_PCOD9010638
_publ_section_title
;
Structure prediction by ZEFSAII (Michael W. Deem and Ramdas Pophale) SiO2 
 PCOD9010638
Probable space group: P -1
;
_chemical_formula_sum "Si O2"
_cell_formula_units_Z 14
_cell_length_a 11.823136
_cell_length_b 11.468451
_cell_length_c 13.339530
_cell_angle_alpha 144.454830
_cell_angle_beta 54.687054
_cell_angle_gamma 101.656355
_cell_volume 707.633600
_symmetry_space_group_name_H-M "P -1"
_symmetry_group_IT_number 2
_symmetry_cell_setting 'triclinic'
loop_
_space_group_symop_operation_xyz
x,y,z
-x,-y,-z
loop_
_atom_site_type_symbol
_atom_site_label
_atom_site_fract_x
_atom_site_fract_y
_atom_site_fract_z
Si Si1 0.313430 0.242631 0.246396
Si Si2 0.187721 0.806174 0.723485
Si Si3 0.096681 0.256465 0.719089
Si Si4 0.004249 0.370625 0.618120
Si Si5 0.455965 0.918856 0.363826
Si Si6 0.731465 0.843160 0.020189
Si Si7 0.201263 0.822621 0.490335
O O1 0.270984 0.513428 0.482985
O O2 0.178809 0.227461 0.369676
O O3 0.275514 0.232707 0.141930
O O4 0.500000 0.000000 0.000000
O O5 0.183782 0.854673 0.640267
O O6 0.299547 0.892367 0.775476
O O7 0.000000 0.000000 0.000000
O O8 0.034670 0.297975 0.667140
O O9 0.294039 0.143368 0.547756
O O10 0.081007 0.066823 0.658320
O O11 0.000000 0.500000 0.000000
O O12 0.866353 0.335604 0.617822
O O13 0.914900 0.656063 0.844010
O O14 0.605138 0.828160 0.147083
O O15 0.386053 0.754591 0.315555
O O16 0.500000 0.000000 0.500000
#
# Coordination Sequence:
#
# PCOD9010638 Si02
#       7
#     2   2   2   2   2   2   2
#     4  12  28  47  67 107 144 181 236 298 350 419
#     4  12  23  45  74 100 134 189 239 279 349 424
#     4  10  22  40  64  99 139 175 229 287 346 416
#     4  12  22  45  69  99 140 181 233 288 351 420
#     4  10  21  40  64 100 139 175 234 280 347 414
#     4  12  23  44  73  98 138 189 233 291 350 421
#     4  10  23  41  67 104 132 183 233 280 355 406
#
# _framework density 19.78425
#
# number of rings (size 3 to 8) (size 9 to 14) (size 15 to 20)
#    0.857    0.000    4.286    4.286    0.000    1.143 
#    2.571    0.000    0.000    0.000    0.000    0.000 
#    0.000    0.000    0.000    0.000    0.000    0.000 
#
# Total GULP energy -77980.379776 kJ/mol
# GULP energy per Si atom -5570.027127 kJ/mol
# Density = 1.973922 g / cm^3
# Si number density = 19.784250 Si / 1000 Ang^3
#
#
#
# Elastic Constant Matrix: (Units=GPa)
#
#
# Indices 1 2 3 4 5 6 
#
# 1 88.8940 31.0718 41.0542 1.3097 6.4251 14.0978
# 2 31.0718 102.3987 49.1599 -3.3508 6.4696 5.8566
# 3 41.0542 49.1599 132.2530 -6.3225 -5.9342 13.7587
# 4 1.3097 -3.3508 -6.3225 43.0930 2.9695 -3.2929
# 5 6.4251 6.4696 -5.9342 2.9695 37.3717 1.2103
# 6 14.0978 5.8566 13.7587 -3.2929 1.2103 46.4093
#
#
#
# Elastic Compliance Matrix: (Units=1/GPa)
#
#
# Indices 1 2 3 4 5 6 
#
# 1 0.014344 -0.002437 -0.003392 -0.001193 -0.002389 -0.003067
# 2 -0.002437 0.012604 -0.004056 0.000665 -0.002475 0.000464
# 3 -0.003392 -0.004056 0.010464 0.001002 0.002918 -0.001565
# 4 -0.001193 0.000665 0.001002 0.023687 -0.001688 0.001706
# 5 -0.002389 -0.002475 0.002918 -0.001688 0.028217 -0.000683
# 6 -0.003067 0.000464 -0.001565 0.001706 -0.000683 0.023023
#
#
# Mechanical properties :
#
#
# Convention : Reuss Voigt Hill
#
# Bulk Modulus (GPa) = 56.68395 62.90197 59.79296
# Shear Modulus (GPa) = 36.23443 38.85878 37.54661
#
# Velocity S-wave (km/s) = 4.28422 4.43666 4.36110
# Velocity P-wave (km/s) = 7.29287 7.62287 7.45970
#
# Compressibility (1/GPa) = 0.01764168
#
# Stress axis : x y z
#
# Youngs Moduli (GPa) = 69.71406 79.33947 95.56919
#
# Poissons Ratio (x) = 0.19334 0.32419
# Poissons Ratio (y) = 0.16988 0.38764
# Poissons Ratio (z) = 0.23648 0.32181
#
# Static dielectric constant tensor:
#      x y z
#    x 1.687980 0.028000 0.026120 
#    y 0.028000 1.094750 -0.305820 
#    z 0.026120 -0.305820 1.444840 
# 
# From -- ./inp_files/426838.got.cif
#   From: 2010.05.17/outbox.cif.g08.bks.cpg/sg2_214_cif.got.tgz:426838.got - 2010.06.03 11:33:40.
