data_PCOD9010668
_publ_section_title
;
Structure prediction by ZEFSAII (Michael W. Deem and Ramdas Pophale) SiO2 
 PCOD9010668
Probable space group: P -1
;
_chemical_formula_sum "Si O2"
_cell_formula_units_Z 14
_cell_length_a 13.228249
_cell_length_b 9.401137
_cell_length_c 12.248879
_cell_angle_alpha 95.739257
_cell_angle_beta 146.781192
_cell_angle_gamma 62.682372
_cell_volume 602.229523
_symmetry_space_group_name_H-M "P -1"
_symmetry_group_IT_number 2
_symmetry_cell_setting 'triclinic'
loop_
_space_group_symop_operation_xyz
x,y,z
-x,-y,-z
loop_
_atom_site_type_symbol
_atom_site_label
_atom_site_fract_x
_atom_site_fract_y
_atom_site_fract_z
Si Si1 0.467077 0.975553 0.593659
Si Si2 0.798117 0.162538 0.583385
Si Si3 0.213641 0.766524 0.820032
Si Si4 0.342227 0.353383 0.529362
Si Si5 0.039134 0.664394 0.105036
Si Si6 0.808200 0.480318 0.366357
Si Si7 0.292757 0.598994 0.106893
O O1 0.286313 0.938839 0.443004
O O2 0.500000 0.000000 0.500000
O O3 0.370562 0.174538 0.573724
O O4 0.747146 0.789712 0.874331
O O5 0.889597 0.227148 0.760517
O O6 0.542422 0.365862 0.316865
O O7 0.019668 0.997612 0.688082
O O8 0.137523 0.706269 0.646096
O O9 0.508481 0.661489 0.075306
O O10 0.202355 0.665071 0.907044
O O11 0.212670 0.453097 0.304246
O O12 0.186959 0.513710 0.497603
O O13 0.610799 0.292817 0.765156
O O14 0.107115 0.645496 0.037841
O O15 0.000000 0.500000 0.500000
#
# Coordination Sequence:
#
# PCOD9010668 Si02
#       7
#     2   2   2   2   2   2   2
#     4  12  24  36  60  95 125 161 206 244 295 368
#     4  11  23  39  61  91 123 160 206 248 299 365
#     4  10  22  40  63  88 119 160 203 252 302 352
#     4  10  22  41  62  89 125 161 201 251 305 363
#     4  11  23  41  62  90 129 164 195 248 309 358
#     4  10  21  40  64  87 117 160 205 250 303 357
#     4  10  21  40  64  90 126 164 199 246 306 366
#
# _framework density 23.246949999999998
#
# number of rings (size 3 to 8) (size 9 to 14) (size 15 to 20)
#    0.000    1.429    0.000    6.857    0.000    6.286 
#    0.000   12.857    0.000   16.286    0.000    0.000 
#    0.000    0.000    0.000    0.000    0.000    0.000 
#
# Total GULP energy -78358.721072 kJ/mol
# GULP energy per Si atom -5597.051505 kJ/mol
# Density = 2.319404 g / cm^3
# Si number density = 23.246950 Si / 1000 Ang^3
#
#
#
# Elastic Constant Matrix: (Units=GPa)
#
#
# Indices 1 2 3 4 5 6 
#
# 1 95.6167 30.4581 22.6591 12.2412 13.5323 -1.2841
# 2 30.4581 143.9387 29.9862 -1.8752 15.7069 -2.2129
# 3 22.6591 29.9862 61.1908 0.2795 23.8801 -2.4270
# 4 12.2412 -1.8752 0.2795 36.2102 2.9294 12.3453
# 5 13.5323 15.7069 23.8801 2.9294 42.1880 7.8040
# 6 -1.2841 -2.2129 -2.4270 12.3453 7.8040 36.7003
#
#
#
# Elastic Compliance Matrix: (Units=1/GPa)
#
#
# Indices 1 2 3 4 5 6 
#
# 1 0.012680 -0.001905 -0.002979 -0.004962 -0.001729 0.002168
# 2 -0.001905 0.008066 -0.002935 0.001146 -0.000813 0.000013
# 3 -0.002979 -0.002935 0.023759 0.000377 -0.012119 0.003740
# 4 -0.004962 0.001146 0.000377 0.033176 0.000757 -0.011400
# 5 -0.001729 -0.000813 -0.012119 0.000757 0.032876 -0.008156
# 6 0.002168 0.000013 0.003740 -0.011400 -0.008156 0.033141
#
#
# Mechanical properties :
#
#
# Convention : Reuss Voigt Hill
#
# Bulk Modulus (GPa) = 34.63997 51.88367 43.26182
# Shear Modulus (GPa) = 29.59308 37.52923 33.56115
#
# Velocity S-wave (km/s) = 3.57177 4.02228 3.80370
# Velocity P-wave (km/s) = 5.65183 6.62862 6.15962
#
# Compressibility (1/GPa) = 0.02886839
#
# Stress axis : x y z
#
# Youngs Moduli (GPa) = 78.86309 123.98116 42.08852
#
# Poissons Ratio (x) = 0.23623 0.12536
# Poissons Ratio (y) = 0.15026 0.12351
# Poissons Ratio (z) = 0.23490 0.36383
#
# Static dielectric constant tensor:
#      x y z
#    x 1.872850 -0.008510 0.010540 
#    y -0.008510 1.941920 -0.005930 
#    z 0.010540 -0.005930 1.897970 
# 
# From -- ./inp_files/504763.got.cif
#   From: 2010.05.17/outbox.cif.g08.bks.cpg/sg2_253_cif.got.tgz:504763.got - 2010.06.03 11:33:40.
