data_PCOD9010379
_publ_section_title
;
Structure prediction by ZEFSAII (Michael W. Deem and Ramdas Pophale) SiO2 
 PCOD9010379
Probable space group: P -1
;
_chemical_formula_sum "Si O2"
_cell_formula_units_Z 16
_cell_length_a 17.371656
_cell_length_b 12.480889
_cell_length_c 9.757114
_cell_angle_alpha 36.396304
_cell_angle_beta 32.209165
_cell_angle_gamma 32.709524
_cell_volume 576.682907
_symmetry_space_group_name_H-M "P -1"
_symmetry_group_IT_number 2
_symmetry_cell_setting 'triclinic'
loop_
_space_group_symop_operation_xyz
x,y,z
-x,-y,-z
loop_
_atom_site_type_symbol
_atom_site_label
_atom_site_fract_x
_atom_site_fract_y
_atom_site_fract_z
Si Si1 0.616671 0.292698 0.231039
Si Si2 0.853099 0.395247 0.234183
Si Si3 0.941475 0.243634 0.848504
Si Si4 0.581956 0.232038 0.036158
Si Si5 0.298746 0.162813 0.427762
Si Si6 0.419914 0.246026 0.893080
Si Si7 0.974958 0.373237 0.366076
Si Si8 0.763447 0.075217 0.658303
O O1 0.658936 0.219779 0.081251
O O2 0.612933 0.083945 0.494295
O O3 0.750866 0.313748 0.102108
O O4 0.477755 0.534807 0.169243
O O5 0.680154 0.590968 0.241572
O O6 0.879421 0.175844 0.371415
O O7 0.862788 0.386916 0.392120
O O8 0.987344 0.443995 0.914809
O O9 0.103788 0.239990 0.673031
O O10 0.917918 0.356218 0.620238
O O11 0.000000 0.000000 0.000000
O O12 0.419809 0.197910 0.313155
O O13 0.712425 0.067383 0.900318
O O14 0.299653 0.286743 0.162913
O O15 0.587075 0.243810 0.685863
O O16 0.500000 0.000000 0.000000
O O17 0.145385 0.150394 0.314456
#
# Coordination Sequence:
#
# PCOD9010379 Si02
#       8
#     2   2   2   2   2   2   2   2
#     4  10  22  41  64  90 126 170 212 268 320 382
#     4  11  23  39  64  96 133 172 212 266 330 387
#     4  10  21  43  67  90 130 177 215 263 319 384
#     4  10  23  40  64  96 126 163 219 264 325 389
#     4  10  21  40  63  88 128 166 218 262 322 377
#     4  11  21  40  61  94 134 169 210 270 325 388
#     4  11  23  44  65  98 134 169 215 270 326 385
#     4  11  23  40  68  96 130 166 219 267 329 389
#
# _framework density 27.744883999999999
#
# number of rings (size 3 to 8) (size 9 to 14) (size 15 to 20)
#    0.000    1.500    2.500    1.875    1.750    0.500 
#    9.000    5.000    0.000    0.000    0.000    0.000 
#    0.000    0.000    0.000    0.000    0.000    0.000 
#
# Total GULP energy -89490.741712 kJ/mol
# GULP energy per Si atom -5593.171357 kJ/mol
# Density = 2.768174 g / cm^3
# Si number density = 27.744884 Si / 1000 Ang^3
#
#
#
# Elastic Constant Matrix: (Units=GPa)
#
#
# Indices 1 2 3 4 5 6 
#
# 1 107.0552 24.0459 41.2813 -4.0450 -6.0846 -13.5561
# 2 24.0459 55.7868 10.4686 -17.4649 -1.7094 -7.9512
# 3 41.2813 10.4686 136.0008 -22.4083 -21.0901 -0.0763
# 4 -4.0450 -17.4649 -22.4083 47.4675 -5.9387 -2.5381
# 5 -6.0846 -1.7094 -21.0901 -5.9387 57.5686 -7.5811
# 6 -13.5561 -7.9512 -0.0763 -2.5381 -7.5811 54.2564
#
#
#
# Elastic Compliance Matrix: (Units=1/GPa)
#
#
# Indices 1 2 3 4 5 6 
#
# 1 0.012056 -0.004974 -0.003714 -0.002468 -0.000208 0.002133
# 2 -0.004974 0.023142 0.001575 0.009247 0.002071 0.002873
# 3 -0.003714 0.001575 0.009842 0.005394 0.003830 0.000104
# 4 -0.002468 0.009247 0.005394 0.027604 0.005201 0.002764
# 5 -0.000208 0.002071 0.003830 0.005201 0.019780 0.003264
# 6 0.002133 0.002873 0.000104 0.002764 0.003264 0.019971
#
#
# Mechanical properties :
#
#
# Convention : Reuss Voigt Hill
#
# Bulk Modulus (GPa) = 32.45517 50.04825 41.25171
# Shear Modulus (GPa) = 36.52553 46.72831 41.62692
#
# Velocity S-wave (km/s) = 3.63227 4.10837 3.87763
# Velocity P-wave (km/s) = 5.41426 6.37046 5.91173
#
# Compressibility (1/GPa) = 0.03081173
#
# Stress axis : x y z
#
# Youngs Moduli (GPa) = 82.94948 43.21197 101.60843
#
# Poissons Ratio (x) = 0.21495 0.37738
# Poissons Ratio (y) = 0.41262 -0.16002
# Poissons Ratio (z) = 0.30808 -0.06805
#
# Static dielectric constant tensor:
#      x y z
#    x 2.229740 0.004100 -0.040050 
#    y 0.004100 2.134290 0.105550 
#    z -0.040050 0.105550 2.210270 
# 
# From -- ./inp_files/471854.got.cif
#   From: 2010.05.17/outbox.cif.g08.bks.cpg/sg2_236_cif.got.tgz:471854.got - 2010.06.03 11:33:40.
