data_PCOD9010559
_publ_section_title
;
Structure prediction by ZEFSAII (Michael W. Deem and Ramdas Pophale) SiO2 
 PCOD9010559
Probable space group: P -1
;
_chemical_formula_sum "Si O2"
_cell_formula_units_Z 15
_cell_length_a 16.737235
_cell_length_b 9.194717
_cell_length_c 8.428644
_cell_angle_alpha 132.904200
_cell_angle_beta 140.183444
_cell_angle_gamma 47.459858
_cell_volume 575.028220
_symmetry_space_group_name_H-M "P -1"
_symmetry_group_IT_number 2
_symmetry_cell_setting 'triclinic'
loop_
_space_group_symop_operation_xyz
x,y,z
-x,-y,-z
loop_
_atom_site_type_symbol
_atom_site_label
_atom_site_fract_x
_atom_site_fract_y
_atom_site_fract_z
Si Si1 0.570821 0.570913 0.843006
Si Si2 0.110347 0.611302 0.318253
Si Si3 0.000000 0.000000 0.500000
Si Si4 0.007695 0.162148 0.265444
Si Si5 0.323384 0.843601 0.827481
Si Si6 0.491820 0.767140 0.333870
Si Si7 0.185677 0.405963 0.613347
Si Si8 0.712459 0.669027 0.828363
O O1 0.420250 0.727163 0.747009
O O2 0.581238 0.330512 0.717297
O O3 0.634928 0.601828 0.800213
O O4 0.659440 0.639081 0.160892
O O5 0.185118 0.793241 0.594288
O O6 0.138508 0.463496 0.403976
O O7 0.151314 0.509003 0.135252
O O8 0.968523 0.784616 0.228778
O O9 0.002477 0.080130 0.372602
O O10 0.139105 0.222379 0.476512
O O11 0.888500 0.384142 0.243376
O O12 0.000000 0.000000 0.000000
O O13 0.413008 0.739384 0.038243
O O14 0.301001 0.090503 0.980258
O O15 0.640330 0.652656 0.537201
O O16 0.500000 0.000000 0.500000
#
# Coordination Sequence:
#
# PCOD9010559 Si02
#       8
#     2   2   1   2   2   2   2   2
#     4  12  22  42  66 102 144 177 228 296 336 418
#     4  11  23  46  66  97 140 178 231 291 347 416
#     4  10  26  46  76 104 134 180 240 302 344 428
#     4  10  24  51  72 101 137 182 236 290 363 417
#     4  11  23  42  65  94 143 182 226 280 349 410
#     4  10  21  40  63  94 137 185 228 266 341 419
#     4  10  24  45  70 100 137 178 231 293 346 423
#     4  11  25  39  64 101 135 185 230 275 351 415
#
# _framework density 26.085673
#
# number of rings (size 3 to 8) (size 9 to 14) (size 15 to 20)
#    0.000    1.333    2.667    2.000    3.733    2.133 
#    4.800    2.667    0.000    0.000    0.000    0.000 
#    0.000    0.000    0.000    0.000    0.000    0.000 
#
# Total GULP energy -83646.926905 kJ/mol
# GULP energy per Si atom -5576.461794 kJ/mol
# Density = 2.602630 g / cm^3
# Si number density = 26.085673 Si / 1000 Ang^3
#
#
#
# Elastic Constant Matrix: (Units=GPa)
#
#
# Indices 1 2 3 4 5 6 
#
# 1 171.0331 87.2735 58.4709 37.3978 -7.8777 30.7115
# 2 87.2735 104.0077 48.9820 23.4582 -10.2242 21.9148
# 3 58.4709 48.9820 115.6719 19.5334 13.2190 13.5310
# 4 37.3978 23.4582 19.5334 43.9049 -0.4337 2.4116
# 5 -7.8777 -10.2242 13.2190 -0.4337 51.0959 1.4959
# 6 30.7115 21.9148 13.5310 2.4116 1.4959 44.9962
#
#
#
# Elastic Compliance Matrix: (Units=1/GPa)
#
#
# Indices 1 2 3 4 5 6 
#
# 1 0.012019 -0.007082 -0.001810 -0.005422 0.000974 -0.003952
# 2 -0.007082 0.019065 -0.004215 -0.002065 0.003890 -0.003203
# 3 -0.001810 -0.004215 0.012124 -0.001635 -0.004269 -0.000128
# 4 -0.005422 -0.002065 -0.001635 0.029018 -0.000687 0.003666
# 5 0.000974 0.003890 -0.004269 -0.000687 0.021655 -0.001959
# 6 -0.003952 -0.003203 -0.000128 0.003666 -0.001959 0.026389
#
#
# Mechanical properties :
#
#
# Convention : Reuss Voigt Hill
#
# Bulk Modulus (GPa) = 58.84054 86.68505 72.76280
# Shear Modulus (GPa) = 32.86286 41.06515 36.96400
#
# Velocity S-wave (km/s) = 3.55322 3.97198 3.76842
# Velocity P-wave (km/s) = 6.28009 7.37147 6.84755
#
# Compressibility (1/GPa) = 0.01699508
#
# Stress axis : x y z
#
# Youngs Moduli (GPa) = 83.19912 52.45326 82.48164
#
# Poissons Ratio (x) = 0.37145 0.14932
# Poissons Ratio (y) = 0.58918 0.34762
# Poissons Ratio (z) = 0.15062 0.22107
#
# Static dielectric constant tensor:
#      x y z
#    x 2.743850 -0.934350 -0.012640 
#    y -0.934350 3.160350 0.077240 
#    z -0.012640 0.077240 2.186340 
# 
# From -- ./inp_files/196406.got.cif
#   From: 2010.05.17/outbox.cif.g08.bks.cpg/sg2_99_cif.got.tgz:196406.got - 2010.06.03 11:33:40.
