data_PCOD9010541
_publ_section_title
;
Structure prediction by ZEFSAII (Michael W. Deem and Ramdas Pophale) SiO2 
 PCOD9010541
Probable space group: P -1
;
_chemical_formula_sum "Si O2"
_cell_formula_units_Z 14
_cell_length_a 9.520440
_cell_length_b 9.235827
_cell_length_c 12.059336
_cell_angle_alpha 101.737831
_cell_angle_beta 36.680160
_cell_angle_gamma 97.435730
_cell_volume 619.129573
_symmetry_space_group_name_H-M "P -1"
_symmetry_group_IT_number 2
_symmetry_cell_setting 'triclinic'
loop_
_space_group_symop_operation_xyz
x,y,z
-x,-y,-z
loop_
_atom_site_type_symbol
_atom_site_label
_atom_site_fract_x
_atom_site_fract_y
_atom_site_fract_z
Si Si1 0.688731 0.119934 0.936780
Si Si2 0.400090 0.273446 0.337098
Si Si3 0.405794 0.283250 0.973352
Si Si4 0.529046 0.387209 0.691702
Si Si5 0.474693 0.830427 0.520871
Si Si6 0.965955 0.668989 0.586343
Si Si7 0.037626 0.071336 0.107823
O O1 0.923775 0.033720 0.822915
O O2 0.597813 0.205905 0.117959
O O3 0.647524 0.233187 0.876938
O O4 0.500000 0.000000 0.000000
O O5 0.428461 0.450115 0.355235
O O6 0.414005 0.203067 0.436216
O O7 0.160449 0.243656 0.419867
O O8 0.215856 0.323990 0.195530
O O9 0.283940 0.151446 0.964466
O O10 0.425160 0.403710 0.883800
O O11 0.413441 0.286576 0.657275
O O12 0.773910 0.291477 0.543934
O O13 0.192017 0.818516 0.713456
O O14 0.500000 0.000000 0.500000
O O15 0.000000 0.500000 0.500000
O O16 0.000000 0.000000 0.000000
#
# Coordination Sequence:
#
# PCOD9010541 Si02
#       7
#     2   2   2   2   2   2   2
#     4   9  20  36  64  92 122 166 208 262 316 370
#     4  10  22  42  64  92 133 164 209 268 317 373
#     4  10  21  40  63  94 126 165 210 257 319 373
#     4  11  23  42  68  95 127 171 210 262 321 382
#     4  12  25  41  64  94 129 170 215 262 318 382
#     4   9  20  39  65  92 129 163 205 262 315 371
#     4  11  20  39  64  88 129 165 210 264 312 371
#
# _framework density 22.612392
#
# number of rings (size 3 to 8) (size 9 to 14) (size 15 to 20)
#    0.000    1.714    2.857    1.286    2.000    6.286 
#    0.000    3.571    0.000    0.000    0.000    0.000 
#    0.000    0.000    0.000    0.000    0.000    0.000 
#
# Total GULP energy -78063.077797 kJ/mol
# GULP energy per Si atom -5575.934128 kJ/mol
# Density = 2.256093 g / cm^3
# Si number density = 22.612392 Si / 1000 Ang^3
#
#
#
# Elastic Constant Matrix: (Units=GPa)
#
#
# Indices 1 2 3 4 5 6 
#
# 1 142.9009 32.9940 35.4033 -4.6198 37.4149 -18.0151
# 2 32.9940 73.4841 5.0919 -5.5344 22.8939 -9.3321
# 3 35.4033 5.0919 53.9557 2.7313 16.5971 -11.8040
# 4 -4.6198 -5.5344 2.7313 31.5729 -3.0017 9.1938
# 5 37.4149 22.8939 16.5971 -3.0017 39.4680 1.9036
# 6 -18.0151 -9.3321 -11.8040 9.1938 1.9036 39.7030
#
#
#
# Elastic Compliance Matrix: (Units=1/GPa)
#
#
# Indices 1 2 3 4 5 6 
#
# 1 0.010864 -0.001651 -0.003634 -0.000287 -0.008023 0.003912
# 2 -0.001651 0.018102 0.003810 0.000081 -0.010779 0.005136
# 3 -0.003634 0.003810 0.026023 -0.005684 -0.010565 0.008806
# 4 -0.000287 0.000081 -0.005684 0.035704 0.005830 -0.010348
# 5 -0.008023 -0.010779 -0.010565 0.005830 0.044700 -0.012808
# 6 0.003912 0.005136 0.008806 -0.010348 -0.012808 0.033798
#
#
# Mechanical properties :
#
#
# Convention : Reuss Voigt Hill
#
# Bulk Modulus (GPa) = 19.21625 46.36880 32.79252
# Shear Modulus (GPa) = 26.38690 35.27221 30.82955
#
# Velocity S-wave (km/s) = 3.41973 3.95379 3.69642
# Velocity P-wave (km/s) = 4.91012 6.43380 5.72289
#
# Compressibility (1/GPa) = 0.05203930
#
# Stress axis : x y z
#
# Youngs Moduli (GPa) = 92.04612 55.24138 38.42759
#
# Poissons Ratio (x) = 0.09122 0.13966
# Poissons Ratio (y) = 0.15199 -0.14642
# Poissons Ratio (z) = 0.33452 -0.21049
#
# Static dielectric constant tensor:
#      x y z
#    x 1.894600 -0.004480 -0.011370 
#    y -0.004480 1.891450 -0.017270 
#    z -0.011370 -0.017270 1.905010 
# 
# From -- ./inp_files/153943.got.cif
#   From: 2010.05.17/outbox.cif.g08.bks.cpg/sg2_77_cif.got.tgz:153943.got - 2010.06.03 11:33:40.
