data_PCOD9010227
_publ_section_title
;
Structure prediction by ZEFSAII (Michael W. Deem and Ramdas Pophale) SiO2 
 PCOD9010227
Probable space group: P -1
;
_chemical_formula_sum "Si O2"
_cell_formula_units_Z 14
_cell_length_a 8.274643
_cell_length_b 11.296759
_cell_length_c 14.714451
_cell_angle_alpha 28.617846
_cell_angle_beta 50.180155
_cell_angle_gamma 53.396356
_cell_volume 503.813686
_symmetry_space_group_name_H-M "P -1"
_symmetry_group_IT_number 2
_symmetry_cell_setting 'triclinic'
loop_
_space_group_symop_operation_xyz
x,y,z
-x,-y,-z
loop_
_atom_site_type_symbol
_atom_site_label
_atom_site_fract_x
_atom_site_fract_y
_atom_site_fract_z
Si Si1 0.410860 0.337827 0.823232
Si Si2 0.261022 0.143719 0.496961
Si Si3 0.361333 0.069910 0.210093
Si Si4 0.894375 0.804782 0.106472
Si Si5 0.058296 0.700930 0.767456
Si Si6 0.322286 0.635387 0.034273
Si Si7 0.176735 0.659019 0.432703
O O1 0.307191 0.149199 0.917922
O O2 0.245484 0.583742 0.715099
O O3 0.646980 0.380274 0.682152
O O4 0.390008 0.247387 0.993652
O O5 0.294172 0.421784 0.263070
O O6 0.059768 0.218697 0.589685
O O7 0.500000 0.000000 0.500000
O O8 0.143556 0.939298 0.622286
O O9 0.170635 0.191383 0.259645
O O10 0.288880 0.827996 0.352296
O O11 0.581762 0.100974 0.158100
O O12 0.842057 0.593429 0.337224
O O13 0.086486 0.702958 0.038963
O O14 0.000000 0.000000 0.000000
O O15 0.000000 0.500000 0.000000
O O16 0.500000 0.500000 0.000000
#
# Coordination Sequence:
#
# PCOD9010227 Si02
#       7
#     2   2   2   2   2   2   2
#     4  11  21  40  66  92 124 173 214 255 311 381
#     4  10  21  40  62  92 130 165 210 266 316 370
#     4  10  21  42  64  91 126 167 215 260 307 378
#     4  11  25  43  62  93 133 167 207 263 322 374
#     4   9  19  35  60  89 119 161 208 251 302 366
#     4  11  24  42  65  96 129 165 210 266 319 371
#     4  10  23  40  64  93 125 168 215 257 314 384
#
# _framework density 27.788049999999998
#
# number of rings (size 3 to 8) (size 9 to 14) (size 15 to 20)
#    0.000    1.714    0.000    4.286    0.000    4.571 
#    0.000   17.143    0.000    0.000    0.000    0.000 
#    0.000    0.000    0.000    0.000    0.000    0.000 
#
# Total GULP energy -78187.293680 kJ/mol
# GULP energy per Si atom -5584.806691 kJ/mol
# Density = 2.772480 g / cm^3
# Si number density = 27.788050 Si / 1000 Ang^3
#
#
#
# Elastic Constant Matrix: (Units=GPa)
#
#
# Indices 1 2 3 4 5 6 
#
# 1 68.9040 24.5341 34.1683 24.0162 -30.2445 -23.9017
# 2 24.5341 177.5148 47.7819 52.5013 -22.5177 -37.0320
# 3 34.1683 47.7819 173.3454 7.3490 -32.7714 -6.7029
# 4 24.0162 52.5013 7.3490 62.2749 1.8853 -24.9071
# 5 -30.2445 -22.5177 -32.7714 1.8853 54.7966 10.0712
# 6 -23.9017 -37.0320 -6.7029 -24.9071 10.0712 51.5418
#
#
#
# Elastic Compliance Matrix: (Units=1/GPa)
#
#
# Indices 1 2 3 4 5 6 
#
# 1 0.026642 0.003287 -0.002915 -0.010444 0.013447 0.006663
# 2 0.003287 0.009152 -0.001958 -0.007502 0.004032 0.003433
# 3 -0.002915 -0.001958 0.007173 0.001197 0.002141 -0.001665
# 4 -0.010444 -0.007502 0.001197 0.028938 -0.010211 0.005902
# 5 0.013447 0.004032 0.002141 -0.010211 0.029185 -0.001226
# 6 0.006663 0.003433 -0.001665 0.005902 -0.001226 0.027833
#
#
# Mechanical properties :
#
#
# Convention : Reuss Voigt Hill
#
# Bulk Modulus (GPa) = 25.12863 70.30365 47.71614
# Shear Modulus (GPa) = 34.39761 54.60800 44.50280
#
# Velocity S-wave (km/s) = 3.52213 4.43782 4.00623
# Velocity P-wave (km/s) = 5.05996 7.18428 6.21358
#
# Compressibility (1/GPa) = 0.03979524
#
# Stress axis : x y z
#
# Youngs Moduli (GPa) = 37.53523 109.26453 139.41826
#
# Poissons Ratio (x) = -0.35915 0.40638
# Poissons Ratio (y) = -0.12338 0.27294
# Poissons Ratio (z) = 0.10941 0.21391
#
# Static dielectric constant tensor:
#      x y z
#    x 2.204110 0.040030 -0.014760 
#    y 0.040030 2.346460 -0.048190 
#    z -0.014760 -0.048190 2.111440 
# 
# From -- ./inp_files/559476.got.cif
#   From: 2010.05.17/outbox.cif.g08.bks.cpg/sg2_280_cif.got.tgz:559476.got - 2010.06.03 11:33:40.
