data_PCOD9010257
_publ_section_title
;
Structure prediction by ZEFSAII (Michael W. Deem and Ramdas Pophale) SiO2 
 PCOD9010257
Probable space group: P -1
;
_chemical_formula_sum "Si O2"
_cell_formula_units_Z 14
_cell_length_a 13.732532
_cell_length_b 10.963851
_cell_length_c 5.856266
_cell_angle_alpha 113.917282
_cell_angle_beta 54.623254
_cell_angle_gamma 109.759927
_cell_volume 650.844860
_symmetry_space_group_name_H-M "P -1"
_symmetry_group_IT_number 2
_symmetry_cell_setting 'triclinic'
loop_
_space_group_symop_operation_xyz
x,y,z
-x,-y,-z
loop_
_atom_site_type_symbol
_atom_site_label
_atom_site_fract_x
_atom_site_fract_y
_atom_site_fract_z
Si Si1 0.817296 0.870888 0.133276
Si Si2 0.859745 0.591118 0.848718
Si Si3 0.567890 0.868161 0.295087
Si Si4 0.059173 0.920212 0.554204
Si Si5 0.218154 0.698451 0.037173
Si Si6 0.516392 0.162744 0.112260
Si Si7 0.904160 0.442965 0.278693
O O1 0.712578 0.903754 0.132875
O O2 0.835138 0.977678 0.392977
O O3 0.796426 0.714213 0.113027
O O4 0.947456 0.881944 0.846032
O O5 0.805404 0.447510 0.920483
O O6 0.851707 0.563299 0.568291
O O7 0.003223 0.618542 0.728243
O O8 0.540146 0.801943 0.536900
O O9 0.500000 0.000000 0.500000
O O10 0.530957 0.798436 0.046526
O O11 0.115570 0.791211 0.296862
O O12 0.000000 0.000000 0.500000
O O13 0.344501 0.775773 0.002619
O O14 0.200477 0.662266 0.765555
O O15 0.500000 0.000000 0.000000
O O16 0.000000 0.500000 0.000000
#
# Coordination Sequence:
#
# PCOD9010257 Si02
#       7
#     2   2   2   2   2   2   2
#     4  11  24  41  63  98 133 174 219 286 340 406
#     4  10  21  40  62  93 135 172 217 272 346 410
#     4  10  23  43  68  91 131 180 229 277 337 397
#     4  11  24  37  64 102 135 167 219 282 350 403
#     4  11  23  40  69  96 131 175 225 277 339 413
#     4  10  23  43  68  96 127 181 233 280 333 397
#     4   9  18  35  61  92 128 171 211 259 335 411
#
# _framework density 21.510501999999999
#
# number of rings (size 3 to 8) (size 9 to 14) (size 15 to 20)
#    0.000    1.714    0.000    5.143    8.000    2.286 
#    0.000    1.429    0.000    0.000    0.000    0.000 
#    0.000    0.000    0.000    0.000    0.000    0.000 
#
# Total GULP energy -78025.434448 kJ/mol
# GULP energy per Si atom -5573.245318 kJ/mol
# Density = 2.146154 g / cm^3
# Si number density = 21.510502 Si / 1000 Ang^3
#
#
#
# Elastic Constant Matrix: (Units=GPa)
#
#
# Indices 1 2 3 4 5 6 
#
# 1 151.8892 39.8959 33.4284 15.2714 19.9996 31.0370
# 2 39.8959 95.3137 19.3004 14.7430 0.5556 3.8099
# 3 33.4284 19.3004 68.1831 2.2712 22.5053 -3.0297
# 4 15.2714 14.7430 2.2712 27.5891 -3.9197 1.3876
# 5 19.9996 0.5556 22.5053 -3.9197 40.8040 5.0158
# 6 31.0370 3.8099 -3.0297 1.3876 5.0158 34.4895
#
#
#
# Elastic Compliance Matrix: (Units=1/GPa)
#
#
# Indices 1 2 3 4 5 6 
#
# 1 0.010780 -0.002680 -0.004058 -0.004056 -0.002259 -0.009270
# 2 -0.002680 0.012916 -0.002869 -0.004905 0.002173 0.000614
# 3 -0.004058 -0.002869 0.021292 0.000148 -0.010608 0.007376
# 4 -0.004056 -0.004905 0.000148 0.041837 0.005785 0.001680
# 5 -0.002259 0.002173 -0.010608 0.005785 0.032495 -0.004097
# 6 -0.009270 0.000614 0.007376 0.001680 -0.004097 0.038444
#
#
# Mechanical properties :
#
#
# Convention : Reuss Voigt Hill
#
# Bulk Modulus (GPa) = 38.79679 55.62615 47.21147
# Shear Modulus (GPa) = 26.94411 35.42729 31.18570
#
# Velocity S-wave (km/s) = 3.54305 4.06270 3.81174
# Velocity P-wave (km/s) = 5.90025 6.92268 6.43181
#
# Compressibility (1/GPa) = 0.02577533
#
# Stress axis : x y z
#
# Youngs Moduli (GPa) = 92.76381 77.42562 46.96579
#
# Poissons Ratio (x) = 0.20746 0.19057
# Poissons Ratio (y) = 0.24856 0.13474
# Poissons Ratio (z) = 0.37641 0.22213
#
# Static dielectric constant tensor:
#      x y z
#    x 1.827930 -0.021100 0.084560 
#    y -0.021100 1.847970 -0.056510 
#    z 0.084560 -0.056510 1.855500 
# 
# From -- ./inp_files/67939.got.cif
#   From: 2010.05.17/outbox.cif.g08.bks.cpg/sg2_34_cif.got.tgz:67939.got - 2010.06.03 11:33:40.
