data_PCOD9010568
_publ_section_title
;
Structure prediction by ZEFSAII (Michael W. Deem and Ramdas Pophale) SiO2 
 PCOD9010568
Probable space group: P -1
;
_chemical_formula_sum "Si O2"
_cell_formula_units_Z 16
_cell_length_a 22.752243
_cell_length_b 10.121411
_cell_length_c 8.681424
_cell_angle_alpha 44.260384
_cell_angle_beta 56.314096
_cell_angle_gamma 34.632951
_cell_volume 789.933476
_symmetry_space_group_name_H-M "P -1"
_symmetry_group_IT_number 2
_symmetry_cell_setting 'triclinic'
loop_
_space_group_symop_operation_xyz
x,y,z
-x,-y,-z
loop_
_atom_site_type_symbol
_atom_site_label
_atom_site_fract_x
_atom_site_fract_y
_atom_site_fract_z
Si Si1 0.251844 0.693233 0.505933
Si Si2 0.399660 0.109993 0.634221
Si Si3 0.921441 0.321506 0.526828
Si Si4 0.699499 0.812617 0.570604
Si Si5 0.102519 0.680183 0.807235
Si Si6 0.454313 0.193701 0.054788
Si Si7 0.932576 0.664113 0.806890
Si Si8 0.383625 0.669756 0.572692
O O1 0.317969 0.439945 0.502246
O O2 0.194274 0.648427 0.732659
O O3 0.328407 0.671650 0.511314
O O4 0.162156 0.003544 0.308099
O O5 0.348597 0.058033 0.638942
O O6 0.500000 0.000000 0.500000
O O7 0.446334 0.954210 0.859080
O O8 0.819129 0.531038 0.602501
O O9 0.893649 0.355693 0.355638
O O10 0.991237 0.375476 0.387945
O O11 0.994821 0.999916 0.728237
O O12 0.628838 0.781777 0.765253
O O13 0.681154 0.024928 0.530354
O O14 0.107728 0.467670 0.059789
O O15 0.396328 0.495748 0.836664
O O16 0.500000 0.000000 0.000000
O O17 0.000000 0.500000 0.000000
O O18 0.500000 0.500000 0.500000
#
# Coordination Sequence:
#
# PCOD9010568 Si02
#       8
#     2   2   2   2   2   2   2   2
#     4  11  21  39  66  92 128 177 214 262 336 383
#     4  10  21  40  63  95 130 165 220 279 319 382
#     4   9  18  36  60  93 130 161 204 278 321 375
#     4  11  23  40  65  98 131 166 220 282 319 382
#     4   9  18  36  61  91 130 167 207 260 331 394
#     4  11  22  43  66  88 130 182 219 262 334 395
#     4   9  20  36  63 100 127 162 220 266 324 403
#     4  12  25  43  63  92 134 177 220 269 325 397
#
# _framework density 20.254871000000001
#
# number of rings (size 3 to 8) (size 9 to 14) (size 15 to 20)
#    0.000    1.750    3.750    1.500    0.000    3.500 
#    6.750    2.500    0.000    4.500    0.000    0.000 
#    0.000    0.000    0.000    0.000    0.000    0.000 
#
# Total GULP energy -89279.177979 kJ/mol
# GULP energy per Si atom -5579.948624 kJ/mol
# Density = 2.020877 g / cm^3
# Si number density = 20.254871 Si / 1000 Ang^3
#
#
#
# Elastic Constant Matrix: (Units=GPa)
#
#
# Indices 1 2 3 4 5 6 
#
# 1 76.7969 21.7362 6.2415 4.9894 -16.8484 -5.6946
# 2 21.7362 141.8620 24.0377 5.5332 -20.4870 -22.0692
# 3 6.2415 24.0377 72.6886 -12.1935 -19.7375 -8.2445
# 4 4.9894 5.5332 -12.1935 20.9466 4.0757 0.9004
# 5 -16.8484 -20.4870 -19.7375 4.0757 31.7502 -0.8193
# 6 -5.6946 -22.0692 -8.2445 0.9004 -0.8193 29.5376
#
#
#
# Elastic Compliance Matrix: (Units=1/GPa)
#
#
# Indices 1 2 3 4 5 6 
#
# 1 0.015702 -0.000501 0.000865 -0.005052 0.009281 0.003306
# 2 -0.000501 0.009449 -0.001561 -0.004676 0.005637 0.006826
# 3 0.000865 -0.001561 0.018980 0.009086 0.010195 0.004304
# 4 -0.005052 -0.004676 0.009086 0.057090 -0.007478 -0.003879
# 5 0.009281 0.005637 0.010195 -0.007478 0.047624 0.010396
# 6 0.003306 0.006826 0.004304 -0.003879 0.010396 0.041201
#
#
# Mechanical properties :
#
#
# Convention : Reuss Voigt Hill
#
# Bulk Modulus (GPa) = 23.95956 43.93093 33.94525
# Shear Modulus (GPa) = 24.23035 32.40235 28.31635
#
# Velocity S-wave (km/s) = 3.46247 4.00400 3.74304
# Velocity P-wave (km/s) = 5.27633 6.56599 5.95617
#
# Compressibility (1/GPa) = 0.04173700
#
# Stress axis : x y z
#
# Youngs Moduli (GPa) = 63.68484 105.83424 52.68682
#
# Poissons Ratio (x) = 0.05300 -0.04556
# Poissons Ratio (y) = 0.03189 0.08225
# Poissons Ratio (z) = -0.05508 0.16521
#
# Static dielectric constant tensor:
#      x y z
#    x 1.786890 -0.003140 0.010230 
#    y -0.003140 1.692800 0.005340 
#    z 0.010230 0.005340 1.742360 
# 
# From -- ./inp_files/343312.got.cif
#   From: 2010.05.17/outbox.cif.g08.bks.cpg/sg2_172_cif.got.tgz:343312.got - 2010.06.03 11:33:40.
