data_PCOD9010805
_publ_section_title
;
Structure prediction by ZEFSAII (Michael W. Deem and Ramdas Pophale) SiO2 
 PCOD9010805
Probable space group: P -1
;
_chemical_formula_sum "Si O2"
_cell_formula_units_Z 16
_cell_length_a 5.321357
_cell_length_b 16.135851
_cell_length_c 8.816033
_cell_angle_alpha 68.770073
_cell_angle_beta 91.319140
_cell_angle_gamma 98.191617
_cell_volume 698.078062
_symmetry_space_group_name_H-M "P -1"
_symmetry_group_IT_number 2
_symmetry_cell_setting 'triclinic'
loop_
_space_group_symop_operation_xyz
x,y,z
-x,-y,-z
loop_
_atom_site_type_symbol
_atom_site_label
_atom_site_fract_x
_atom_site_fract_y
_atom_site_fract_z
Si Si1 0.980858 0.865648 0.045959
Si Si2 0.513416 0.562711 0.106806
Si Si3 0.654941 0.894999 0.283838
Si Si4 0.665589 0.760568 0.889478
Si Si5 0.963522 0.435687 0.689136
Si Si6 0.006998 0.832687 0.566135
Si Si7 0.761641 0.247565 0.651140
Si Si8 0.644511 0.075605 0.242198
O O1 0.774548 0.908735 0.109613
O O2 0.170757 0.835075 0.191174
O O3 0.855983 0.774348 0.024163
O O4 0.122021 0.920031 0.875295
O O5 0.262431 0.539565 0.222213
O O6 0.772151 0.560916 0.212777
O O7 0.500000 0.500000 0.000000
O O8 0.512265 0.663116 0.972907
O O9 0.860515 0.896203 0.419484
O O10 0.533054 0.789447 0.353640
O O11 0.503346 0.975626 0.277828
O O12 0.823172 0.779914 0.724432
O O13 0.507992 0.843191 0.851165
O O14 0.852077 0.338412 0.679679
O O15 0.000000 0.500000 0.500000
O O16 0.110355 0.761541 0.503500
O O17 0.232446 0.894956 0.614781
#
# Coordination Sequence:
#
# PCOD9010805 Si02
#       8
#     2   2   2   2   2   2   2   2
#     4  10  21  40  64  92 134 182 232 298 357 424
#     4  12  28  51  82 117 154 195 247 311 380 456
#     4  11  23  40  63  98 136 187 243 297 359 431
#     4  11  24  43  69  96 142 183 239 293 369 429
#     4  12  28  51  82 117 154 195 247 311 380 456
#     4  10  25  40  64  94 138 190 234 302 359 432
#     4  11  24  43  69  96 142 183 239 293 369 429
#     4  11  23  40  63  98 136 187 243 297 359 431
#
# _framework density 22.920069999999999
#
# number of rings (size 3 to 8) (size 9 to 14) (size 15 to 20)
#    0.000    1.000    1.250    4.500    5.250   10.000 
#    0.000    0.000    0.000    0.000    0.000    0.000 
#    0.000    0.000    0.000    0.000    0.000    0.000 
#
# Total GULP energy -89356.620122 kJ/mol
# GULP energy per Si atom -5584.788758 kJ/mol
# Density = 2.286790 g / cm^3
# Si number density = 22.920070 Si / 1000 Ang^3
#
#
#
# Elastic Constant Matrix: (Units=GPa)
#
#
# Indices 1 2 3 4 5 6 
#
# 1 94.3815 39.0345 53.3837 14.1978 -14.6078 -1.4431
# 2 39.0345 135.0205 63.1816 15.9088 -5.0865 7.2393
# 3 53.3837 63.1816 134.6938 22.3522 -10.9747 -6.6102
# 4 14.1978 15.9088 22.3522 31.4526 0.5025 -2.2628
# 5 -14.6078 -5.0865 -10.9747 0.5025 40.3497 13.2606
# 6 -1.4431 7.2393 -6.6102 -2.2628 13.2606 28.8362
#
#
#
# Elastic Compliance Matrix: (Units=1/GPa)
#
#
# Indices 1 2 3 4 5 6 
#
# 1 0.014893 -0.001598 -0.004369 -0.003052 0.004796 -0.002300
# 2 -0.001598 0.010211 -0.003954 -0.001951 0.001030 -0.004177
# 3 -0.004369 -0.003954 0.011883 -0.004255 0.000195 0.003075
# 4 -0.003052 -0.001951 -0.004255 0.037564 -0.004400 0.004333
# 5 0.004796 0.001030 0.000195 -0.004400 0.031645 -0.014871
# 6 -0.002300 -0.004177 0.003075 0.004333 -0.014871 0.043496
#
#
# Mechanical properties :
#
#
# Convention : Reuss Voigt Hill
#
# Bulk Modulus (GPa) = 58.32000 75.03283 66.67642
# Shear Modulus (GPa) = 28.53096 34.02743 31.27920
#
# Velocity S-wave (km/s) = 3.53200 3.85725 3.69820
# Velocity P-wave (km/s) = 6.49104 7.25573 6.88401
#
# Compressibility (1/GPa) = 0.01714678
#
# Stress axis : x y z
#
# Youngs Moduli (GPa) = 67.14342 97.93471 84.15189
#
# Poissons Ratio (x) = 0.15647 0.36766
# Poissons Ratio (y) = 0.10727 0.33272
# Poissons Ratio (z) = 0.29335 0.38721
#
# Static dielectric constant tensor:
#      x y z
#    x 1.974170 0.035670 -0.003520 
#    y 0.035670 1.868040 -0.030680 
#    z -0.003520 -0.030680 1.843760 
# 
# From -- ./inp_files/134992.got.cif
#   From: 2010.05.17/outbox.cif.g08.bks.cpg/sg2_68_cif.got.tgz:134992.got - 2010.06.03 11:33:40.
