data_PCOD9010645
_publ_section_title
;
Structure prediction by ZEFSAII (Michael W. Deem and Ramdas Pophale) SiO2 
 PCOD9010645
Probable space group: P -1
;
_chemical_formula_sum "Si O2"
_cell_formula_units_Z 16
_cell_length_a 13.245868
_cell_length_b 13.306355
_cell_length_c 15.260081
_cell_angle_alpha 45.169612
_cell_angle_beta 80.822870
_cell_angle_gamma 120.577523
_cell_volume 868.834143
_symmetry_space_group_name_H-M "P -1"
_symmetry_group_IT_number 2
_symmetry_cell_setting 'triclinic'
loop_
_space_group_symop_operation_xyz
x,y,z
-x,-y,-z
loop_
_atom_site_type_symbol
_atom_site_label
_atom_site_fract_x
_atom_site_fract_y
_atom_site_fract_z
Si Si1 0.283702 0.910683 0.533184
Si Si2 0.622292 0.274595 0.405041
Si Si3 0.749194 0.673740 0.272149
Si Si4 0.086349 0.268633 0.080450
Si Si5 0.308906 0.404848 0.285168
Si Si6 0.642638 0.594979 0.530233
Si Si7 0.068771 0.307042 0.247942
Si Si8 0.415253 0.451361 0.948888
O O1 0.382648 0.990466 0.565872
O O2 0.440490 0.231006 0.283808
O O3 0.315097 0.810381 0.532145
O O4 0.044217 0.687162 0.708959
O O5 0.647691 0.416844 0.391390
O O6 0.794413 0.531789 0.145851
O O7 0.719632 0.617269 0.415537
O O8 0.598049 0.627718 0.304543
O O9 0.000000 0.000000 0.000000
O O10 0.152083 0.428367 0.062566
O O11 0.168125 0.207201 0.125813
O O12 0.823916 0.943786 0.303267
O O13 0.337596 0.470142 0.343360
O O14 0.527847 0.597457 0.099607
O O15 0.237965 0.447420 0.207229
O O16 0.121843 0.050572 0.515984
O O17 0.500000 0.500000 0.000000
#
# Coordination Sequence:
#
# PCOD9010645 Si02
#       8
#     2   2   2   2   2   2   2   2
#     4   9  20  32  50  77 112 144 171 220 278 329
#     4  10  19  35  51  74 112 144 179 219 271 331
#     4  11  21  37  56  77 107 144 188 232 265 317
#     4  10  17  29  51  79 108 138 176 219 272 326
#     4   9  17  29  47  74 110 134 168 226 268 319
#     4  10  21  33  54  82 104 141 185 228 276 309
#     4   9  16  28  45  74 105 133 170 213 271 321
#     4  10  17  29  51  81 113 142 175 216 272 330
#
# _framework density 18.415481
#
# number of rings (size 3 to 8) (size 9 to 14) (size 15 to 20)
#    0.000    2.250    2.500    3.000    1.750    0.500 
#    0.000    1.250    0.000    0.750    0.000    1.750 
#    0.000    0.000    0.000    0.000    0.000    0.000 
#
# Total GULP energy -89115.285299 kJ/mol
# GULP energy per Si atom -5569.705331 kJ/mol
# Density = 1.837357 g / cm^3
# Si number density = 18.415481 Si / 1000 Ang^3
#
#
#
# Elastic Constant Matrix: (Units=GPa)
#
#
# Indices 1 2 3 4 5 6 
#
# 1 90.5993 25.1546 26.5475 9.8551 -9.7111 -9.7025
# 2 25.1546 96.3861 18.5014 26.8247 5.5514 -6.0265
# 3 26.5475 18.5014 48.4571 17.0584 -19.4248 2.2040
# 4 9.8551 26.8247 17.0584 25.6405 3.6409 -2.0264
# 5 -9.7111 5.5514 -19.4248 3.6409 26.8587 4.4556
# 6 -9.7025 -6.0265 2.2040 -2.0264 4.4556 25.0758
#
#
#
# Elastic Compliance Matrix: (Units=1/GPa)
#
#
# Indices 1 2 3 4 5 6 
#
# 1 0.014697 -0.002579 -0.010878 0.005412 -0.003942 0.007161
# 2 -0.002579 0.015430 -0.001160 -0.013700 -0.003489 0.002325
# 3 -0.010878 -0.001160 0.068705 -0.050350 0.056920 -0.024709
# 4 0.005412 -0.013700 -0.050350 0.092998 -0.047411 0.019167
# 5 -0.003942 -0.003489 0.056920 -0.047411 0.088589 -0.026939
# 6 0.007161 0.002325 -0.024709 0.019167 -0.026939 0.051716
#
#
# Mechanical properties :
#
#
# Convention : Reuss Voigt Hill
#
# Bulk Modulus (GPa) = 14.36825 41.76105 28.06465
# Shear Modulus (GPa) = 13.00160 26.53093 19.76627
#
# Velocity S-wave (km/s) = 2.65998 3.79976 3.27976
# Velocity P-wave (km/s) = 4.15369 6.47898 5.44198
#
# Compressibility (1/GPa) = 0.06959791
#
# Stress axis : x y z
#
# Youngs Moduli (GPa) = 68.04193 64.80964 14.55497
#
# Poissons Ratio (x) = 0.16713 0.15833
# Poissons Ratio (y) = 0.17547 0.01688
# Poissons Ratio (z) = 0.74018 0.07516
#
# Static dielectric constant tensor:
#      x y z
#    x 1.668900 0.014790 -0.040720 
#    y 0.014790 1.653700 0.015330 
#    z -0.040720 0.015330 1.712300 
# 
# From -- ./inp_files/425408.got.cif
#   From: 2010.05.17/outbox.cif.g08.bks.cpg/sg2_213_cif.got.tgz:425408.got - 2010.06.03 11:33:40.
