data_PCOD9010957
_publ_section_title
;
Structure prediction by ZEFSAII (Michael W. Deem and Ramdas Pophale) SiO2 
 PCOD9010957
Probable space group: P -1
;
_chemical_formula_sum "Si O2"
_cell_formula_units_Z 16
_cell_length_a 9.356537
_cell_length_b 9.591176
_cell_length_c 11.474506
_cell_angle_alpha 131.984517
_cell_angle_beta 96.228585
_cell_angle_gamma 88.054076
_cell_volume 759.862301
_symmetry_space_group_name_H-M "P -1"
_symmetry_group_IT_number 2
_symmetry_cell_setting 'triclinic'
loop_
_space_group_symop_operation_xyz
x,y,z
-x,-y,-z
loop_
_atom_site_type_symbol
_atom_site_label
_atom_site_fract_x
_atom_site_fract_y
_atom_site_fract_z
Si Si1 0.101190 0.032607 0.638594
Si Si2 0.839891 0.572854 0.033896
Si Si3 0.087654 0.203176 0.346599
Si Si4 0.319865 0.723843 0.539194
Si Si5 0.639139 0.606309 0.825921
Si Si6 0.138966 0.588106 0.674599
Si Si7 0.392106 0.110067 0.221756
Si Si8 0.351747 0.668406 0.951434
O O1 0.156893 0.246057 0.780609
O O2 0.230244 0.891029 0.571893
O O3 0.000000 0.000000 0.500000
O O4 0.002975 0.973667 0.708808
O O5 0.728415 0.416152 0.990067
O O6 0.776233 0.628332 0.934505
O O7 0.000000 0.500000 0.000000
O O8 0.093232 0.368470 0.536748
O O9 0.246307 0.157845 0.300752
O O10 0.001470 0.291188 0.281108
O O11 0.341666 0.562786 0.356939
O O12 0.229752 0.638150 0.593233
O O13 0.471088 0.802622 0.647998
O O14 0.614782 0.790645 0.849262
O O15 0.495939 0.570323 0.870865
O O16 0.236054 0.639159 0.821222
O O17 0.395369 0.887293 0.090464
#
# Coordination Sequence:
#
# PCOD9010957 Si02
#       8
#     2   2   2   2   2   2   2   2
#     4  11  24  45  69  96 135 181 227 272 331 400
#     4  12  28  47  67  98 138 181 224 273 338 398
#     4  10  22  38  65  96 131 167 228 269 328 390
#     4  11  23  43  70 100 131 176 223 276 330 399
#     4  12  25  44  70  98 139 176 220 279 338 397
#     4  10  21  40  64  97 132 170 215 277 329 390
#     4  12  24  41  69 104 132 174 225 275 338 396
#     4  12  26  43  67  97 140 174 224 274 338 395
#
# _framework density 21.056446000000001
#
# number of rings (size 3 to 8) (size 9 to 14) (size 15 to 20)
#    0.000    0.750    2.500    4.875    5.250    0.500 
#    0.000    1.875    0.000    0.000    0.000    0.000 
#    0.000    0.000    0.000    0.000    0.000    0.000 
#
# Total GULP energy -89579.175159 kJ/mol
# GULP energy per Si atom -5598.698447 kJ/mol
# Density = 2.100852 g / cm^3
# Si number density = 21.056446 Si / 1000 Ang^3
#
#
#
# Elastic Constant Matrix: (Units=GPa)
#
#
# Indices 1 2 3 4 5 6 
#
# 1 125.1571 43.9160 17.6709 -1.8435 7.3534 -11.6807
# 2 43.9160 75.1051 38.7337 1.7071 -6.0238 -11.2591
# 3 17.6709 38.7337 93.5063 2.0975 20.5793 -17.0713
# 4 -1.8435 1.7071 2.0975 33.8011 -8.3583 10.7059
# 5 7.3534 -6.0238 20.5793 -8.3583 35.4128 -7.8905
# 6 -11.6807 -11.2591 -17.0713 10.7059 -7.8905 33.1164
#
#
#
# Elastic Compliance Matrix: (Units=1/GPa)
#
#
# Indices 1 2 3 4 5 6 
#
# 1 0.010774 -0.007757 0.002571 -0.000904 -0.004905 0.001612
# 2 -0.007757 0.025242 -0.011526 0.001533 0.013552 0.002638
# 3 0.002571 -0.011526 0.019105 -0.005553 -0.013712 0.005365
# 4 -0.000904 0.001533 -0.005553 0.035956 0.009483 -0.012025
# 5 -0.004905 0.013552 -0.013712 0.009483 0.042403 0.002847
# 6 0.001612 0.002638 0.005365 -0.012025 0.002847 0.038993
#
#
# Mechanical properties :
#
#
# Convention : Reuss Voigt Hill
#
# Bulk Modulus (GPa) = 46.08758 54.93443 50.51100
# Shear Modulus (GPa) = 23.45999 33.36258 28.41128
#
# Velocity S-wave (km/s) = 3.34151 3.98482 3.67726
# Velocity P-wave (km/s) = 6.06817 6.87877 6.48614
#
# Compressibility (1/GPa) = 0.02169782
#
# Stress axis : x y z
#
# Youngs Moduli (GPa) = 92.81470 39.61619 52.34324
#
# Poissons Ratio (x) = 0.30732 -0.13459
# Poissons Ratio (y) = 0.71999 0.60329
# Poissons Ratio (z) = -0.23866 0.45660
#
# Static dielectric constant tensor:
#      x y z
#    x 1.740300 0.007530 -0.007190 
#    y 0.007530 1.780090 0.003490 
#    z -0.007190 0.003490 1.725990 
# 
# From -- ./inp_files/186615.got.cif
#   From: 2010.05.17/outbox.cif.g08.bks.cpg/sg2_94_cif.got.tgz:186615.got - 2010.06.03 11:33:40.
