data_PCOD9010172
_publ_section_title
;
Structure prediction by ZEFSAII (Michael W. Deem and Ramdas Pophale) SiO2 
 PCOD9010172
Probable space group: P -1
;
_chemical_formula_sum "Si O2"
_cell_formula_units_Z 14
_cell_length_a 9.108854
_cell_length_b 11.517694
_cell_length_c 7.874644
_cell_angle_alpha 53.051104
_cell_angle_beta 60.962284
_cell_angle_gamma 78.576137
_cell_volume 572.032133
_symmetry_space_group_name_H-M "P -1"
_symmetry_group_IT_number 2
_symmetry_cell_setting 'triclinic'
loop_
_space_group_symop_operation_xyz
x,y,z
-x,-y,-z
loop_
_atom_site_type_symbol
_atom_site_label
_atom_site_fract_x
_atom_site_fract_y
_atom_site_fract_z
Si Si1 0.182502 0.246160 0.460650
Si Si2 0.103996 0.828839 0.749784
Si Si3 0.859165 0.209305 0.865880
Si Si4 0.493828 0.578356 0.694144
Si Si5 0.243080 0.070945 0.248551
Si Si6 0.555085 0.271067 0.764769
Si Si7 0.854955 0.455523 0.891500
O O1 0.335768 0.328236 0.413074
O O2 0.249698 0.152539 0.356252
O O3 0.033040 0.167895 0.730582
O O4 0.095012 0.373341 0.303298
O O5 0.064837 0.652165 0.930137
O O6 0.929625 0.895464 0.771489
O O7 0.221575 0.902924 0.469262
O O8 0.184580 0.863918 0.861022
O O9 0.710909 0.202353 0.820237
O O10 0.887056 0.378913 0.762909
O O11 0.522197 0.413856 0.770358
O O12 0.435011 0.660328 0.488642
O O13 0.343265 0.568437 0.924247
O O14 0.396166 0.144965 0.985696
#
# Coordination Sequence:
#
# PCOD9010172 Si02
#       7
#     2   2   2   2   2   2   2
#     4  12  22  38  68  92 122 160 205 245 308 356
#     4   9  24  43  63  85 129 155 208 247 306 356
#     4  10  23  39  61  92 127 154 202 253 298 359
#     4  11  22  39  61  95 126 157 200 255 300 363
#     4  11  23  43  65  88 120 168 199 250 305 365
#     4  11  23  38  63  93 126 158 202 250 309 352
#     4  10  21  40  62  90 122 157 198 258 289 363
#
# _framework density 24.474149000000001
#
# number of rings (size 3 to 8) (size 9 to 14) (size 15 to 20)
#    0.857    0.571    2.857    2.571    2.000    2.857 
#    0.000    0.714    0.000    0.000    0.000    0.000 
#    0.000    0.000    0.000    0.000    0.000    0.000 
#
# Total GULP energy -78255.817509 kJ/mol
# GULP energy per Si atom -5589.701251 kJ/mol
# Density = 2.441844 g / cm^3
# Si number density = 24.474149 Si / 1000 Ang^3
#
#
#
# Elastic Constant Matrix: (Units=GPa)
#
#
# Indices 1 2 3 4 5 6 
#
# 1 106.5698 3.1670 22.8154 2.5821 22.7806 8.3079
# 2 3.1670 76.4847 2.5419 1.8865 10.3267 0.6254
# 3 22.8154 2.5419 107.8333 -12.5486 13.5492 -4.7776
# 4 2.5821 1.8865 -12.5486 33.6250 -8.5343 4.3177
# 5 22.7806 10.3267 13.5492 -8.5343 39.3067 1.1069
# 6 8.3079 0.6254 -4.7776 4.3177 1.1069 26.3890
#
#
#
# Elastic Compliance Matrix: (Units=1/GPa)
#
#
# Indices 1 2 3 4 5 6 
#
# 1 0.011577 0.000595 -0.002115 -0.002991 -0.006694 -0.003272
# 2 0.000595 0.013686 -0.000135 -0.001955 -0.004317 -0.000035
# 3 -0.002115 -0.000135 0.010416 0.003371 -0.001656 0.002073
# 4 -0.002991 -0.001955 0.003371 0.034079 0.008606 -0.004339
# 5 -0.006694 -0.004317 -0.001656 0.008606 0.032919 -0.000879
# 6 -0.003272 -0.000035 0.002073 -0.004339 -0.000879 0.040047
#
#
# Mechanical properties :
#
#
# Convention : Reuss Voigt Hill
#
# Bulk Modulus (GPa) = 30.89392 38.65960 34.77676
# Shear Modulus (GPa) = 31.88274 37.35505 34.61890
#
# Velocity S-wave (km/s) = 3.61322 3.91104 3.76508
# Velocity P-wave (km/s) = 5.48249 6.01875 5.75686
#
# Compressibility (1/GPa) = 0.03236883
#
# Stress axis : x y z
#
# Youngs Moduli (GPa) = 86.37682 73.06839 96.00167
#
# Poissons Ratio (x) = -0.04350 0.20308
# Poissons Ratio (y) = -0.05142 0.01298
# Poissons Ratio (z) = 0.18272 0.00988
#
# Static dielectric constant tensor:
#      x y z
#    x 1.917900 0.000410 0.025650 
#    y 0.000410 2.013810 -0.032620 
#    z 0.025650 -0.032620 1.903770 
# 
# From -- ./inp_files/178164.got.cif
#   From: 2010.05.17/outbox.cif.g08.bks.cpg/sg2_90_cif.got.tgz:178164.got - 2010.06.03 11:33:40.
