data_PCOD9010178
_publ_section_title
;
Structure prediction by ZEFSAII (Michael W. Deem and Ramdas Pophale) SiO2 
 PCOD9010178
Probable space group: P -1
;
_chemical_formula_sum "Si O2"
_cell_formula_units_Z 15
_cell_length_a 5.534332
_cell_length_b 24.383644
_cell_length_c 4.842203
_cell_angle_alpha 82.441993
_cell_angle_beta 94.870193
_cell_angle_gamma 56.589093
_cell_volume 530.854657
_symmetry_space_group_name_H-M "P -1"
_symmetry_group_IT_number 2
_symmetry_cell_setting 'triclinic'
loop_
_space_group_symop_operation_xyz
x,y,z
-x,-y,-z
loop_
_atom_site_type_symbol
_atom_site_label
_atom_site_fract_x
_atom_site_fract_y
_atom_site_fract_z
Si Si1 0.701783 0.012174 0.825649
Si Si2 0.765951 0.258381 0.124902
Si Si3 0.560903 0.402694 0.086859
Si Si4 0.500000 0.500000 0.500000
Si Si5 0.027643 0.572546 0.824204
Si Si6 0.056610 0.875973 0.666701
Si Si7 0.550945 0.149116 0.772716
Si Si8 0.649453 0.715819 0.433862
O O1 0.508051 0.092350 0.706223
O O2 0.821551 0.955123 0.642040
O O3 0.500000 0.000000 0.000000
O O4 0.000000 0.000000 0.000000
O O5 0.784484 0.322195 0.109038
O O6 0.009499 0.177703 0.187688
O O7 0.593417 0.260656 0.373063
O O8 0.524883 0.280653 0.851563
O O9 0.523332 0.436723 0.361628
O O10 0.729815 0.432898 0.927724
O O11 0.234832 0.419457 0.032739
O O12 0.210038 0.516078 0.652252
O O13 0.892356 0.641531 0.598663
O O14 0.169870 0.866381 0.372381
O O15 0.336903 0.858608 0.898380
O O16 0.288383 0.226952 0.639437
#
# Coordination Sequence:
#
# PCOD9010178 Si02
#       8
#     2   2   2   1   2   2   2   2
#     4  10  21  40  62  90 124 164 206 256 308 366
#     4   9  18  36  61  89 123 161 206 254 307 364
#     4   9  18  34  58  87 119 158 199 250 300 364
#     4   8  18  32  64  82 128 148 212 234 320 346
#     4   9  18  34  58  87 119 158 199 250 300 364
#     4   9  18  36  61  89 122 162 206 256 307 364
#     4   9  18  36  61  89 122 162 206 256 307 364
#     4   9  18  36  61  89 123 161 206 254 307 364
#
# _framework density 28.256319000000001
#
# number of rings (size 3 to 8) (size 9 to 14) (size 15 to 20)
#    0.800    2.133    0.000    0.800    0.000    0.000 
#    0.000   38.000    0.000    6.400    0.000    0.000 
#    0.000    0.000    0.000    0.000    0.000    0.000 
#
# Total GULP energy -83577.465943 kJ/mol
# GULP energy per Si atom -5571.831063 kJ/mol
# Density = 2.819201 g / cm^3
# Si number density = 28.256319 Si / 1000 Ang^3
#
#
#
# Elastic Constant Matrix: (Units=GPa)
#
#
# Indices 1 2 3 4 5 6 
#
# 1 146.6173 47.1309 35.2743 -5.1062 -8.1170 13.8148
# 2 47.1309 221.4466 32.9372 -22.6883 8.4900 33.7044
# 3 35.2743 32.9372 92.7725 3.9899 13.7061 7.2948
# 4 -5.1062 -22.6883 3.9899 52.9591 3.1281 4.0707
# 5 -8.1170 8.4900 13.7061 3.1281 39.6865 -3.5155
# 6 13.8148 33.7044 7.2948 4.0707 -3.5155 51.8721
#
#
#
# Elastic Compliance Matrix: (Units=1/GPa)
#
#
# Indices 1 2 3 4 5 6 
#
# 1 0.008204 -0.001245 -0.003061 0.000377 0.002903 -0.000778
# 2 -0.001245 0.005872 -0.001205 0.002864 -0.001644 -0.003651
# 3 -0.003061 -0.001205 0.013188 -0.001482 -0.004848 -0.000469
# 4 0.000377 0.002864 -0.001482 0.020643 -0.001961 -0.003506
# 5 0.002903 -0.001644 -0.004848 -0.001961 0.028241 0.003045
# 6 -0.000778 -0.003651 -0.000469 -0.003506 0.003045 0.022405
#
#
# Mechanical properties :
#
#
# Convention : Reuss Voigt Hill
#
# Bulk Modulus (GPa) = 61.56927 76.83570 69.20248
# Shear Modulus (GPa) = 43.48244 51.93648 47.70946
#
# Velocity S-wave (km/s) = 3.92708 4.29190 4.11354
# Velocity P-wave (km/s) = 6.51149 7.19805 6.86336
#
# Compressibility (1/GPa) = 0.01624187
#
# Stress axis : x y z
#
# Youngs Moduli (GPa) = 121.88566 170.29973 75.82929
#
# Poissons Ratio (x) = 0.21204 0.23214
# Poissons Ratio (y) = 0.15176 0.09134
# Poissons Ratio (z) = 0.37314 0.20514
#
# Static dielectric constant tensor:
#      x y z
#    x 2.240760 0.061790 -0.040030 
#    y 0.061790 2.388330 0.035230 
#    z -0.040030 0.035230 1.791650 
# 
# From -- ./inp_files/13896.got.cif
#   From: 2010.05.17/outbox.cif.g08.bks.cpg/sg2_7_cif.got.tgz:13896.got - 2010.06.03 11:33:40.
