data_PCOD9010094
_publ_section_title
;
Structure prediction by ZEFSAII (Michael W. Deem and Ramdas Pophale) SiO2 
 PCOD9010094
Probable space group: P -1
;
_chemical_formula_sum "Si O2"
_cell_formula_units_Z 14
_cell_length_a 8.172543
_cell_length_b 13.031860
_cell_length_c 7.182139
_cell_angle_alpha 100.307682
_cell_angle_beta 126.568286
_cell_angle_gamma 104.638079
_cell_volume 538.324842
_symmetry_space_group_name_H-M "P -1"
_symmetry_group_IT_number 2
_symmetry_cell_setting 'triclinic'
loop_
_space_group_symop_operation_xyz
x,y,z
-x,-y,-z
loop_
_atom_site_type_symbol
_atom_site_label
_atom_site_fract_x
_atom_site_fract_y
_atom_site_fract_z
Si Si1 0.050060 0.076316 0.295316
Si Si2 0.571032 0.135154 0.651403
Si Si3 0.319118 0.865706 0.853490
Si Si4 0.734351 0.548442 0.285392
Si Si5 0.974155 0.836550 0.093089
Si Si6 0.587700 0.634222 0.550415
Si Si7 0.780458 0.351376 0.508915
O O1 0.324575 0.135923 0.476870
O O2 0.960502 0.092695 0.037216
O O3 0.921504 0.132624 0.348330
O O4 0.959294 0.938705 0.237070
O O5 0.500000 0.000000 0.500000
O O6 0.646162 0.169606 0.926868
O O7 0.817833 0.192995 0.731434
O O8 0.350855 0.776675 0.710958
O O9 0.500000 0.000000 0.000000
O O10 0.728071 0.641606 0.461331
O O11 0.749066 0.443820 0.377361
O O12 0.949130 0.604097 0.310022
O O13 0.500000 0.500000 0.000000
O O14 0.749330 0.720386 0.847708
O O15 0.500000 0.500000 0.500000
O O16 0.354493 0.647560 0.394714
#
# Coordination Sequence:
#
# PCOD9010094 Si02
#       7
#     2   2   2   2   2   2   2
#     4   9  18  33  56  84 115 155 198 239 291 350
#     4   9  19  35  57  84 113 156 205 242 288 348
#     4  11  22  36  54  84 126 161 192 240 298 358
#     4  10  22  43  67  89 115 153 204 257 303 350
#     4   9  17  34  58  84 114 150 195 244 292 349
#     4  10  21  40  62  85 118 156 194 245 304 354
#     4  10  23  41  62  90 122 157 200 248 300 359
#
# _framework density 26.006602999999998
#
# number of rings (size 3 to 8) (size 9 to 14) (size 15 to 20)
#    0.000    2.286    0.000    3.429    0.000    3.429 
#    0.000    8.571    0.000    0.000    0.000    0.000 
#    0.000    0.000    0.000    0.000    0.000    0.000 
#
# Total GULP energy -78172.858920 kJ/mol
# GULP energy per Si atom -5583.775637 kJ/mol
# Density = 2.594741 g / cm^3
# Si number density = 26.006603 Si / 1000 Ang^3
#
#
#
# Elastic Constant Matrix: (Units=GPa)
#
#
# Indices 1 2 3 4 5 6 
#
# 1 160.9162 53.5620 55.4482 12.6959 39.0505 -38.0040
# 2 53.5620 84.0343 45.0748 21.8250 12.1648 -30.0851
# 3 55.4482 45.0748 102.3485 -3.9094 27.2734 -12.9448
# 4 12.6959 21.8250 -3.9094 54.2742 2.2132 7.5086
# 5 39.0505 12.1648 27.2734 2.2132 59.0066 -1.8973
# 6 -38.0040 -30.0851 -12.9448 7.5086 -1.8973 64.5249
#
#
#
# Elastic Compliance Matrix: (Units=1/GPa)
#
#
# Indices 1 2 3 4 5 6 
#
# 1 0.010367 -0.002105 -0.002891 -0.002234 -0.004857 0.004662
# 2 -0.002105 0.024360 -0.009159 -0.011352 0.001340 0.009641
# 3 -0.002891 -0.009159 0.016236 0.006186 -0.004049 -0.003555
# 4 -0.002234 -0.011352 0.006186 0.025116 -0.000250 -0.008297
# 5 -0.004857 0.001340 -0.004049 -0.000250 0.021690 -0.002381
# 6 0.004662 0.009641 -0.003555 -0.008297 -0.002381 0.022921
#
#
# Mechanical properties :
#
#
# Convention : Reuss Voigt Hill
#
# Bulk Modulus (GPa) = 44.14370 72.82991 58.48680
# Shear Modulus (GPa) = 31.93818 48.44207 40.19012
#
# Velocity S-wave (km/s) = 3.50820 4.32056 3.93540
# Velocity P-wave (km/s) = 5.78107 7.27701 6.57175
#
# Compressibility (1/GPa) = 0.02265329
#
# Stress axis : x y z
#
# Youngs Moduli (GPa) = 96.45885 41.05011 61.59056
#
# Poissons Ratio (x) = 0.08641 0.17805
# Poissons Ratio (y) = 0.20305 0.56413
# Poissons Ratio (z) = 0.27884 0.37599
#
# Static dielectric constant tensor:
#      x y z
#    x 2.115770 -0.032990 0.017420 
#    y -0.032990 2.152560 0.000780 
#    z 0.017420 0.000780 1.989280 
# 
# From -- ./inp_files/203891.got.cif
#   From: 2010.05.17/outbox.cif.g08.bks.cpg/sg2_102_cif.got.tgz:203891.got - 2010.06.03 11:33:40.
