data_PCOD9010435
_publ_section_title
;
Structure prediction by ZEFSAII (Michael W. Deem and Ramdas Pophale) SiO2 
 PCOD9010435
Probable space group: P -1
;
_chemical_formula_sum "Si O2"
_cell_formula_units_Z 16
_cell_length_a 9.152380
_cell_length_b 7.140428
_cell_length_c 20.790846
_cell_angle_alpha 93.095491
_cell_angle_beta 128.300426
_cell_angle_gamma 47.582734
_cell_volume 612.356315
_symmetry_space_group_name_H-M "P -1"
_symmetry_group_IT_number 2
_symmetry_cell_setting 'triclinic'
loop_
_space_group_symop_operation_xyz
x,y,z
-x,-y,-z
loop_
_atom_site_type_symbol
_atom_site_label
_atom_site_fract_x
_atom_site_fract_y
_atom_site_fract_z
Si Si1 0.151882 0.405609 0.329997
Si Si2 0.839741 0.530830 0.894755
Si Si3 0.221185 0.328777 0.888746
Si Si4 0.665433 0.268972 0.174112
Si Si5 0.780487 0.451347 0.315653
Si Si6 0.620577 0.194722 0.656066
Si Si7 0.757643 0.162984 0.995908
Si Si8 0.248729 0.805238 0.504309
O O1 0.441783 0.313423 0.409664
O O2 0.919714 0.654344 0.212343
O O3 0.952631 0.502469 0.340800
O O4 0.308645 0.077178 0.346478
O O5 0.477973 0.773368 0.819399
O O6 0.913330 0.606033 0.856740
O O7 0.000000 0.500000 0.000000
O O8 0.013761 0.188639 0.916182
O O9 0.411952 0.345078 0.912191
O O10 0.500000 0.000000 0.000000
O O11 0.610451 0.501110 0.208319
O O12 0.419100 0.483056 0.049480
O O13 0.036842 0.978019 0.249777
O O14 0.558185 0.652775 0.321162
O O15 0.035742 0.075116 0.395760
O O16 0.404309 0.471123 0.546725
O O17 0.000000 0.000000 0.000000
O O18 0.000000 0.000000 0.500000
#
# Coordination Sequence:
#
# PCOD9010435 Si02
#       8
#     2   2   2   2   2   2   2   2
#     4  11  23  45  70 100 141 176 231 284 340 404
#     4  10  23  39  61  93 128 171 228 273 341 401
#     4  10  21  40  63  90 130 177 212 277 339 385
#     4  10  21  43  64  94 131 171 224 277 337 404
#     4  10  22  43  72  97 135 177 226 281 344 404
#     4  10  23  43  69 101 132 181 229 275 346 408
#     4   9  18  40  61  83 126 169 207 274 328 387
#     4  10  24  43  69 105 137 179 228 284 344 409
#
# _framework density 26.128577
#
# number of rings (size 3 to 8) (size 9 to 14) (size 15 to 20)
#    0.000    2.000    2.500    0.375    3.500    7.000 
#    6.750    1.250    0.000    0.000    0.000    0.000 
#    0.000    0.000    0.000    0.000    0.000    0.000 
#
# Total GULP energy -89100.875636 kJ/mol
# GULP energy per Si atom -5568.804727 kJ/mol
# Density = 2.606911 g / cm^3
# Si number density = 26.128577 Si / 1000 Ang^3
#
#
#
# Elastic Constant Matrix: (Units=GPa)
#
#
# Indices 1 2 3 4 5 6 
#
# 1 218.1814 43.2417 63.5244 9.9590 29.0384 -36.4060
# 2 43.2417 90.6106 21.1159 -14.2213 8.6501 -15.3746
# 3 63.5244 21.1159 103.0858 -12.2987 -9.7012 -11.8135
# 4 9.9590 -14.2213 -12.2987 34.8761 6.0977 -0.0026
# 5 29.0384 8.6501 -9.7012 6.0977 62.6314 -18.5348
# 6 -36.4060 -15.3746 -11.8135 -0.0026 -18.5348 45.9981
#
#
#
# Elastic Compliance Matrix: (Units=1/GPa)
#
#
# Indices 1 2 3 4 5 6 
#
# 1 0.007363 -0.002412 -0.004455 -0.004218 -0.002512 0.002865
# 2 -0.002412 0.013723 -0.000389 0.006284 -0.000779 0.002265
# 3 -0.004455 -0.000389 0.013722 0.005219 0.004198 0.001560
# 4 -0.004218 0.006284 0.005219 0.034565 -0.001633 -0.000554
# 5 -0.002512 -0.000779 0.004198 -0.001633 0.020098 0.006928
# 6 0.002865 0.002265 0.001560 -0.000554 0.006928 0.027957
#
#
# Mechanical properties :
#
#
# Convention : Reuss Voigt Hill
#
# Bulk Modulus (GPa) = 49.26798 74.18244 61.72521
# Shear Modulus (GPa) = 36.04782 47.63417 41.84099
#
# Velocity S-wave (km/s) = 3.71837 4.27437 4.00603
# Velocity P-wave (km/s) = 6.10999 7.26727 6.71361
#
# Compressibility (1/GPa) = 0.02029716
#
# Stress axis : x y z
#
# Youngs Moduli (GPa) = 135.80881 72.87243 72.87607
#
# Poissons Ratio (x) = 0.17575 0.32464
# Poissons Ratio (y) = 0.32754 0.02834
# Poissons Ratio (z) = 0.60499 0.02833
#
# Static dielectric constant tensor:
#      x y z
#    x 2.055820 0.026810 -0.067120 
#    y 0.026810 2.107610 -0.019710 
#    z -0.067120 -0.019710 2.154740 
# 
# From -- ./inp_files/606735.got.cif
#   From: 2010.05.17/outbox.cif.g08.bks.cpg/sg2_304_cif.got.tgz:606735.got - 2010.06.03 11:33:40.
