data_PCOD9010436
_publ_section_title
;
Structure prediction by ZEFSAII (Michael W. Deem and Ramdas Pophale) SiO2 
 PCOD9010436
Probable space group: P -1
;
_chemical_formula_sum "Si O2"
_cell_formula_units_Z 15
_cell_length_a 10.938087
_cell_length_b 14.986828
_cell_length_c 10.721388
_cell_angle_alpha 139.203272
_cell_angle_beta 117.941538
_cell_angle_gamma 33.616886
_cell_volume 568.566354
_symmetry_space_group_name_H-M "P -1"
_symmetry_group_IT_number 2
_symmetry_cell_setting 'triclinic'
loop_
_space_group_symop_operation_xyz
x,y,z
-x,-y,-z
loop_
_atom_site_type_symbol
_atom_site_label
_atom_site_fract_x
_atom_site_fract_y
_atom_site_fract_z
Si Si1 0.745563 0.943645 0.434584
Si Si2 0.340931 0.942323 0.950007
Si Si3 0.339717 0.059746 0.329783
Si Si4 0.060042 0.948992 0.122598
Si Si5 0.415705 0.440812 0.738601
Si Si6 0.688318 0.462575 0.502553
Si Si7 0.014930 0.555483 0.773428
Si Si8 0.000000 0.500000 0.000000
O O1 0.574346 0.963984 0.306286
O O2 0.677513 0.151853 0.579147
O O3 0.639614 0.011091 0.595369
O O4 0.001001 0.667188 0.223373
O O5 0.337615 0.949466 0.105670
O O6 0.241852 0.168556 0.098070
O O7 0.134537 0.003931 0.869467
O O8 0.600263 0.674973 0.745172
O O9 0.096412 0.352289 0.524213
O O10 0.956152 0.179628 0.362828
O O11 0.000000 0.000000 0.000000
O O12 0.330248 0.664138 0.973231
O O13 0.353465 0.488978 0.613224
O O14 0.225452 0.491886 0.766598
O O15 0.500000 0.500000 0.500000
O O16 0.030619 0.518002 0.887665
#
# Coordination Sequence:
#
# PCOD9010436 Si02
#       8
#     2   2   2   2   2   2   2   1
#     4   9  18  32  49  69  98 136 168 200 245 301
#     4  10  17  29  51  76 102 130 165 205 246 292
#     4   9  18  32  48  71 104 134 165 202 243 294
#     4   8  16  30  49  72  98 125 157 204 251 292
#     4   9  16  31  52  71  95 132 166 192 247 310
#     4   9  17  29  48  74  98 122 159 209 251 287
#     4   9  18  30  48  73 103 132 164 199 239 297
#     4  10  18  32  48  68 100 134 168 200 234 286
#
# _framework density 26.382147
#
# number of rings (size 3 to 8) (size 9 to 14) (size 15 to 20)
#    0.000    2.933    0.000    2.000    0.000    0.000 
#    0.000   14.000    0.000    8.000    0.000    0.000 
#    0.000    0.000    0.000    0.000    0.000    0.000 
#
# Total GULP energy -83605.152919 kJ/mol
# GULP energy per Si atom -5573.676861 kJ/mol
# Density = 2.632210 g / cm^3
# Si number density = 26.382147 Si / 1000 Ang^3
#
#
#
# Elastic Constant Matrix: (Units=GPa)
#
#
# Indices 1 2 3 4 5 6 
#
# 1 70.7850 8.8440 -6.8307 -8.8290 -3.0801 9.3029
# 2 8.8440 107.9173 29.6218 22.1569 -2.4515 35.8703
# 3 -6.8307 29.6218 144.7814 5.0021 10.4430 28.2496
# 4 -8.8290 22.1569 5.0021 47.1793 20.9879 3.0704
# 5 -3.0801 -2.4515 10.4430 20.9879 34.5229 3.0290
# 6 9.3029 35.8703 28.2496 3.0704 3.0290 39.2861
#
#
#
# Elastic Compliance Matrix: (Units=1/GPa)
#
#
# Indices 1 2 3 4 5 6 
#
# 1 0.015439 -0.001360 0.001722 0.004260 -0.001490 -0.003871
# 2 -0.001360 0.016988 -0.001052 -0.011477 0.009633 -0.014278
# 3 0.001722 -0.001052 0.008415 0.001593 -0.002961 -0.005394
# 4 0.004260 -0.011477 0.001593 0.037602 -0.024414 0.007269
# 5 -0.001490 0.009633 -0.002961 -0.024414 0.045953 -0.007948
# 6 -0.003871 -0.014278 -0.005394 0.007269 -0.007948 0.043330
#
#
# Mechanical properties :
#
#
# Convention : Reuss Voigt Hill
#
# Bulk Modulus (GPa) = 25.34169 42.97264 34.15717
# Shear Modulus (GPa) = 27.43337 43.65423 35.54380
#
# Velocity S-wave (km/s) = 3.22816 4.07220 3.67450
# Velocity P-wave (km/s) = 4.84986 6.19954 5.56577
#
# Compressibility (1/GPa) = 0.03946067
#
# Stress axis : x y z
#
# Youngs Moduli (GPa) = 64.77280 58.86646 118.84210
#
# Poissons Ratio (x) = 0.08005 -0.20466
# Poissons Ratio (y) = 0.08809 0.12505
# Poissons Ratio (z) = -0.11155 0.06194
#
# Static dielectric constant tensor:
#      x y z
#    x 2.372450 -0.426750 -0.458860 
#    y -0.426750 2.648440 0.751970 
#    z -0.458860 0.751970 3.007480 
# 
# From -- ./inp_files/179398.got.cif
#   From: 2010.05.17/outbox.cif.g08.bks.cpg/sg2_90_cif.got.tgz:179398.got - 2010.06.03 11:33:40.
