data_PCOD9010813
_publ_section_title
;
Structure prediction by ZEFSAII (Michael W. Deem and Ramdas Pophale) SiO2 
 PCOD9010813
Probable space group: P -1
;
_chemical_formula_sum "Si O2"
_cell_formula_units_Z 16
_cell_length_a 25.647021
_cell_length_b 9.000355
_cell_length_c 7.838835
_cell_angle_alpha 121.469378
_cell_angle_beta 71.882797
_cell_angle_gamma 154.928959
_cell_volume 584.687771
_symmetry_space_group_name_H-M "P -1"
_symmetry_group_IT_number 2
_symmetry_cell_setting 'triclinic'
loop_
_space_group_symop_operation_xyz
x,y,z
-x,-y,-z
loop_
_atom_site_type_symbol
_atom_site_label
_atom_site_fract_x
_atom_site_fract_y
_atom_site_fract_z
Si Si1 0.454752 0.074285 0.854492
Si Si2 0.657608 0.900654 0.588105
Si Si3 0.803368 0.034637 0.684746
Si Si4 0.661577 0.991407 0.276456
Si Si5 0.792177 0.593488 0.062441
Si Si6 0.911994 0.673780 0.172282
Si Si7 0.986367 0.590898 0.234992
Si Si8 0.721201 0.661064 0.906836
O O1 0.545317 0.502247 0.088337
O O2 0.317156 0.635371 0.836756
O O3 0.408793 0.024215 0.690123
O O4 0.562245 0.230826 0.847878
O O5 0.500000 0.500000 0.500000
O O6 0.724628 0.151743 0.492991
O O7 0.693664 0.806720 0.538092
O O8 0.718722 0.200493 0.850017
O O9 0.914617 0.216896 0.617875
O O10 0.731843 0.727483 0.733006
O O11 0.886026 0.441193 0.923945
O O12 0.772313 0.294949 0.196529
O O13 0.786626 0.685322 0.948042
O O14 0.928988 0.910422 0.203119
O O15 0.015270 0.872169 0.315988
O O16 0.000000 0.500000 0.000000
O O17 0.824991 0.107972 0.150553
#
# Coordination Sequence:
#
# PCOD9010813 Si02
#       8
#     2   2   2   2   2   2   2   2
#     4  10  17  30  50  75  96 125 167 200 240 282
#     4  11  20  32  49  71 101 133 162 194 237 294
#     4   9  18  33  51  74  95 125 168 201 237 289
#     4  10  17  29  52  70  92 132 166 199 228 284
#     4  10  20  29  48  78 102 126 160 197 248 291
#     4   8  15  31  50  69  90 124 168 199 230 280
#     4   8  15  30  52  73  92 122 167 208 236 275
#     4  10  17  31  52  74 102 123 157 211 246 275
#
# _framework density 27.365034000000001
#
# number of rings (size 3 to 8) (size 9 to 14) (size 15 to 20)
#    0.000    2.750    3.750    1.125    0.000    0.000 
#    0.000   13.125    2.750    0.000    0.000   11.375 
#    0.000    0.000    0.000    0.000    0.000    0.000 
#
# Total GULP energy -89283.569770 kJ/mol
# GULP energy per Si atom -5580.223111 kJ/mol
# Density = 2.730275 g / cm^3
# Si number density = 27.365034 Si / 1000 Ang^3
#
#
#
# Elastic Constant Matrix: (Units=GPa)
#
#
# Indices 1 2 3 4 5 6 
#
# 1 273.7558 43.1874 36.0796 -2.4657 57.8776 9.2256
# 2 43.1874 82.7055 25.4749 -11.5158 14.4034 2.0731
# 3 36.0796 25.4749 55.0778 -0.4205 11.8377 -2.2484
# 4 -2.4657 -11.5158 -0.4205 32.8630 -10.6511 7.9493
# 5 57.8776 14.4034 11.8377 -10.6511 52.4056 1.5237
# 6 9.2256 2.0731 -2.2484 7.9493 1.5237 36.6409
#
#
#
# Elastic Compliance Matrix: (Units=1/GPa)
#
#
# Indices 1 2 3 4 5 6 
#
# 1 0.005245 -0.001529 -0.001626 -0.001712 -0.005332 -0.000741
# 2 -0.001529 0.015692 -0.006311 0.005843 0.000052 -0.002160
# 3 -0.001626 -0.006311 0.022758 -0.003562 -0.002423 0.003036
# 4 -0.001712 0.005843 -0.003562 0.037265 0.008913 -0.008573
# 5 -0.005332 0.000052 -0.002423 0.008913 0.027369 -0.001881
# 6 -0.000741 -0.002160 0.003036 -0.008573 -0.001881 0.029725
#
#
# Mechanical properties :
#
#
# Convention : Reuss Voigt Hill
#
# Bulk Modulus (GPa) = 40.38363 69.00252 54.69307
# Shear Modulus (GPa) = 30.25870 44.83503 37.54686
#
# Velocity S-wave (km/s) = 3.32888 4.05211 3.70817
# Velocity P-wave (km/s) = 5.43734 6.86754 6.19386
#
# Compressibility (1/GPa) = 0.02476251
#
# Stress axis : x y z
#
# Youngs Moduli (GPa) = 190.64900 63.72589 43.94128
#
# Poissons Ratio (x) = 0.09746 0.07145
# Poissons Ratio (y) = 0.29158 0.27731
# Poissons Ratio (z) = 0.30999 0.40217
#
# Static dielectric constant tensor:
#      x y z
#    x 2.281660 0.033240 0.100200 
#    y 0.033240 2.193440 0.042970 
#    z 0.100200 0.042970 2.315720 
# 
# From -- ./inp_files/186564.got.cif
#   From: 2010.05.17/outbox.cif.g08.bks.cpg/sg2_94_cif.got.tgz:186564.got - 2010.06.03 11:33:40.
