data_PCOD9010644
_publ_section_title
;
Structure prediction by ZEFSAII (Michael W. Deem and Ramdas Pophale) SiO2 
 PCOD9010644
Probable space group: P -1
;
_chemical_formula_sum "Si O2"
_cell_formula_units_Z 14
_cell_length_a 13.420221
_cell_length_b 7.522972
_cell_length_c 9.814855
_cell_angle_alpha 66.586389
_cell_angle_beta 132.874954
_cell_angle_gamma 112.613199
_cell_volume 656.715352
_symmetry_space_group_name_H-M "P -1"
_symmetry_group_IT_number 2
_symmetry_cell_setting 'triclinic'
loop_
_space_group_symop_operation_xyz
x,y,z
-x,-y,-z
loop_
_atom_site_type_symbol
_atom_site_label
_atom_site_fract_x
_atom_site_fract_y
_atom_site_fract_z
Si Si1 0.290005 0.383311 0.823101
Si Si2 0.569108 0.288983 0.982364
Si Si3 0.751901 0.982310 0.942638
Si Si4 0.978729 0.312533 0.134613
Si Si5 0.173493 0.011711 0.303004
Si Si6 0.454545 0.035077 0.721994
Si Si7 0.919598 0.446676 0.581628
O O1 0.315793 0.525696 0.934575
O O2 0.226736 0.493033 0.610052
O O3 0.431685 0.336399 0.910640
O O4 0.209528 0.179536 0.867371
O O5 0.602363 0.107665 0.160052
O O6 0.527449 0.230685 0.808379
O O7 0.584997 0.962806 0.792621
O O8 0.807433 0.957533 0.850663
O O9 0.826559 0.190009 0.007385
O O10 0.009564 0.406052 0.282649
O O11 0.081812 0.161556 0.235769
O O12 0.000000 0.500000 0.000000
O O13 0.104593 0.783106 0.332604
O O14 0.325464 0.047211 0.502741
O O15 0.000000 0.500000 0.500000
#
# Coordination Sequence:
#
# PCOD9010644 Si02
#       7
#     2   2   2   2   2   2   2
#     4  10  21  40  64 101 136 179 228 279 347 403
#     4   9  19  37  66  96 140 177 219 285 342 410
#     4  11  25  43  72 101 143 184 230 283 352 420
#     4  12  28  48  71  99 143 189 231 286 354 410
#     4  12  25  48  70 101 144 181 232 292 346 413
#     4  10  21  40  69 103 136 178 231 283 347 406
#     4  12  27  43  75 102 136 181 239 288 342 412
#
# _framework density 21.318218000000002
#
# number of rings (size 3 to 8) (size 9 to 14) (size 15 to 20)
#    0.000    1.143    2.857    2.571    4.000    3.429 
#    0.000    1.429    0.000    0.000    0.000    0.000 
#    0.000    0.000    0.000    0.000    0.000    0.000 
#
# Total GULP energy -78202.198152 kJ/mol
# GULP energy per Si atom -5585.871297 kJ/mol
# Density = 2.126970 g / cm^3
# Si number density = 21.318218 Si / 1000 Ang^3
#
#
#
# Elastic Constant Matrix: (Units=GPa)
#
#
# Indices 1 2 3 4 5 6 
#
# 1 90.4566 36.1887 27.6729 2.5657 -10.0558 -12.7493
# 2 36.1887 115.9448 28.8392 0.8394 -4.0274 -1.4850
# 3 27.6729 28.8392 87.9348 3.9494 4.1572 -14.7879
# 4 2.5657 0.8394 3.9494 40.7538 -4.9668 -7.8299
# 5 -10.0558 -4.0274 4.1572 -4.9668 36.8212 7.3890
# 6 -12.7493 -1.4850 -14.7879 -7.8299 7.3890 32.8488
#
#
#
# Elastic Compliance Matrix: (Units=1/GPa)
#
#
# Indices 1 2 3 4 5 6 
#
# 1 0.014189 -0.003558 -0.002892 0.000512 0.003189 0.003449
# 2 -0.003558 0.010419 -0.002738 -0.000066 0.000944 -0.002370
# 3 -0.002892 -0.002738 0.014403 -0.000487 -0.003989 0.006019
# 4 0.000512 -0.000066 -0.000487 0.025939 0.002566 0.005582
# 5 0.003189 0.000944 -0.003989 0.002566 0.030276 -0.006714
# 6 0.003449 -0.002370 0.006019 0.005582 -0.006714 0.037224
#
#
# Mechanical properties :
#
#
# Convention : Reuss Voigt Hill
#
# Bulk Modulus (GPa) = 48.46063 53.30419 50.88241
# Shear Modulus (GPa) = 31.70468 35.52712 33.61590
#
# Velocity S-wave (km/s) = 3.86062 4.08673 3.97528
# Velocity P-wave (km/s) = 6.53100 6.87945 6.70748
#
# Compressibility (1/GPa) = 0.02063531
#
# Stress axis : x y z
#
# Youngs Moduli (GPa) = 70.47483 95.97662 69.43151
#
# Poissons Ratio (x) = 0.34150 0.20081
# Poissons Ratio (y) = 0.25076 0.19008
# Poissons Ratio (z) = 0.20383 0.26275
#
# Static dielectric constant tensor:
#      x y z
#    x 1.793420 -0.023670 0.059880 
#    y -0.023670 1.794910 0.006560 
#    z 0.059880 0.006560 1.857610 
# 
# From -- ./inp_files/460463.got.cif
#   From: 2010.05.17/outbox.cif.g08.bks.cpg/sg2_231_cif.got.tgz:460463.got - 2010.06.03 11:33:40.
