data_PCOD9010556
_publ_section_title
;
Structure prediction by ZEFSAII (Michael W. Deem and Ramdas Pophale) SiO2 
 PCOD9010556
Probable space group: P -1
;
_chemical_formula_sum "Si O2"
_cell_formula_units_Z 12
_cell_length_a 11.683668
_cell_length_b 12.112407
_cell_length_c 9.299189
_cell_angle_alpha 38.330842
_cell_angle_beta 41.017272
_cell_angle_gamma 64.273339
_cell_volume 493.761237
_symmetry_space_group_name_H-M "P -1"
_symmetry_group_IT_number 2
_symmetry_cell_setting 'triclinic'
loop_
_space_group_symop_operation_xyz
x,y,z
-x,-y,-z
loop_
_atom_site_type_symbol
_atom_site_label
_atom_site_fract_x
_atom_site_fract_y
_atom_site_fract_z
Si Si1 0.936798 0.446079 0.409323
Si Si2 0.217153 0.044371 0.220301
Si Si3 0.432796 0.277043 0.503204
Si Si4 0.761113 0.339915 0.307326
Si Si5 0.447854 0.658318 0.229863
Si Si6 0.890030 0.769666 0.328288
O O1 0.938862 0.640614 0.288925
O O2 0.716070 0.308884 0.741212
O O3 0.054126 0.333305 0.485992
O O4 0.041621 0.521120 0.084064
O O5 0.237953 0.842562 0.421057
O O6 0.286090 0.144915 0.897935
O O7 0.360681 0.173921 0.073373
O O8 0.000000 0.000000 0.500000
O O9 0.627030 0.254894 0.380193
O O10 0.486177 0.498671 0.267001
O O11 0.323881 0.250316 0.483764
O O12 0.659593 0.428533 0.428024
O O13 0.000000 0.000000 0.000000
#
# Coordination Sequence:
#
# PCOD9010556 Si02
#       6
#     2   2   2   2   2   2
#     4  10  23  43  65  95 128 169 217 257 320 378
#     4  11  22  36  62  94 127 161 208 256 322 383
#     4  10  22  42  62  93 130 166 212 256 318 378
#     4  11  22  38  63  96 128 160 208 265 320 380
#     4  10  21  40  63  94 132 165 198 270 320 377
#     4  10  23  43  68  87 128 175 216 265 307 372
#
# _framework density 24.303245
#
# number of rings (size 3 to 8) (size 9 to 14) (size 15 to 20)
#    0.000    1.667    0.000    6.500    4.667    2.000 
#    6.000    0.833    0.000    0.000    0.000    0.000 
#    0.000    0.000    0.000    0.000    0.000    0.000 
#
# Total GULP energy -67008.160877 kJ/mol
# GULP energy per Si atom -5584.013406 kJ/mol
# Density = 2.424793 g / cm^3
# Si number density = 24.303245 Si / 1000 Ang^3
#
#
#
# Elastic Constant Matrix: (Units=GPa)
#
#
# Indices 1 2 3 4 5 6 
#
# 1 138.4194 20.4001 39.2329 -11.4125 -13.5097 -24.3646
# 2 20.4001 59.6677 38.8289 -20.2316 -3.7668 -11.3708
# 3 39.2329 38.8289 116.5166 -8.9040 -21.7953 -1.4532
# 4 -11.4125 -20.2316 -8.9040 43.1819 -8.1411 -6.7231
# 5 -13.5097 -3.7668 -21.7953 -8.1411 48.5264 -3.0416
# 6 -24.3646 -11.3708 -1.4532 -6.7231 -3.0416 35.9373
#
#
#
# Elastic Compliance Matrix: (Units=1/GPa)
#
#
# Indices 1 2 3 4 5 6 
#
# 1 0.009931 0.001935 -0.002978 0.004766 0.002901 0.008362
# 2 0.001935 0.029604 -0.008776 0.015074 0.002260 0.013335
# 3 -0.002978 -0.008776 0.012973 -0.002213 0.003671 -0.004374
# 4 0.004766 0.015074 -0.002213 0.034951 0.008317 0.015154
# 5 0.002901 0.002260 0.003671 0.008317 0.025042 0.006506
# 6 0.008362 0.013335 -0.004374 0.015154 0.006506 0.040924
#
#
# Mechanical properties :
#
#
# Convention : Reuss Voigt Hill
#
# Bulk Modulus (GPa) = 30.42193 56.83640 43.62916
# Shear Modulus (GPa) = 27.17093 39.93858 33.55475
#
# Velocity S-wave (km/s) = 3.34727 4.05822 3.71977
# Velocity P-wave (km/s) = 5.24250 6.73765 6.03654
#
# Compressibility (1/GPa) = 0.03287103
#
# Stress axis : x y z
#
# Youngs Moduli (GPa) = 100.69184 33.77890 77.08457
#
# Poissons Ratio (x) = -0.06537 0.22953
# Poissons Ratio (y) = -0.19486 0.67651
# Poissons Ratio (z) = 0.29982 0.29645
#
# Static dielectric constant tensor:
#      x y z
#    x 2.063010 -0.020080 -0.065470 
#    y -0.020080 2.021340 -0.008420 
#    z -0.065470 -0.008420 1.913630 
# 
# From -- ./inp_files/241233.got.cif
#   From: 2010.05.17/outbox.cif.g08.bks.cpg/sg2_121_cif.got.tgz:241233.got - 2010.06.03 11:33:40.
