data_PCOD9010017
_publ_section_title
;
Structure prediction by ZEFSAII (Michael W. Deem and Ramdas Pophale) SiO2 
 PCOD9010017
Probable space group: P -1
;
_chemical_formula_sum "Si O2"
_cell_formula_units_Z 16
_cell_length_a 24.533442
_cell_length_b 6.188130
_cell_length_c 16.744078
_cell_angle_alpha 86.207497
_cell_angle_beta 20.249937
_cell_angle_gamma 96.409479
_cell_volume 758.802944
_symmetry_space_group_name_H-M "P -1"
_symmetry_group_IT_number 2
_symmetry_cell_setting 'triclinic'
loop_
_space_group_symop_operation_xyz
x,y,z
-x,-y,-z
loop_
_atom_site_type_symbol
_atom_site_label
_atom_site_fract_x
_atom_site_fract_y
_atom_site_fract_z
Si Si1 0.797798 0.721187 0.051703
Si Si2 0.817668 0.448834 0.881637
Si Si3 0.532590 0.993993 0.224255
Si Si4 0.662443 0.232676 0.665573
Si Si5 0.313333 0.125054 0.231092
Si Si6 0.949030 0.727350 0.333096
Si Si7 0.099347 0.842475 0.381656
Si Si8 0.557116 0.233027 0.476045
O O1 0.744036 0.478672 0.185967
O O2 0.611931 0.723499 0.301470
O O3 0.839941 0.659383 0.907616
O O4 0.952098 0.003043 0.853199
O O5 0.906280 0.306419 0.811245
O O6 0.926819 0.571941 0.648074
O O7 0.606395 0.272807 0.152193
O O8 0.399397 0.873634 0.335602
O O9 0.444924 0.827321 0.426649
O O10 0.732421 0.053065 0.915115
O O11 0.848901 0.491007 0.417618
O O12 0.666043 0.013590 0.716952
O O13 0.508575 0.281481 0.916371
O O14 0.201178 0.262691 0.403017
O O15 0.203344 0.912252 0.321800
O O16 0.000000 0.000000 0.500000
O O17 0.500000 0.000000 0.500000
#
# Coordination Sequence:
#
# PCOD9010017 Si02
#       8
#     2   2   2   2   2   2   2   2
#     4  11  22  38  71  96 121 167 223 263 326 391
#     4  12  22  41  66  98 132 164 216 269 325 386
#     4  11  23  40  61  96 131 168 207 274 323 374
#     4  10  23  41  58  90 138 173 220 257 314 395
#     4  10  21  40  61  90 129 188 214 248 321 394
#     4  12  20  40  67  91 127 177 218 260 317 392
#     4  11  21  38  63  99 135 161 215 269 319 388
#     4  11  22  43  66  97 128 166 214 275 330 377
#
# _framework density 21.085842
#
# number of rings (size 3 to 8) (size 9 to 14) (size 15 to 20)
#    0.000    1.000    5.000    2.250    0.000    0.000 
#    6.750    0.625    0.000    5.250    0.000    0.000 
#    0.000    0.000    0.000    0.000    0.000    0.000 
#
# Total GULP energy -89181.390972 kJ/mol
# GULP energy per Si atom -5573.836936 kJ/mol
# Density = 2.103785 g / cm^3
# Si number density = 21.085842 Si / 1000 Ang^3
#
#
#
# Elastic Constant Matrix: (Units=GPa)
#
#
# Indices 1 2 3 4 5 6 
#
# 1 134.9714 30.8092 37.2432 -22.6447 9.5814 11.4330
# 2 30.8092 52.6772 25.7094 -12.2334 8.3676 4.4592
# 3 37.2432 25.7094 84.2332 -20.9279 17.2066 3.5349
# 4 -22.6447 -12.2334 -20.9279 52.8013 2.6292 -6.2890
# 5 9.5814 8.3676 17.2066 2.6292 38.7019 -9.6412
# 6 11.4330 4.4592 3.5349 -6.2890 -9.6412 20.1950
#
#
#
# Elastic Compliance Matrix: (Units=1/GPa)
#
#
# Indices 1 2 3 4 5 6 
#
# 1 0.009655 -0.003427 -0.002104 0.002058 -0.002015 -0.004662
# 2 -0.003427 0.024593 -0.004590 0.002143 -0.003492 -0.003686
# 3 -0.002104 -0.004590 0.016927 0.004781 -0.006986 -0.002604
# 4 0.002058 0.002143 0.004781 0.022733 -0.003968 0.002710
# 5 -0.002015 -0.003492 -0.006986 -0.003968 0.035117 0.018664
# 6 -0.004662 -0.003686 -0.002604 0.002710 0.018664 0.063181
#
#
# Mechanical properties :
#
#
# Convention : Reuss Voigt Hill
#
# Bulk Modulus (GPa) = 32.32968 51.04506 41.68737
# Shear Modulus (GPa) = 24.65954 34.21430 29.43692
#
# Velocity S-wave (km/s) = 3.42348 4.03255 3.74043
# Velocity P-wave (km/s) = 5.56710 6.77810 6.20223
#
# Compressibility (1/GPa) = 0.03093133
#
# Stress axis : x y z
#
# Youngs Moduli (GPa) = 103.57147 40.66224 59.07567
#
# Poissons Ratio (x) = 0.13936 0.12432
# Poissons Ratio (y) = 0.35498 0.27117
# Poissons Ratio (z) = 0.21796 0.18665
#
# Static dielectric constant tensor:
#      x y z
#    x 1.783270 0.054100 -0.001950 
#    y 0.054100 1.898630 -0.020640 
#    z -0.001950 -0.020640 1.863690 
# 
# From -- ./inp_files/579474.got.cif
#   From: 2010.05.17/outbox.cif.g08.bks.cpg/sg2_290_cif.got.tgz:579474.got - 2010.06.03 11:33:40.
