data_PCOD9010697
_publ_section_title
;
Structure prediction by ZEFSAII (Michael W. Deem and Ramdas Pophale) SiO2 
 PCOD9010697
Probable space group: P -1
;
_chemical_formula_sum "Si O2"
_cell_formula_units_Z 12
_cell_length_a 29.948804
_cell_length_b 19.643702
_cell_length_c 17.337057
_cell_angle_alpha 160.721317
_cell_angle_beta 15.860750
_cell_angle_gamma 167.673025
_cell_volume 593.585712
_symmetry_space_group_name_H-M "P -1"
_symmetry_group_IT_number 2
_symmetry_cell_setting 'triclinic'
loop_
_space_group_symop_operation_xyz
x,y,z
-x,-y,-z
loop_
_atom_site_type_symbol
_atom_site_label
_atom_site_fract_x
_atom_site_fract_y
_atom_site_fract_z
Si Si1 0.794996 0.541883 0.083150
Si Si2 0.491089 0.595709 0.730408
Si Si3 0.287376 0.278879 0.050975
Si Si4 0.063865 0.685625 0.298854
Si Si5 0.030640 0.694465 0.089022
Si Si6 0.579255 0.581323 0.736388
O O1 0.585723 0.471695 0.402958
O O2 0.728980 0.522023 0.082612
O O3 0.803085 0.316414 0.857176
O O4 0.068815 0.904724 0.033693
O O5 0.438229 0.509452 0.815529
O O6 0.783580 0.602547 0.398088
O O7 0.143400 0.358520 0.371574
O O8 0.500000 0.500000 0.000000
O O9 0.409204 0.344876 0.836932
O O10 0.270503 0.020263 0.266921
O O11 0.945994 0.410741 0.140671
O O12 0.262886 0.069735 0.121976
O O13 0.000000 0.500000 0.000000
#
# Coordination Sequence:
#
# PCOD9010697 Si02
#       6
#     2   2   2   2   2   2
#     4  10  22  41  62  87 122 162 196 245 301 355
#     4  10  21  40  64  89 118 157 206 247 291 351
#     4  11  25  40  59  90 127 156 193 248 308 352
#     4  11  21  40  64  89 116 160 203 242 296 359
#     4  11  21  36  62  89 117 155 202 244 291 350
#     4  11  23  38  60  91 122 154 199 249 296 351
#
# _framework density 20.21612
#
# number of rings (size 3 to 8) (size 9 to 14) (size 15 to 20)
#    0.000    1.333    3.333    2.500    4.667    4.667 
#    0.000    0.833    0.000    0.000    0.000    0.000 
#    0.000    0.000    0.000    0.000    0.000    0.000 
#
# Total GULP energy -67082.522729 kJ/mol
# GULP energy per Si atom -5590.210227 kJ/mol
# Density = 2.017011 g / cm^3
# Si number density = 20.216120 Si / 1000 Ang^3
#
#
#
# Elastic Constant Matrix: (Units=GPa)
#
#
# Indices 1 2 3 4 5 6 
#
# 1 122.0146 -5.4444 4.2920 -4.1229 -16.4561 -7.3763
# 2 -5.4444 16.9980 -0.2378 8.0005 -3.3531 -3.8313
# 3 4.2920 -0.2378 34.7596 12.3313 -6.2552 -3.6628
# 4 -4.1229 8.0005 12.3313 27.9514 -3.2203 -1.4926
# 5 -16.4561 -3.3531 -6.2552 -3.2203 34.6937 4.2822
# 6 -7.3763 -3.8313 -3.6628 -1.4926 4.2822 31.0262
#
#
#
# Elastic Compliance Matrix: (Units=1/GPa)
#
#
# Indices 1 2 3 4 5 6 
#
# 1 0.009141 0.003730 -0.000483 0.001116 0.004464 0.002014
# 2 0.003730 0.075323 0.011109 -0.024536 0.007631 0.009266
# 3 -0.000483 0.011109 0.036913 -0.018716 0.005270 0.003987
# 4 0.001116 -0.024536 -0.018716 0.051068 -0.000169 -0.002494
# 5 0.004464 0.007631 0.005270 -0.000169 0.032850 -0.001916
# 6 0.002014 0.009266 0.003987 -0.002494 -0.001916 0.034469
#
#
# Mechanical properties :
#
#
# Convention : Reuss Voigt Hill
#
# Bulk Modulus (GPa) = 6.66271 18.99910 12.83090
# Shear Modulus (GPa) = 19.15113 30.41174 24.78144
#
# Velocity S-wave (km/s) = 3.08120 3.88278 3.50498
# Velocity P-wave (km/s) = 3.99515 5.43320 4.76870
#
# Compressibility (1/GPa) = 0.15008903
#
# Stress axis : x y z
#
# Youngs Moduli (GPa) = 109.40047 13.27613 27.09082
#
# Poissons Ratio (x) = -0.04953 0.01309
# Poissons Ratio (y) = -0.40812 -0.30095
# Poissons Ratio (z) = 0.05288 -0.14748
#
# Static dielectric constant tensor:
#      x y z
#    x 1.737820 0.011370 -0.016470 
#    y 0.011370 1.713830 0.006590 
#    z -0.016470 0.006590 1.681870 
# 
# From -- ./inp_files/426010.got.cif
#   From: 2010.05.17/outbox.cif.g08.bks.cpg/sg2_214_cif.got.tgz:426010.got - 2010.06.03 11:33:40.
