data_PCOD9010892
_publ_section_title
;
Structure prediction by ZEFSAII (Michael W. Deem and Ramdas Pophale) SiO2 
 PCOD9010892
Probable space group: P -1
;
_chemical_formula_sum "Si O2"
_cell_formula_units_Z 16
_cell_length_a 5.844168
_cell_length_b 14.918318
_cell_length_c 16.101117
_cell_angle_alpha 49.025793
_cell_angle_beta 95.394484
_cell_angle_gamma 127.803725
_cell_volume 717.231236
_symmetry_space_group_name_H-M "P -1"
_symmetry_group_IT_number 2
_symmetry_cell_setting 'triclinic'
loop_
_space_group_symop_operation_xyz
x,y,z
-x,-y,-z
loop_
_atom_site_type_symbol
_atom_site_label
_atom_site_fract_x
_atom_site_fract_y
_atom_site_fract_z
Si Si1 0.391634 0.100464 0.945564
Si Si2 0.391831 0.968765 0.320480
Si Si3 0.649195 0.390320 0.653841
Si Si4 0.629589 0.276676 0.447813
Si Si5 0.689657 0.874972 0.628734
Si Si6 0.615250 0.641962 0.499004
Si Si7 0.548605 0.387268 0.099160
Si Si8 0.695448 0.271695 0.031442
O O1 0.515738 0.223202 0.795750
O O2 0.572785 0.213844 0.968026
O O3 0.500000 0.000000 0.000000
O O4 0.000000 0.000000 0.000000
O O5 0.515671 0.889027 0.405055
O O6 0.999975 0.797408 0.385147
O O7 0.363453 0.044632 0.353069
O O8 0.619173 0.116460 0.168421
O O9 0.476212 0.455940 0.617188
O O10 0.613827 0.369801 0.565780
O O11 0.003521 0.551674 0.611084
O O12 0.629006 0.244702 0.371385
O O13 0.402007 0.303484 0.445495
O O14 0.694236 0.754063 0.752537
O O15 0.000000 0.000000 0.500000
O O16 0.498519 0.286588 0.077272
O O17 0.500000 0.500000 0.000000
O O18 0.926032 0.534576 0.061825
#
# Coordination Sequence:
#
# PCOD9010892 Si02
#       8
#     2   2   2   2   2   2   2   2
#     4  12  29  47  73 105 143 195 239 302 357 433
#     4  10  22  39  64  96 131 170 220 282 349 419
#     4  10  24  42  64  93 134 168 235 278 345 412
#     4  11  22  37  66  91 127 174 213 284 344 408
#     4  11  22  40  61  97 131 165 226 280 351 414
#     4  10  21  40  64  95 126 175 217 286 347 409
#     4  10  24  43  71  95 134 189 230 297 360 427
#     4  10  24  45  66 100 138 181 243 287 359 438
#
# _framework density 22.308008999999998
#
# number of rings (size 3 to 8) (size 9 to 14) (size 15 to 20)
#    0.000    1.500    1.250    2.250    7.000    1.000 
#    2.250    0.000    0.000    0.000    0.000    0.000 
#    0.000    0.000    0.000    0.000    0.000    0.000 
#
# Total GULP energy -89192.782817 kJ/mol
# GULP energy per Si atom -5574.548926 kJ/mol
# Density = 2.225723 g / cm^3
# Si number density = 22.308009 Si / 1000 Ang^3
#
#
#
# Elastic Constant Matrix: (Units=GPa)
#
#
# Indices 1 2 3 4 5 6 
#
# 1 55.9764 29.9141 46.3250 1.7940 15.2013 -8.4867
# 2 29.9141 131.6849 13.8308 15.7155 3.0460 -4.3082
# 3 46.3250 13.8308 122.3678 -4.4185 31.1987 -11.7838
# 4 1.7940 15.7155 -4.4185 31.3932 -0.6990 3.5444
# 5 15.2013 3.0460 31.1987 -0.6990 34.0339 -11.7514
# 6 -8.4867 -4.3082 -11.7838 3.5444 -11.7514 28.8656
#
#
#
# Elastic Compliance Matrix: (Units=1/GPa)
#
#
# Indices 1 2 3 4 5 6 
#
# 1 0.030242 -0.005593 -0.009785 -0.000702 -0.003048 0.002908
# 2 -0.005593 0.009317 0.000672 -0.004344 0.001338 0.001099
# 3 -0.009785 0.000672 0.014041 0.002104 -0.008827 -0.000897
# 4 -0.000702 -0.004344 0.002104 0.034903 -0.002313 -0.005223
# 5 -0.003048 0.001338 -0.008827 -0.002313 0.043379 0.013644
# 6 0.002908 0.001099 -0.000897 -0.005223 0.013644 0.041492
#
#
# Mechanical properties :
#
#
# Convention : Reuss Voigt Hill
#
# Bulk Modulus (GPa) = 41.34241 54.46323 47.90282
# Shear Modulus (GPa) = 23.71357 33.52251 28.61804
#
# Velocity S-wave (km/s) = 3.26392 3.88069 3.58559
# Velocity P-wave (km/s) = 5.72512 6.67434 6.21787
#
# Compressibility (1/GPa) = 0.02418824
#
# Stress axis : x y z
#
# Youngs Moduli (GPa) = 33.06607 107.32752 71.22202
#
# Poissons Ratio (x) = 0.60027 0.69691
# Poissons Ratio (y) = 0.18494 -0.04786
# Poissons Ratio (z) = 0.32355 -0.07212
#
# Static dielectric constant tensor:
#      x y z
#    x 1.897650 0.045480 -0.002020 
#    y 0.045480 1.880930 -0.024260 
#    z -0.002020 -0.024260 1.809450 
# 
# From -- ./inp_files/475882.got.cif
#   From: 2010.05.17/outbox.cif.g08.bks.cpg/sg2_238_cif.got.tgz:475882.got - 2010.06.03 11:33:40.
