data_PCOD9010426
_publ_section_title
;
Structure prediction by ZEFSAII (Michael W. Deem and Ramdas Pophale) SiO2 
 PCOD9010426
Probable space group: P -1
;
_chemical_formula_sum "Si O2"
_cell_formula_units_Z 14
_cell_length_a 5.007354
_cell_length_b 12.642860
_cell_length_c 12.105570
_cell_angle_alpha 86.265352
_cell_angle_beta 52.168331
_cell_angle_gamma 103.742014
_cell_volume 565.328119
_symmetry_space_group_name_H-M "P -1"
_symmetry_group_IT_number 2
_symmetry_cell_setting 'triclinic'
loop_
_space_group_symop_operation_xyz
x,y,z
-x,-y,-z
loop_
_atom_site_type_symbol
_atom_site_label
_atom_site_fract_x
_atom_site_fract_y
_atom_site_fract_z
Si Si1 0.986389 0.039245 0.795814
Si Si2 0.985471 0.666997 0.777361
Si Si3 0.582485 0.098113 0.341754
Si Si4 0.109019 0.212761 0.574625
Si Si5 0.233108 0.629167 0.941235
Si Si6 0.842703 0.379248 0.486997
Si Si7 0.764325 0.141344 0.033849
O O1 0.895599 0.124977 0.729110
O O2 0.641315 0.923792 0.904509
O O3 0.029946 0.096011 0.900792
O O4 0.326133 0.015075 0.655681
O O5 0.583992 0.638856 0.922576
O O6 0.104666 0.794494 0.691986
O O7 0.267337 0.661912 0.798871
O O8 0.957324 0.591120 0.684178
O O9 0.241288 0.130037 0.464898
O O10 0.684003 0.113296 0.184920
O O11 0.434843 0.310258 0.550613
O O12 0.926472 0.284955 0.545817
O O13 0.095558 0.723360 0.020521
O O14 0.000000 0.500000 0.000000
O O15 0.000000 0.500000 0.500000
#
# Coordination Sequence:
#
# PCOD9010426 Si02
#       7
#     2   2   2   2   2   2   2
#     4  11  23  41  63  99 138 174 219 283 332 397
#     4  10  21  40  63  90 124 169 218 267 333 386
#     4  10  21  41  66  91 134 177 220 269 336 401
#     4  11  26  41  70 102 127 175 232 272 327 404
#     4  11  22  40  64  94 124 172 226 271 317 396
#     4  11  24  45  67  94 134 174 220 280 339 388
#     4  10  23  40  64  93 137 177 218 269 353 385
#
# _framework density 24.764375999999999
#
# number of rings (size 3 to 8) (size 9 to 14) (size 15 to 20)
#    0.000    1.429    1.429    4.286    4.000    2.857 
#    0.000    0.000    0.000    0.000    0.000    0.000 
#    0.000    0.000    0.000    0.000    0.000    0.000 
#
# Total GULP energy -78001.595997 kJ/mol
# GULP energy per Si atom -5571.542571 kJ/mol
# Density = 2.470801 g / cm^3
# Si number density = 24.764376 Si / 1000 Ang^3
#
#
#
# Elastic Constant Matrix: (Units=GPa)
#
#
# Indices 1 2 3 4 5 6 
#
# 1 96.7049 15.4364 6.5228 2.8040 10.0357 3.9648
# 2 15.4364 144.4360 29.2592 14.8436 11.5947 12.0815
# 3 6.5228 29.2592 62.8177 20.2233 21.6665 -7.4625
# 4 2.8040 14.8436 20.2233 49.9118 7.9164 13.3294
# 5 10.0357 11.5947 21.6665 7.9164 30.8920 -4.3235
# 6 3.9648 12.0815 -7.4625 13.3294 -4.3235 33.0412
#
#
#
# Elastic Compliance Matrix: (Units=1/GPa)
#
#
# Indices 1 2 3 4 5 6 
#
# 1 0.010901 -0.000811 0.000123 0.000631 -0.003726 -0.001726
# 2 -0.000811 0.008198 -0.004182 0.000495 -0.000584 -0.004121
# 3 0.000123 -0.004182 0.026933 -0.010224 -0.013344 0.009975
# 4 0.000631 0.000495 -0.010224 0.028190 -0.002439 -0.014257
# 5 -0.003726 -0.000584 -0.013344 -0.002439 0.044407 0.004442
# 6 -0.001726 -0.004121 0.009975 -0.014257 0.004442 0.040565
#
#
# Mechanical properties :
#
#
# Convention : Reuss Voigt Hill
#
# Bulk Modulus (GPa) = 27.55397 45.15505 36.35451
# Shear Modulus (GPa) = 27.61969 39.61836 33.61902
#
# Velocity S-wave (km/s) = 3.34323 4.00410 3.68850
# Velocity P-wave (km/s) = 5.10427 6.29687 5.73167
#
# Compressibility (1/GPa) = 0.03629241
#
# Stress axis : x y z
#
# Youngs Moduli (GPa) = 91.73374 121.98100 37.12916
#
# Poissons Ratio (x) = 0.09897 -0.00457
# Poissons Ratio (y) = 0.07443 0.15526
# Poissons Ratio (z) = -0.01129 0.51008
#
# Static dielectric constant tensor:
#      x y z
#    x 2.080670 -0.062750 -0.026400 
#    y -0.062750 2.020430 -0.007210 
#    z -0.026400 -0.007210 2.105970 
# 
# From -- ./inp_files/75941.got.cif
#   From: 2010.05.17/outbox.cif.g08.bks.cpg/sg2_38_cif.got.tgz:75941.got - 2010.06.03 11:33:40.
