data_PCOD9010441
_publ_section_title
;
Structure prediction by ZEFSAII (Michael W. Deem and Ramdas Pophale) SiO2 
 PCOD9010441
Probable space group: P -1
;
_chemical_formula_sum "Si O2"
_cell_formula_units_Z 12
_cell_length_a 11.614701
_cell_length_b 16.679169
_cell_length_c 11.504198
_cell_angle_alpha 18.401167
_cell_angle_beta 44.981974
_cell_angle_gamma 50.240533
_cell_volume 492.288740
_symmetry_space_group_name_H-M "P -1"
_symmetry_group_IT_number 2
_symmetry_cell_setting 'triclinic'
loop_
_space_group_symop_operation_xyz
x,y,z
-x,-y,-z
loop_
_atom_site_type_symbol
_atom_site_label
_atom_site_fract_x
_atom_site_fract_y
_atom_site_fract_z
Si Si1 0.395176 0.597527 0.834598
Si Si2 0.981785 0.826468 0.136863
Si Si3 0.041224 0.713260 0.008715
Si Si4 0.256825 0.404743 0.771161
Si Si5 0.344064 0.987466 0.904120
Si Si6 0.464437 0.314095 0.956611
O O1 0.500028 0.861691 0.349893
O O2 0.391564 0.383548 0.033226
O O3 0.500000 0.500000 0.000000
O O4 0.216356 0.659798 0.910560
O O5 0.038546 0.562350 0.500051
O O6 0.787858 0.819344 0.265312
O O7 0.057018 0.894589 0.861977
O O8 0.000000 0.000000 0.000000
O O9 0.908617 0.742232 0.963555
O O10 0.322890 0.275401 0.013953
O O11 0.404558 0.446574 0.513897
O O12 0.253725 0.706515 0.393682
O O13 0.425158 0.914618 0.823075
#
# Coordination Sequence:
#
# PCOD9010441 Si02
#       6
#     2   2   2   2   2   2
#     4  12  25  38  60  97 132 158 192 265 317 360
#     4  11  21  38  64  89 121 165 209 249 297 368
#     4  11  24  38  59  95 127 156 206 254 306 361
#     4   9  20  45  66  87 119 167 215 250 285 374
#     4  10  21  40  63  91 116 164 208 247 306 358
#     4   9  22  43  66  88 124 162 212 249 303 361
#
# _framework density 24.375938000000001
#
# number of rings (size 3 to 8) (size 9 to 14) (size 15 to 20)
#    1.000    0.667    3.333    1.000    4.667    3.333 
#    3.000    0.833    0.000    0.000    0.000    0.000 
#    0.000    0.000    0.000    0.000    0.000    0.000 
#
# Total GULP energy -66875.253634 kJ/mol
# GULP energy per Si atom -5572.937803 kJ/mol
# Density = 2.432046 g / cm^3
# Si number density = 24.375938 Si / 1000 Ang^3
#
#
#
# Elastic Constant Matrix: (Units=GPa)
#
#
# Indices 1 2 3 4 5 6 
#
# 1 127.9590 66.6400 25.2210 23.3107 -15.6088 -2.4191
# 2 66.6400 186.8437 10.8460 13.7889 -10.2401 10.1490
# 3 25.2210 10.8460 71.7795 0.1574 -1.2326 1.6899
# 4 23.3107 13.7889 0.1574 33.3555 -12.5097 -9.3050
# 5 -15.6088 -10.2401 -1.2326 -12.5097 16.4545 1.0364
# 6 -2.4191 10.1490 1.6899 -9.3050 1.0364 29.0468
#
#
#
# Elastic Compliance Matrix: (Units=1/GPa)
#
#
# Indices 1 2 3 4 5 6 
#
# 1 0.011785 -0.003406 -0.003543 -0.004665 0.005204 0.000698
# 2 -0.003406 0.006824 0.000246 -0.001172 0.000337 -0.003070
# 3 -0.003543 0.000246 0.015140 0.001909 -0.000583 -0.000630
# 4 -0.004665 -0.001172 0.001909 0.049793 0.031916 0.014722
# 5 0.005204 0.000337 -0.000583 0.031916 0.089676 0.007374
# 6 0.000698 -0.003070 -0.000630 0.014722 0.007374 0.040047
#
#
# Mechanical properties :
#
#
# Convention : Reuss Voigt Hill
#
# Bulk Modulus (GPa) = 49.15581 65.77738 57.46659
# Shear Modulus (GPa) = 21.41768 34.69638 28.05703
#
# Velocity S-wave (km/s) = 2.96740 3.77687 3.39634
# Velocity P-wave (km/s) = 5.65244 6.78696 6.24552
#
# Compressibility (1/GPa) = 0.02034348
#
# Stress axis : x y z
#
# Youngs Moduli (GPa) = 84.85403 146.53597 66.05068
#
# Poissons Ratio (x) = 0.49910 0.23402
# Poissons Ratio (y) = 0.28901 -0.01626
# Poissons Ratio (z) = 0.30064 -0.03608
#
# Static dielectric constant tensor:
#      x y z
#    x 2.019850 0.023120 0.063930 
#    y 0.023120 1.948210 -0.042960 
#    z 0.063930 -0.042960 2.101970 
# 
# From -- ./inp_files/45786.got.cif
#   From: 2010.05.17/outbox.cif.g08.bks.cpg/sg2_23_cif.got.tgz:45786.got - 2010.06.03 11:33:40.
