data_PCOD9010993
_publ_section_title
;
Structure prediction by ZEFSAII (Michael W. Deem and Ramdas Pophale) SiO2 
 PCOD9010993
Probable space group: P -1
;
_chemical_formula_sum "Si O2"
_cell_formula_units_Z 10
_cell_length_a 11.889903
_cell_length_b 10.242125
_cell_length_c 7.015522
_cell_angle_alpha 134.093731
_cell_angle_beta 61.167158
_cell_angle_gamma 141.630556
_cell_volume 377.012607
_symmetry_space_group_name_H-M "P -1"
_symmetry_group_IT_number 2
_symmetry_cell_setting 'triclinic'
loop_
_space_group_symop_operation_xyz
x,y,z
-x,-y,-z
loop_
_atom_site_type_symbol
_atom_site_label
_atom_site_fract_x
_atom_site_fract_y
_atom_site_fract_z
Si Si1 0.970935 0.443421 0.742968
Si Si2 0.301374 0.839688 0.623308
Si Si3 0.516041 0.288897 0.414249
Si Si4 0.868301 0.964835 0.423036
Si Si5 0.446229 0.592838 0.921545
O O1 0.126262 0.701316 0.758268
O O2 0.780480 0.307759 0.661378
O O3 0.975761 0.228390 0.488342
O O4 0.000000 0.500000 0.000000
O O5 0.408048 0.799605 0.618716
O O6 0.427422 0.142343 0.798854
O O7 0.294877 0.084389 0.389085
O O8 0.566386 0.533641 0.714710
O O9 0.586189 0.353157 0.206282
O O10 0.745670 0.687127 0.137242
O O11 0.000000 0.000000 0.500000
#
# Coordination Sequence:
#
# PCOD9010993 Si02
#       5
#     2   2   2   2   2
#     4  11  26  44  67 103 138 177 234 291 340 403
#     4  11  23  46  71  96 140 188 224 279 350 410
#     4   9  20  39  70 101 134 184 226 274 345 411
#     4  10  21  40  64  99 139 174 225 287 333 398
#     4   9  20  39  69 100 134 183 229 270 347 414
#
# _framework density 26.524314
#
# number of rings (size 3 to 8) (size 9 to 14) (size 15 to 20)
#    1.200    0.800    0.000    3.000    0.000    3.200 
#    3.600    2.000    0.000    0.000    0.000    0.000 
#    0.000    0.000    0.000    0.000    0.000    0.000 
#
# Total GULP energy -55958.172635 kJ/mol
# GULP energy per Si atom -5595.817264 kJ/mol
# Density = 2.646394 g / cm^3
# Si number density = 26.524314 Si / 1000 Ang^3
#
#
#
# Elastic Constant Matrix: (Units=GPa)
#
#
# Indices 1 2 3 4 5 6 
#
# 1 138.6812 15.4329 46.1796 7.9461 27.7792 -17.7646
# 2 15.4329 102.5441 55.9424 19.7502 14.6508 -6.0339
# 3 46.1796 55.9424 166.6213 26.8225 25.2121 -9.5350
# 4 7.9461 19.7502 26.8225 46.0218 -9.8838 1.9880
# 5 27.7792 14.6508 25.2121 -9.8838 33.6603 6.0488
# 6 -17.7646 -6.0339 -9.5350 1.9880 6.0488 43.3956
#
#
#
# Elastic Compliance Matrix: (Units=1/GPa)
#
#
# Indices 1 2 3 4 5 6 
#
# 1 0.010666 0.001737 -0.000589 -0.005038 -0.011737 0.006345
# 2 0.001737 0.013454 -0.002588 -0.006396 -0.007839 0.003399
# 3 -0.000589 -0.002588 0.009304 -0.005963 -0.007606 0.002776
# 4 -0.005038 -0.006396 -0.005963 0.034163 0.023065 -0.009042
# 5 -0.011737 -0.007839 -0.007606 0.023065 0.058286 -0.016747
# 6 0.006345 0.003399 0.002776 -0.009042 -0.016747 0.029472
#
#
# Mechanical properties :
#
#
# Convention : Reuss Voigt Hill
#
# Bulk Modulus (GPa) = 32.74091 71.43958 52.09025
# Shear Modulus (GPa) = 29.68988 43.96832 36.82910
#
# Velocity S-wave (km/s) = 3.34929 4.07586 3.73031
# Velocity P-wave (km/s) = 5.22758 7.01015 6.18344
#
# Compressibility (1/GPa) = 0.03054283
#
# Stress axis : x y z
#
# Youngs Moduli (GPa) = 93.75425 74.32493 107.48509
#
# Poissons Ratio (x) = -0.12909 0.06333
# Poissons Ratio (y) = -0.16283 0.27821
# Poissons Ratio (z) = 0.05524 0.19238
#
# Static dielectric constant tensor:
#      x y z
#    x 2.087680 0.024020 -0.017030 
#    y 0.024020 2.078540 0.029250 
#    z -0.017030 0.029250 2.142370 
# 
# From -- ./inp_files/167237.got.cif
#   From: 2010.05.17/outbox.cif.g08.bks.cpg/sg2_84_cif.got.tgz:167237.got - 2010.06.03 11:33:40.
