data_PCOD9010026
_publ_section_title
;
Structure prediction by ZEFSAII (Michael W. Deem and Ramdas Pophale) SiO2 
 PCOD9010026
Probable space group: P -1
;
_chemical_formula_sum "Si O2"
_cell_formula_units_Z 14
_cell_length_a 18.360609
_cell_length_b 15.064788
_cell_length_c 7.626693
_cell_angle_alpha 128.062884
_cell_angle_beta 134.901201
_cell_angle_gamma 21.890095
_cell_volume 551.150182
_symmetry_space_group_name_H-M "P -1"
_symmetry_group_IT_number 2
_symmetry_cell_setting 'triclinic'
loop_
_space_group_symop_operation_xyz
x,y,z
-x,-y,-z
loop_
_atom_site_type_symbol
_atom_site_label
_atom_site_fract_x
_atom_site_fract_y
_atom_site_fract_z
Si Si1 0.795393 0.600660 0.960960
Si Si2 0.817407 0.626884 0.646363
Si Si3 0.554357 0.768960 0.081053
Si Si4 0.814111 0.287932 0.850044
Si Si5 0.760753 0.379277 0.491521
Si Si6 0.865390 0.892286 0.391470
Si Si7 0.287768 0.821448 0.206491
O O1 0.749897 0.709508 0.834419
O O2 0.794959 0.471916 0.739708
O O3 0.624190 0.774605 0.037397
O O4 0.032524 0.413375 0.203900
O O5 0.622165 0.773106 0.371518
O O6 0.990400 0.354721 0.610613
O O7 0.702629 0.512076 0.999121
O O8 0.304726 0.972613 0.885525
O O9 0.745076 0.324621 0.578241
O O10 0.748215 0.257884 0.841936
O O11 0.078274 0.043364 0.999310
O O12 0.530241 0.591808 0.259655
O O13 0.966908 0.171421 0.460330
O O14 0.725284 0.069292 0.533854
#
# Coordination Sequence:
#
# PCOD9010026 Si02
#       7
#     2   2   2   2   2   2   2
#     4   9  20  39  62  88 126 161 203 252 310 354
#     4  10  21  40  61  91 127 158 206 257 296 375
#     4  11  21  40  62  92 125 163 204 254 306 369
#     4  10  22  39  62  87 117 162 201 248 316 354
#     4  10  22  40  59  88 122 155 202 257 295 368
#     4  11  23  38  62  91 121 162 209 241 313 369
#     4  11  21  42  61  85 123 158 201 257 303 364
#
# _framework density 25.401423999999999
#
# number of rings (size 3 to 8) (size 9 to 14) (size 15 to 20)
#    0.000    1.714    4.286    0.857    0.000    3.429 
#    0.000    7.857    0.000    0.000    0.000    0.000 
#    0.000    0.000    0.000    0.000    0.000    0.000 
#
# Total GULP energy -78383.953465 kJ/mol
# GULP energy per Si atom -5598.853819 kJ/mol
# Density = 2.534361 g / cm^3
# Si number density = 25.401424 Si / 1000 Ang^3
#
#
#
# Elastic Constant Matrix: (Units=GPa)
#
#
# Indices 1 2 3 4 5 6 
#
# 1 44.2257 31.5241 -8.2175 -2.3751 8.3234 -8.1239
# 2 31.5241 89.7856 40.6614 -22.3703 13.3813 -0.5518
# 3 -8.2175 40.6614 132.7187 -31.9041 -0.2594 -2.4443
# 4 -2.3751 -22.3703 -31.9041 53.3758 -4.4777 10.2768
# 5 8.3234 13.3813 -0.2594 -4.4777 26.3432 -1.4761
# 6 -8.1239 -0.5518 -2.4443 10.2768 -1.4761 35.0411
#
#
#
# Elastic Compliance Matrix: (Units=1/GPa)
#
#
# Indices 1 2 3 4 5 6 
#
# 1 0.038123 -0.016760 0.006844 -0.003438 -0.003494 0.009913
# 2 -0.016760 0.022116 -0.006685 0.005178 -0.005447 -0.005752
# 3 0.006844 -0.006685 0.011001 0.004032 0.002092 0.001155
# 4 -0.003438 0.005178 0.004032 0.024820 0.002288 -0.007617
# 5 -0.003494 -0.005447 0.002092 0.002288 0.042261 0.000359
# 6 0.009913 -0.005752 0.001155 -0.007617 0.000359 0.033075
#
#
# Mechanical properties :
#
#
# Convention : Reuss Voigt Hill
#
# Bulk Modulus (GPa) = 26.28890 43.85178 35.07034
# Shear Modulus (GPa) = 23.01189 36.46950 29.74070
#
# Velocity S-wave (km/s) = 3.01313 3.79321 3.42545
# Velocity P-wave (km/s) = 4.74101 6.04033 5.42967
#
# Compressibility (1/GPa) = 0.03803886
#
# Stress axis : x y z
#
# Youngs Moduli (GPa) = 26.23058 45.21560 90.89888
#
# Poissons Ratio (x) = 0.75782 -0.62215
# Poissons Ratio (y) = 0.43963 0.60770
# Poissons Ratio (z) = -0.17953 0.30229
#
# Static dielectric constant tensor:
#      x y z
#    x 2.034990 0.016320 -0.001940 
#    y 0.016320 2.022950 -0.003730 
#    z -0.001940 -0.003730 1.977220 
# 
# From -- ./inp_files/216036.got.cif
#   From: 2010.05.17/outbox.cif.g08.bks.cpg/sg2_109_cif.got.tgz:216036.got - 2010.06.03 11:33:40.
