data_PCOD9010686
_publ_section_title
;
Structure prediction by ZEFSAII (Michael W. Deem and Ramdas Pophale) SiO2 
 PCOD9010686
Probable space group: P -1
;
_chemical_formula_sum "Si O2"
_cell_formula_units_Z 16
_cell_length_a 8.951691
_cell_length_b 11.757745
_cell_length_c 12.243284
_cell_angle_alpha 79.977483
_cell_angle_beta 50.804023
_cell_angle_gamma 99.148780
_cell_volume 920.320834
_symmetry_space_group_name_H-M "P -1"
_symmetry_group_IT_number 2
_symmetry_cell_setting 'triclinic'
loop_
_space_group_symop_operation_xyz
x,y,z
-x,-y,-z
loop_
_atom_site_type_symbol
_atom_site_label
_atom_site_fract_x
_atom_site_fract_y
_atom_site_fract_z
Si Si1 0.511503 0.660930 0.743311
Si Si2 0.930861 0.354006 0.034793
Si Si3 0.245550 0.493059 0.277927
Si Si4 0.019369 0.699810 0.734226
Si Si5 0.073491 0.693873 0.375194
Si Si6 0.956769 0.857126 0.555593
Si Si7 0.597341 0.365525 0.456709
Si Si8 0.181515 0.346675 0.708662
O O1 0.311290 0.685741 0.874471
O O2 0.548806 0.540515 0.796628
O O3 0.722330 0.775631 0.643553
O O4 0.470083 0.638944 0.637498
O O5 0.974874 0.299912 0.138082
O O6 0.000000 0.500000 0.000000
O O7 0.060110 0.332790 0.878764
O O8 0.138467 0.427627 0.225373
O O9 0.239024 0.629588 0.276223
O O10 0.097554 0.410627 0.455661
O O11 0.975489 0.810731 0.676965
O O12 0.244890 0.704519 0.591946
O O13 0.109162 0.811807 0.416448
O O14 0.969040 0.718223 0.308989
O O15 0.000000 0.000000 0.500000
O O16 0.388106 0.315267 0.629239
O O17 0.727277 0.508949 0.394228
#
# Coordination Sequence:
#
# PCOD9010686 Si02
#       8
#     2   2   2   2   2   2   2   2
#     4   9  18  33  53  79 110 142 170 212 269 321
#     4  11  19  32  49  83 122 144 157 202 281 343
#     4   9  15  29  49  73 110 130 167 214 265 311
#     4   9  18  33  53  79 111 137 172 219 265 322
#     4   9  16  28  50  78  98 131 175 219 258 304
#     4  10  21  38  58  74 100 141 193 234 253 288
#     4  10  17  29  51  80 105 140 171 209 257 318
#     4  11  18  27  52  79 116 138 164 205 265 333
#
# _framework density 17.385242000000002
#
# number of rings (size 3 to 8) (size 9 to 14) (size 15 to 20)
#    0.000    2.500    6.250    0.000    0.000    0.000 
#    0.000    8.125    0.000    1.500    0.000    0.000 
#    0.000    0.000    0.000    0.000    0.000    0.000 
#
# Total GULP energy -89084.554727 kJ/mol
# GULP energy per Si atom -5567.784670 kJ/mol
# Density = 1.734567 g / cm^3
# Si number density = 17.385242 Si / 1000 Ang^3
#
#
#
# Elastic Constant Matrix: (Units=GPa)
#
#
# Indices 1 2 3 4 5 6 
#
# 1 88.4206 21.7898 23.8711 6.2927 2.5957 -4.5318
# 2 21.7898 71.7827 11.3081 -0.6641 3.9905 -14.6621
# 3 23.8711 11.3081 81.1500 23.7171 -0.6942 -1.2354
# 4 6.2927 -0.6641 23.7171 16.3468 0.8144 -0.0971
# 5 2.5957 3.9905 -0.6942 0.8144 22.8705 0.0546
# 6 -4.5318 -14.6621 -1.2354 -0.0971 0.0546 12.6454
#
#
#
# Elastic Compliance Matrix: (Units=1/GPa)
#
#
# Indices 1 2 3 4 5 6 
#
# 1 0.013091 -0.003289 -0.003293 -0.000343 -0.001001 0.000559
# 2 -0.003289 0.020339 -0.003931 0.008109 -0.003636 0.022098
# 3 -0.003293 -0.003931 0.023498 -0.033154 0.002962 -0.003710
# 4 -0.000343 0.008109 -0.033154 0.110094 -0.006319 0.006912
# 5 -0.001001 -0.003636 0.002962 -0.006319 0.044798 -0.004528
# 6 0.000559 0.022098 -0.003710 0.006912 -0.004528 0.104613
#
#
# Mechanical properties :
#
#
# Convention : Reuss Voigt Hill
#
# Bulk Modulus (GPa) = 27.85255 39.47681 33.66468
# Shear Modulus (GPa) = 14.30917 22.66483 18.48700
#
# Velocity S-wave (km/s) = 2.87202 3.61457 3.26448
# Velocity P-wave (km/s) = 5.20131 6.33850 5.79785
#
# Compressibility (1/GPa) = 0.03590336
#
# Stress axis : x y z
#
# Youngs Moduli (GPa) = 76.38643 49.16551 42.55717
#
# Poissons Ratio (x) = 0.16169 0.14012
# Poissons Ratio (y) = 0.25121 0.16731
# Poissons Ratio (z) = 0.25151 0.19329
#
# Static dielectric constant tensor:
#      x y z
#    x 1.653770 -0.003220 -0.038400 
#    y -0.003220 1.593260 0.028480 
#    z -0.038400 0.028480 1.637680 
# 
# From -- ./inp_files/387529.got.cif
#   From: 2010.05.17/outbox.cif.g08.bks.cpg/sg2_194_cif.got.tgz:387529.got - 2010.06.03 11:33:40.
