data_PCOD9010124
_publ_section_title
;
Structure prediction by ZEFSAII (Michael W. Deem and Ramdas Pophale) SiO2 
 PCOD9010124
Probable space group: P -1
;
_chemical_formula_sum "Si O2"
_cell_formula_units_Z 16
_cell_length_a 22.208902
_cell_length_b 5.168651
_cell_length_c 8.009201
_cell_angle_alpha 58.781655
_cell_angle_beta 71.869807
_cell_angle_gamma 62.471704
_cell_volume 694.115741
_symmetry_space_group_name_H-M "P -1"
_symmetry_group_IT_number 2
_symmetry_cell_setting 'triclinic'
loop_
_space_group_symop_operation_xyz
x,y,z
-x,-y,-z
loop_
_atom_site_type_symbol
_atom_site_label
_atom_site_fract_x
_atom_site_fract_y
_atom_site_fract_z
Si Si1 0.347848 0.641911 0.868661
Si Si2 0.680751 0.687062 0.660833
Si Si3 0.118443 0.804382 0.808852
Si Si4 0.059853 0.571480 0.621885
Si Si5 0.762594 0.005219 0.683415
Si Si6 0.730991 0.680408 0.156352
Si Si7 0.088309 0.443335 0.276107
Si Si8 0.454917 0.796513 0.553685
O O1 0.327229 0.456568 0.797579
O O2 0.422291 0.652788 0.777812
O O3 0.295462 0.016582 0.797295
O O4 0.339028 0.469236 0.103803
O O5 0.718671 0.386344 0.606733
O O6 0.734933 0.844545 0.614140
O O7 0.611819 0.957657 0.564334
O O8 0.077540 0.748030 0.704126
O O9 0.198326 0.610097 0.769377
O O10 0.099833 0.182232 0.736719
O O11 0.098988 0.645552 0.043092
O O12 0.079729 0.635589 0.395127
O O13 0.980143 0.626112 0.668803
O O14 0.844029 0.880533 0.655216
O O15 0.746006 0.844228 0.919544
O O16 0.500000 0.500000 0.500000
O O17 0.500000 0.000000 0.500000
#
# Coordination Sequence:
#
# PCOD9010124 Si02
#       8
#     2   2   2   2   2   2   2   2
#     4  10  21  40  62  87 122 156 197 251 293 354
#     4  10  22  41  63  89 117 155 202 243 302 363
#     4  11  23  41  63  91 127 168 216 268 323 375
#     4  11  25  39  61  92 125 175 218 256 330 387
#     4   9  20  38  63  88 118 160 203 257 310 354
#     4   9  19  37  62  89 118 159 207 255 307 356
#     4  10  24  42  62  91 131 165 216 274 313 379
#     4  12  26  41  62  92 122 155 191 234 296 365
#
# _framework density 23.050912
#
# number of rings (size 3 to 8) (size 9 to 14) (size 15 to 20)
#    0.000    1.750    0.000    3.000    0.000   12.000 
#    0.000    0.000    0.000    0.000    0.000    0.000 
#    0.000    0.000    0.000    0.000    0.000    0.000 
#
# Total GULP energy -89634.155446 kJ/mol
# GULP energy per Si atom -5602.134715 kJ/mol
# Density = 2.299845 g / cm^3
# Si number density = 23.050912 Si / 1000 Ang^3
#
#
#
# Elastic Constant Matrix: (Units=GPa)
#
#
# Indices 1 2 3 4 5 6 
#
# 1 94.2707 24.9593 24.9944 -1.8851 -13.3294 -12.1277
# 2 24.9593 129.8991 25.3543 -15.5227 -8.2480 -9.8519
# 3 24.9944 25.3543 121.1312 8.0572 -6.9945 -0.0843
# 4 -1.8851 -15.5227 8.0572 32.2617 -10.7447 0.2384
# 5 -13.3294 -8.2480 -6.9945 -10.7447 30.8421 0.9717
# 6 -12.1277 -9.8519 -0.0843 0.2384 0.9717 42.8900
#
#
#
# Elastic Compliance Matrix: (Units=1/GPa)
#
#
# Indices 1 2 3 4 5 6 
#
# 1 0.012738 -0.001108 -0.002248 0.002579 0.005497 0.003204
# 2 -0.001108 0.009387 -0.001931 0.006147 0.003681 0.001721
# 3 -0.002248 -0.001931 0.009327 -0.003578 -0.000587 -0.001028
# 4 0.002579 0.006147 -0.003578 0.040295 0.015936 0.001549
# 5 0.005497 0.003681 -0.000587 0.015936 0.041158 0.001377
# 6 0.003204 0.001721 -0.001028 0.001549 0.001377 0.024575
#
#
# Mechanical properties :
#
#
# Convention : Reuss Voigt Hill
#
# Bulk Modulus (GPa) = 47.90149 55.10191 51.50170
# Shear Modulus (GPa) = 32.25485 39.19830 35.72657
#
# Velocity S-wave (km/s) = 3.74476 4.12820 3.94115
# Velocity P-wave (km/s) = 6.28677 6.83220 6.56516
#
# Compressibility (1/GPa) = 0.02087618
#
# Stress axis : x y z
#
# Youngs Moduli (GPa) = 78.50324 106.52953 107.21485
#
# Poissons Ratio (x) = 0.11809 0.24106
# Poissons Ratio (y) = 0.08702 0.20706
# Poissons Ratio (z) = 0.17651 0.20574
#
# Static dielectric constant tensor:
#      x y z
#    x 1.800510 -0.003560 -0.009280 
#    y -0.003560 1.819560 -0.017260 
#    z -0.009280 -0.017260 1.937090 
# 
# From -- ./inp_files/340137.got.cif
#   From: 2010.05.17/outbox.cif.g08.bks.cpg/sg2_171_cif.got.tgz:340137.got - 2010.06.03 11:33:40.
