data_PCOD9010537
_publ_section_title
;
Structure prediction by ZEFSAII (Michael W. Deem and Ramdas Pophale) SiO2 
 PCOD9010537
Probable space group: P -1
;
_chemical_formula_sum "Si O2"
_cell_formula_units_Z 16
_cell_length_a 11.087062
_cell_length_b 5.551646
_cell_length_c 21.115915
_cell_angle_alpha 93.472130
_cell_angle_beta 149.775982
_cell_angle_gamma 92.332344
_cell_volume 641.762331
_symmetry_space_group_name_H-M "P -1"
_symmetry_group_IT_number 2
_symmetry_cell_setting 'triclinic'
loop_
_space_group_symop_operation_xyz
x,y,z
-x,-y,-z
loop_
_atom_site_type_symbol
_atom_site_label
_atom_site_fract_x
_atom_site_fract_y
_atom_site_fract_z
Si Si1 0.308699 0.178358 0.930042
Si Si2 0.498887 0.477692 0.863991
Si Si3 0.145977 0.278813 0.074625
Si Si4 0.842032 0.587891 0.693309
Si Si5 0.967232 0.032665 0.318225
Si Si6 0.371382 0.749992 0.511620
Si Si7 0.028072 0.547379 0.588556
Si Si8 0.915407 0.232884 0.088365
O O1 0.181465 0.172635 0.801622
O O2 0.125085 0.018606 0.895108
O O3 0.464681 0.390738 0.048688
O O4 0.500000 0.000000 0.000000
O O5 0.635357 0.664137 0.874443
O O6 0.228107 0.407529 0.710628
O O7 0.664288 0.265667 0.940860
O O8 0.154736 0.286833 0.154216
O O9 0.000000 0.500000 0.000000
O O10 0.000000 0.000000 0.000000
O O11 0.655094 0.749147 0.639465
O O12 0.695209 0.347609 0.591612
O O13 0.988733 0.739558 0.706602
O O14 0.030241 0.549155 0.831626
O O15 0.883584 0.168001 0.344602
O O16 0.230814 0.974513 0.455565
O O17 0.230555 0.563490 0.497323
O O18 0.000000 0.500000 0.500000
#
# Coordination Sequence:
#
# PCOD9010537 Si02
#       8
#     2   2   2   2   2   2   2   2
#     4  11  21  36  62  94 125 158 201 267 326 400
#     4  11  23  40  63  90 130 167 212 274 327 399
#     4  10  21  41  65  95 131 173 222 275 340 403
#     4   9  20  39  63  94 122 156 207 270 322 390
#     4  10  21  40  63  94 119 160 212 263 328 390
#     4  10  21  40  64  85 125 165 209 261 318 387
#     4  11  26  42  58  88 127 172 218 256 316 395
#     4  10  22  38  63  94 122 162 212 270 339 383
#
# _framework density 24.931348
#
# number of rings (size 3 to 8) (size 9 to 14) (size 15 to 20)
#    0.000    1.750    2.500    1.125    3.500    1.000 
#    0.000    2.500    0.000    0.000    0.000    0.000 
#    0.000    0.000    0.000    0.000    0.000    0.000 
#
# Total GULP energy -89084.637494 kJ/mol
# GULP energy per Si atom -5567.789843 kJ/mol
# Density = 2.487460 g / cm^3
# Si number density = 24.931348 Si / 1000 Ang^3
#
#
#
# Elastic Constant Matrix: (Units=GPa)
#
#
# Indices 1 2 3 4 5 6 
#
# 1 117.1452 14.7030 46.0024 11.3396 -23.2658 -6.2960
# 2 14.7030 80.3925 22.2005 2.5986 -10.2465 -5.6930
# 3 46.0024 22.2005 135.6456 -0.2029 -18.6153 -10.7191
# 4 11.3396 2.5986 -0.2029 34.2458 -4.1213 3.4871
# 5 -23.2658 -10.2465 -18.6153 -4.1213 53.3577 2.6838
# 6 -6.2960 -5.6930 -10.7191 3.4871 2.6838 38.2194
#
#
#
# Elastic Compliance Matrix: (Units=1/GPa)
#
#
# Indices 1 2 3 4 5 6 
#
# 1 0.010819 -0.000548 -0.003067 -0.003261 0.003244 0.000910
# 2 -0.000548 0.013328 -0.001666 -0.000787 0.001608 0.001387
# 3 -0.003067 -0.001666 0.009016 0.001218 0.001504 0.001559
# 4 -0.003261 -0.000787 0.001218 0.030844 0.001396 -0.003225
# 5 0.003244 0.001608 0.001504 0.001396 0.021118 -0.000415
# 6 0.000910 0.001387 0.001559 -0.003225 -0.000415 0.027282
#
#
# Mechanical properties :
#
#
# Convention : Reuss Voigt Hill
#
# Bulk Modulus (GPa) = 44.24798 55.44390 49.84594
# Shear Modulus (GPa) = 38.31326 41.84974 40.08150
#
# Velocity S-wave (km/s) = 3.92439 4.10152 4.01393
# Velocity P-wave (km/s) = 6.19039 6.68706 6.44351
#
# Compressibility (1/GPa) = 0.02259990
#
# Stress axis : x y z
#
# Youngs Moduli (GPa) = 92.43402 75.02980 110.90940
#
# Poissons Ratio (x) = 0.04114 0.34015
# Poissons Ratio (y) = 0.05068 0.18480
# Poissons Ratio (z) = 0.28349 0.12502
#
# Static dielectric constant tensor:
#      x y z
#    x 2.147200 -0.056010 -0.040740 
#    y -0.056010 2.088180 0.086130 
#    z -0.040740 0.086130 2.060670 
# 
# From -- ./inp_files/583089.got.cif
#   From: 2010.05.17/outbox.cif.g08.bks.cpg/sg2_292_cif.got.tgz:583089.got - 2010.06.03 11:33:40.
