data_PCOD9010320
_publ_section_title
;
Structure prediction by ZEFSAII (Michael W. Deem and Ramdas Pophale) SiO2 
 PCOD9010320
Probable space group: P -1
;
_chemical_formula_sum "Si O2"
_cell_formula_units_Z 16
_cell_length_a 14.420072
_cell_length_b 5.212729
_cell_length_c 22.588230
_cell_angle_alpha 102.657074
_cell_angle_beta 24.197267
_cell_angle_gamma 104.689116
_cell_volume 672.874900
_symmetry_space_group_name_H-M "P -1"
_symmetry_group_IT_number 2
_symmetry_cell_setting 'triclinic'
loop_
_space_group_symop_operation_xyz
x,y,z
-x,-y,-z
loop_
_atom_site_type_symbol
_atom_site_label
_atom_site_fract_x
_atom_site_fract_y
_atom_site_fract_z
Si Si1 0.202644 0.872535 0.403325
Si Si2 0.281551 0.133722 0.154374
Si Si3 0.992849 0.773864 0.152937
Si Si4 0.579079 0.487419 0.807464
Si Si5 0.224625 0.949214 0.532532
Si Si6 0.523505 0.499570 0.367338
Si Si7 0.648503 0.298757 0.155541
Si Si8 0.817280 0.651289 0.894207
O O1 0.202121 0.613519 0.351089
O O2 0.192077 0.858197 0.478782
O O3 0.447255 0.052487 0.258916
O O4 0.000000 0.000000 0.500000
O O5 0.349421 0.246414 0.184938
O O6 0.234970 0.364097 0.145862
O O7 0.024181 0.983923 0.299757
O O8 0.500000 0.000000 0.000000
O O9 0.735821 0.636395 0.288284
O O10 0.110244 0.598081 0.124540
O O11 0.016420 0.078929 0.175213
O O12 0.120778 0.771574 0.013747
O O13 0.427997 0.501966 0.838181
O O14 0.425586 0.305172 0.933710
O O15 0.401678 0.217448 0.447228
O O16 0.337030 0.705454 0.483104
O O17 0.631405 0.429765 0.236671
#
# Coordination Sequence:
#
# PCOD9010320 Si02
#       8
#     2   2   2   2   2   2   2   2
#     4  11  23  39  67 105 149 184 220 286 367 432
#     4  12  28  48  72 101 142 196 240 288 348 422
#     4  11  23  45  73  99 140 187 239 294 352 404
#     4  11  23  42  71 102 143 182 228 286 358 424
#     4  11  27  46  69 106 148 176 240 291 354 432
#     4  11  24  45  72 105 139 186 230 298 364 413
#     4  10  21  40  63 106 145 176 228 283 349 440
#     4  11  25  45  67 104 137 183 248 292 328 419
#
# _framework density 23.778566000000001
#
# number of rings (size 3 to 8) (size 9 to 14) (size 15 to 20)
#    0.000    1.000    2.500    3.750    5.250    3.000 
#    0.000    7.500    0.000    0.000    0.000    0.000 
#    0.000    0.000    0.000    0.000    0.000    0.000 
#
# Total GULP energy -89382.332144 kJ/mol
# GULP energy per Si atom -5586.395759 kJ/mol
# Density = 2.372445 g / cm^3
# Si number density = 23.778566 Si / 1000 Ang^3
#
#
#
# Elastic Constant Matrix: (Units=GPa)
#
#
# Indices 1 2 3 4 5 6 
#
# 1 38.5161 3.1109 13.0186 -7.0189 -6.5148 2.4771
# 2 3.1109 82.8011 13.7909 -4.5309 -3.5280 14.4257
# 3 13.0186 13.7909 106.0685 -1.6413 -10.0903 15.6677
# 4 -7.0189 -4.5309 -1.6413 46.5029 3.5041 -2.1255
# 5 -6.5148 -3.5280 -10.0903 3.5041 29.5822 -7.1999
# 6 2.4771 14.4257 15.6677 -2.1255 -7.1999 35.5348
#
#
#
# Elastic Compliance Matrix: (Units=1/GPa)
#
#
# Indices 1 2 3 4 5 6 
#
# 1 0.028497 -0.000265 -0.003037 0.003829 0.004922 0.000687
# 2 -0.000265 0.013142 -0.000954 0.000993 -0.000117 -0.004860
# 3 -0.003037 -0.000954 0.010658 -0.000496 0.002005 -0.003724
# 4 0.003829 0.000993 -0.000496 0.022315 -0.001721 0.000535
# 5 0.004922 -0.000117 0.002005 -0.001721 0.037289 0.006273
# 6 0.000687 -0.004860 -0.003724 0.000535 0.006273 0.033011
#
#
# Mechanical properties :
#
#
# Convention : Reuss Voigt Hill
#
# Bulk Modulus (GPa) = 22.83918 31.91405 27.37662
# Shear Modulus (GPa) = 29.75841 35.48835 32.62338
#
# Velocity S-wave (km/s) = 3.54146 3.86742 3.70802
# Velocity P-wave (km/s) = 5.13307 5.77867 5.46541
#
# Compressibility (1/GPa) = 0.04378441
#
# Stress axis : x y z
#
# Youngs Moduli (GPa) = 35.09118 76.09108 93.82821
#
# Poissons Ratio (x) = 0.02018 0.28497
# Poissons Ratio (y) = 0.00931 0.08951
# Poissons Ratio (z) = 0.10658 0.07259
#
# Static dielectric constant tensor:
#      x y z
#    x 1.801200 0.049550 -0.014920 
#    y 0.049550 1.833550 0.045330 
#    z -0.014920 0.045330 1.897890 
# 
# From -- ./inp_files/95178.got.cif
#   From: 2010.05.17/outbox.cif.g08.bks.cpg/sg2_48_cif.got.tgz:95178.got - 2010.06.03 11:33:40.
