data_PCOD9010622
_publ_section_title
;
Structure prediction by ZEFSAII (Michael W. Deem and Ramdas Pophale) SiO2 
 PCOD9010622
Probable space group: P -1
;
_chemical_formula_sum "Si O2"
_cell_formula_units_Z 12
_cell_length_a 13.066680
_cell_length_b 12.894368
_cell_length_c 5.287414
_cell_angle_alpha 93.725160
_cell_angle_beta 81.447132
_cell_angle_gamma 148.114702
_cell_volume 462.119857
_symmetry_space_group_name_H-M "P -1"
_symmetry_group_IT_number 2
_symmetry_cell_setting 'triclinic'
loop_
_space_group_symop_operation_xyz
x,y,z
-x,-y,-z
loop_
_atom_site_type_symbol
_atom_site_label
_atom_site_fract_x
_atom_site_fract_y
_atom_site_fract_z
Si Si1 0.101454 0.316086 0.535020
Si Si2 0.830695 0.812507 0.850880
Si Si3 0.193371 0.804198 0.136791
Si Si4 0.456067 0.553803 0.724098
Si Si5 0.387808 0.813255 0.734276
Si Si6 0.814985 0.418198 0.737117
O O1 0.080687 0.183772 0.404790
O O2 0.321847 0.512995 0.596801
O O3 0.077559 0.383852 0.339880
O O4 0.948763 0.220104 0.791641
O O5 0.670296 0.759130 0.796699
O O6 0.690005 0.614583 0.033123
O O7 0.000000 0.000000 0.000000
O O8 0.078492 0.601880 0.248498
O O9 0.380411 0.983650 0.273827
O O10 0.290210 0.841777 0.852070
O O11 0.500000 0.500000 0.500000
O O12 0.327536 0.728768 0.466661
O O13 0.306081 0.672998 0.973435
#
# Coordination Sequence:
#
# PCOD9010622 Si02
#       6
#     2   2   2   2   2   2
#     4  11  23  40  65 106 131 183 236 284 350 427
#     4  10  23  48  71  97 136 180 229 299 363 421
#     4   9  21  39  62  97 141 185 233 280 337 416
#     4   9  22  45  69  94 137 170 232 295 364 414
#     4   9  21  40  64  90 149 189 229 284 340 398
#     4  10  21  40  63  97 143 188 224 289 340 406
#
# _framework density 25.967286999999999
#
# number of rings (size 3 to 8) (size 9 to 14) (size 15 to 20)
#    1.000    1.333    0.000    1.000    2.333    4.667 
#   12.000    0.000    0.000    0.000    0.000    0.000 
#    0.000    0.000    0.000    0.000    0.000    0.000 
#
# Total GULP energy -67043.561144 kJ/mol
# GULP energy per Si atom -5586.963429 kJ/mol
# Density = 2.590818 g / cm^3
# Si number density = 25.967287 Si / 1000 Ang^3
#
#
#
# Elastic Constant Matrix: (Units=GPa)
#
#
# Indices 1 2 3 4 5 6 
#
# 1 112.5153 52.7692 28.7981 8.2838 -23.5708 32.8224
# 2 52.7692 143.2786 44.4530 38.0506 -9.5254 35.1340
# 3 28.7981 44.4530 133.5955 32.6526 -14.2257 15.0144
# 4 8.2838 38.0506 32.6526 57.3075 -2.4402 6.9320
# 5 -23.5708 -9.5254 -14.2257 -2.4402 44.0552 -7.7159
# 6 32.8224 35.1340 15.0144 6.9320 -7.7159 42.4297
#
#
#
# Elastic Compliance Matrix: (Units=1/GPa)
#
#
# Indices 1 2 3 4 5 6 
#
# 1 0.013569 -0.003110 -0.000985 0.001721 0.005153 -0.006917
# 2 -0.003110 0.011390 -0.001145 -0.005793 -0.000915 -0.005840
# 3 -0.000985 -0.001145 0.009398 -0.004303 0.001923 -0.000564
# 4 0.001721 -0.005793 -0.004303 0.023352 -0.000230 0.001132
# 5 0.005153 -0.000915 0.001923 -0.000230 0.026017 0.000859
# 6 -0.006917 -0.005840 -0.000564 0.001132 0.000859 0.033926
#
#
# Mechanical properties :
#
#
# Convention : Reuss Voigt Hill
#
# Bulk Modulus (GPa) = 41.87914 71.27000 56.57457
# Shear Modulus (GPa) = 36.74036 46.31642 41.52839
#
# Velocity S-wave (km/s) = 3.76556 4.22790 4.00341
# Velocity P-wave (km/s) = 5.92187 7.16514 6.57297
#
# Compressibility (1/GPa) = 0.02387824
#
# Stress axis : x y z
#
# Youngs Moduli (GPa) = 73.69778 87.79750 106.40463
#
# Poissons Ratio (x) = 0.27308 0.10476
# Poissons Ratio (y) = 0.22922 0.12178
# Poissons Ratio (z) = 0.07256 0.10048
#
# Static dielectric constant tensor:
#      x y z
#    x 2.125570 -0.028120 0.066980 
#    y -0.028120 2.056230 -0.047260 
#    z 0.066980 -0.047260 2.107870 
# 
# From -- ./inp_files/74723.got.cif
#   From: 2010.05.17/outbox.cif.g08.bks.cpg/sg2_38_cif.got.tgz:74723.got - 2010.06.03 11:33:40.
