data_PCOD9010608
_publ_section_title
;
Structure prediction by ZEFSAII (Michael W. Deem and Ramdas Pophale) SiO2 
 PCOD9010608
Probable space group: P -1
;
_chemical_formula_sum "Si O2"
_cell_formula_units_Z 12
_cell_length_a 8.068853
_cell_length_b 16.643460
_cell_length_c 10.063991
_cell_angle_alpha 144.564700
_cell_angle_beta 73.054427
_cell_angle_gamma 129.151142
_cell_volume 527.687478
_symmetry_space_group_name_H-M "P -1"
_symmetry_group_IT_number 2
_symmetry_cell_setting 'triclinic'
loop_
_space_group_symop_operation_xyz
x,y,z
-x,-y,-z
loop_
_atom_site_type_symbol
_atom_site_label
_atom_site_fract_x
_atom_site_fract_y
_atom_site_fract_z
Si Si1 0.765745 0.312216 0.222291
Si Si2 0.041688 0.467351 0.100086
Si Si3 0.897898 0.062469 0.265630
Si Si4 0.126623 0.928942 0.414776
Si Si5 0.534017 0.098246 0.336116
Si Si6 0.355456 0.295261 0.325229
O O1 0.823179 0.373289 0.133626
O O2 0.545637 0.280712 0.287570
O O3 0.000000 0.500000 0.500000
O O4 0.680425 0.102194 0.971687
O O5 0.286859 0.666437 0.381821
O O6 0.046925 0.304042 0.872642
O O7 0.000000 0.500000 0.000000
O O8 0.815276 0.022500 0.380400
O O9 0.742619 0.097535 0.284297
O O10 0.187442 0.245566 0.420146
O O11 0.828948 0.874880 0.969207
O O12 0.372352 0.034624 0.419260
O O13 0.000000 0.000000 0.500000
O O14 0.500000 0.500000 0.500000
#
# Coordination Sequence:
#
# PCOD9010608 Si02
#       6
#     2   2   2   2   2   2
#     4  10  24  42  64 101 138 176 221 284 347 397
#     4  11  23  41  74 100 127 183 235 267 339 416
#     4  10  21  40  63  97 129 174 226 268 337 401
#     4  11  25  40  64 103 140 171 220 289 341 397
#     4  10  22  42  71  93 133 179 229 276 330 414
#     4  10  22  37  65  94 130 173 222 279 324 405
#
# _framework density 22.740732000000001
#
# number of rings (size 3 to 8) (size 9 to 14) (size 15 to 20)
#    0.000    1.667    1.667    1.500    4.667    5.333 
#    0.000    0.000    0.000    0.000    0.000    0.000 
#    0.000    0.000    0.000    0.000    0.000    0.000 
#
# Total GULP energy -66856.013543 kJ/mol
# GULP energy per Si atom -5571.334462 kJ/mol
# Density = 2.268897 g / cm^3
# Si number density = 22.740732 Si / 1000 Ang^3
#
#
#
# Elastic Constant Matrix: (Units=GPa)
#
#
# Indices 1 2 3 4 5 6 
#
# 1 51.0018 31.3343 34.5686 0.7656 -10.1071 8.8784
# 2 31.3343 138.9987 33.2910 0.0807 -2.3727 22.2735
# 3 34.5686 33.2910 134.7780 24.4077 -15.4584 -11.1562
# 4 0.7656 0.0807 24.4077 41.3652 -2.7930 -3.1757
# 5 -10.1071 -2.3727 -15.4584 -2.7930 34.6551 2.7411
# 6 8.8784 22.2735 -11.1562 -3.1757 2.7411 33.3373
#
#
#
# Elastic Compliance Matrix: (Units=1/GPa)
#
#
# Indices 1 2 3 4 5 6 
#
# 1 0.029169 -0.003450 -0.007251 0.003530 0.005957 -0.008043
# 2 -0.003450 0.009437 -0.002180 0.000820 -0.000794 -0.005973
# 3 -0.007251 -0.002180 0.011693 -0.006126 0.001939 0.006557
# 4 0.003530 0.000820 -0.006126 0.027694 0.000660 -0.000954
# 5 0.005957 -0.000794 0.001939 0.000660 0.031690 -0.002950
# 6 -0.008043 -0.005973 0.006557 -0.000954 -0.002950 0.038475
#
#
# Mechanical properties :
#
#
# Convention : Reuss Voigt Hill
#
# Bulk Modulus (GPa) = 40.75587 58.12957 49.44272
# Shear Modulus (GPa) = 27.45738 36.91050 32.18394
#
# Velocity S-wave (km/s) = 3.47855 4.03314 3.76607
# Velocity P-wave (km/s) = 5.83906 6.87791 6.37967
#
# Compressibility (1/GPa) = 0.02453634
#
# Stress axis : x y z
#
# Youngs Moduli (GPa) = 34.28243 105.96277 85.52479
#
# Poissons Ratio (x) = 0.36562 0.62014
# Poissons Ratio (y) = 0.11829 0.18644
# Poissons Ratio (z) = 0.24858 0.23099
#
# Static dielectric constant tensor:
#      x y z
#    x 1.677640 -0.055850 0.035840 
#    y -0.055850 1.891030 0.005710 
#    z 0.035840 0.005710 1.897800 
# 
# From -- ./inp_files/231968.got.cif
#   From: 2010.05.17/outbox.cif.g08.bks.cpg/sg2_116_cif.got.tgz:231968.got - 2010.06.03 11:33:40.
