data_PCOD9010700
_publ_section_title
;
Structure prediction by ZEFSAII (Michael W. Deem and Ramdas Pophale) SiO2 
 PCOD9010700
Probable space group: P -1
;
_chemical_formula_sum "Si O2"
_cell_formula_units_Z 14
_cell_length_a 14.854923
_cell_length_b 11.799071
_cell_length_c 12.478722
_cell_angle_alpha 36.909995
_cell_angle_beta 45.026765
_cell_angle_gamma 27.219939
_cell_volume 600.752524
_symmetry_space_group_name_H-M "P -1"
_symmetry_group_IT_number 2
_symmetry_cell_setting 'triclinic'
loop_
_space_group_symop_operation_xyz
x,y,z
-x,-y,-z
loop_
_atom_site_type_symbol
_atom_site_label
_atom_site_fract_x
_atom_site_fract_y
_atom_site_fract_z
Si Si1 0.890386 0.166171 0.719235
Si Si2 0.057593 0.395494 0.153251
Si Si3 0.438719 0.374710 0.503907
Si Si4 0.975825 0.813237 0.204616
Si Si5 0.216651 0.813415 0.543759
Si Si6 0.670982 0.728433 0.822273
Si Si7 0.267474 0.028809 0.888034
O O1 0.688113 0.472827 0.610869
O O2 0.999689 0.190466 0.686711
O O3 0.034088 0.957566 0.658654
O O4 0.832214 0.041099 0.922345
O O5 0.217535 0.366124 0.087133
O O6 0.861491 0.652999 0.195505
O O7 0.154000 0.081440 0.334841
O O8 0.000000 0.500000 0.000000
O O9 0.291950 0.576532 0.574534
O O10 0.601829 0.351225 0.404436
O O11 0.557654 0.049254 0.653812
O O12 0.160254 0.497129 0.236302
O O13 0.781372 0.940596 0.220189
O O14 0.000000 0.000000 0.000000
O O15 0.494879 0.778511 0.919395
#
# Coordination Sequence:
#
# PCOD9010700 Si02
#       7
#     2   2   2   2   2   2   2
#     4  11  22  38  64  90 120 164 203 250 306 356
#     4  10  21  40  64  89 120 162 206 247 299 362
#     4  10  22  39  61  89 122 160 199 248 309 363
#     4   9  22  41  61  88 120 162 208 248 300 358
#     4  10  22  41  61  89 126 158 201 253 301 364
#     4  10  22  41  62  90 124 156 203 255 298 362
#     4  10  22  39  61  91 123 159 204 253 303 354
#
# _framework density 23.304103999999999
#
# number of rings (size 3 to 8) (size 9 to 14) (size 15 to 20)
#    0.000    2.000    0.000    2.143    0.000    9.143 
#    0.000   11.429    0.000    0.000    0.000    0.000 
#    0.000    0.000    0.000    0.000    0.000    0.000 
#
# Total GULP energy -78271.541619 kJ/mol
# GULP energy per Si atom -5590.824401 kJ/mol
# Density = 2.325106 g / cm^3
# Si number density = 23.304104 Si / 1000 Ang^3
#
#
#
# Elastic Constant Matrix: (Units=GPa)
#
#
# Indices 1 2 3 4 5 6 
#
# 1 144.3028 33.1299 25.4836 -6.6201 12.6884 -19.4646
# 2 33.1299 77.2844 16.4339 -11.5930 8.1606 -7.9732
# 3 25.4836 16.4339 50.4249 -20.9464 7.7626 1.7995
# 4 -6.6201 -11.5930 -20.9464 19.9936 -18.1356 -5.2955
# 5 12.6884 8.1606 7.7626 -18.1356 23.1652 -6.6842
# 6 -19.4646 -7.9732 1.7995 -5.2955 -6.6842 42.5608
#
#
#
# Elastic Compliance Matrix: (Units=1/GPa)
#
#
# Indices 1 2 3 4 5 6 
#
# 1 0.006420 -0.000368 0.008716 0.040116 0.028553 0.011974
# 2 -0.000368 0.013202 -0.014468 -0.036624 -0.030112 -0.006369
# 3 0.008716 -0.014468 -0.040632 -0.212289 -0.166565 -0.049579
# 4 0.040116 -0.036624 -0.212289 -0.699916 -0.529086 -0.149718
# 5 0.028553 -0.030112 -0.166565 -0.529086 -0.350989 -0.106493
# 6 0.011974 -0.006369 -0.049579 -0.149718 -0.106493 -0.005478
#
#
# Mechanical properties :
#
#
# Convention : Reuss Voigt Hill
#
# Bulk Modulus (GPa) = -30.07715 46.90079 8.41182
# Shear Modulus (GPa) = -4.64581 30.27489 12.81454
#
# Velocity S-wave (km/s) = -1.41347 3.60824 2.34750
# Velocity P-wave (km/s) = 3.94946 6.12605 3.31136
#
# Compressibility (1/GPa) = -0.03324783
#
# Stress axis : x y z
#
# Youngs Moduli (GPa) = 155.76697 75.74668 -24.61131
#
# Poissons Ratio (x) = 0.02785 0.21452
# Poissons Ratio (y) = 0.05727 -0.35607
# Poissons Ratio (z) = -1.35773 1.09588
#
# Static dielectric constant tensor:
#      x y z
#    x 1.987800 -0.037540 -0.017090 
#    y -0.037540 1.843310 0.008780 
#    z -0.017090 0.008780 1.918380 
# 
# From -- ./inp_files/450969.got.cif
#   From: 2010.05.17/outbox.cif.g08.bks.cpg/sg2_226_cif.got.tgz:450969.got - 2010.06.03 11:33:40.
