data_PCOD9010061
_publ_section_title
;
Structure prediction by ZEFSAII (Michael W. Deem and Ramdas Pophale) SiO2 
 PCOD9010061
Probable space group: P -1
;
_chemical_formula_sum "Si O2"
_cell_formula_units_Z 16
_cell_length_a 15.123260
_cell_length_b 18.216401
_cell_length_c 5.104003
_cell_angle_alpha 89.518211
_cell_angle_beta 98.873268
_cell_angle_gamma 149.157884
_cell_volume 690.567472
_symmetry_space_group_name_H-M "P -1"
_symmetry_group_IT_number 2
_symmetry_cell_setting 'triclinic'
loop_
_space_group_symop_operation_xyz
x,y,z
-x,-y,-z
loop_
_atom_site_type_symbol
_atom_site_label
_atom_site_fract_x
_atom_site_fract_y
_atom_site_fract_z
Si Si1 0.442062 0.147459 0.071407
Si Si2 0.958120 0.872271 0.200840
Si Si3 0.644677 0.536801 0.078648
Si Si4 0.845601 0.183518 0.111938
Si Si5 0.257427 0.480101 0.374363
Si Si6 0.714288 0.170956 0.553693
Si Si7 0.825916 0.935785 0.219466
Si Si8 0.662486 0.295189 0.667479
O O1 0.606174 0.249485 0.946222
O O2 0.284948 0.978981 0.935075
O O3 0.363266 0.170057 0.962934
O O4 0.492145 0.175058 0.395289
O O5 0.838436 0.715530 0.166943
O O6 0.120729 0.992249 0.479008
O O7 0.838471 0.857201 0.232599
O O8 0.029994 0.936528 0.939101
O O9 0.644462 0.484328 0.331639
O O10 0.500000 0.500000 0.000000
O O11 0.641428 0.483389 0.825600
O O12 0.768757 0.186604 0.287249
O O13 0.048614 0.308336 0.272051
O O14 0.826065 0.203146 0.812939
O O15 0.251452 0.564378 0.352428
O O16 0.755264 0.285321 0.627889
O O17 0.500000 0.000000 0.500000
#
# Coordination Sequence:
#
# PCOD9010061 Si02
#       8
#     2   2   2   2   2   2   2   2
#     4  12  22  41  67  99 129 185 218 284 338 395
#     4  10  21  40  61  95 124 171 214 289 325 401
#     4  12  26  47  71  93 140 187 229 276 336 412
#     4  12  24  43  77  98 142 182 223 287 333 423
#     4  12  29  48  67 106 137 183 235 275 352 405
#     4  12  23  45  70 111 133 176 233 277 352 403
#     4  10  22  37  64  95 131 158 227 276 342 384
#     4  12  27  42  69  99 142 172 228 289 327 415
#
# _framework density 23.169352
#
# number of rings (size 3 to 8) (size 9 to 14) (size 15 to 20)
#    0.000    0.500    2.500    6.000    3.500    1.000 
#    0.000    0.000    0.000    0.000    0.000    0.000 
#    0.000    0.000    0.000    0.000    0.000    0.000 
#
# Total GULP energy -89605.477731 kJ/mol
# GULP energy per Si atom -5600.342358 kJ/mol
# Density = 2.311662 g / cm^3
# Si number density = 23.169352 Si / 1000 Ang^3
#
#
#
# Elastic Constant Matrix: (Units=GPa)
#
#
# Indices 1 2 3 4 5 6 
#
# 1 38.4310 7.4053 9.7470 -1.4890 3.4954 -8.9330
# 2 7.4053 69.5286 12.3383 -3.1727 -10.3564 -26.3446
# 3 9.7470 12.3383 91.2371 -14.5704 4.1552 -9.7365
# 4 -1.4890 -3.1727 -14.5704 21.0987 -1.1154 3.3478
# 5 3.4954 -10.3564 4.1552 -1.1154 40.0473 -0.0285
# 6 -8.9330 -26.3446 -9.7365 3.3478 -0.0285 38.2567
#
#
#
# Elastic Compliance Matrix: (Units=1/GPa)
#
#
# Indices 1 2 3 4 5 6 
#
# 1 0.028247 -0.000950 -0.002316 -0.000740 -0.002488 0.005415
# 2 -0.000950 0.020784 -0.001477 0.000161 0.005625 0.013705
# 3 -0.002316 -0.001477 0.012897 0.008295 -0.001286 0.000998
# 4 -0.000740 0.000161 0.008295 0.053554 0.000735 -0.002637
# 5 -0.002488 0.005625 -0.001286 0.000735 0.026798 0.002921
# 6 0.005415 0.013705 0.000998 -0.002637 0.002921 0.037328
#
#
# Mechanical properties :
#
#
# Convention : Reuss Voigt Hill
#
# Bulk Modulus (GPa) = 19.06872 28.68642 23.87757
# Shear Modulus (GPa) = 24.20415 31.19428 27.69922
#
# Velocity S-wave (km/s) = 3.23563 3.67326 3.46137
# Velocity P-wave (km/s) = 4.71244 5.51348 5.12862
#
# Compressibility (1/GPa) = 0.05244191
#
# Stress axis : x y z
#
# Youngs Moduli (GPa) = 35.40145 48.11418 77.53519
#
# Poissons Ratio (x) = 0.04571 0.17959
# Poissons Ratio (y) = 0.03363 0.11453
# Poissons Ratio (z) = 0.08200 0.07107
#
# Static dielectric constant tensor:
#      x y z
#    x 1.889490 -0.007060 0.011200 
#    y -0.007060 1.870810 0.005470 
#    z 0.011200 0.005470 1.829910 
# 
# From -- ./inp_files/99780.got.cif
#   From: 2010.05.17/outbox.cif.g08.bks.cpg/sg2_50_cif.got.tgz:99780.got - 2010.06.03 11:33:40.
