data_PCOD9010923
_publ_section_title
;
Structure prediction by ZEFSAII (Michael W. Deem and Ramdas Pophale) SiO2 
 PCOD9010923
Probable space group: P -1
;
_chemical_formula_sum "Si O2"
_cell_formula_units_Z 14
_cell_length_a 9.280960
_cell_length_b 10.899771
_cell_length_c 11.188742
_cell_angle_alpha 38.966444
_cell_angle_beta 114.191269
_cell_angle_gamma 88.965224
_cell_volume 525.691721
_symmetry_space_group_name_H-M "P -1"
_symmetry_group_IT_number 2
_symmetry_cell_setting 'triclinic'
loop_
_space_group_symop_operation_xyz
x,y,z
-x,-y,-z
loop_
_atom_site_type_symbol
_atom_site_label
_atom_site_fract_x
_atom_site_fract_y
_atom_site_fract_z
Si Si1 0.770232 0.986932 0.173602
Si Si2 0.647700 0.830246 0.024353
Si Si3 0.437850 0.279224 0.272478
Si Si4 0.865285 0.384187 0.276158
Si Si5 0.730526 0.345810 0.694396
Si Si6 0.768042 0.069366 0.698697
Si Si7 0.893638 0.466685 0.837177
O O1 0.732658 0.848813 0.163739
O O2 0.963627 0.867099 0.412117
O O3 0.567033 0.109396 0.084471
O O4 0.776603 0.172402 0.952297
O O5 0.799636 0.566775 0.225101
O O6 0.650455 0.007332 0.796019
O O7 0.633581 0.241738 0.415195
O O8 0.281117 0.421304 0.216339
O O9 0.500000 0.000000 0.500000
O O10 0.335461 0.458106 0.989897
O O11 0.007379 0.396453 0.222793
O O12 0.500000 0.500000 0.500000
O O13 0.817365 0.205123 0.706462
O O14 0.807382 0.497185 0.650778
O O15 0.927104 0.813202 0.888860
#
# Coordination Sequence:
#
# PCOD9010923 Si02
#       7
#     2   2   2   2   2   2   2
#     4  10  22  38  59  88 125 162 202 256 309 364
#     4   9  19  37  60  88 123 157 209 256 304 354
#     4  12  22  38  63  96 128 158 211 259 301 364
#     4  11  23  36  64  93 122 162 207 254 306 363
#     4  11  23  43  65  92 129 162 205 257 316 369
#     4  10  21  40  64  96 123 163 209 257 305 367
#     4  11  23  39  66  95 123 166 206 256 312 364
#
# _framework density 26.631577
#
# number of rings (size 3 to 8) (size 9 to 14) (size 15 to 20)
#    0.000    1.429    4.286    2.143    4.000    0.000 
#    2.571    0.714    0.000    1.714    0.000    0.000 
#    0.000    0.000    0.000    0.000    0.000    0.000 
#
# Total GULP energy -78182.329363 kJ/mol
# GULP energy per Si atom -5584.452097 kJ/mol
# Density = 2.657096 g / cm^3
# Si number density = 26.631577 Si / 1000 Ang^3
#
#
#
# Elastic Constant Matrix: (Units=GPa)
#
#
# Indices 1 2 3 4 5 6 
#
# 1 36.1280 12.8115 47.5323 2.9850 6.8678 -8.9599
# 2 12.8115 95.0866 39.2351 0.8712 5.3682 -21.3323
# 3 47.5323 39.2351 233.3041 37.8729 5.6070 -9.6645
# 4 2.9850 0.8712 37.8729 40.9944 -4.0366 21.8203
# 5 6.8678 5.3682 5.6070 -4.0366 48.9000 0.8946
# 6 -8.9599 -21.3323 -9.6645 21.8203 0.8946 34.4573
#
#
#
# Elastic Compliance Matrix: (Units=1/GPa)
#
#
# Indices 1 2 3 4 5 6 
#
# 1 0.041241 0.000122 -0.007590 -0.001810 -0.005267 0.009954
# 2 0.000122 0.013805 -0.000702 -0.006585 -0.002226 0.012609
# 3 -0.007590 -0.000702 0.007853 -0.010041 -0.000699 0.006171
# 4 -0.001810 -0.006585 -0.010041 0.058428 0.007767 -0.044565
# 5 -0.005267 -0.002226 -0.000699 0.007767 0.022310 -0.008442
# 6 0.009954 0.012609 0.006171 -0.044565 -0.008442 0.069587
#
#
# Mechanical properties :
#
#
# Convention : Reuss Voigt Hill
#
# Bulk Modulus (GPa) = 21.47768 62.63073 42.05421
# Shear Modulus (GPa) = 20.40130 42.53299 31.46715
#
# Velocity S-wave (km/s) = 2.77078 4.00069 3.44113
# Velocity P-wave (km/s) = 4.28001 6.70144 5.62262
#
# Compressibility (1/GPa) = 0.04655997
#
# Stress axis : x y z
#
# Youngs Moduli (GPa) = 24.24747 72.43985 127.33807
#
# Poissons Ratio (x) = -0.00886 0.96651
# Poissons Ratio (y) = -0.00296 0.08936
# Poissons Ratio (z) = 0.18404 0.05083
#
# Static dielectric constant tensor:
#      x y z
#    x 2.199320 0.104520 -0.048900 
#    y 0.104520 2.115360 0.065350 
#    z -0.048900 0.065350 2.173460 
# 
# From -- ./inp_files/427612.got.cif
#   From: 2010.05.17/outbox.cif.g08.bks.cpg/sg2_214_cif.got.tgz:427612.got - 2010.06.03 11:33:40.
