data_PCOD9010970
_publ_section_title
;
Structure prediction by ZEFSAII (Michael W. Deem and Ramdas Pophale) SiO2 
 PCOD9010970
Probable space group: P -1
;
_chemical_formula_sum "Si O2"
_cell_formula_units_Z 16
_cell_length_a 11.839447
_cell_length_b 12.643153
_cell_length_c 8.912124
_cell_angle_alpha 49.168403
_cell_angle_beta 126.466179
_cell_angle_gamma 135.357934
_cell_volume 688.026602
_symmetry_space_group_name_H-M "P -1"
_symmetry_group_IT_number 2
_symmetry_cell_setting 'triclinic'
loop_
_space_group_symop_operation_xyz
x,y,z
-x,-y,-z
loop_
_atom_site_type_symbol
_atom_site_label
_atom_site_fract_x
_atom_site_fract_y
_atom_site_fract_z
Si Si1 0.695359 0.879781 0.974395
Si Si2 0.673220 0.507410 0.635583
Si Si3 0.541803 0.860111 0.190232
Si Si4 0.874987 0.274573 0.703183
Si Si5 0.801457 0.096732 0.374488
Si Si6 0.389956 0.809840 0.640764
Si Si7 0.906957 0.743063 0.339456
Si Si8 0.020302 0.363006 0.061637
O O1 0.639252 0.856531 0.125432
O O2 0.814773 0.812929 0.109452
O O3 0.526914 0.777232 0.840851
O O4 0.789251 0.074960 0.835534
O O5 0.500000 0.500000 0.500000
O O6 0.620294 0.318129 0.755419
O O7 0.786163 0.615133 0.486797
O O8 0.790897 0.585534 0.802420
O O9 0.656683 0.917627 0.374418
O O10 0.500000 0.000000 0.000000
O O11 0.728942 0.289291 0.499560
O O12 0.015502 0.332358 0.635328
O O13 0.961247 0.350405 0.857521
O O14 0.720067 0.187413 0.310644
O O15 0.937303 0.109287 0.583574
O O16 0.897393 0.194027 0.210196
O O17 0.500000 0.000000 0.500000
O O18 0.000000 0.500000 0.000000
#
# Coordination Sequence:
#
# PCOD9010970 Si02
#       8
#     2   2   2   2   2   2   2   2
#     4  11  20  37  73 101 133 172 230 278 331 397
#     4  11  25  44  66 102 143 176 218 284 343 401
#     4  12  22  38  73 102 132 174 234 278 332 391
#     4  10  22  43  66  98 133 178 230 274 337 399
#     4  10  21  40  64  98 129 170 226 275 328 397
#     4   9  20  37  62  98 132 163 217 284 328 384
#     4  10  23  43  67  98 140 178 214 281 344 405
#     4  11  24  42  69  95 133 178 227 276 335 402
#
# _framework density 23.254916000000001
#
# number of rings (size 3 to 8) (size 9 to 14) (size 15 to 20)
#    0.000    1.500    3.750    1.125    0.000    1.500 
#    0.000    8.750    2.750    0.000    0.000    0.000 
#    0.000    0.000    0.000    0.000    0.000    0.000 
#
# Total GULP energy -89537.465286 kJ/mol
# GULP energy per Si atom -5596.091580 kJ/mol
# Density = 2.320199 g / cm^3
# Si number density = 23.254916 Si / 1000 Ang^3
#
#
#
# Elastic Constant Matrix: (Units=GPa)
#
#
# Indices 1 2 3 4 5 6 
#
# 1 64.0322 27.3922 42.6348 35.6911 -0.7251 17.8154
# 2 27.3922 131.5054 63.3286 36.1074 -2.2657 12.8159
# 3 42.6348 63.3286 129.8919 59.6338 8.2250 4.5983
# 4 35.6911 36.1074 59.6338 57.1556 1.8854 3.1905
# 5 -0.7251 -2.2657 8.2250 1.8854 46.4724 6.9288
# 6 17.8154 12.8159 4.5983 3.1905 6.9288 26.9496
#
#
#
# Elastic Compliance Matrix: (Units=1/GPa)
#
#
# Indices 1 2 3 4 5 6 
#
# 1 0.032313 0.001549 -0.003230 -0.016787 0.004938 -0.020828
# 2 0.001549 0.010783 -0.004316 -0.003036 0.002278 -0.005641
# 3 -0.003230 -0.004316 0.016905 -0.012992 -0.003275 0.003683
# 4 -0.016787 -0.003036 -0.012992 0.042937 -0.001347 0.010021
# 5 0.004938 0.002278 -0.003275 -0.001347 0.023794 -0.009747
# 6 -0.020828 -0.005641 0.003683 0.010021 -0.009747 0.054249
#
#
# Mechanical properties :
#
#
# Convention : Reuss Voigt Hill
#
# Bulk Modulus (GPa) = 20.83079 65.79343 43.31211
# Shear Modulus (GPa) = 23.92619 38.92045 31.42332
#
# Velocity S-wave (km/s) = 3.21107 4.09546 3.67993
# Velocity P-wave (km/s) = 4.76708 7.12161 6.05980
#
# Compressibility (1/GPa) = 0.04800586
#
# Stress axis : x y z
#
# Youngs Moduli (GPa) = 30.94750 92.74021 59.15521
#
# Poissons Ratio (x) = -0.14363 0.19105
# Poissons Ratio (y) = -0.04793 0.25533
# Poissons Ratio (z) = 0.09995 0.40029
#
# Static dielectric constant tensor:
#      x y z
#    x 1.878040 0.015050 0.017090 
#    y 0.015050 1.889980 -0.001290 
#    z 0.017090 -0.001290 1.910330 
# 
# From -- ./inp_files/271934.got.cif
#   From: 2010.05.17/outbox.cif.g08.bks.cpg/sg2_136_cif.got.tgz:271934.got - 2010.06.03 11:33:40.
