data_PCOD9010762
_publ_section_title
;
Structure prediction by ZEFSAII (Michael W. Deem and Ramdas Pophale) SiO2 
 PCOD9010762
Probable space group: P -1
;
_chemical_formula_sum "Si O2"
_cell_formula_units_Z 16
_cell_length_a 20.335355
_cell_length_b 8.742705
_cell_length_c 17.641004
_cell_angle_alpha 62.160781
_cell_angle_beta 20.244658
_cell_angle_gamma 52.578244
_cell_volume 798.883944
_symmetry_space_group_name_H-M "P -1"
_symmetry_group_IT_number 2
_symmetry_cell_setting 'triclinic'
loop_
_space_group_symop_operation_xyz
x,y,z
-x,-y,-z
loop_
_atom_site_type_symbol
_atom_site_label
_atom_site_fract_x
_atom_site_fract_y
_atom_site_fract_z
Si Si1 0.537446 0.878239 0.806202
Si Si2 0.752139 0.539127 0.258875
Si Si3 0.568118 0.052443 0.585670
Si Si4 0.973045 0.058530 0.103986
Si Si5 0.967397 0.333527 0.616104
Si Si6 0.764604 0.172743 0.748485
Si Si7 0.523958 0.456458 0.138474
Si Si8 0.500491 0.739162 0.643442
O O1 0.537759 0.690553 0.806640
O O2 0.778329 0.823577 0.590940
O O3 0.468325 0.043332 0.776215
O O4 0.365997 0.921561 0.049682
O O5 0.595465 0.722540 0.326900
O O6 0.822613 0.308504 0.215809
O O7 0.620988 0.627879 0.460268
O O8 0.000000 0.500000 0.000000
O O9 0.821789 0.999556 0.327877
O O10 0.594957 0.870910 0.544837
O O11 0.000000 0.000000 0.000000
O O12 0.232097 0.922451 0.884303
O O13 0.841906 0.274068 0.704164
O O14 0.000000 0.500000 0.500000
O O15 0.783480 0.397671 0.867130
O O16 0.616064 0.330453 0.805858
O O17 0.000000 0.000000 0.500000
O O18 0.468338 0.431154 0.290326
#
# Coordination Sequence:
#
# PCOD9010762 Si02
#       8
#     2   2   2   2   2   2   2   2
#     4  10  21  40  66  89 120 166 210 256 312 377
#     4  12  24  43  68  93 131 172 209 261 323 380
#     4  11  23  42  66  96 126 166 218 264 320 381
#     4  12  24  43  69  94 128 170 216 264 320 377
#     4  11  18  39  68  84 116 167 211 248 310 373
#     4  11  23  39  59  93 130 160 204 263 313 369
#     4  10  21  40  64  91 122 164 209 255 313 375
#     4  11  24  44  65  93 132 169 213 265 318 381
#
# _framework density 20.027940000000001
#
# number of rings (size 3 to 8) (size 9 to 14) (size 15 to 20)
#    0.000    1.000    5.000    3.000    0.000    1.500 
#    4.500    0.000    0.000    0.000    0.000    0.000 
#    0.000    0.000    0.000    0.000    0.000    0.000 
#
# Total GULP energy -89193.893930 kJ/mol
# GULP energy per Si atom -5574.618371 kJ/mol
# Density = 1.998236 g / cm^3
# Si number density = 20.027940 Si / 1000 Ang^3
#
#
#
# Elastic Constant Matrix: (Units=GPa)
#
#
# Indices 1 2 3 4 5 6 
#
# 1 70.1508 66.0830 40.4004 2.3519 5.7879 -38.9246
# 2 66.0830 87.0119 81.6811 -15.7260 24.0492 -6.8242
# 3 40.4004 81.6811 146.4176 -3.7968 -0.1691 -28.4509
# 4 2.3519 -15.7260 -3.7968 29.0315 7.2089 5.2718
# 5 5.7879 24.0492 -0.1691 7.2089 29.8321 -15.9708
# 6 -38.9246 -6.8242 -28.4509 5.2718 -15.9708 23.6158
#
#
#
# Elastic Compliance Matrix: (Units=1/GPa)
#
#
# Indices 1 2 3 4 5 6 
#
# 1 0.005870 0.008680 -0.008365 0.009148 -0.016240 -0.010919
# 2 0.008680 0.003358 -0.000063 -0.005115 0.008769 0.022274
# 3 -0.008365 -0.000063 0.007856 0.003753 -0.003075 -0.007259
# 4 0.009148 -0.005115 0.003753 0.028173 0.002973 0.013843
# 5 -0.016240 0.008769 -0.003075 0.002973 0.021247 -0.014234
# 6 -0.010919 0.022274 -0.007259 0.013843 -0.014234 0.009322
#
#
# Mechanical properties :
#
#
# Convention : Reuss Voigt Hill
#
# Bulk Modulus (GPa) = 56.85505 75.54547 66.20026
# Shear Modulus (GPa) = 61.58855 24.19028 42.88942
#
# Velocity S-wave (km/s) = 5.55140 3.47915 4.63263
# Velocity P-wave (km/s) = 8.33908 7.34447 7.85753
#
# Compressibility (1/GPa) = 0.01758859
#
# Stress axis : x y z
#
# Youngs Moduli (GPa) = 170.35175 297.81138 127.28852
#
# Poissons Ratio (x) = -2.58509 1.06483
# Poissons Ratio (y) = -1.47870 0.00797
# Poissons Ratio (z) = 1.42508 0.01865
#
# Static dielectric constant tensor:
#      x y z
#    x 1.650730 0.005200 -0.020760 
#    y 0.005200 1.741250 0.007130 
#    z -0.020760 0.007130 1.730820 
# 
# From -- ./inp_files/337801.got.cif
#   From: 2010.05.17/outbox.cif.g08.bks.cpg/sg2_169_cif.got.tgz:337801.got - 2010.06.03 11:33:40.
