data_PCOD9010188
_publ_section_title
;
Structure prediction by ZEFSAII (Michael W. Deem and Ramdas Pophale) SiO2 
 PCOD9010188
Probable space group: P -1
;
_chemical_formula_sum "Si O2"
_cell_formula_units_Z 16
_cell_length_a 14.730646
_cell_length_b 14.326534
_cell_length_c 8.796019
_cell_angle_alpha 129.405168
_cell_angle_beta 146.646686
_cell_angle_gamma 50.966047
_cell_volume 766.639839
_symmetry_space_group_name_H-M "P -1"
_symmetry_group_IT_number 2
_symmetry_cell_setting 'triclinic'
loop_
_space_group_symop_operation_xyz
x,y,z
-x,-y,-z
loop_
_atom_site_type_symbol
_atom_site_label
_atom_site_fract_x
_atom_site_fract_y
_atom_site_fract_z
Si Si1 0.278050 0.498346 0.364741
Si Si2 0.337183 0.876307 0.087980
Si Si3 0.710922 0.843225 0.627740
Si Si4 0.006211 0.644033 0.666951
Si Si5 0.500450 0.265130 0.555797
Si Si6 0.958117 0.660190 0.266429
Si Si7 0.730325 0.297570 0.675087
Si Si8 0.067509 0.855542 0.451418
O O1 0.421741 0.412237 0.579847
O O2 0.333764 0.594847 0.428168
O O3 0.127304 0.571534 0.337796
O O4 0.192948 0.407627 0.048481
O O5 0.533662 0.868513 0.310362
O O6 0.358371 0.787283 0.172794
O O7 0.253969 0.020411 0.161853
O O8 0.232714 0.830129 0.763990
O O9 0.853165 0.735055 0.639729
O O10 0.649142 0.795340 0.652296
O O11 0.988446 0.685093 0.509579
O O12 0.000000 0.500000 0.500000
O O13 0.176802 0.650479 0.002314
O O14 0.588441 0.235472 0.484717
O O15 0.936908 0.786412 0.273641
O O16 0.875387 0.199923 0.689479
O O17 0.000000 0.000000 0.500000
#
# Coordination Sequence:
#
# PCOD9010188 Si02
#       8
#     2   2   2   2   2   2   2   2
#     4  10  21  40  62  90 129 168 203 263 314 366
#     4   9  21  43  64  89 126 170 212 246 325 369
#     4   9  22  40  68  88 127 167 211 262 300 385
#     4  12  22  41  65  96 122 171 216 253 313 378
#     4  10  21  40  65  88 127 168 201 263 315 368
#     4  10  23  38  62  94 126 164 217 251 315 381
#     4  11  24  40  62  95 131 155 220 258 308 380
#     4  11  24  41  64  95 129 164 206 268 315 369
#
# _framework density 20.870296
#
# number of rings (size 3 to 8) (size 9 to 14) (size 15 to 20)
#    0.750    1.000    1.250    2.625    5.250    2.000 
#    4.500    6.875    0.000    0.000    0.000    0.000 
#    0.000    0.000    0.000    0.000    0.000    0.000 
#
# Total GULP energy -89210.126195 kJ/mol
# GULP energy per Si atom -5575.632887 kJ/mol
# Density = 2.082279 g / cm^3
# Si number density = 20.870296 Si / 1000 Ang^3
#
#
#
# Elastic Constant Matrix: (Units=GPa)
#
#
# Indices 1 2 3 4 5 6 
#
# 1 122.1074 46.8755 27.8818 -2.2599 -17.2609 15.5474
# 2 46.8755 132.0048 27.0956 0.5089 -8.9057 5.7904
# 3 27.8818 27.0956 86.7060 2.6718 -15.4579 3.1018
# 4 -2.2599 0.5089 2.6718 24.8260 -2.1230 -2.5540
# 5 -17.2609 -8.9057 -15.4579 -2.1230 14.1199 -3.2394
# 6 15.5474 5.7904 3.1018 -2.5540 -3.2394 21.4855
#
#
#
# Elastic Compliance Matrix: (Units=1/GPa)
#
#
# Indices 1 2 3 4 5 6 
#
# 1 0.011808 -0.003069 -0.000802 0.001523 0.010511 -0.005836
# 2 -0.003069 0.009038 -0.001850 -0.000275 -0.000118 0.000002
# 3 -0.000802 -0.001850 0.014901 -0.000302 0.014363 0.001057
# 4 0.001523 -0.000275 -0.000302 0.041761 0.008856 0.005315
# 5 0.010511 -0.000118 0.014363 0.008856 0.102216 0.006816
# 6 -0.005836 0.000002 0.001057 0.005315 0.006816 0.052272
#
#
# Mechanical properties :
#
#
# Convention : Reuss Voigt Hill
#
# Bulk Modulus (GPa) = 41.14437 60.50267 50.82352
# Shear Modulus (GPa) = 19.87739 28.01728 23.94733
#
# Velocity S-wave (km/s) = 3.08949 3.66792 3.39106
# Velocity P-wave (km/s) = 5.69945 6.85499 6.30375
#
# Compressibility (1/GPa) = 0.02430466
#
# Stress axis : x y z
#
# Youngs Moduli (GPa) = 84.68909 110.64217 67.10747
#
# Poissons Ratio (x) = 0.33958 0.05384
# Poissons Ratio (y) = 0.25992 0.12415
# Poissons Ratio (z) = 0.06794 0.20469
#
# Static dielectric constant tensor:
#      x y z
#    x 1.760530 0.010060 0.027910 
#    y 0.010060 1.772590 -0.045180 
#    z 0.027910 -0.045180 1.765030 
# 
# From -- ./inp_files/314168.got.cif
#   From: 2010.05.17/outbox.cif.g08.bks.cpg/sg2_158_cif.got.tgz:314168.got - 2010.06.03 11:33:40.
