data_PCOD9010637
_publ_section_title
;
Structure prediction by ZEFSAII (Michael W. Deem and Ramdas Pophale) SiO2 
 PCOD9010637
Probable space group: P -1
;
_chemical_formula_sum "Si O2"
_cell_formula_units_Z 12
_cell_length_a 10.189418
_cell_length_b 9.456996
_cell_length_c 5.080719
_cell_angle_alpha 96.784172
_cell_angle_beta 81.736635
_cell_angle_gamma 70.963734
_cell_volume 450.824496
_symmetry_space_group_name_H-M "P -1"
_symmetry_group_IT_number 2
_symmetry_cell_setting 'triclinic'
loop_
_space_group_symop_operation_xyz
x,y,z
-x,-y,-z
loop_
_atom_site_type_symbol
_atom_site_label
_atom_site_fract_x
_atom_site_fract_y
_atom_site_fract_z
Si Si1 0.422709 0.804694 0.375756
Si Si2 0.073741 0.618446 0.439012
Si Si3 0.330168 0.385665 0.031311
Si Si4 0.378673 0.106255 0.251369
Si Si5 0.747651 0.324773 0.204834
Si Si6 0.957921 0.109301 0.786259
O O1 0.501485 0.700924 0.080531
O O2 0.552767 0.824585 0.519281
O O3 0.348360 0.724703 0.576577
O O4 0.327759 0.979301 0.372958
O O5 0.102118 0.701709 0.703436
O O6 0.993148 0.747793 0.280091
O O7 0.000000 0.500000 0.500000
O O8 0.232397 0.515709 0.279479
O O9 0.304215 0.497745 0.812415
O O10 0.287913 0.242758 0.117118
O O11 0.500000 0.000000 0.000000
O O12 0.792841 0.209905 0.918689
O O13 0.000000 0.000000 0.500000
O O14 0.000000 0.000000 0.000000
#
# Coordination Sequence:
#
# PCOD9010637 Si02
#       6
#     2   2   2   2   2   2
#     4  10  21  40  64 100 137 177 226 282 354 420
#     4  11  26  47  69 101 141 188 241 292 355 417
#     4  10  22  39  66  97 136 177 227 285 349 417
#     4   9  20  39  60  94 140 178 221 275 348 423
#     4  11  24  42  70 100 140 180 234 290 351 421
#     4  11  24  49  72 101 138 184 242 292 353 415
#
# _framework density 26.617899999999999
#
# number of rings (size 3 to 8) (size 9 to 14) (size 15 to 20)
#    0.000    1.667    1.667    1.500    0.000   10.667 
#    9.000    0.000    0.000    0.000    0.000    0.000 
#    0.000    0.000    0.000    0.000    0.000    0.000 
#
# Total GULP energy -66837.863488 kJ/mol
# GULP energy per Si atom -5569.821957 kJ/mol
# Density = 2.655732 g / cm^3
# Si number density = 26.617900 Si / 1000 Ang^3
#
#
#
# Elastic Constant Matrix: (Units=GPa)
#
#
# Indices 1 2 3 4 5 6 
#
# 1 69.1188 45.9747 29.1008 -10.3761 -7.2744 16.3959
# 2 45.9747 292.7313 99.0457 -54.1327 9.3615 -8.4189
# 3 29.1008 99.0457 141.0959 -22.2054 -16.7645 7.9178
# 4 -10.3761 -54.1327 -22.2054 76.9028 -5.5104 -12.4717
# 5 -7.2744 9.3615 -16.7645 -5.5104 15.6790 3.4608
# 6 16.3959 -8.4189 7.9178 -12.4717 3.4608 43.0177
#
#
#
# Elastic Compliance Matrix: (Units=1/GPa)
#
#
# Indices 1 2 3 4 5 6 
#
# 1 0.021226 -0.004768 0.001414 -0.000662 0.016355 -0.010791
# 2 -0.004768 0.007083 -0.005358 0.002878 -0.012489 0.006029
# 3 0.001414 -0.005358 0.013305 0.000789 0.019546 -0.005380
# 4 -0.000662 0.002878 0.000789 0.016239 0.003399 0.005105
# 5 0.016355 -0.012489 0.019546 0.003399 0.105280 -0.019760
# 6 -0.010791 0.006029 -0.005380 0.005105 -0.019760 0.032599
#
#
# Mechanical properties :
#
#
# Convention : Reuss Voigt Hill
#
# Bulk Modulus (GPa) = 41.33924 94.57647 67.95786
# Shear Modulus (GPa) = 22.60204 49.04154 35.82179
#
# Velocity S-wave (km/s) = 2.91714 4.29701 3.67246
# Velocity P-wave (km/s) = 5.18755 7.76063 6.60068
#
# Compressibility (1/GPa) = 0.02419009
#
# Stress axis : x y z
#
# Youngs Moduli (GPa) = 47.11288 141.18939 75.15778
#
# Poissons Ratio (x) = 0.67315 -0.10625
# Poissons Ratio (y) = 0.22462 0.40268
# Poissons Ratio (z) = -0.06660 0.75646
#
# Static dielectric constant tensor:
#      x y z
#    x 2.157980 -0.005240 0.073120 
#    y -0.005240 2.149430 0.003270 
#    z 0.073120 0.003270 2.184280 
# 
# From -- ./inp_files/59336.got.cif
#   From: 2010.05.17/outbox.cif.g08.bks.cpg/sg2_30_cif.got.tgz:59336.got - 2010.06.03 11:33:40.
