data_PCOD9010490
_publ_section_title
;
Structure prediction by ZEFSAII (Michael W. Deem and Ramdas Pophale) SiO2 
 PCOD9010490
Probable space group: P -1
;
_chemical_formula_sum "Si O2"
_cell_formula_units_Z 16
_cell_length_a 17.423760
_cell_length_b 11.331804
_cell_length_c 13.022378
_cell_angle_alpha 30.297355
_cell_angle_beta 145.134514
_cell_angle_gamma 126.455478
_cell_volume 680.851752
_symmetry_space_group_name_H-M "P -1"
_symmetry_group_IT_number 2
_symmetry_cell_setting 'triclinic'
loop_
_space_group_symop_operation_xyz
x,y,z
-x,-y,-z
loop_
_atom_site_type_symbol
_atom_site_label
_atom_site_fract_x
_atom_site_fract_y
_atom_site_fract_z
Si Si1 0.067286 0.357284 0.418812
Si Si2 0.858432 0.898658 0.736894
Si Si3 0.630176 0.739614 0.129529
Si Si4 0.597628 0.383490 0.096017
Si Si5 0.056978 0.200956 0.753287
Si Si6 0.654239 0.833764 0.844480
Si Si7 0.504172 0.249048 0.744269
Si Si8 0.234736 0.112240 0.588110
O O1 0.205963 0.433905 0.529133
O O2 0.071291 0.202503 0.643048
O O3 0.115802 0.203635 0.480558
O O4 0.921812 0.609559 0.061322
O O5 0.844785 0.886814 0.606688
O O6 0.695915 0.089384 0.444657
O O7 0.957988 0.042280 0.780135
O O8 0.522465 0.598135 0.133425
O O9 0.635153 0.809253 0.963858
O O10 0.566282 0.005863 0.918970
O O11 0.500000 0.500000 0.000000
O O12 0.691378 0.549617 0.053717
O O13 0.000000 0.500000 0.500000
O O14 0.210394 0.082555 0.072678
O O15 0.500000 0.000000 0.500000
O O16 0.500000 0.500000 0.500000
O O17 0.340470 0.272327 0.576840
O O18 0.636630 0.159985 0.039183
#
# Coordination Sequence:
#
# PCOD9010490 Si02
#       8
#     2   2   2   2   2   2   2   2
#     4  10  25  43  68  93 140 179 220 284 337 405
#     4  12  24  43  71  95 137 184 216 282 347 402
#     4   9  20  42  61  95 128 169 223 271 334 400
#     4  10  21  40  63  92 127 167 221 271 326 408
#     4  11  25  45  61 101 134 172 237 276 331 414
#     4  10  22  39  63  93 131 167 219 280 332 394
#     4  10  21  40  69  99 137 173 224 285 337 396
#     4  10  23  43  64 105 135 176 233 273 337 416
#
# _framework density 23.499977999999999
#
# number of rings (size 3 to 8) (size 9 to 14) (size 15 to 20)
#    0.000    1.750    2.500    0.375    1.750    8.000 
#    0.000    0.000    0.000    0.000    0.000    0.000 
#    0.000    0.000    0.000    0.000    0.000    0.000 
#
# Total GULP energy -89236.978196 kJ/mol
# GULP energy per Si atom -5577.311137 kJ/mol
# Density = 2.344649 g / cm^3
# Si number density = 23.499978 Si / 1000 Ang^3
#
#
#
# Elastic Constant Matrix: (Units=GPa)
#
#
# Indices 1 2 3 4 5 6 
#
# 1 46.8417 -6.5544 -8.3959 -10.3901 6.5690 -12.5915
# 2 -6.5544 55.2789 2.1791 16.0617 -4.6483 1.7824
# 3 -8.3959 2.1791 84.3667 11.0129 -1.3789 -6.1921
# 4 -10.3901 16.0617 11.0129 38.4203 -4.5654 3.1277
# 5 6.5690 -4.6483 -1.3789 -4.5654 34.1593 -0.7538
# 6 -12.5915 1.7824 -6.1921 3.1277 -0.7538 40.0496
#
#
#
# Elastic Compliance Matrix: (Units=1/GPa)
#
#
# Indices 1 2 3 4 5 6 
#
# 1 0.025654 0.000992 0.002432 0.004715 -0.003894 0.007956
# 2 0.000992 0.020756 0.000703 -0.008443 0.001538 0.000185
# 3 0.002432 0.000703 0.012757 -0.003567 -0.000268 0.002979
# 4 0.004715 -0.008443 -0.003567 0.032197 0.002078 -0.001169
# 5 -0.003894 0.001538 -0.000268 0.002078 0.030479 -0.000923
# 6 0.007956 0.000185 0.002979 -0.001169 -0.000923 0.027997
#
#
# Mechanical properties :
#
#
# Convention : Reuss Voigt Hill
#
# Bulk Modulus (GPa) = 14.83198 17.88277 16.35737
# Shear Modulus (GPa) = 30.47671 35.80975 33.14323
#
# Velocity S-wave (km/s) = 3.60513 3.90785 3.75954
# Velocity P-wave (km/s) = 4.86359 5.29036 5.08146
#
# Compressibility (1/GPa) = 0.06742189
#
# Stress axis : x y z
#
# Youngs Moduli (GPa) = 38.98043 48.17771 78.38935
#
# Poissons Ratio (x) = -0.04778 -0.19065
# Poissons Ratio (y) = -0.03866 -0.05514
# Poissons Ratio (z) = -0.09480 -0.03389
#
# Static dielectric constant tensor:
#      x y z
#    x 1.993360 -0.035030 0.014970 
#    y -0.035030 2.016450 0.020050 
#    z 0.014970 0.020050 1.901060 
# 
# From -- ./inp_files/540932.got.cif
#   From: 2010.05.17/outbox.cif.g08.bks.cpg/sg2_271_cif.got.tgz:540932.got - 2010.06.03 11:33:40.
