data_PCOD9010968
_publ_section_title
;
Structure prediction by ZEFSAII (Michael W. Deem and Ramdas Pophale) SiO2 
 PCOD9010968
Probable space group: P -1
;
_chemical_formula_sum "Si O2"
_cell_formula_units_Z 14
_cell_length_a 13.511433
_cell_length_b 6.756735
_cell_length_c 13.473358
_cell_angle_alpha 140.629439
_cell_angle_beta 129.706083
_cell_angle_gamma 47.302189
_cell_volume 555.835082
_symmetry_space_group_name_H-M "P -1"
_symmetry_group_IT_number 2
_symmetry_cell_setting 'triclinic'
loop_
_space_group_symop_operation_xyz
x,y,z
-x,-y,-z
loop_
_atom_site_type_symbol
_atom_site_label
_atom_site_fract_x
_atom_site_fract_y
_atom_site_fract_z
Si Si1 0.342496 0.426855 0.993406
Si Si2 0.803052 0.192806 0.123188
Si Si3 0.062776 0.751532 0.038381
Si Si4 0.745765 0.466612 0.410494
Si Si5 0.951929 0.698305 0.442393
Si Si6 0.500439 0.326091 0.257225
Si Si7 0.754883 0.159733 0.631119
O O1 0.310966 0.710189 0.998389
O O2 0.429428 0.074024 0.861015
O O3 0.194066 0.453165 0.957462
O O4 0.431184 0.458529 0.156356
O O5 0.755693 0.260337 0.233009
O O6 0.873509 0.474654 0.258806
O O7 0.916197 0.819001 0.028045
O O8 0.143917 0.862402 0.219814
O O9 0.000000 0.000000 0.000000
O O10 0.627334 0.443594 0.395278
O O11 0.897955 0.323118 0.504014
O O12 0.705438 0.851665 0.500312
O O13 0.000000 0.500000 0.500000
O O14 0.846653 0.056712 0.551543
O O15 0.374932 0.491780 0.316275
#
# Coordination Sequence:
#
# PCOD9010968 Si02
#       7
#     2   2   2   2   2   2   2
#     4   9  20  32  46  65 100 135 153 177 236 295
#     4   9  15  31  52  72  88 119 165 198 224 271
#     4   9  14  26  51  69  86 121 162 190 216 275
#     4  10  17  29  52  76  91 114 161 206 231 258
#     4   8  14  27  50  72  89 113 155 198 235 263
#     4  10  20  32  45  70 101 129 150 185 239 286
#     4   9  15  30  49  71  91 123 159 187 232 285
#
# _framework density 25.187328999999998
#
# number of rings (size 3 to 8) (size 9 to 14) (size 15 to 20)
#    0.000    3.143    4.286    0.429    0.000    0.571 
#    0.000    4.286    0.000    0.000    0.000    0.000 
#    0.000    0.000    0.000    0.000    0.000    0.000 
#
# Total GULP energy -78043.491571 kJ/mol
# GULP energy per Si atom -5574.535112 kJ/mol
# Density = 2.513000 g / cm^3
# Si number density = 25.187329 Si / 1000 Ang^3
#
#
#
# Elastic Constant Matrix: (Units=GPa)
#
#
# Indices 1 2 3 4 5 6 
#
# 1 75.8084 42.3569 21.1182 2.2196 -7.3692 -22.5535
# 2 42.3569 144.0204 46.3911 14.5643 -8.8723 -37.6123
# 3 21.1182 46.3911 36.2821 16.1727 -11.3502 12.0815
# 4 2.2196 14.5643 16.1727 33.9702 -17.3495 -16.9896
# 5 -7.3692 -8.8723 -11.3502 -17.3495 19.6638 -5.0369
# 6 -22.5535 -37.6123 12.0815 -16.9896 -5.0369 38.5908
#
#
#
# Elastic Compliance Matrix: (Units=1/GPa)
#
#
# Indices 1 2 3 4 5 6 
#
# 1 0.011831 -0.009224 0.011440 -0.009958 -0.004637 -0.010646
# 2 -0.009224 0.006052 0.004342 -0.019024 -0.017969 -0.011572
# 3 0.011440 0.004342 0.001788 0.040889 0.052371 0.035195
# 4 -0.009958 -0.019024 0.040889 0.006662 0.008687 -0.033096
# 5 -0.004637 -0.017969 0.052371 0.008687 0.072941 -0.023274
# 6 -0.010646 -0.011572 0.035195 -0.033096 -0.023274 -0.020214
#
#
# Mechanical properties :
#
#
# Convention : Reuss Voigt Hill
#
# Bulk Modulus (GPa) = 30.49781 52.87147 41.68464
# Shear Modulus (GPa) = 65.04301 28.19461 46.61881
#
# Velocity S-wave (km/s) = 5.08722 3.34937 4.30686
# Velocity P-wave (km/s) = 6.82942 5.99955 6.42789
#
# Compressibility (1/GPa) = 0.03278924
#
# Stress axis : x y z
#
# Youngs Moduli (GPa) = 84.52161 165.22940 559.30652
#
# Poissons Ratio (x) = 1.52402 -6.39858
# Poissons Ratio (y) = 0.77960 -2.42873
# Poissons Ratio (z) = -0.96694 -0.71749
#
# Static dielectric constant tensor:
#      x y z
#    x 2.080200 -0.028610 0.038120 
#    y -0.028610 2.033540 0.016390 
#    z 0.038120 0.016390 2.008420 
# 
# From -- ./inp_files/174855.got.cif
#   From: 2010.05.17/outbox.cif.g08.bks.cpg/sg2_88_cif.got.tgz:174855.got - 2010.06.03 11:33:40.
