data_PCOD9010439
_publ_section_title
;
Structure prediction by ZEFSAII (Michael W. Deem and Ramdas Pophale) SiO2 
 PCOD9010439
Probable space group: P -1
;
_chemical_formula_sum "Si O2"
_cell_formula_units_Z 16
_cell_length_a 22.981257
_cell_length_b 4.824587
_cell_length_c 11.550524
_cell_angle_alpha 73.943456
_cell_angle_beta 145.520111
_cell_angle_gamma 119.882893
_cell_volume 604.693209
_symmetry_space_group_name_H-M "P -1"
_symmetry_group_IT_number 2
_symmetry_cell_setting 'triclinic'
loop_
_space_group_symop_operation_xyz
x,y,z
-x,-y,-z
loop_
_atom_site_type_symbol
_atom_site_label
_atom_site_fract_x
_atom_site_fract_y
_atom_site_fract_z
Si Si1 0.178358 0.210737 0.689111
Si Si2 0.389815 0.557630 0.583812
Si Si3 0.744391 0.015315 0.746011
Si Si4 0.621788 0.320833 0.194581
Si Si5 0.944096 0.378025 0.606386
Si Si6 0.818640 0.607898 0.062503
Si Si7 0.592203 0.905193 0.713993
Si Si8 0.812741 0.160513 0.637310
O O1 0.309881 0.438498 0.826562
O O2 0.087528 0.327997 0.476869
O O3 0.177015 0.252346 0.818282
O O4 0.133930 0.854735 0.600795
O O5 0.339786 0.800054 0.440504
O O6 0.399359 0.527165 0.740503
O O7 0.284421 0.193053 0.411213
O O8 0.512030 0.650790 0.711911
O O9 0.644908 0.784777 0.712605
O O10 0.854963 0.328570 0.810065
O O11 0.830667 0.882369 0.958676
O O12 0.721014 0.235002 0.411868
O O13 0.500000 0.000000 0.000000
O O14 0.075009 0.463352 0.784263
O O15 0.896369 0.172572 0.672430
O O16 0.702723 0.243445 0.903131
O O17 0.500000 0.000000 0.500000
#
# Coordination Sequence:
#
# PCOD9010439 Si02
#       8
#     2   2   2   2   2   2   2   2
#     4  11  25  47  70 104 142 183 231 295 345 409
#     4  10  21  40  63  90 134 171 215 282 342 408
#     4  10  24  41  65  97 131 180 226 280 351 415
#     4  11  22  41  67 101 134 179 233 283 350 418
#     4  11  25  49  72 100 141 183 237 292 344 409
#     4  12  27  41  71  99 133 184 233 281 351 422
#     4  12  23  40  61  99 139 175 222 278 350 414
#     4   9  22  43  66  92 134 179 220 289 344 399
#
# _framework density 26.459700999999999
#
# number of rings (size 3 to 8) (size 9 to 14) (size 15 to 20)
#    0.750    0.500    2.500    2.625    3.500    2.000 
#    0.000    0.625    0.000    0.000    0.000    0.000 
#    0.000    0.000    0.000    0.000    0.000    0.000 
#
# Total GULP energy -89226.533877 kJ/mol
# GULP energy per Si atom -5576.658367 kJ/mol
# Density = 2.639948 g / cm^3
# Si number density = 26.459701 Si / 1000 Ang^3
#
#
#
# Elastic Constant Matrix: (Units=GPa)
#
#
# Indices 1 2 3 4 5 6 
#
# 1 235.2810 35.1725 46.8298 11.2625 -8.2282 37.1631
# 2 35.1725 75.4360 18.8391 -2.4313 -4.2672 4.0465
# 3 46.8298 18.8391 83.4521 -0.7361 0.7374 21.3078
# 4 11.2625 -2.4313 -0.7361 39.1674 8.1988 -1.9710
# 5 -8.2282 -4.2672 0.7374 8.1988 32.0531 4.3288
# 6 37.1631 4.0465 21.3078 -1.9710 4.3288 42.7118
#
#
#
# Elastic Compliance Matrix: (Units=1/GPa)
#
#
# Indices 1 2 3 4 5 6 
#
# 1 0.005789 -0.001973 -0.001736 -0.002564 0.002508 -0.004357
# 2 -0.001973 0.014850 -0.002649 0.001314 0.000980 0.001593
# 3 -0.001736 -0.002649 0.015007 0.000435 -0.000491 -0.005656
# 4 -0.002564 0.001314 0.000435 0.028294 -0.008275 0.004034
# 5 0.002508 0.000980 -0.000491 -0.008275 0.034904 -0.005949
# 6 -0.004357 0.001593 -0.005656 0.004034 -0.005949 0.030663
#
#
# Mechanical properties :
#
#
# Convention : Reuss Voigt Hill
#
# Bulk Modulus (GPa) = 43.60820 66.20577 54.90699
# Shear Modulus (GPa) = 33.36315 42.34163 37.85239
#
# Velocity S-wave (km/s) = 3.55477 4.00463 3.78639
# Velocity P-wave (km/s) = 5.77627 6.81604 6.31758
#
# Compressibility (1/GPa) = 0.02293147
#
# Stress axis : x y z
#
# Youngs Moduli (GPa) = 172.73490 67.33978 66.63499
#
# Poissons Ratio (x) = 0.13285 0.11565
# Poissons Ratio (y) = 0.34079 0.17651
# Poissons Ratio (z) = 0.29981 0.17838
#
# Static dielectric constant tensor:
#      x y z
#    x 2.131280 0.074000 -0.004630 
#    y 0.074000 2.182030 -0.015160 
#    z -0.004630 -0.015160 2.163970 
# 
# From -- ./inp_files/428696.got.cif
#   From: 2010.05.17/outbox.cif.g08.bks.cpg/sg2_215_cif.got.tgz:428696.got - 2010.06.03 11:33:40.
