data_PCOD9010988
_publ_section_title
;
Structure prediction by ZEFSAII (Michael W. Deem and Ramdas Pophale) SiO2 
 PCOD9010988
Probable space group: P -1
;
_chemical_formula_sum "Si O2"
_cell_formula_units_Z 16
_cell_length_a 20.231928
_cell_length_b 7.619630
_cell_length_c 17.878701
_cell_angle_alpha 55.292978
_cell_angle_beta 159.415094
_cell_angle_gamma 135.046103
_cell_volume 634.760652
_symmetry_space_group_name_H-M "P -1"
_symmetry_group_IT_number 2
_symmetry_cell_setting 'triclinic'
loop_
_space_group_symop_operation_xyz
x,y,z
-x,-y,-z
loop_
_atom_site_type_symbol
_atom_site_label
_atom_site_fract_x
_atom_site_fract_y
_atom_site_fract_z
Si Si1 0.210408 0.498881 0.314686
Si Si2 0.047572 0.835415 0.486583
Si Si3 0.930308 0.661712 0.561619
Si Si4 0.453408 0.896072 0.106362
Si Si5 0.205449 0.480542 0.147882
Si Si6 0.357765 0.357441 0.191429
Si Si7 0.023657 0.075291 0.768593
Si Si8 0.406944 0.925001 0.634054
O O1 0.242727 0.418304 0.285665
O O2 0.455762 0.685475 0.570952
O O3 0.060114 0.220010 0.267566
O O4 0.055869 0.601124 0.115368
O O5 0.903589 0.630299 0.450885
O O6 0.921378 0.764980 0.289254
O O7 0.089501 0.107426 0.491580
O O8 0.307944 0.910712 0.734750
O O9 0.736915 0.384324 0.465606
O O10 0.197073 0.762760 0.833606
O O11 0.464116 0.656299 0.203130
O O12 0.469971 0.042699 0.164269
O O13 0.230265 0.342827 0.136821
O O14 0.396153 0.805432 0.266291
O O15 0.211590 0.183483 0.007439
O O16 0.806674 0.058844 0.577745
#
# Coordination Sequence:
#
# PCOD9010988 Si02
#       8
#     2   2   2   2   2   2   2   2
#     4  11  23  46  67  99 136 169 221 275 321 390
#     4  10  24  44  65  98 133 172 221 273 322 393
#     4  11  23  45  67  93 134 174 218 275 331 378
#     4  10  21  40  64  99 130 173 218 265 325 390
#     4  10  24  45  70  97 135 171 219 275 323 391
#     4  11  22  42  68  98 133 179 210 268 334 385
#     4  11  23  41  66 100 132 175 218 264 334 387
#     4  10  22  42  66  97 130 173 217 270 330 388
#
# _framework density 25.206351999999999
#
# number of rings (size 3 to 8) (size 9 to 14) (size 15 to 20)
#    0.000    1.500    5.000    0.750    3.500    3.500 
#    4.500    2.500    0.000    0.000    0.000    0.000 
#    0.000    0.000    0.000    0.000    0.000    0.000 
#
# Total GULP energy -89519.499858 kJ/mol
# GULP energy per Si atom -5594.968741 kJ/mol
# Density = 2.514898 g / cm^3
# Si number density = 25.206352 Si / 1000 Ang^3
#
#
#
# Elastic Constant Matrix: (Units=GPa)
#
#
# Indices 1 2 3 4 5 6 
#
# 1 131.4403 10.9669 56.4926 -1.8329 -12.8049 18.1925
# 2 10.9669 69.7506 14.5675 9.3823 -2.6002 -3.2728
# 3 56.4926 14.5675 163.8698 -0.6897 -29.6334 -2.0703
# 4 -1.8329 9.3823 -0.6897 25.6308 -2.9173 -5.8096
# 5 -12.8049 -2.6002 -29.6334 -2.9173 38.5453 0.3209
# 6 18.1925 -3.2728 -2.0703 -5.8096 0.3209 22.0298
#
#
#
# Elastic Compliance Matrix: (Units=1/GPa)
#
#
# Indices 1 2 3 4 5 6 
#
# 1 0.010610 -0.001218 -0.003543 -0.000971 0.000725 -0.009543
# 2 -0.001218 0.015550 -0.001073 -0.005474 -0.000610 0.001781
# 3 -0.003543 -0.001073 0.008445 0.001877 0.005352 0.003977
# 4 -0.000971 -0.005474 0.001877 0.044116 0.003993 0.011741
# 5 0.000725 -0.000610 0.005352 0.003993 0.030557 0.000422
# 6 -0.009543 0.001781 0.003977 0.011741 0.000422 0.057002
#
#
# Mechanical properties :
#
#
# Convention : Reuss Voigt Hill
#
# Bulk Modulus (GPa) = 43.59967 58.79051 51.19509
# Shear Modulus (GPa) = 26.94043 36.11007 31.52525
#
# Velocity S-wave (km/s) = 3.27279 3.78905 3.54034
# Velocity P-wave (km/s) = 5.62283 6.52049 6.08823
#
# Compressibility (1/GPa) = 0.02293595
#
# Stress axis : x y z
#
# Youngs Moduli (GPa) = 94.24757 64.31030 118.40930
#
# Poissons Ratio (x) = 0.07836 0.41954
# Poissons Ratio (y) = 0.11483 0.12707
# Poissons Ratio (z) = 0.33393 0.06901
#
# Static dielectric constant tensor:
#      x y z
#    x 2.040640 -0.043350 0.001590 
#    y -0.043350 1.976640 0.031100 
#    z 0.001590 0.031100 1.988030 
# 
# From -- ./inp_files/577327.got.cif
#   From: 2010.05.17/outbox.cif.g08.bks.cpg/sg2_289_cif.got.tgz:577327.got - 2010.06.03 11:33:40.
