data_PCOD9010285
_publ_section_title
;
Structure prediction by ZEFSAII (Michael W. Deem and Ramdas Pophale) SiO2 
 PCOD9010285
Probable space group: P -1
;
_chemical_formula_sum "Si O2"
_cell_formula_units_Z 16
_cell_length_a 20.981913
_cell_length_b 11.874057
_cell_length_c 17.948647
_cell_angle_alpha 32.317082
_cell_angle_beta 160.124508
_cell_angle_gamma 146.726349
_cell_volume 791.494835
_symmetry_space_group_name_H-M "P -1"
_symmetry_group_IT_number 2
_symmetry_cell_setting 'triclinic'
loop_
_space_group_symop_operation_xyz
x,y,z
-x,-y,-z
loop_
_atom_site_type_symbol
_atom_site_label
_atom_site_fract_x
_atom_site_fract_y
_atom_site_fract_z
Si Si1 0.648088 0.329584 0.037213
Si Si2 0.666094 0.069583 0.746110
Si Si3 0.507310 0.156084 0.828090
Si Si4 0.728037 0.287355 0.849896
Si Si5 0.856823 0.771566 0.663740
Si Si6 0.008647 0.150435 0.721606
Si Si7 0.384970 0.658421 0.600635
Si Si8 0.081671 0.473316 0.493849
O O1 0.646870 0.281216 0.974801
O O2 0.542925 0.521402 0.832088
O O3 0.861591 0.383512 0.275473
O O4 0.522408 0.101784 0.056994
O O5 0.647863 0.166755 0.753145
O O6 0.691640 0.256913 0.607358
O O7 0.487827 0.877443 0.634668
O O8 0.850026 0.962731 0.013260
O O9 0.582008 0.240957 0.782602
O O10 0.295551 0.203208 0.580479
O O11 0.789480 0.540212 0.757668
O O12 0.923611 0.211549 0.128775
O O13 0.862660 0.961682 0.623476
O O14 0.123282 0.306173 0.695345
O O15 0.912943 0.302389 0.582565
O O16 0.223353 0.518329 0.554609
#
# Coordination Sequence:
#
# PCOD9010285 Si02
#       8
#     2   2   2   2   2   2   2   2
#     4  11  25  43  62  99 134 163 225 261 320 399
#     4  10  23  44  64  99 134 163 225 264 316 395
#     4  11  24  41  66  93 129 174 211 270 318 381
#     4  10  23  40  67  94 127 174 214 266 322 378
#     4  10  21  40  62  96 128 159 221 265 308 385
#     4  10  22  42  67  99 132 166 224 267 306 400
#     4  11  25  43  67  95 134 176 204 274 330 380
#     4  11  24  43  68  96 132 175 210 270 330 371
#
# _framework density 20.214914
#
# number of rings (size 3 to 8) (size 9 to 14) (size 15 to 20)
#    0.000    1.500    2.500    1.125    5.250    5.000 
#    2.250    2.500    0.000    0.000    0.000    0.000 
#    0.000    0.000    0.000    0.000    0.000    0.000 
#
# Total GULP energy -89392.077963 kJ/mol
# GULP energy per Si atom -5587.004873 kJ/mol
# Density = 2.016890 g / cm^3
# Si number density = 20.214914 Si / 1000 Ang^3
#
#
#
# Elastic Constant Matrix: (Units=GPa)
#
#
# Indices 1 2 3 4 5 6 
#
# 1 58.0419 15.3341 10.8355 -3.3174 4.9616 10.5114
# 2 15.3341 64.8577 -1.3052 -7.2747 13.0331 -14.1303
# 3 10.8355 -1.3052 68.2501 -3.2274 -9.0565 9.7307
# 4 -3.3174 -7.2747 -3.2274 23.3388 -0.1437 -3.6787
# 5 4.9616 13.0331 -9.0565 -0.1437 16.8593 -1.4336
# 6 10.5114 -14.1303 9.7307 -3.6787 -1.4336 30.2083
#
#
#
# Elastic Compliance Matrix: (Units=1/GPa)
#
#
# Indices 1 2 3 4 5 6 
#
# 1 0.021576 -0.006802 -0.002605 -0.001032 -0.003362 -0.010135
# 2 -0.006802 0.024600 -0.002419 0.008610 -0.016975 0.014896
# 3 -0.002605 -0.002419 0.017310 0.000522 0.011498 -0.005191
# 4 -0.001032 0.008610 0.000522 0.046957 -0.004846 0.009707
# 5 -0.003362 -0.016975 0.011498 -0.004846 0.078939 -0.007318
# 6 -0.010135 0.014896 -0.005191 0.009707 -0.007318 0.046105
#
#
# Mechanical properties :
#
#
# Convention : Reuss Voigt Hill
#
# Bulk Modulus (GPa) = 25.10426 26.76429 25.93427
# Shear Modulus (GPa) = 18.35421 25.16694 21.76058
#
# Velocity S-wave (km/s) = 3.01650 3.53224 3.28451
# Velocity P-wave (km/s) = 4.95762 5.46848 5.21930
#
# Compressibility (1/GPa) = 0.03983387
#
# Stress axis : x y z
#
# Youngs Moduli (GPa) = 46.34722 40.65053 57.77006
#
# Poissons Ratio (x) = 0.27651 0.15051
# Poissons Ratio (y) = 0.31526 0.13973
# Poissons Ratio (z) = 0.12075 0.09832
#
# Static dielectric constant tensor:
#      x y z
#    x 1.680570 -0.014840 -0.009100 
#    y -0.014840 1.707140 -0.000040 
#    z -0.009100 -0.000040 1.739680 
# 
# From -- ./inp_files/259043.got.cif
#   From: 2010.05.17/outbox.cif.g08.bks.cpg/sg2_130_cif.got.tgz:259043.got - 2010.06.03 11:33:40.
