data_PCOD9010574
_publ_section_title
;
Structure prediction by ZEFSAII (Michael W. Deem and Ramdas Pophale) SiO2 
 PCOD9010574
Probable space group: P -1
;
_chemical_formula_sum "Si O2"
_cell_formula_units_Z 16
_cell_length_a 15.399740
_cell_length_b 30.375151
_cell_length_c 5.205633
_cell_angle_alpha 122.279221
_cell_angle_beta 58.521877
_cell_angle_gamma 159.785042
_cell_volume 709.530567
_symmetry_space_group_name_H-M "P -1"
_symmetry_group_IT_number 2
_symmetry_cell_setting 'triclinic'
loop_
_space_group_symop_operation_xyz
x,y,z
-x,-y,-z
loop_
_atom_site_type_symbol
_atom_site_label
_atom_site_fract_x
_atom_site_fract_y
_atom_site_fract_z
Si Si1 0.873371 0.028249 0.322041
Si Si2 0.555996 0.157806 0.940743
Si Si3 0.195351 0.347398 0.682820
Si Si4 0.321769 0.874222 0.998887
Si Si5 0.219623 0.205557 0.836839
Si Si6 0.959406 0.646040 0.453087
Si Si7 0.285672 0.125870 0.552794
Si Si8 0.525388 0.429482 0.748883
O O1 0.015317 0.109266 0.617875
O O2 0.614640 0.932344 0.326748
O O3 0.766254 0.919906 0.222144
O O4 0.064797 0.129387 0.106560
O O5 0.855647 0.297111 0.852923
O O6 0.520479 0.091773 0.970299
O O7 0.446573 0.157833 0.251500
O O8 0.325033 0.356434 0.620607
O O9 0.193870 0.376011 0.499158
O O10 0.330332 0.455335 0.978729
O O11 0.897918 0.201645 0.731391
O O12 0.156163 0.764036 0.710737
O O13 0.500000 0.000000 0.000000
O O14 0.386904 0.231139 0.678305
O O15 0.395336 0.335046 0.877550
O O16 0.756305 0.513864 0.490355
O O17 0.000000 0.000000 0.500000
#
# Coordination Sequence:
#
# PCOD9010574 Si02
#       8
#     2   2   2   2   2   2   2   2
#     4  11  22  40  63  99 130 168 205 275 332 378
#     4  11  22  39  64  90 133 171 211 260 341 386
#     4   9  21  40  64  84 128 172 216 263 326 378
#     4  10  23  38  60  94 129 165 215 267 323 389
#     4  11  25  37  68  99 132 163 221 275 317 388
#     4  10  22  40  62  90 128 179 211 265 323 385
#     4  10  21  40  63  95 131 169 210 269 334 387
#     4  10  22  41  61  94 125 171 225 263 315 383
#
# _framework density 22.55012
#
# number of rings (size 3 to 8) (size 9 to 14) (size 15 to 20)
#    0.000    1.750    2.500    1.500    5.250    3.000 
#    0.000    0.625    0.000   10.500    0.000    0.000 
#    0.000    0.000    0.000    0.000    0.000    0.000 
#
# Total GULP energy -89159.472377 kJ/mol
# GULP energy per Si atom -5572.467024 kJ/mol
# Density = 2.249880 g / cm^3
# Si number density = 22.550120 Si / 1000 Ang^3
#
#
#
# Elastic Constant Matrix: (Units=GPa)
#
#
# Indices 1 2 3 4 5 6 
#
# 1 160.7919 69.5614 42.5530 -10.1569 28.5620 -2.6904
# 2 69.5614 93.1705 32.5178 -26.5992 0.8596 -23.7826
# 3 42.5530 32.5178 66.2606 -23.1632 20.7523 -0.5839
# 4 -10.1569 -26.5992 -23.1632 37.9716 4.4058 9.1119
# 5 28.5620 0.8596 20.7523 4.4058 43.2786 -4.7780
# 6 -2.6904 -23.7826 -0.5839 9.1119 -4.7780 34.3148
#
#
#
# Elastic Compliance Matrix: (Units=1/GPa)
#
#
# Indices 1 2 3 4 5 6 
#
# 1 0.012773 -0.011946 -0.000597 -0.002450 -0.008520 -0.007824
# 2 -0.011946 0.029074 -0.008369 0.005949 0.012842 0.019280
# 3 -0.000597 -0.008369 0.031397 0.018217 -0.017742 -0.012621
# 4 -0.002450 0.005949 0.018217 0.044709 -0.012828 -0.009417
# 5 -0.008520 0.012842 -0.017742 -0.012828 0.040156 0.016928
# 6 -0.007824 0.019280 -0.012621 -0.009417 0.016928 0.046534
#
#
# Mechanical properties :
#
#
# Convention : Reuss Voigt Hill
#
# Bulk Modulus (GPa) = 31.82733 67.72083 49.77408
# Shear Modulus (GPa) = 19.45979 34.81903 27.13941
#
# Velocity S-wave (km/s) = 2.94080 3.93373 3.47294
# Velocity P-wave (km/s) = 5.06713 7.12241 6.18080
#
# Compressibility (1/GPa) = 0.03141954
#
# Stress axis : x y z
#
# Youngs Moduli (GPa) = 78.28905 34.39487 31.85068
#
# Poissons Ratio (x) = 0.41088 0.01902
# Poissons Ratio (y) = 0.93524 0.26656
# Poissons Ratio (z) = 0.04676 0.28785
#
# Static dielectric constant tensor:
#      x y z
#    x 1.880370 -0.029950 -0.032440 
#    y -0.029950 1.857460 -0.033300 
#    z -0.032440 -0.033300 2.028130 
# 
# From -- ./inp_files/101795.got.cif
#   From: 2010.05.17/outbox.cif.g08.bks.cpg/sg2_51_cif.got.tgz:101795.got - 2010.06.03 11:33:40.
