data_PCOD9010919
_publ_section_title
;
Structure prediction by ZEFSAII (Michael W. Deem and Ramdas Pophale) SiO2 
 PCOD9010919
Probable space group: P -1
;
_chemical_formula_sum "Si O2"
_cell_formula_units_Z 12
_cell_length_a 8.794339
_cell_length_b 5.080452
_cell_length_c 13.298744
_cell_angle_alpha 94.861055
_cell_angle_beta 84.482525
_cell_angle_gamma 59.262087
_cell_volume 502.074869
_symmetry_space_group_name_H-M "P -1"
_symmetry_group_IT_number 2
_symmetry_cell_setting 'triclinic'
loop_
_space_group_symop_operation_xyz
x,y,z
-x,-y,-z
loop_
_atom_site_type_symbol
_atom_site_label
_atom_site_fract_x
_atom_site_fract_y
_atom_site_fract_z
Si Si1 0.509746 0.164667 0.404518
Si Si2 0.169893 0.023389 0.512914
Si Si3 0.125111 0.635701 0.976518
Si Si4 0.354971 0.409861 0.151135
Si Si5 0.845557 0.564186 0.641852
Si Si6 0.569619 0.751099 0.192999
O O1 0.316805 0.466267 0.399655
O O2 0.561537 0.924675 0.302105
O O3 0.500000 0.000000 0.500000
O O4 0.673626 0.204277 0.427652
O O5 0.209074 0.120414 0.404751
O O6 0.054440 0.345040 0.596877
O O7 0.000000 0.000000 0.500000
O O8 0.232985 0.509221 0.861914
O O9 0.270674 0.532991 0.052463
O O10 0.000000 0.500000 0.000000
O O11 0.000000 0.000000 0.000000
O O12 0.201668 0.441190 0.239529
O O13 0.448265 0.595976 0.190389
O O14 0.495532 0.041529 0.130234
#
# Coordination Sequence:
#
# PCOD9010919 Si02
#       6
#     2   2   2   2   2   2
#     4   9  21  42  63  97 135 182 235 285 346 424
#     4  10  21  40  64  95 139 180 237 290 351 414
#     4  12  26  46  72 110 143 179 236 302 361 420
#     4  11  24  45  73  97 141 188 238 288 356 432
#     4   9  22  40  59  98 129 185 232 284 352 409
#     4  11  24  47  71 101 137 194 238 287 358 424
#
# _framework density 23.90082
#
# number of rings (size 3 to 8) (size 9 to 14) (size 15 to 20)
#    0.000    1.667    0.000    3.000    9.333    0.667 
#   15.000    0.000    0.000    0.000    0.000    0.000 
#    0.000    0.000    0.000    0.000    0.000    0.000 
#
# Total GULP energy -66927.264941 kJ/mol
# GULP energy per Si atom -5577.272078 kJ/mol
# Density = 2.384642 g / cm^3
# Si number density = 23.900820 Si / 1000 Ang^3
#
#
#
# Elastic Constant Matrix: (Units=GPa)
#
#
# Indices 1 2 3 4 5 6 
#
# 1 120.6169 22.8228 27.1270 4.3080 -3.9265 14.1592
# 2 22.8228 100.3382 17.2441 -4.1537 -2.6202 0.9788
# 3 27.1270 17.2441 100.6023 26.0029 2.9150 0.9714
# 4 4.3080 -4.1537 26.0029 37.7850 -6.6842 -1.6454
# 5 -3.9265 -2.6202 2.9150 -6.6842 25.0834 -4.7811
# 6 14.1592 0.9788 0.9714 -1.6454 -4.7811 47.2934
#
#
#
# Elastic Compliance Matrix: (Units=1/GPa)
#
#
# Indices 1 2 3 4 5 6 
#
# 1 0.009476 -0.001663 -0.002409 0.000497 0.001224 -0.002612
# 2 -0.001663 0.010950 -0.002393 0.003460 0.002210 0.000664
# 3 -0.002409 -0.002393 0.013849 -0.010437 -0.005092 -0.000392
# 4 0.000497 0.003460 -0.010437 0.036157 0.011752 0.002440
# 5 0.001224 0.002210 -0.005092 0.011752 0.044897 0.004640
# 6 -0.002612 0.000664 -0.000392 0.002440 0.004640 0.022475
#
#
# Mechanical properties :
#
#
# Convention : Reuss Voigt Hill
#
# Bulk Modulus (GPa) = 46.85121 50.66059 48.75590
# Shear Modulus (GPa) = 31.67553 38.98992 35.33273
#
# Velocity S-wave (km/s) = 3.64440 4.04334 3.84905
# Velocity P-wave (km/s) = 6.11178 6.56052 6.34012
#
# Compressibility (1/GPa) = 0.02134416
#
# Stress axis : x y z
#
# Youngs Moduli (GPa) = 105.53080 91.32037 72.20792
#
# Poissons Ratio (x) = 0.15190 0.17393
# Poissons Ratio (y) = 0.17554 0.17282
# Poissons Ratio (z) = 0.25420 0.21856
#
# Static dielectric constant tensor:
#      x y z
#    x 2.212830 -0.028690 -0.061530 
#    y -0.028690 2.167630 0.163730 
#    z -0.061530 0.163730 1.977080 
# 
# From -- ./inp_files/45606.got.cif
#   From: 2010.05.17/outbox.cif.g08.bks.cpg/sg2_23_cif.got.tgz:45606.got - 2010.06.03 11:33:40.
