data_PCOD9010915
_publ_section_title
;
Structure prediction by ZEFSAII (Michael W. Deem and Ramdas Pophale) SiO2 
 PCOD9010915
Probable space group: P -1
;
_chemical_formula_sum "Si O2"
_cell_formula_units_Z 16
_cell_length_a 13.749198
_cell_length_b 13.508181
_cell_length_c 14.152430
_cell_angle_alpha 139.647267
_cell_angle_beta 30.257463
_cell_angle_gamma 148.332726
_cell_volume 691.714368
_symmetry_space_group_name_H-M "P -1"
_symmetry_group_IT_number 2
_symmetry_cell_setting 'triclinic'
loop_
_space_group_symop_operation_xyz
x,y,z
-x,-y,-z
loop_
_atom_site_type_symbol
_atom_site_label
_atom_site_fract_x
_atom_site_fract_y
_atom_site_fract_z
Si Si1 0.534762 0.314756 0.010527
Si Si2 0.637533 0.234930 0.662498
Si Si3 0.413016 0.158633 0.187971
Si Si4 0.177979 0.987733 0.737423
Si Si5 0.907285 0.264408 0.862001
Si Si6 0.747687 0.611357 0.816436
Si Si7 0.666806 0.541972 0.479939
Si Si8 0.230510 0.305179 0.797530
O O1 0.620901 0.270920 0.812432
O O2 0.457959 0.157788 0.038322
O O3 0.307453 0.313502 0.173800
O O4 0.717137 0.521419 0.055141
O O5 0.750729 0.122471 0.469813
O O6 0.771617 0.443730 0.655354
O O7 0.384160 0.108327 0.729006
O O8 0.296625 0.269289 0.375414
O O9 0.232347 0.945964 0.217618
O O10 0.684738 0.270841 0.081208
O O11 0.945814 0.800503 0.843207
O O12 0.144682 0.124154 0.802306
O O13 0.088016 0.408032 0.733098
O O14 0.056360 0.275250 0.836046
O O15 0.500000 0.500000 0.000000
O O16 0.500000 0.500000 0.500000
O O17 0.488846 0.379967 0.587046
#
# Coordination Sequence:
#
# PCOD9010915 Si02
#       8
#     2   2   2   2   2   2   2   2
#     4  10  21  41  60  96 134 164 221 265 325 387
#     4  10  23  43  64 100 129 170 218 273 328 391
#     4  10  21  40  64  95 134 169 224 275 317 409
#     4  11  22  42  71  94 134 170 220 271 329 390
#     4  10  21  41  66  94 128 178 220 268 338 383
#     4  10  21  40  66  92 129 170 213 264 325 389
#     4   9  20  38  63  91 128 169 216 269 335 382
#     4  10  21  40  67  95 127 176 222 271 323 406
#
# _framework density 23.130935000000001
#
# number of rings (size 3 to 8) (size 9 to 14) (size 15 to 20)
#    0.000    2.000    1.250    1.500    0.000    6.500 
#   20.250    2.500    5.500    0.000    0.000    0.000 
#    0.000    0.000    0.000    0.000    0.000    0.000 
#
# Total GULP energy -89222.418673 kJ/mol
# GULP energy per Si atom -5576.401167 kJ/mol
# Density = 2.307829 g / cm^3
# Si number density = 23.130935 Si / 1000 Ang^3
#
#
#
# Elastic Constant Matrix: (Units=GPa)
#
#
# Indices 1 2 3 4 5 6 
#
# 1 72.6512 13.2012 30.5002 -7.3891 -0.4015 -5.6417
# 2 13.2012 127.3792 41.3784 -16.3519 -5.1666 -7.4363
# 3 30.5002 41.3784 89.2728 -1.7584 2.4333 19.3336
# 4 -7.3891 -16.3519 -1.7584 34.9896 4.5985 -5.3368
# 5 -0.4015 -5.1666 2.4333 4.5985 27.4311 -8.0351
# 6 -5.6417 -7.4363 19.3336 -5.3368 -8.0351 11.6587
#
#
#
# Elastic Compliance Matrix: (Units=1/GPa)
#
#
# Indices 1 2 3 4 5 6 
#
# 1 -0.003097 -0.016749 0.027505 -0.016328 -0.027590 -0.084282
# 2 -0.016749 -0.005524 0.024898 -0.013252 -0.023241 -0.075001
# 3 0.027505 0.024898 -0.041509 0.031293 0.045653 0.143812
# 4 -0.016328 -0.013252 0.031293 0.011777 -0.032447 -0.085219
# 5 -0.027590 -0.023241 0.045653 -0.032447 -0.002150 -0.120216
# 6 -0.084282 -0.075001 0.143812 -0.085219 -0.120216 -0.363194
#
#
# Mechanical properties :
#
#
# Convention : Reuss Voigt Hill
#
# Bulk Modulus (GPa) = 47.22148 51.05144 49.13646
# Shear Modulus (GPa) = -10.68504 28.43077 8.87286
#
# Velocity S-wave (km/s) = -2.15160 3.50969 1.96068
# Velocity P-wave (km/s) = 3.77977 6.20826 5.13951
#
# Compressibility (1/GPa) = 0.02117681
#
# Stress axis : x y z
#
# Youngs Moduli (GPa) = -322.87639 -181.03180 -24.09133
#
# Poissons Ratio (x) = -3.03215 0.66262
# Poissons Ratio (y) = -5.40794 0.59982
# Poissons Ratio (z) = 8.88061 4.50731
#
# Static dielectric constant tensor:
#      x y z
#    x 1.965290 0.019410 0.019380 
#    y 0.019410 1.956790 -0.019160 
#    z 0.019380 -0.019160 2.026650 
# 
# From -- ./inp_files/534409.got.cif
#   From: 2010.05.17/outbox.cif.g08.bks.cpg/sg2_268_cif.got.tgz:534409.got - 2010.06.03 11:33:40.
