data_PCOD9010174
_publ_section_title
;
Structure prediction by ZEFSAII (Michael W. Deem and Ramdas Pophale) SiO2 
 PCOD9010174
Probable space group: P -1
;
_chemical_formula_sum "Si O2"
_cell_formula_units_Z 12
_cell_length_a 5.288485
_cell_length_b 5.599269
_cell_length_c 19.274915
_cell_angle_alpha 85.994325
_cell_angle_beta 56.648114
_cell_angle_gamma 85.852774
_cell_volume 475.204390
_symmetry_space_group_name_H-M "P -1"
_symmetry_group_IT_number 2
_symmetry_cell_setting 'triclinic'
loop_
_space_group_symop_operation_xyz
x,y,z
-x,-y,-z
loop_
_atom_site_type_symbol
_atom_site_label
_atom_site_fract_x
_atom_site_fract_y
_atom_site_fract_z
Si Si1 0.357472 0.518019 0.943637
Si Si2 0.657372 0.387330 0.591898
Si Si3 0.592420 0.007675 0.905096
Si Si4 0.067946 0.626214 0.302672
Si Si5 0.614324 0.897763 0.558552
Si Si6 0.017166 0.861380 0.743074
O O1 0.419868 0.785604 0.902994
O O2 0.492913 0.276496 0.891650
O O3 0.500000 0.500000 0.000000
O O4 0.000000 0.500000 0.000000
O O5 0.752712 0.446275 0.654097
O O6 0.729361 0.624111 0.533325
O O7 0.297245 0.360324 0.635483
O O8 0.784760 0.119683 0.561416
O O9 0.895452 0.599936 0.750265
O O10 0.941076 0.933406 0.833120
O O11 0.500000 0.000000 0.000000
O O12 0.147216 0.902170 0.271205
O O13 0.346389 0.858378 0.657398
O O14 0.500000 0.000000 0.500000
#
# Coordination Sequence:
#
# PCOD9010174 Si02
#       6
#     2   2   2   2   2   2
#     4  10  21  40  62  90 122 160 204 254 310 372
#     4  10  21  40  62  90 124 164 208 258 312 372
#     4  10  21  40  65  93 127 168 212 264 320 380
#     4  10  21  40  62  90 124 164 208 258 312 372
#     4  10  21  40  65  96 130 170 214 264 318 378
#     4  10  21  40  62  93 128 168 214 264 318 380
#
# _framework density 25.252292000000001
#
# number of rings (size 3 to 8) (size 9 to 14) (size 15 to 20)
#    0.000    2.000    0.000    3.000    0.000    0.000 
#    0.000   60.000    0.000    0.000    0.000    0.000 
#    0.000    0.000    0.000    0.000    0.000    0.000 
#
# Total GULP energy -66872.238010 kJ/mol
# GULP energy per Si atom -5572.686501 kJ/mol
# Density = 2.519482 g / cm^3
# Si number density = 25.252292 Si / 1000 Ang^3
#
#
#
# Elastic Constant Matrix: (Units=GPa)
#
#
# Indices 1 2 3 4 5 6 
#
# 1 83.0707 30.4832 15.3175 3.1771 -3.0546 0.1000
# 2 30.4832 275.8496 36.4135 23.2791 -17.0145 24.8400
# 3 15.3175 36.4135 103.5449 33.8175 -22.0342 -8.5753
# 4 3.1771 23.2791 33.8175 57.4240 -4.0454 -2.6443
# 5 -3.0546 -17.0145 -22.0342 -4.0454 22.5157 -11.7533
# 6 0.1000 24.8400 -8.5753 -2.6443 -11.7533 45.9611
#
#
#
# Elastic Compliance Matrix: (Units=1/GPa)
#
#
# Indices 1 2 3 4 5 6 
#
# 1 0.012801 -0.001306 -0.001894 0.000883 -0.000864 0.000155
# 2 -0.001306 0.004250 -0.001003 -0.001127 0.000601 -0.002392
# 3 -0.001894 -0.001003 0.017744 -0.008203 0.019206 0.008296
# 4 0.000883 -0.001127 -0.008203 0.022235 -0.005284 -0.000995
# 5 -0.000864 0.000601 0.019206 -0.005284 0.074021 0.021885
# 6 0.000155 -0.002392 0.008296 -0.000995 0.021885 0.030137
#
#
# Mechanical properties :
#
#
# Convention : Reuss Voigt Hill
#
# Bulk Modulus (GPa) = 37.89640 69.65485 53.77563
# Shear Modulus (GPa) = 28.02846 50.53022 39.27934
#
# Velocity S-wave (km/s) = 3.33519 4.47812 3.94823
# Velocity P-wave (km/s) = 5.46544 7.37439 6.49048
#
# Compressibility (1/GPa) = 0.02638773
#
# Stress axis : x y z
#
# Youngs Moduli (GPa) = 78.12044 235.31703 56.35768
#
# Poissons Ratio (x) = 0.30740 0.10672
# Poissons Ratio (y) = 0.10205 0.05654
# Poissons Ratio (z) = 0.14794 0.23607
#
# Static dielectric constant tensor:
#      x y z
#    x 2.010870 -0.031800 -0.174470 
#    y -0.031800 2.090240 0.077610 
#    z -0.174470 0.077610 2.180530 
# 
# From -- ./inp_files/545672.got.cif
#   From: 2010.05.17/outbox.cif.g08.bks.cpg/sg2_273_cif.got.tgz:545672.got - 2010.06.03 11:33:40.
