data_PCOD9010602
_publ_section_title
;
Structure prediction by ZEFSAII (Michael W. Deem and Ramdas Pophale) SiO2 
 PCOD9010602
Probable space group: P -1
;
_chemical_formula_sum "Si O2"
_cell_formula_units_Z 16
_cell_length_a 7.243126
_cell_length_b 10.530616
_cell_length_c 14.059767
_cell_angle_alpha 61.007888
_cell_angle_beta 53.872090
_cell_angle_gamma 49.354533
_cell_volume 648.297170
_symmetry_space_group_name_H-M "P -1"
_symmetry_group_IT_number 2
_symmetry_cell_setting 'triclinic'
loop_
_space_group_symop_operation_xyz
x,y,z
-x,-y,-z
loop_
_atom_site_type_symbol
_atom_site_label
_atom_site_fract_x
_atom_site_fract_y
_atom_site_fract_z
Si Si1 0.763759 0.818843 0.956038
Si Si2 0.675897 0.802192 0.764773
Si Si3 0.118839 0.849588 0.316797
Si Si4 0.211315 0.769631 0.723766
Si Si5 0.367260 0.417652 0.802963
Si Si6 0.933509 0.913322 0.137584
Si Si7 0.313822 0.540527 0.132677
Si Si8 0.702484 0.818201 0.549086
O O1 0.711821 0.807356 0.864667
O O2 0.064541 0.786524 0.865217
O O3 0.776088 0.667478 0.068186
O O4 0.500000 0.000000 0.000000
O O5 0.726593 0.616476 0.796471
O O6 0.798195 0.829761 0.621504
O O7 0.372097 0.961705 0.789438
O O8 0.430745 0.722590 0.281892
O O9 0.088215 0.884398 0.200136
O O10 0.960764 0.755731 0.427386
O O11 0.981468 0.040606 0.330041
O O12 0.220569 0.605828 0.734469
O O13 0.507533 0.741853 0.640062
O O14 0.531867 0.445962 0.827311
O O15 0.039256 0.721344 0.142556
O O16 0.000000 0.000000 0.000000
O O17 0.500000 0.500000 0.000000
O O18 0.500000 0.000000 0.500000
#
# Coordination Sequence:
#
# PCOD9010602 Si02
#       8
#     2   2   2   2   2   2   2   2
#     4  12  26  41  62  95 135 173 207 253 327 392
#     4  12  22  41  60  92 129 163 211 266 310 372
#     4  10  21  40  63  97 124 154 222 262 307 382
#     4  11  22  40  62  90 129 169 210 258 317 377
#     4  11  21  39  65  93 125 168 209 265 321 371
#     4  11  20  32  61  92 122 154 196 267 319 363
#     4  11  20  33  59  97 120 154 210 265 321 371
#     4  10  21  41  70  92 122 169 220 264 315 368
#
# _framework density 24.680040999999999
#
# number of rings (size 3 to 8) (size 9 to 14) (size 15 to 20)
#    0.000    1.000    7.500    1.125    0.000    0.500 
#    2.250    2.500    0.000    0.750    0.000    0.000 
#    0.000    0.000    0.000    0.000    0.000    0.000 
#
# Total GULP energy -89177.397228 kJ/mol
# GULP energy per Si atom -5573.587327 kJ/mol
# Density = 2.462387 g / cm^3
# Si number density = 24.680041 Si / 1000 Ang^3
#
#
#
# Elastic Constant Matrix: (Units=GPa)
#
#
# Indices 1 2 3 4 5 6 
#
# 1 55.7933 3.7211 17.8923 -10.4639 -2.4167 13.7397
# 2 3.7211 175.6504 27.1028 -17.3551 -14.9227 2.9090
# 3 17.8923 27.1028 131.2562 -13.4001 -28.2049 6.7946
# 4 -10.4639 -17.3551 -13.4001 29.9882 -2.9852 -9.1933
# 5 -2.4167 -14.9227 -28.2049 -2.9852 55.5572 7.0202
# 6 13.7397 2.9090 6.7946 -9.1933 7.0202 19.2557
#
#
#
# Elastic Compliance Matrix: (Units=1/GPa)
#
#
# Indices 1 2 3 4 5 6 
#
# 1 0.022835 0.000530 -0.001596 0.003145 0.002414 -0.015189
# 2 0.000530 0.006282 -0.000660 0.003714 0.001561 0.000110
# 3 -0.001596 -0.000660 0.009499 0.003041 0.005055 -0.002504
# 4 0.003145 0.003714 0.003041 0.043023 0.003024 0.015560
# 5 0.002414 0.001561 0.005055 0.003024 0.022583 -0.010532
# 6 -0.015189 0.000110 -0.002504 0.015560 -0.010532 0.074906
#
#
# Mechanical properties :
#
#
# Convention : Reuss Voigt Hill
#
# Bulk Modulus (GPa) = 28.43999 51.12581 39.78290
# Shear Modulus (GPa) = 25.73314 41.89247 33.81281
#
# Velocity S-wave (km/s) = 3.23254 4.12445 3.70543
# Velocity P-wave (km/s) = 5.04787 6.59104 5.87038
#
# Compressibility (1/GPa) = 0.03516175
#
# Stress axis : x y z
#
# Youngs Moduli (GPa) = 43.79324 159.19628 105.27340
#
# Poissons Ratio (x) = -0.08436 0.16803
# Poissons Ratio (y) = -0.02321 0.06953
# Poissons Ratio (z) = 0.06990 0.10514
#
# Static dielectric constant tensor:
#      x y z
#    x 1.588510 -0.215290 0.156760 
#    y -0.215290 2.044030 0.036150 
#    z 0.156760 0.036150 1.946600 
# 
# From -- ./inp_files/499990.got.cif
#   From: 2010.05.17/outbox.cif.g08.bks.cpg/sg2_250_cif.got.tgz:499990.got - 2010.06.03 11:33:40.
