data_PCOD9010329
_publ_section_title
;
Structure prediction by ZEFSAII (Michael W. Deem and Ramdas Pophale) SiO2 
 PCOD9010329
Probable space group: P -1
;
_chemical_formula_sum "Si O2"
_cell_formula_units_Z 16
_cell_length_a 6.039701
_cell_length_b 11.794713
_cell_length_c 17.162238
_cell_angle_alpha 43.843310
_cell_angle_beta 60.175283
_cell_angle_gamma 52.665380
_cell_volume 669.349723
_symmetry_space_group_name_H-M "P -1"
_symmetry_group_IT_number 2
_symmetry_cell_setting 'triclinic'
loop_
_space_group_symop_operation_xyz
x,y,z
-x,-y,-z
loop_
_atom_site_type_symbol
_atom_site_label
_atom_site_fract_x
_atom_site_fract_y
_atom_site_fract_z
Si Si1 0.019391 0.280741 0.918743
Si Si2 0.352601 0.219032 0.600649
Si Si3 0.302363 0.431156 0.298330
Si Si4 0.512178 0.875561 0.201637
Si Si5 0.264798 0.588770 0.389122
Si Si6 0.881459 0.412744 0.169780
Si Si7 0.368737 0.141480 0.321809
Si Si8 0.897025 0.190152 0.139133
O O1 0.264977 0.131841 0.899590
O O2 0.141337 0.393409 0.896485
O O3 0.823482 0.422560 0.820443
O O4 0.848941 0.217671 0.041383
O O5 0.375637 0.139112 0.722940
O O6 0.401583 0.401085 0.503561
O O7 0.039151 0.276100 0.593947
O O8 0.583970 0.064098 0.585993
O O9 0.180355 0.525635 0.353180
O O10 0.628685 0.384895 0.269329
O O11 0.268825 0.254714 0.362485
O O12 0.455418 0.695613 0.289695
O O13 0.213991 0.042211 0.164270
O O14 0.161635 0.261450 0.231841
O O15 0.863052 0.368802 0.104262
O O16 0.672208 0.134281 0.248271
#
# Coordination Sequence:
#
# PCOD9010329 Si02
#       8
#     2   2   2   2   2   2   2   2
#     4  11  23  38  62  91 124 162 202 242 299 359
#     4  11  23  42  66  89 117 161 202 250 308 356
#     4  10  22  41  62  91 125 156 201 253 294 355
#     4  12  22  42  62  92 124 156 202 250 298 360
#     4  11  23  42  66  89 117 161 202 250 308 356
#     4  10  21  40  63  84 126 164 203 244 299 346
#     4  10  22  41  62  91 125 156 201 253 294 355
#     4  11  23  38  62  91 124 162 202 242 299 359
#
# _framework density 23.903797000000001
#
# number of rings (size 3 to 8) (size 9 to 14) (size 15 to 20)
#    0.000    1.250    5.000    1.125    0.000    6.000 
#    0.000    1.875    0.000    0.000    0.000    0.000 
#    0.000    0.000    0.000    0.000    0.000    0.000 
#
# Total GULP energy -89437.184938 kJ/mol
# GULP energy per Si atom -5589.824059 kJ/mol
# Density = 2.384939 g / cm^3
# Si number density = 23.903797 Si / 1000 Ang^3
#
#
#
# Elastic Constant Matrix: (Units=GPa)
#
#
# Indices 1 2 3 4 5 6 
#
# 1 29.3465 5.7200 -9.2953 -1.3049 3.9770 1.7336
# 2 5.7200 82.8838 -1.0157 -7.1991 13.3344 -5.0160
# 3 -9.2953 -1.0157 44.5808 6.7807 11.9223 5.5925
# 4 -1.3049 -7.1991 6.7807 21.4342 3.9443 7.0237
# 5 3.9770 13.3344 11.9223 3.9443 26.1496 -2.0058
# 6 1.7336 -5.0160 5.5925 7.0237 -2.0058 37.0926
#
#
#
# Elastic Compliance Matrix: (Units=1/GPa)
#
#
# Indices 1 2 3 4 5 6 
#
# 1 0.039901 -0.000835 0.011691 0.002164 -0.011666 -0.004781
# 2 -0.000835 0.014027 0.001554 0.005696 -0.008581 0.000159
# 3 0.011691 0.001554 0.030469 -0.003735 -0.016290 -0.005104
# 4 0.002164 0.005696 -0.003735 0.055026 -0.010579 -0.009759
# 5 -0.011666 -0.008581 -0.016290 -0.010579 0.053933 0.006761
# 6 -0.004781 0.000159 -0.005104 -0.009759 0.006761 0.030188
#
#
# Mechanical properties :
#
#
# Convention : Reuss Voigt Hill
#
# Bulk Modulus (GPa) = 9.15608 16.40322 12.77965
# Shear Modulus (GPa) = 21.26500 27.69541 24.48020
#
# Velocity S-wave (km/s) = 2.98586 3.40754 3.20365
# Velocity P-wave (km/s) = 3.96559 4.72852 4.36376
#
# Compressibility (1/GPa) = 0.10921699
#
# Stress axis : x y z
#
# Youngs Moduli (GPa) = 25.06199 71.29305 32.82018
#
# Poissons Ratio (x) = 0.05953 -0.38370
# Poissons Ratio (y) = 0.02093 -0.05100
# Poissons Ratio (z) = -0.29300 -0.11079
#
# Static dielectric constant tensor:
#      x y z
#    x 1.892390 0.039510 -0.014820 
#    y 0.039510 1.936000 -0.014020 
#    z -0.014820 -0.014020 1.944130 
# 
# From -- ./inp_files/37247.got.cif
#   From: 2010.05.17/outbox.cif.g08.bks.cpg/sg2_19_cif.got.tgz:37247.got - 2010.06.03 11:33:40.
