data_PCOD9010460
_publ_section_title
;
Structure prediction by ZEFSAII (Michael W. Deem and Ramdas Pophale) SiO2 
 PCOD9010460
Probable space group: P -1
;
_chemical_formula_sum "Si O2"
_cell_formula_units_Z 16
_cell_length_a 6.764000
_cell_length_b 18.839820
_cell_length_c 15.601226
_cell_angle_alpha 143.704553
_cell_angle_beta 57.705420
_cell_angle_gamma 141.959395
_cell_volume 697.138385
_symmetry_space_group_name_H-M "P -1"
_symmetry_group_IT_number 2
_symmetry_cell_setting 'triclinic'
loop_
_space_group_symop_operation_xyz
x,y,z
-x,-y,-z
loop_
_atom_site_type_symbol
_atom_site_label
_atom_site_fract_x
_atom_site_fract_y
_atom_site_fract_z
Si Si1 0.628769 0.453749 0.693055
Si Si2 0.735550 0.326158 0.118641
Si Si3 0.475542 0.646456 0.976256
Si Si4 0.652493 0.904717 0.629335
Si Si5 0.490038 0.475634 0.377050
Si Si6 0.780063 0.159336 0.474885
Si Si7 0.615832 0.846524 0.295257
Si Si8 0.274203 0.938526 0.074242
O O1 0.425124 0.486361 0.818146
O O2 0.421706 0.257951 0.538033
O O3 0.742862 0.544559 0.660313
O O4 0.936057 0.537307 0.765975
O O5 0.737402 0.363070 0.054969
O O6 0.476957 0.328199 0.220014
O O7 0.669678 0.161749 0.981527
O O8 0.434351 0.687713 0.119501
O O9 0.877553 0.807032 0.020721
O O10 0.388944 0.888118 0.624098
O O11 0.620778 0.912614 0.745800
O O12 0.029006 0.078135 0.685436
O O13 0.500000 0.500000 0.500000
O O14 0.844479 0.658213 0.441126
O O15 0.594047 0.180836 0.604291
O O16 0.722934 0.003996 0.369758
O O17 0.500000 0.000000 0.000000
#
# Coordination Sequence:
#
# PCOD9010460 Si02
#       8
#     2   2   2   2   2   2   2   2
#     4  10  21  40  63  91 129 159 209 257 308 377
#     4  10  21  41  59  85 129 161 208 253 305 380
#     4   9  21  41  60  87 124 168 204 254 320 369
#     4  11  21  39  67  92 126 159 212 261 314 368
#     4  11  24  38  63  92 126 165 207 254 312 372
#     4  11  22  39  64  97 120 168 211 256 320 365
#     4  10  22  41  67  89 130 160 211 265 305 379
#     4  10  23  37  61  92 123 164 208 261 313 370
#
# _framework density 22.950966999999999
#
# number of rings (size 3 to 8) (size 9 to 14) (size 15 to 20)
#    0.000    1.750    2.500    1.125    1.750    4.000 
#    0.000    3.125    2.750    0.000    0.000    0.000 
#    0.000    0.000    0.000    0.000    0.000    0.000 
#
# Total GULP energy -89407.688851 kJ/mol
# GULP energy per Si atom -5587.980553 kJ/mol
# Density = 2.289873 g / cm^3
# Si number density = 22.950967 Si / 1000 Ang^3
#
#
#
# Elastic Constant Matrix: (Units=GPa)
#
#
# Indices 1 2 3 4 5 6 
#
# 1 102.4734 4.4032 11.4610 10.3674 19.8183 -10.9867
# 2 4.4032 53.2634 17.2057 -10.5596 -0.7842 9.7710
# 3 11.4610 17.2057 154.1914 -6.4063 10.6300 -2.1030
# 4 10.3674 -10.5596 -6.4063 19.9808 -3.7086 -7.5592
# 5 19.8183 -0.7842 10.6300 -3.7086 35.2864 1.1279
# 6 -10.9867 9.7710 -2.1030 -7.5592 1.1279 15.3163
#
#
#
# Elastic Compliance Matrix: (Units=1/GPa)
#
#
# Indices 1 2 3 4 5 6 
#
# 1 0.013382 -0.004386 -0.000085 -0.007339 -0.008659 0.009401
# 2 -0.004386 0.024727 -0.002589 0.009908 0.005306 -0.014777
# 3 -0.000085 -0.002589 0.007053 0.001946 -0.002047 0.003670
# 4 -0.007339 0.009908 0.001946 0.070180 0.010411 0.022552
# 5 -0.008659 0.005306 -0.002047 0.010411 0.035266 -0.007336
# 6 0.009401 -0.014777 0.003670 0.022552 -0.007336 0.093634
#
#
# Mechanical properties :
#
#
# Convention : Reuss Voigt Hill
#
# Bulk Modulus (GPa) = 32.21480 41.78530 37.00005
# Shear Modulus (GPa) = 18.60753 32.57394 25.59073
#
# Velocity S-wave (km/s) = 2.85046 3.77143 3.34281
# Velocity P-wave (km/s) = 4.99002 6.10006 5.57275
#
# Compressibility (1/GPa) = 0.03104163
#
# Stress axis : x y z
#
# Youngs Moduli (GPa) = 74.72873 40.44235 141.79031
#
# Poissons Ratio (x) = 0.17737 0.01205
# Poissons Ratio (y) = 0.32775 0.36707
# Poissons Ratio (z) = 0.00635 0.10470
#
# Static dielectric constant tensor:
#      x y z
#    x 1.889650 0.014230 0.016980 
#    y 0.014230 1.861480 -0.006120 
#    z 0.016980 -0.006120 1.881470 
# 
# From -- ./inp_files/485253.got.cif
#   From: 2010.05.17/outbox.cif.g08.bks.cpg/sg2_243_cif.got.tgz:485253.got - 2010.06.03 11:33:40.
