data_PCOD9010402
_publ_section_title
;
Structure prediction by ZEFSAII (Michael W. Deem and Ramdas Pophale) SiO2 
 PCOD9010402
Probable space group: P -1
;
_chemical_formula_sum "Si O2"
_cell_formula_units_Z 14
_cell_length_a 4.815850
_cell_length_b 16.125300
_cell_length_c 7.048694
_cell_angle_alpha 105.195613
_cell_angle_beta 105.570129
_cell_angle_gamma 98.760928
_cell_volume 494.044409
_symmetry_space_group_name_H-M "P -1"
_symmetry_group_IT_number 2
_symmetry_cell_setting 'triclinic'
loop_
_space_group_symop_operation_xyz
x,y,z
-x,-y,-z
loop_
_atom_site_type_symbol
_atom_site_label
_atom_site_fract_x
_atom_site_fract_y
_atom_site_fract_z
Si Si1 0.604257 0.662709 0.061743
Si Si2 0.757179 0.541103 0.717447
Si Si3 0.383257 0.899407 0.352902
Si Si4 0.767332 0.121792 0.274300
Si Si5 0.207363 0.081524 0.877714
Si Si6 0.821751 0.355478 0.687628
Si Si7 0.752555 0.718831 0.718866
O O1 0.112682 0.898259 0.160518
O O2 0.879100 0.677405 0.266129
O O3 0.614384 0.571676 0.899120
O O4 0.667954 0.727585 0.930669
O O5 0.500000 0.500000 0.500000
O O6 0.910308 0.461618 0.733100
O O7 0.910386 0.635254 0.706126
O O8 0.284518 0.852828 0.503331
O O9 0.642795 0.876049 0.266294
O O10 0.500000 0.000000 0.500000
O O11 0.023145 0.197471 0.276269
O O12 0.847618 0.025763 0.221542
O O13 0.450770 0.106532 0.101029
O O14 0.680847 0.340551 0.865285
O O15 0.555590 0.312710 0.470674
#
# Coordination Sequence:
#
# PCOD9010402 Si02
#       7
#     2   2   2   2   2   2   2
#     4  10  23  39  65  88 121 162 203 245 301 361
#     4   8  18  40  62  90 121 157 203 249 297 357
#     4  10  21  40  64  92 116 158 204 246 294 366
#     4  10  21  40  63  89 126 158 199 254 305 350
#     4  10  23  40  66  88 120 161 206 242 302 365
#     4  11  21  43  63  87 120 167 200 249 302 353
#     4   9  23  40  59  95 123 156 204 254 298 363
#
# _framework density 28.337534000000002
#
# number of rings (size 3 to 8) (size 9 to 14) (size 15 to 20)
#    0.857    1.429    0.000    2.571    0.000    9.714 
#    0.000   11.429    0.000    0.000    0.000    0.000 
#    0.000    0.000    0.000    0.000    0.000    0.000 
#
# Total GULP energy -78577.495427 kJ/mol
# GULP energy per Si atom -5612.678245 kJ/mol
# Density = 2.827304 g / cm^3
# Si number density = 28.337534 Si / 1000 Ang^3
#
#
#
# Elastic Constant Matrix: (Units=GPa)
#
#
# Indices 1 2 3 4 5 6 
#
# 1 120.0938 44.1704 25.6343 -5.4845 6.0623 17.9441
# 2 44.1704 165.9295 37.6667 -6.4740 -0.9440 25.7923
# 3 25.6343 37.6667 156.7843 -1.0387 12.2459 10.5805
# 4 -5.4845 -6.4740 -1.0387 46.8048 1.7918 -3.3828
# 5 6.0623 -0.9440 12.2459 1.7918 42.1773 -2.8716
# 6 17.9441 25.7923 10.5805 -3.3828 -2.8716 36.6904
#
#
#
# Elastic Compliance Matrix: (Units=1/GPa)
#
#
# Indices 1 2 3 4 5 6 
#
# 1 0.009791 -0.001896 -0.000805 0.000687 -0.001468 -0.003275
# 2 -0.001896 0.007437 -0.001254 0.000480 0.000520 -0.003854
# 3 -0.000805 -0.001254 0.007030 -0.000101 -0.002012 -0.000919
# 4 0.000687 0.000480 -0.000101 0.021637 -0.000891 0.001281
# 5 -0.001468 0.000520 -0.002012 -0.000891 0.024744 0.002787
# 6 -0.003275 -0.003854 -0.000919 0.001281 0.002787 0.032167
#
#
# Mechanical properties :
#
#
# Convention : Reuss Voigt Hill
#
# Bulk Modulus (GPa) = 61.17382 73.08337 67.12860
# Shear Modulus (GPa) = 43.04266 47.49025 45.26645
#
# Velocity S-wave (km/s) = 3.90157 4.09819 4.00109
# Velocity P-wave (km/s) = 6.47540 6.94549 6.71456
#
# Compressibility (1/GPa) = 0.01634686
#
# Stress axis : x y z
#
# Youngs Moduli (GPa) = 102.13629 134.46615 142.25707
#
# Poissons Ratio (x) = 0.25496 0.11453
# Poissons Ratio (y) = 0.19366 0.17839
# Poissons Ratio (z) = 0.08223 0.16862
#
# Static dielectric constant tensor:
#      x y z
#    x 2.108020 -0.028760 -0.074080 
#    y -0.028760 2.298740 0.023190 
#    z -0.074080 0.023190 2.189090 
# 
# From -- ./inp_files/197067.got.cif
#   From: 2010.05.17/outbox.cif.g08.bks.cpg/sg2_99_cif.got.tgz:197067.got - 2010.06.03 11:33:40.
