data_PCOD9010352
_publ_section_title
;
Structure prediction by ZEFSAII (Michael W. Deem and Ramdas Pophale) SiO2 
 PCOD9010352
Probable space group: P -1
;
_chemical_formula_sum "Si O2"
_cell_formula_units_Z 10
_cell_length_a 10.835273
_cell_length_b 9.200259
_cell_length_c 5.371812
_cell_angle_alpha 68.199006
_cell_angle_beta 83.542881
_cell_angle_gamma 57.547826
_cell_volume 416.974761
_symmetry_space_group_name_H-M "P -1"
_symmetry_group_IT_number 2
_symmetry_cell_setting 'triclinic'
loop_
_space_group_symop_operation_xyz
x,y,z
-x,-y,-z
loop_
_atom_site_type_symbol
_atom_site_label
_atom_site_fract_x
_atom_site_fract_y
_atom_site_fract_z
Si Si1 0.634538 0.786465 0.135605
Si Si2 0.240435 0.582175 0.482427
Si Si3 0.935201 0.378547 0.998150
Si Si4 0.859487 0.023428 0.661666
Si Si5 0.676981 0.882417 0.556222
O O1 0.615831 0.622442 0.352341
O O2 0.731807 0.792279 0.331923
O O3 0.701831 0.750390 0.868362
O O4 0.500000 0.000000 0.000000
O O5 0.153473 0.617417 0.738811
O O6 0.234471 0.773228 0.323593
O O7 0.156535 0.570063 0.269260
O O8 0.063984 0.160639 0.070155
O O9 0.000000 0.500000 0.000000
O O10 0.748386 0.999364 0.530510
O O11 0.000000 0.000000 0.500000
O O12 0.500000 0.000000 0.500000
#
# Coordination Sequence:
#
# PCOD9010352 Si02
#       5
#     2   2   2   2   2
#     4  10  21  40  63  87 119 166 211 248 299 372
#     4  11  22  37  58  91 124 156 201 259 307 353
#     4  11  22  37  60  89 123 162 200 247 308 372
#     4  10  23  40  62  95 128 159 201 259 312 360
#     4  10  22  42  64  86 121 167 210 249 300 369
#
# _framework density 23.982265000000002
#
# number of rings (size 3 to 8) (size 9 to 14) (size 15 to 20)
#    0.000    1.600    0.000    4.800    0.000    8.000 
#    0.000    8.000    0.000    0.000    0.000    0.000 
#    0.000    0.000    0.000    0.000    0.000    0.000 
#
# Total GULP energy -55667.118985 kJ/mol
# GULP energy per Si atom -5566.711898 kJ/mol
# Density = 2.392768 g / cm^3
# Si number density = 23.982265 Si / 1000 Ang^3
#
#
#
# Elastic Constant Matrix: (Units=GPa)
#
#
# Indices 1 2 3 4 5 6 
#
# 1 85.2320 23.6151 29.6911 -5.6187 17.8894 8.9834
# 2 23.6151 164.9616 78.3971 -35.9163 16.6621 28.0346
# 3 29.6911 78.3971 195.3803 6.6833 21.7927 11.1977
# 4 -5.6187 -35.9163 6.6833 43.5481 4.2068 -4.1453
# 5 17.8894 16.6621 21.7927 4.2068 29.4149 8.2852
# 6 8.9834 28.0346 11.1977 -4.1453 8.2852 37.1668
#
#
#
# Elastic Compliance Matrix: (Units=1/GPa)
#
#
# Indices 1 2 3 4 5 6 
#
# 1 0.014093 0.000260 -0.001414 0.002893 -0.007768 -0.001122
# 2 0.000260 0.011550 -0.004321 0.010013 -0.003351 -0.005609
# 3 -0.001414 -0.004321 0.007356 -0.004574 -0.001851 0.001287
# 4 0.002893 0.010013 -0.004574 0.032980 -0.008386 -0.001326
# 5 -0.007768 -0.003351 -0.001851 -0.008386 0.044872 -0.005975
# 6 -0.001122 -0.005609 0.001287 -0.001326 -0.005975 0.032204
#
#
# Mechanical properties :
#
#
# Convention : Reuss Voigt Hill
#
# Bulk Modulus (GPa) = 45.35562 78.77560 62.06561
# Shear Modulus (GPa) = 30.98734 42.95067 36.96901
#
# Velocity S-wave (km/s) = 3.59847 4.23653 3.93047
# Velocity P-wave (km/s) = 6.01818 7.53988 6.82159
#
# Compressibility (1/GPa) = 0.02204798
#
# Stress axis : x y z
#
# Youngs Moduli (GPa) = 70.95855 86.57823 135.94088
#
# Poissons Ratio (x) = -0.02249 0.19223
# Poissons Ratio (y) = -0.01843 0.58744
# Poissons Ratio (z) = 0.10034 0.37413
#
# Static dielectric constant tensor:
#      x y z
#    x 1.823140 -0.001230 0.034350 
#    y -0.001230 2.307580 -0.106900 
#    z 0.034350 -0.106900 1.920970 
# 
# From -- ./inp_files/28962.got.cif
#   From: 2010.05.17/outbox.cif.g08.bks.cpg/sg2_15_cif.got.tgz:28962.got - 2010.06.03 11:33:40.
