data_PCOD9010947
_publ_section_title
;
Structure prediction by ZEFSAII (Michael W. Deem and Ramdas Pophale) SiO2 
 PCOD9010947
Probable space group: P -1
;
_chemical_formula_sum "Si O2"
_cell_formula_units_Z 14
_cell_length_a 12.274065
_cell_length_b 11.498789
_cell_length_c 7.812429
_cell_angle_alpha 62.322742
_cell_angle_beta 52.496834
_cell_angle_gamma 36.614565
_cell_volume 521.033777
_symmetry_space_group_name_H-M "P -1"
_symmetry_group_IT_number 2
_symmetry_cell_setting 'triclinic'
loop_
_space_group_symop_operation_xyz
x,y,z
-x,-y,-z
loop_
_atom_site_type_symbol
_atom_site_label
_atom_site_fract_x
_atom_site_fract_y
_atom_site_fract_z
Si Si1 0.204077 0.451755 0.686912
Si Si2 0.717701 0.188932 0.684808
Si Si3 0.624212 0.141662 0.337612
Si Si4 0.787657 0.857426 0.667842
Si Si5 0.068257 0.890104 0.791486
Si Si6 0.614486 0.706244 0.885241
Si Si7 0.993035 0.353726 0.891655
O O1 0.432221 0.329243 0.507028
O O2 0.141212 0.510565 0.904304
O O3 0.019708 0.651965 0.625312
O O4 0.186445 0.310195 0.749706
O O5 0.748652 0.014261 0.713310
O O6 0.884172 0.099066 0.734143
O O7 0.777372 0.235236 0.434469
O O8 0.495446 0.334053 0.878010
O O9 0.795236 0.133182 0.184708
O O10 0.521661 0.182526 0.228529
O O11 0.729973 0.947435 0.471603
O O12 0.650010 0.825317 0.851474
O O13 0.978871 0.818546 0.993599
O O14 0.845938 0.493840 0.779884
#
# Coordination Sequence:
#
# PCOD9010947 Si02
#       7
#     2   2   2   2   2   2   2
#     4  10  22  41  68  95 124 160 217 264 306 362
#     4  10  21  40  66  91 122 161 217 265 300 367
#     4  11  25  42  61  96 135 168 199 252 323 386
#     4  10  21  42  66  95 120 166 216 260 306 362
#     4  10  22  41  63  92 123 165 211 257 315 364
#     4  11  24  39  64  96 129 165 205 255 324 374
#     4  10  21  40  64  97 118 162 217 263 305 363
#
# _framework density 26.869657
#
# number of rings (size 3 to 8) (size 9 to 14) (size 15 to 20)
#    0.000    1.714    1.429    2.571    2.000    5.714 
#    2.571    0.000    0.000    0.000    0.000    0.000 
#    0.000    0.000    0.000    0.000    0.000    0.000 
#
# Total GULP energy -78407.247579 kJ/mol
# GULP energy per Si atom -5600.517684 kJ/mol
# Density = 2.680850 g / cm^3
# Si number density = 26.869657 Si / 1000 Ang^3
#
#
#
# Elastic Constant Matrix: (Units=GPa)
#
#
# Indices 1 2 3 4 5 6 
#
# 1 145.0332 35.8904 16.9486 -2.2527 0.0197 -32.1878
# 2 35.8904 64.0661 10.5589 -16.2460 10.5164 -21.8040
# 3 16.9486 10.5589 68.0899 0.5293 -3.6159 -11.7650
# 4 -2.2527 -16.2460 0.5293 41.4805 -8.4611 0.4241
# 5 0.0197 10.5164 -3.6159 -8.4611 44.2193 -1.3403
# 6 -32.1878 -21.8040 -11.7650 0.4241 -1.3403 49.1083
#
#
#
# Elastic Compliance Matrix: (Units=1/GPa)
#
#
# Indices 1 2 3 4 5 6 
#
# 1 0.008789 -0.003807 -0.000877 -0.000884 0.000779 0.003889
# 2 -0.003807 0.023137 -0.001664 0.008010 -0.003886 0.007203
# 3 -0.000877 -0.001664 0.015686 -0.000590 0.001641 0.002494
# 4 -0.000884 0.008010 -0.000590 0.027883 0.003464 0.002689
# 5 0.000779 -0.003886 0.001641 0.003464 0.024330 -0.000188
# 6 0.003889 0.007203 0.002494 0.002689 -0.000188 0.026679
#
#
# Mechanical properties :
#
#
# Convention : Reuss Voigt Hill
#
# Bulk Modulus (GPa) = 28.64209 44.88721 36.76465
# Shear Modulus (GPa) = 33.14798 41.21439 37.18118
#
# Velocity S-wave (km/s) = 3.51616 3.92071 3.72393
# Velocity P-wave (km/s) = 5.21222 6.10227 5.67472
#
# Compressibility (1/GPa) = 0.03491366
#
# Stress axis : x y z
#
# Youngs Moduli (GPa) = 113.77959 43.22161 63.75305
#
# Poissons Ratio (x) = 0.16456 0.05592
# Poissons Ratio (y) = 0.43321 0.10610
# Poissons Ratio (z) = 0.09980 0.07193
#
# Static dielectric constant tensor:
#      x y z
#    x 2.086130 0.052160 0.074020 
#    y 0.052160 2.106230 0.074660 
#    z 0.074020 0.074660 2.154890 
# 
# From -- ./inp_files/154255.got.cif
#   From: 2010.05.17/outbox.cif.g08.bks.cpg/sg2_78_cif.got.tgz:154255.got - 2010.06.03 11:33:40.
