data_PCOD9010956
_publ_section_title
;
Structure prediction by ZEFSAII (Michael W. Deem and Ramdas Pophale) SiO2 
 PCOD9010956
Probable space group: P -1
;
_chemical_formula_sum "Si O2"
_cell_formula_units_Z 14
_cell_length_a 8.783675
_cell_length_b 27.606438
_cell_length_c 19.255776
_cell_angle_alpha 168.459716
_cell_angle_beta 39.528254
_cell_angle_gamma 140.764455
_cell_volume 587.986647
_symmetry_space_group_name_H-M "P -1"
_symmetry_group_IT_number 2
_symmetry_cell_setting 'triclinic'
loop_
_space_group_symop_operation_xyz
x,y,z
-x,-y,-z
loop_
_atom_site_type_symbol
_atom_site_label
_atom_site_fract_x
_atom_site_fract_y
_atom_site_fract_z
Si Si1 0.310463 0.005162 0.728142
Si Si2 0.877502 0.626172 0.784584
Si Si3 0.755265 0.990196 0.735654
Si Si4 0.432628 0.254253 0.411856
Si Si5 0.284976 0.267240 0.755649
Si Si6 0.928281 0.603963 0.366751
Si Si7 0.323464 0.244227 0.205189
O O1 0.577448 0.928280 0.527377
O O2 0.248952 0.151893 0.889365
O O3 0.270673 0.171495 0.042626
O O4 0.117436 0.767357 0.479446
O O5 0.667516 0.417575 0.590334
O O6 0.000000 0.500000 0.500000
O O7 0.071904 0.756100 0.952875
O O8 0.753430 0.822381 0.568432
O O9 0.797620 0.847989 0.451499
O O10 0.483846 0.051078 0.908109
O O11 0.321444 0.403282 0.598564
O O12 0.500000 0.000000 0.000000
O O13 0.500000 0.500000 0.000000
O O14 0.048365 0.364359 0.004526
O O15 0.889809 0.732078 0.633248
O O16 0.500000 0.500000 0.500000
#
# Coordination Sequence:
#
# PCOD9010956 Si02
#       7
#     2   2   2   2   2   2   2
#     4  10  21  40  64  97 132 167 219 273 326 386
#     4  12  22  40  69 101 134 167 218 277 324 391
#     4  11  23  44  67  95 136 171 216 274 330 386
#     4  12  22  39  67 103 130 169 218 274 334 386
#     4   9  23  45  68  93 131 182 218 266 329 392
#     4  11  20  41  68  92 129 179 217 266 328 390
#     4  11  22  38  63  97 126 166 221 270 323 386
#
# _framework density 23.810064000000001
#
# number of rings (size 3 to 8) (size 9 to 14) (size 15 to 20)
#    0.000    1.143    4.286    2.143    0.000    0.571 
#    7.714    7.143    3.143    0.000    0.000    0.000 
#    0.000    0.000    0.000    0.000    0.000    0.000 
#
# Total GULP energy -78314.045627 kJ/mol
# GULP energy per Si atom -5593.860402 kJ/mol
# Density = 2.375587 g / cm^3
# Si number density = 23.810064 Si / 1000 Ang^3
#
#
#
# Elastic Constant Matrix: (Units=GPa)
#
#
# Indices 1 2 3 4 5 6 
#
# 1 100.4482 20.5068 35.3790 -13.4555 3.2484 7.5215
# 2 20.5068 52.5815 36.9714 6.4274 -2.5002 16.3810
# 3 35.3790 36.9714 90.4675 -22.8516 3.1050 5.5460
# 4 -13.4555 6.4274 -22.8516 53.7284 13.5743 1.1466
# 5 3.2484 -2.5002 3.1050 13.5743 52.3285 11.5427
# 6 7.5215 16.3810 5.5460 1.1466 11.5427 26.5383
#
#
#
# Elastic Compliance Matrix: (Units=1/GPa)
#
#
# Indices 1 2 3 4 5 6 
#
# 1 0.011940 -0.002851 -0.002804 0.002458 -0.001213 -0.000617
# 2 -0.002851 0.048060 -0.022024 -0.019071 0.015370 -0.030116
# 3 -0.002804 -0.022024 0.024272 0.014203 -0.008763 0.012515
# 4 0.002458 -0.019071 0.014203 0.030448 -0.012502 0.012229
# 5 -0.001213 0.015370 -0.008763 -0.012502 0.027848 -0.018885
# 6 -0.000617 -0.030116 0.012515 0.012229 -0.018885 0.061516
#
#
# Mechanical properties :
#
#
# Convention : Reuss Voigt Hill
#
# Bulk Modulus (GPa) = 34.58599 47.69020 41.13809
# Shear Modulus (GPa) = 18.58184 36.56171 27.57178
#
# Velocity S-wave (km/s) = 2.79663 3.92287 3.40661
# Velocity P-wave (km/s) = 4.99855 6.37114 5.72612
#
# Compressibility (1/GPa) = 0.02891344
#
# Stress axis : x y z
#
# Youngs Moduli (GPa) = 83.75473 20.80724 41.19975
#
# Poissons Ratio (x) = 0.05932 0.11551
# Poissons Ratio (y) = 0.23879 0.90740
# Poissons Ratio (z) = 0.23482 0.45827
#
# Static dielectric constant tensor:
#      x y z
#    x 1.949610 0.035340 0.003230 
#    y 0.035340 1.956820 0.021580 
#    z 0.003230 0.021580 1.924580 
# 
# From -- ./inp_files/240128.got.cif
#   From: 2010.05.17/outbox.cif.g08.bks.cpg/sg2_121_cif.got.tgz:240128.got - 2010.06.03 11:33:40.
