data_PCOD9010146
_publ_section_title
;
Structure prediction by ZEFSAII (Michael W. Deem and Ramdas Pophale) SiO2 
 PCOD9010146
Probable space group: P -1
;
_chemical_formula_sum "Si O2"
_cell_formula_units_Z 16
_cell_length_a 7.424077
_cell_length_b 15.049969
_cell_length_c 16.502381
_cell_angle_alpha 25.679618
_cell_angle_beta 102.707304
_cell_angle_gamma 87.703826
_cell_volume 643.776088
_symmetry_space_group_name_H-M "P -1"
_symmetry_group_IT_number 2
_symmetry_cell_setting 'triclinic'
loop_
_space_group_symop_operation_xyz
x,y,z
-x,-y,-z
loop_
_atom_site_type_symbol
_atom_site_label
_atom_site_fract_x
_atom_site_fract_y
_atom_site_fract_z
Si Si1 0.723254 0.657364 0.758303
Si Si2 0.164462 0.571780 0.420706
Si Si3 0.965123 0.586454 0.230093
Si Si4 0.068839 0.925728 0.727670
Si Si5 0.905204 0.358785 0.265031
Si Si6 0.465507 0.235286 0.850671
Si Si7 0.944768 0.038460 0.120863
Si Si8 0.499940 0.145935 0.253964
O O1 0.583779 0.736411 0.761944
O O2 0.925525 0.699492 0.744170
O O3 0.556778 0.867136 0.502055
O O4 0.853665 0.357533 0.011140
O O5 0.391868 0.424884 0.613581
O O6 0.000000 0.500000 0.500000
O O7 0.158724 0.516269 0.372322
O O8 0.043854 0.850110 0.210168
O O9 0.021666 0.391750 0.326996
O O10 0.741027 0.663014 0.192124
O O11 0.937043 0.819042 0.992160
O O12 0.020739 0.049540 0.710661
O O13 0.281861 0.879250 0.737977
O O14 0.877976 0.141576 0.470935
O O15 0.691263 0.635129 0.001345
O O16 0.679706 0.185621 0.958710
O O17 0.500000 0.000000 0.000000
#
# Coordination Sequence:
#
# PCOD9010146 Si02
#       8
#     2   2   2   2   2   2   2   2
#     4  10  22  44  65 100 129 170 215 273 328 403
#     4  10  21  40  62  88 125 170 217 278 324 389
#     4  11  23  43  63  92 134 168 225 277 325 397
#     4  11  23  40  67  95 133 171 217 272 333 386
#     4  11  23  42  65  96 132 176 211 276 332 389
#     4  11  23  40  64  89 120 176 221 267 340 387
#     4  12  23  43  63  91 134 171 220 280 327 390
#     4  10  23  42  69  94 135 168 217 267 335 402
#
# _framework density 24.853363999999999
#
# number of rings (size 3 to 8) (size 9 to 14) (size 15 to 20)
#    0.000    1.250    3.750    3.375    0.000    2.000 
#    2.250    0.000    0.000    0.000    0.000    0.000 
#    0.000    0.000    0.000    0.000    0.000    0.000 
#
# Total GULP energy -89220.215155 kJ/mol
# GULP energy per Si atom -5576.263447 kJ/mol
# Density = 2.479680 g / cm^3
# Si number density = 24.853364 Si / 1000 Ang^3
#
#
#
# Elastic Constant Matrix: (Units=GPa)
#
#
# Indices 1 2 3 4 5 6 
#
# 1 51.5452 3.0911 42.7461 -1.5573 -11.3331 -2.0583
# 2 3.0911 91.8148 34.8198 -2.8863 -6.7562 -5.6441
# 3 42.7461 34.8198 184.9491 13.1774 -18.3750 2.0922
# 4 -1.5573 -2.8863 13.1774 42.7994 -1.1215 -8.1011
# 5 -11.3331 -6.7562 -18.3750 -1.1215 38.2984 -1.7015
# 6 -2.0583 -5.6441 2.0922 -8.1011 -1.7015 24.3460
#
#
#
# Elastic Compliance Matrix: (Units=1/GPa)
#
#
# Indices 1 2 3 4 5 6 
#
# 1 0.025965 0.002335 -0.006251 0.004120 0.005440 0.005025
# 2 0.002335 0.012409 -0.002944 0.002697 0.001739 0.004346
# 3 -0.006251 -0.002944 0.007791 -0.003346 0.001141 -0.002914
# 4 0.004120 0.002697 -0.003346 0.026700 0.001326 0.010238
# 5 0.005440 0.001739 0.001141 0.001326 0.028757 0.003216
# 6 0.005025 0.004346 -0.002914 0.010238 0.003216 0.046389
#
#
# Mechanical properties :
#
#
# Convention : Reuss Voigt Hill
#
# Bulk Modulus (GPa) = 30.82099 54.40256 42.61177
# Shear Modulus (GPa) = 28.97775 37.59890 33.28832
#
# Velocity S-wave (km/s) = 3.41830 3.89373 3.66374
# Velocity P-wave (km/s) = 5.29224 6.49244 5.92282
#
# Compressibility (1/GPa) = 0.03244543
#
# Stress axis : x y z
#
# Youngs Moduli (GPa) = 38.51271 80.58359 128.35784
#
# Poissons Ratio (x) = -0.18817 0.80234
# Poissons Ratio (y) = -0.08993 0.37795
# Poissons Ratio (z) = 0.24073 0.23728
#
# Static dielectric constant tensor:
#      x y z
#    x 2.115070 0.114960 -0.031200 
#    y 0.114960 1.681030 0.064740 
#    z -0.031200 0.064740 2.171630 
# 
# From -- ./inp_files/505046.got.cif
#   From: 2010.05.17/outbox.cif.g08.bks.cpg/sg2_253_cif.got.tgz:505046.got - 2010.06.03 11:33:40.
