data_PCOD9010974
_publ_section_title
;
Structure prediction by ZEFSAII (Michael W. Deem and Ramdas Pophale) SiO2 
 PCOD9010974
Probable space group: P -1
;
_chemical_formula_sum "Si O2"
_cell_formula_units_Z 14
_cell_length_a 5.173618
_cell_length_b 16.483271
_cell_length_c 9.180679
_cell_angle_alpha 70.798876
_cell_angle_beta 47.380748
_cell_angle_gamma 64.799316
_cell_volume 520.317897
_symmetry_space_group_name_H-M "P -1"
_symmetry_group_IT_number 2
_symmetry_cell_setting 'triclinic'
loop_
_space_group_symop_operation_xyz
x,y,z
-x,-y,-z
loop_
_atom_site_type_symbol
_atom_site_label
_atom_site_fract_x
_atom_site_fract_y
_atom_site_fract_z
Si Si1 0.276014 0.859307 0.373206
Si Si2 0.018619 0.303475 0.951301
Si Si3 0.984702 0.701997 0.650073
Si Si4 0.668488 0.457501 0.178277
Si Si5 0.216916 0.647713 0.296433
Si Si6 0.500310 0.165486 0.027164
Si Si7 0.522165 0.989244 0.674127
O O1 0.251622 0.765170 0.497722
O O2 0.936820 0.922908 0.554909
O O3 0.558114 0.913886 0.275973
O O4 0.261569 0.854297 0.204656
O O5 0.393350 0.333236 0.823739
O O6 0.960364 0.295211 0.809130
O O7 0.107831 0.210974 0.062172
O O8 0.686356 0.387883 0.081453
O O9 0.619964 0.758044 0.841709
O O10 0.204230 0.609577 0.696356
O O11 0.937236 0.676936 0.517489
O O12 0.316639 0.541895 0.285912
O O13 0.000000 0.500000 0.000000
O O14 0.634506 0.074411 0.123145
O O15 0.500000 0.000000 0.500000
#
# Coordination Sequence:
#
# PCOD9010974 Si02
#       7
#     2   2   2   2   2   2   2
#     4  10  21  43  65  93 136 168 224 276 344 405
#     4  10  22  41  67  98 135 180 231 287 341 407
#     4  10  21  40  64  98 132 179 229 283 339 406
#     4   9  20  40  67  97 136 180 234 284 345 403
#     4  11  21  42  66  96 139 181 233 288 338 403
#     4  10  21  42  63  96 134 174 224 275 344 404
#     4  10  23  42  68  99 130 171 222 274 342 415
#
# _framework density 26.906631000000001
#
# number of rings (size 3 to 8) (size 9 to 14) (size 15 to 20)
#    0.000    2.000    1.429    1.286    0.000    2.857 
#   10.286   12.143    0.000    0.000    0.000    0.000 
#    0.000    0.000    0.000    0.000    0.000    0.000 
#
# Total GULP energy -77951.151219 kJ/mol
# GULP energy per Si atom -5567.939373 kJ/mol
# Density = 2.684539 g / cm^3
# Si number density = 26.906631 Si / 1000 Ang^3
#
#
#
# Elastic Constant Matrix: (Units=GPa)
#
#
# Indices 1 2 3 4 5 6 
#
# 1 68.8898 27.6333 41.8427 -0.8594 12.1887 -1.2602
# 2 27.6333 157.9252 58.9485 -10.8750 10.9941 7.4449
# 3 41.8427 58.9485 188.9373 -9.9781 27.3611 15.1216
# 4 -0.8594 -10.8750 -9.9781 73.6546 -4.1103 11.8726
# 5 12.1887 10.9941 27.3611 -4.1103 54.0716 3.9566
# 6 -1.2602 7.4449 15.1216 11.8726 3.9566 19.7923
#
#
#
# Elastic Compliance Matrix: (Units=1/GPa)
#
#
# Indices 1 2 3 4 5 6 
#
# 1 0.018039 -0.002058 -0.003588 -0.001709 -0.002414 0.006171
# 2 -0.002058 0.007500 -0.001625 0.001265 0.000039 -0.002477
# 3 -0.003588 -0.001625 0.007443 0.001548 -0.002084 -0.005816
# 4 -0.001709 0.001265 0.001548 0.015899 0.001401 -0.011584
# 5 -0.002414 0.000039 -0.002084 0.001401 0.020448 -0.003504
# 6 0.006171 -0.002477 -0.005816 -0.011584 -0.003504 0.063942
#
#
# Mechanical properties :
#
#
# Convention : Reuss Voigt Hill
#
# Bulk Modulus (GPa) = 54.22437 74.73346 64.47892
# Shear Modulus (GPa) = 32.47626 48.65887 40.56757
#
# Velocity S-wave (km/s) = 3.47796 4.25718 3.88714
# Velocity P-wave (km/s) = 6.02701 7.21112 6.64549
#
# Compressibility (1/GPa) = 0.01844189
#
# Stress axis : x y z
#
# Youngs Moduli (GPa) = 55.43518 133.33622 134.35067
#
# Poissons Ratio (x) = 0.27439 0.48198
# Poissons Ratio (y) = 0.11408 0.21829
# Poissons Ratio (z) = 0.19887 0.21664
#
# Static dielectric constant tensor:
#      x y z
#    x 2.447470 0.196480 -0.239680 
#    y 0.196480 2.292020 -0.127280 
#    z -0.239680 -0.127280 2.267120 
# 
# From -- ./inp_files/138842.got.cif
#   From: 2010.05.17/outbox.cif.g08.bks.cpg/sg2_70_cif.got.tgz:138842.got - 2010.06.03 11:33:40.
