data_PCOD9010345
_publ_section_title
;
Structure prediction by ZEFSAII (Michael W. Deem and Ramdas Pophale) SiO2 
 PCOD9010345
Probable space group: P -1
;
_chemical_formula_sum "Si O2"
_cell_formula_units_Z 16
_cell_length_a 8.755103
_cell_length_b 29.748765
_cell_length_c 12.449069
_cell_angle_alpha 162.157904
_cell_angle_beta 47.831960
_cell_angle_gamma 128.870774
_cell_volume 735.391269
_symmetry_space_group_name_H-M "P -1"
_symmetry_group_IT_number 2
_symmetry_cell_setting 'triclinic'
loop_
_space_group_symop_operation_xyz
x,y,z
-x,-y,-z
loop_
_atom_site_type_symbol
_atom_site_label
_atom_site_fract_x
_atom_site_fract_y
_atom_site_fract_z
Si Si1 0.533152 0.655021 0.094809
Si Si2 0.426267 0.204220 0.380906
Si Si3 0.202442 0.311845 0.152515
Si Si4 0.882961 0.718502 0.477128
Si Si5 0.170479 0.864664 0.089257
Si Si6 0.216817 0.455311 0.685664
Si Si7 0.756729 0.069570 0.222218
Si Si8 0.541826 0.984017 0.567760
O O1 0.576183 0.684761 0.266270
O O2 0.392381 0.797242 0.448195
O O3 0.729419 0.652341 0.918083
O O4 0.400117 0.519598 0.814589
O O5 0.316172 0.279279 0.499730
O O6 0.658464 0.138109 0.093548
O O7 0.281651 0.065054 0.146694
O O8 0.257478 0.430587 0.485111
O O9 0.328594 0.164789 0.799561
O O10 0.963172 0.275540 0.182179
O O11 0.835040 0.695583 0.573325
O O12 0.024448 0.856804 0.705745
O O13 0.025833 0.573928 0.052465
O O14 0.321698 0.880725 0.154867
O O15 0.000000 0.000000 0.500000
O O16 0.657894 0.023567 0.278563
O O17 0.500000 0.000000 0.500000
#
# Coordination Sequence:
#
# PCOD9010345 Si02
#       8
#     2   2   2   2   2   2   2   2
#     4  10  22  41  63  94 122 165 212 256 310 371
#     4  11  22  39  66  93 126 159 208 264 310 367
#     4  10  21  40  63  86 126 170 208 251 314 370
#     4  10  23  40  61  96 123 163 216 254 310 371
#     4   9  21  38  57  92 125 157 200 248 316 371
#     4  10  23  42  63  87 127 171 210 253 312 368
#     4   9  20  38  60  92 126 157 202 256 320 369
#     4   9  19  36  60  92 126 159 205 257 307 372
#
# _framework density 21.757124999999998
#
# number of rings (size 3 to 8) (size 9 to 14) (size 15 to 20)
#    0.000    2.250    0.000    1.875    8.750    1.500 
#    2.250    0.625    0.000    0.000    0.000    0.000 
#    0.000    0.000    0.000    0.000    0.000    0.000 
#
# Total GULP energy -89208.523821 kJ/mol
# GULP energy per Si atom -5575.532739 kJ/mol
# Density = 2.170760 g / cm^3
# Si number density = 21.757125 Si / 1000 Ang^3
#
#
#
# Elastic Constant Matrix: (Units=GPa)
#
#
# Indices 1 2 3 4 5 6 
#
# 1 97.8805 56.6137 32.7292 -13.5347 17.8789 14.7458
# 2 56.6137 81.2007 31.5247 -4.0573 6.2736 10.0537
# 3 32.7292 31.5247 73.0850 -10.6951 26.5442 7.5767
# 4 -13.5347 -4.0573 -10.6951 29.8040 -4.5434 2.9184
# 5 17.8789 6.2736 26.5442 -4.5434 34.6978 -1.2675
# 6 14.7458 10.0537 7.5767 2.9184 -1.2675 29.6803
#
#
#
# Elastic Compliance Matrix: (Units=1/GPa)
#
#
# Indices 1 2 3 4 5 6 
#
# 1 0.021342 -0.013402 0.001364 0.007743 -0.008880 -0.007552
# 2 -0.013402 0.023736 -0.008056 -0.004637 0.008223 0.001482
# 3 0.001364 -0.008056 0.024262 0.006143 -0.017203 -0.005481
# 4 0.007743 -0.004637 0.006143 0.038943 -0.003037 -0.007803
# 5 -0.008880 0.008223 -0.017203 -0.003037 0.044972 0.008237
# 6 -0.007552 0.001482 -0.005481 -0.007803 0.008237 0.039461
#
#
# Mechanical properties :
#
#
# Convention : Reuss Voigt Hill
#
# Bulk Modulus (GPa) = 34.30077 54.87793 44.58935
# Shear Modulus (GPa) = 20.60834 27.58965 24.09900
#
# Velocity S-wave (km/s) = 3.08100 3.56487 3.33173
# Velocity P-wave (km/s) = 5.33444 6.49785 5.94468
#
# Compressibility (1/GPa) = 0.02915386
#
# Stress axis : x y z
#
# Youngs Moduli (GPa) = 46.85548 42.13048 41.21720
#
# Poissons Ratio (x) = 0.56461 -0.05623
# Poissons Ratio (y) = 0.62794 0.33203
# Poissons Ratio (z) = -0.06392 0.33939
#
# Static dielectric constant tensor:
#      x y z
#    x 1.797520 0.022420 -0.036710 
#    y 0.022420 1.825330 -0.004790 
#    z -0.036710 -0.004790 1.875470 
# 
# From -- ./inp_files/262151.got.cif
#   From: 2010.05.17/outbox.cif.g08.bks.cpg/sg2_132_cif.got.tgz:262151.got - 2010.06.03 11:33:40.
