data_PCOD9010099
_publ_section_title
;
Structure prediction by ZEFSAII (Michael W. Deem and Ramdas Pophale) SiO2 
 PCOD9010099
Probable space group: P -1
;
_chemical_formula_sum "Si O2"
_cell_formula_units_Z 16
_cell_length_a 9.504131
_cell_length_b 8.965934
_cell_length_c 13.462223
_cell_angle_alpha 134.134414
_cell_angle_beta 81.408273
_cell_angle_gamma 84.228446
_cell_volume 779.522814
_symmetry_space_group_name_H-M "P -1"
_symmetry_group_IT_number 2
_symmetry_cell_setting 'triclinic'
loop_
_space_group_symop_operation_xyz
x,y,z
-x,-y,-z
loop_
_atom_site_type_symbol
_atom_site_label
_atom_site_fract_x
_atom_site_fract_y
_atom_site_fract_z
Si Si1 0.179498 0.367455 0.349049
Si Si2 0.393469 0.645463 0.996595
Si Si3 0.330883 0.968201 0.770701
Si Si4 0.947018 0.176292 0.338114
Si Si5 0.486643 0.235287 0.154043
Si Si6 0.152989 0.472115 0.029583
Si Si7 0.359659 0.037962 0.321992
Si Si8 0.885490 0.129942 0.655558
O O1 0.095825 0.617332 0.488886
O O2 0.316656 0.340424 0.249810
O O3 0.255105 0.268647 0.401436
O O4 0.059228 0.238981 0.277465
O O5 0.458837 0.630064 0.873323
O O6 0.500000 0.500000 0.000000
O O7 0.247830 0.570990 0.988511
O O8 0.369607 0.887273 0.152885
O O9 0.202630 0.869916 0.701417
O O10 0.410541 0.819389 0.785019
O O11 0.470370 0.962727 0.679768
O O12 0.246704 0.220904 0.921935
O O13 0.040974 0.974171 0.297057
O O14 0.500000 0.000000 0.000000
O O15 0.137612 0.616039 0.199521
O O16 0.000000 0.500000 0.000000
O O17 0.270603 0.932576 0.361090
O O18 0.000000 0.000000 0.500000
#
# Coordination Sequence:
#
# PCOD9010099 Si02
#       8
#     2   2   2   2   2   2   2   2
#     4   9  20  39  62  83 122 164 204 258 315 374
#     4  11  20  38  61  88 124 162 197 252 318 376
#     4  11  21  39  65  94 120 165 212 266 309 370
#     4  10  21  40  62  85 125 169 209 255 323 368
#     4  11  21  37  62  96 120 153 218 258 301 384
#     4  11  22  40  65  88 133 167 200 261 328 362
#     4   9  19  37  61  84 122 161 203 255 312 370
#     4  10  22  39  61  90 125 170 216 247 306 390
#
# _framework density 20.525375
#
# number of rings (size 3 to 8) (size 9 to 14) (size 15 to 20)
#    0.000    1.750    5.000    0.000    0.000    5.000 
#    0.000    9.375    0.000    0.000    0.000    0.000 
#    0.000    0.000    0.000    0.000    0.000    0.000 
#
# Total GULP energy -89194.512670 kJ/mol
# GULP energy per Si atom -5574.657042 kJ/mol
# Density = 2.047866 g / cm^3
# Si number density = 20.525375 Si / 1000 Ang^3
#
#
#
# Elastic Constant Matrix: (Units=GPa)
#
#
# Indices 1 2 3 4 5 6 
#
# 1 177.5528 54.8086 29.8235 -6.3524 -9.7383 35.6631
# 2 54.8086 84.9430 30.0802 -9.0147 -7.8520 20.9790
# 3 29.8235 30.0802 60.1118 -3.0279 -20.8917 18.5045
# 4 -6.3524 -9.0147 -3.0279 31.9872 5.2079 -13.4206
# 5 -9.7383 -7.8520 -20.8917 5.2079 33.3470 3.4612
# 6 35.6631 20.9790 18.5045 -13.4206 3.4612 38.9692
#
#
#
# Elastic Compliance Matrix: (Units=1/GPa)
#
#
# Indices 1 2 3 4 5 6 
#
# 1 0.008180 -0.003895 0.001169 -0.002971 0.003423 -0.007271
# 2 -0.003895 0.017143 -0.006669 0.003164 -0.001642 -0.001262
# 3 0.001169 -0.006669 0.032303 -0.009887 0.022444 -0.018217
# 4 -0.002971 0.003164 -0.009887 0.042142 -0.015136 0.021567
# 5 0.003423 -0.001642 0.022444 -0.015136 0.049361 -0.022503
# 6 -0.007271 -0.001262 -0.018217 0.021567 -0.022503 0.051072
#
#
# Mechanical properties :
#
#
# Convention : Reuss Voigt Hill
#
# Bulk Modulus (GPa) = 25.74919 61.33694 43.54307
# Shear Modulus (GPa) = 21.55769 34.72034 28.13901
#
# Velocity S-wave (km/s) = 3.24434 4.11735 3.70663
# Velocity P-wave (km/s) = 5.15816 7.24926 6.29120
#
# Compressibility (1/GPa) = 0.03883617
#
# Stress axis : x y z
#
# Youngs Moduli (GPa) = 122.24786 58.33219 30.95706
#
# Poissons Ratio (x) = 0.22721 -0.03619
# Poissons Ratio (y) = 0.47617 0.20645
# Poissons Ratio (z) = -0.14290 0.38901
#
# Static dielectric constant tensor:
#      x y z
#    x 1.816570 0.021530 -0.045950 
#    y 0.021530 1.805990 0.025010 
#    z -0.045950 0.025010 1.768480 
# 
# From -- ./inp_files/495794.got.cif
#   From: 2010.05.17/outbox.cif.g08.bks.cpg/sg2_248_cif.got.tgz:495794.got - 2010.06.03 11:33:40.
