data_PCOD9010885
_publ_section_title
;
Structure prediction by ZEFSAII (Michael W. Deem and Ramdas Pophale) SiO2 
 PCOD9010885
Probable space group: P -1
;
_chemical_formula_sum "Si O2"
_cell_formula_units_Z 14
_cell_length_a 11.835094
_cell_length_b 10.818295
_cell_length_c 8.496048
_cell_angle_alpha 105.620101
_cell_angle_beta 95.823307
_cell_angle_gamma 38.553521
_cell_volume 642.047981
_symmetry_space_group_name_H-M "P -1"
_symmetry_group_IT_number 2
_symmetry_cell_setting 'triclinic'
loop_
_space_group_symop_operation_xyz
x,y,z
-x,-y,-z
loop_
_atom_site_type_symbol
_atom_site_label
_atom_site_fract_x
_atom_site_fract_y
_atom_site_fract_z
Si Si1 0.038658 0.120177 0.677867
Si Si2 0.357780 0.133067 0.230811
Si Si3 0.317427 0.009708 0.865919
Si Si4 0.233645 0.023803 0.353964
Si Si5 0.673531 0.570326 0.807437
Si Si6 0.577610 0.558455 0.117613
Si Si7 0.071454 0.855078 0.810234
O O1 0.822044 0.335194 0.692419
O O2 0.116815 0.148379 0.831823
O O3 0.159635 0.050004 0.521839
O O4 0.071270 0.951351 0.695221
O O5 0.572454 0.984080 0.222011
O O6 0.280463 0.131331 0.370854
O O7 0.334937 0.052831 0.056861
O O8 0.456551 0.762384 0.795055
O O9 0.733718 0.653703 0.771186
O O10 0.413730 0.781533 0.252088
O O11 0.074150 0.124784 0.244731
O O12 0.667529 0.563336 0.992634
O O13 0.732446 0.377430 0.199017
O O14 0.500000 0.500000 0.000000
O O15 0.000000 0.000000 0.000000
#
# Coordination Sequence:
#
# PCOD9010885 Si02
#       7
#     2   2   2   2   2   2   2
#     4  12  25  39  65  94 129 163 197 264 319 357
#     4   9  20  42  65  90 125 162 213 254 289 377
#     4   9  19  41  64  89 125 158 214 248 294 368
#     4  12  25  43  60  96 132 157 203 261 315 366
#     4  10  21  40  64  95 120 163 210 250 303 368
#     4  12  22  40  71  90 118 168 211 254 310 358
#     4  12  24  41  66  93 119 162 218 254 295 376
#
# _framework density 21.805225
#
# number of rings (size 3 to 8) (size 9 to 14) (size 15 to 20)
#    0.857    0.286    4.286    2.143    0.000    3.429 
#    2.571    0.000    0.000    0.000    0.000    0.000 
#    0.000    0.000    0.000    0.000    0.000    0.000 
#
# Total GULP energy -78138.182192 kJ/mol
# GULP energy per Si atom -5581.298728 kJ/mol
# Density = 2.175559 g / cm^3
# Si number density = 21.805225 Si / 1000 Ang^3
#
#
#
# Elastic Constant Matrix: (Units=GPa)
#
#
# Indices 1 2 3 4 5 6 
#
# 1 64.2253 22.3970 -6.1205 -12.7116 -16.0913 11.0577
# 2 22.3970 128.9998 22.4480 8.6445 -11.9498 10.4688
# 3 -6.1205 22.4480 61.4593 5.2520 -32.2394 14.3267
# 4 -12.7116 8.6445 5.2520 18.2657 3.3209 -8.5352
# 5 -16.0913 -11.9498 -32.2394 3.3209 39.8760 -15.2332
# 6 11.0577 10.4688 14.3267 -8.5352 -15.2332 36.1494
#
#
#
# Elastic Compliance Matrix: (Units=1/GPa)
#
#
# Indices 1 2 3 4 5 6 
#
# 1 0.026388 -0.006090 0.013419 0.013748 0.018266 -0.000683
# 2 -0.006090 0.010078 -0.004968 -0.008103 -0.003768 -0.002588
# 3 0.013419 -0.004968 0.039591 -0.008713 0.034400 -0.005918
# 4 0.013748 -0.008103 -0.008713 0.080200 -0.003291 0.019143
# 5 0.018266 -0.003768 0.034400 -0.003291 0.062195 0.007302
# 6 -0.000683 -0.002588 -0.005918 0.019143 0.007302 0.038563
#
#
# Mechanical properties :
#
#
# Convention : Reuss Voigt Hill
#
# Bulk Modulus (GPa) = 12.37981 36.90369 24.64175
# Shear Modulus (GPa) = 17.90694 33.25554 25.58124
#
# Velocity S-wave (km/s) = 2.86881 3.90951 3.42887
# Velocity P-wave (km/s) = 4.08206 6.11065 5.19631
#
# Compressibility (1/GPa) = 0.08077667
#
# Stress axis : x y z
#
# Youngs Moduli (GPa) = 37.89601 99.22690 25.25820
#
# Poissons Ratio (x) = 0.60433 -0.33893
# Poissons Ratio (y) = 0.23080 0.12549
# Poissons Ratio (z) = -0.50851 0.49300
#
# Static dielectric constant tensor:
#      x y z
#    x 1.817190 0.022640 -0.008280 
#    y 0.022640 1.786260 -0.015260 
#    z -0.008280 -0.015260 1.818940 
# 
# From -- ./inp_files/259517.got.cif
#   From: 2010.05.17/outbox.cif.g08.bks.cpg/sg2_130_cif.got.tgz:259517.got - 2010.06.03 11:33:40.
