data_PCOD9010483
_publ_section_title
;
Structure prediction by ZEFSAII (Michael W. Deem and Ramdas Pophale) SiO2 
 PCOD9010483
Probable space group: P -1
;
_chemical_formula_sum "Si O2"
_cell_formula_units_Z 12
_cell_length_a 9.518713
_cell_length_b 14.896436
_cell_length_c 12.529521
_cell_angle_alpha 151.501895
_cell_angle_beta 84.097465
_cell_angle_gamma 76.151726
_cell_volume 606.463082
_symmetry_space_group_name_H-M "P -1"
_symmetry_group_IT_number 2
_symmetry_cell_setting 'triclinic'
loop_
_space_group_symop_operation_xyz
x,y,z
-x,-y,-z
loop_
_atom_site_type_symbol
_atom_site_label
_atom_site_fract_x
_atom_site_fract_y
_atom_site_fract_z
Si Si1 0.216366 0.740327 0.677664
Si Si2 0.978520 0.533779 0.909486
Si Si3 0.480785 0.795731 0.805424
Si Si4 0.723758 0.043933 0.782539
Si Si5 0.681709 0.505617 0.818369
Si Si6 0.947856 0.998607 0.380653
O O1 0.357419 0.793832 0.725637
O O2 0.312578 0.501129 0.502233
O O3 0.228161 0.635001 0.450740
O O4 0.000000 0.000000 0.000000
O O5 0.793178 0.584407 0.937212
O O6 0.169709 0.253637 0.554553
O O7 0.956452 0.769253 0.125076
O O8 0.000000 0.500000 0.000000
O O9 0.363586 0.869534 0.002118
O O10 0.500000 0.000000 0.000000
O O11 0.888585 0.047484 0.751342
O O12 0.545757 0.243961 0.923434
O O13 0.740847 0.281891 0.659097
O O14 0.000000 0.000000 0.500000
#
# Coordination Sequence:
#
# PCOD9010483 Si02
#       6
#     2   2   2   2   2   2
#     4  10  21  40  63  92 126 159 205 253 302 368
#     4  11  22  41  60  87 125 161 207 255 300 357
#     4  10  23  41  64  93 128 160 202 252 308 362
#     4  10  23  41  62  93 124 160 206 251 305 366
#     4  10  23  39  61  94 122 161 211 246 304 370
#     4  11  22  42  62  86 124 163 202 258 306 352
#
# _framework density 19.786857000000001
#
# number of rings (size 3 to 8) (size 9 to 14) (size 15 to 20)
#    0.000    1.667    3.333    2.000    0.000   11.333 
#    0.000    0.000    0.000    0.000    0.000    0.000 
#    0.000    0.000    0.000    0.000    0.000    0.000 
#
# Total GULP energy -67040.252348 kJ/mol
# GULP energy per Si atom -5586.687696 kJ/mol
# Density = 1.974182 g / cm^3
# Si number density = 19.786857 Si / 1000 Ang^3
#
#
#
# Elastic Constant Matrix: (Units=GPa)
#
#
# Indices 1 2 3 4 5 6 
#
# 1 114.4543 43.6393 42.3843 23.5591 35.8525 -1.7791
# 2 43.6393 61.2934 4.7232 12.2614 12.8401 -3.6770
# 3 42.3843 4.7232 84.6921 29.3150 19.6344 6.8526
# 4 23.5591 12.2614 29.3150 45.9417 2.8894 5.9673
# 5 35.8525 12.8401 19.6344 2.8894 43.8856 6.6112
# 6 -1.7791 -3.6770 6.8526 5.9673 6.6112 39.5460
#
#
#
# Elastic Compliance Matrix: (Units=1/GPa)
#
#
# Indices 1 2 3 4 5 6 
#
# 1 0.018221 -0.009708 -0.005494 -0.003014 -0.009836 0.002968
# 2 -0.009708 0.024282 0.005504 -0.005163 -0.001584 0.001911
# 3 -0.005494 0.005504 0.019029 -0.010404 -0.004853 -0.000652
# 4 -0.003014 -0.005163 -0.010404 0.031492 0.007275 -0.004781
# 5 -0.009836 -0.001584 -0.004853 0.007275 0.033960 -0.006524
# 6 0.002968 0.001911 -0.000652 -0.004781 -0.006524 0.027523
#
#
# Mechanical properties :
#
#
# Convention : Reuss Voigt Hill
#
# Bulk Modulus (GPa) = 23.73283 49.10371 36.41827
# Shear Modulus (GPa) = 26.60316 37.18752 31.89534
#
# Velocity S-wave (km/s) = 3.67070 4.33991 4.01926
# Velocity P-wave (km/s) = 5.47592 7.06989 6.32333
#
# Compressibility (1/GPa) = 0.04213572
#
# Stress axis : x y z
#
# Youngs Moduli (GPa) = 54.88323 41.18314 52.55207
#
# Poissons Ratio (x) = 0.39979 0.28870
# Poissons Ratio (y) = 0.53279 -0.28923
# Poissons Ratio (z) = 0.30151 -0.22666
#
# Static dielectric constant tensor:
#      x y z
#    x 1.670010 -0.016690 -0.006170 
#    y -0.016690 1.708770 -0.000110 
#    z -0.006170 -0.000110 1.713320 
# 
# From -- ./inp_files/138137.got.cif
#   From: 2010.05.17/outbox.cif.g08.bks.cpg/sg2_70_cif.got.tgz:138137.got - 2010.06.03 11:33:40.
