data_PCOD9010712
_publ_section_title
;
Structure prediction by ZEFSAII (Michael W. Deem and Ramdas Pophale) SiO2 
 PCOD9010712
Probable space group: P -1
;
_chemical_formula_sum "Si O2"
_cell_formula_units_Z 16
_cell_length_a 14.326579
_cell_length_b 27.207985
_cell_length_c 9.856337
_cell_angle_alpha 39.627093
_cell_angle_beta 49.907994
_cell_angle_gamma 19.691905
_cell_volume 764.552760
_symmetry_space_group_name_H-M "P -1"
_symmetry_group_IT_number 2
_symmetry_cell_setting 'triclinic'
loop_
_space_group_symop_operation_xyz
x,y,z
-x,-y,-z
loop_
_atom_site_type_symbol
_atom_site_label
_atom_site_fract_x
_atom_site_fract_y
_atom_site_fract_z
Si Si1 0.626707 0.340427 0.228760
Si Si2 0.268587 0.150744 0.775346
Si Si3 0.756165 0.191718 0.988697
Si Si4 0.298664 0.092710 0.365134
Si Si5 0.196264 0.351444 0.513689
Si Si6 0.866262 0.939254 0.868100
Si Si7 0.068716 0.852598 0.368609
Si Si8 0.239889 0.481045 0.068699
O O1 0.412177 0.408931 0.197272
O O2 0.937913 0.160976 0.236488
O O3 0.695667 0.279166 0.448497
O O4 0.500000 0.500000 0.000000
O O5 0.091119 0.329122 0.605537
O O6 0.474904 0.049501 0.668870
O O7 0.091905 0.172767 0.880961
O O8 0.500000 0.000000 0.000000
O O9 0.777179 0.224411 0.757605
O O10 0.449776 0.379169 0.960373
O O11 0.013542 0.074564 0.097998
O O12 0.832774 0.058469 0.170501
O O13 0.103251 0.129223 0.497162
O O14 0.500000 0.000000 0.500000
O O15 0.068137 0.294938 0.121647
O O16 0.201631 0.411738 0.262530
O O17 0.000000 0.500000 0.500000
O O18 0.526483 0.149978 0.695892
#
# Coordination Sequence:
#
# PCOD9010712 Si02
#       8
#     2   2   2   2   2   2   2   2
#     4  11  22  38  69  97 122 166 211 274 310 382
#     4  10  21  40  64  89 127 170 210 258 318 380
#     4  10  23  42  65  95 129 169 205 279 324 388
#     4  12  25  43  64  89 131 176 212 265 320 394
#     4  11  23  37  66  97 131 170 220 271 312 385
#     4  10  21  41  63  95 131 166 214 262 331 375
#     4  11  22  42  65  94 132 166 217 258 334 376
#     4  11  23  42  64  95 129 162 223 264 327 377
#
# _framework density 20.927267000000001
#
# number of rings (size 3 to 8) (size 9 to 14) (size 15 to 20)
#    0.000    1.250    1.250    6.000    1.750    2.500 
#    2.250    3.750    0.000    0.000    0.000    0.000 
#    0.000    0.000    0.000    0.000    0.000    0.000 
#
# Total GULP energy -89505.558101 kJ/mol
# GULP energy per Si atom -5594.097381 kJ/mol
# Density = 2.087964 g / cm^3
# Si number density = 20.927267 Si / 1000 Ang^3
#
#
#
# Elastic Constant Matrix: (Units=GPa)
#
#
# Indices 1 2 3 4 5 6 
#
# 1 75.9283 27.8559 36.5599 2.3255 -10.6593 12.6966
# 2 27.8559 80.3470 30.2270 -0.6134 15.9325 17.4500
# 3 36.5599 30.2270 92.8918 12.6518 -4.4447 9.3976
# 4 2.3255 -0.6134 12.6518 37.6862 8.6436 5.4005
# 5 -10.6593 15.9325 -4.4447 8.6436 47.7575 5.3414
# 6 12.6966 17.4500 9.3976 5.4005 5.3414 30.0031
#
#
#
# Elastic Compliance Matrix: (Units=1/GPa)
#
#
# Indices 1 2 3 4 5 6 
#
# 1 0.019036 -0.004841 -0.005131 -0.000229 0.005948 -0.004651
# 2 -0.004841 0.019015 -0.004633 0.005001 -0.007973 -0.007041
# 3 -0.005131 -0.004633 0.015115 -0.005554 0.002740 0.000643
# 4 -0.000229 0.005001 -0.005554 0.030921 -0.007234 -0.005350
# 5 0.005948 -0.007973 0.002740 -0.007234 0.026737 -0.002196
# 6 -0.004651 -0.007041 0.000643 -0.005350 -0.002196 0.040545
#
#
# Mechanical properties :
#
#
# Convention : Reuss Voigt Hill
#
# Bulk Modulus (GPa) = 41.74002 48.71697 45.22850
# Shear Modulus (GPa) = 26.51620 33.39098 29.95359
#
# Velocity S-wave (km/s) = 3.56345 3.99880 3.78738
# Velocity P-wave (km/s) = 6.07614 6.68208 6.38630
#
# Compressibility (1/GPa) = 0.02395782
#
# Stress axis : x y z
#
# Youngs Moduli (GPa) = 52.53070 52.58879 66.16136
#
# Poissons Ratio (x) = 0.25456 0.33947
# Poissons Ratio (y) = 0.25428 0.30652
# Poissons Ratio (z) = 0.26953 0.24364
#
# Static dielectric constant tensor:
#      x y z
#    x 1.767260 -0.006950 -0.047620 
#    y -0.006950 1.735910 0.011060 
#    z -0.047620 0.011060 1.761260 
# 
# From -- ./inp_files/206257.got.cif
#   From: 2010.05.17/outbox.cif.g08.bks.cpg/sg2_104_cif.got.tgz:206257.got - 2010.06.03 11:33:40.
