data_PCOD9010008
_publ_section_title
;
Structure prediction by ZEFSAII (Michael W. Deem and Ramdas Pophale) SiO2 
 PCOD9010008
Probable space group: P -1
;
_chemical_formula_sum "Si O2"
_cell_formula_units_Z 16
_cell_length_a 19.612335
_cell_length_b 7.425720
_cell_length_c 16.165754
_cell_angle_alpha 147.607739
_cell_angle_beta 31.131818
_cell_angle_gamma 133.630451
_cell_volume 647.484685
_symmetry_space_group_name_H-M "P -1"
_symmetry_group_IT_number 2
_symmetry_cell_setting 'triclinic'
loop_
_space_group_symop_operation_xyz
x,y,z
-x,-y,-z
loop_
_atom_site_type_symbol
_atom_site_label
_atom_site_fract_x
_atom_site_fract_y
_atom_site_fract_z
Si Si1 0.299578 0.225113 0.777092
Si Si2 0.616754 0.584140 0.853205
Si Si3 0.881327 0.134608 0.058033
Si Si4 0.216274 0.869737 0.023347
Si Si5 0.130904 0.714148 0.600856
Si Si6 0.465922 0.508881 0.278924
Si Si7 0.229542 0.265796 0.488575
Si Si8 0.024315 0.851416 0.508923
O O1 0.173770 0.114459 0.913572
O O2 0.385837 0.432625 0.829808
O O3 0.385739 0.884564 0.523066
O O4 0.269215 0.481465 0.833670
O O5 0.739095 0.290185 0.591824
O O6 0.553061 0.635401 0.847970
O O7 0.689051 0.885770 0.935152
O O8 0.500000 0.500000 0.000000
O O9 0.838309 0.511912 0.280802
O O10 0.039458 0.051115 0.851978
O O11 0.805239 0.074606 0.029285
O O12 0.076264 0.936968 0.242543
O O13 0.178361 0.483981 0.542942
O O14 0.024394 0.514150 0.585227
O O15 0.386679 0.279106 0.332605
O O16 0.173088 0.909638 0.400107
O O17 0.000000 0.000000 0.500000
#
# Coordination Sequence:
#
# PCOD9010008 Si02
#       8
#     2   2   2   2   2   2   2   2
#     4  10  21  42  64  87 125 160 196 254 302 353
#     4  10  21  40  61  90 124 157 203 252 296 357
#     4  11  22  38  62  92 122 160 200 246 306 356
#     4  11  24  39  61  91 123 159 202 247 302 362
#     4   9  19  36  61  85 119 162 199 244 303 360
#     4   9  20  39  64  87 116 165 206 239 305 363
#     4   9  18  36  61  89 119 154 203 251 297 358
#     4   9  18  35  57  85 120 156 195 245 297 350
#
# _framework density 24.711010999999999
#
# number of rings (size 3 to 8) (size 9 to 14) (size 15 to 20)
#    0.000    2.250    0.000    3.375    0.000    5.000 
#    0.000   15.000    0.000    0.000    0.000    0.000 
#    0.000    0.000    0.000    0.000    0.000    0.000 
#
# Total GULP energy -89513.490320 kJ/mol
# GULP energy per Si atom -5594.593145 kJ/mol
# Density = 2.465477 g / cm^3
# Si number density = 24.711011 Si / 1000 Ang^3
#
#
#
# Elastic Constant Matrix: (Units=GPa)
#
#
# Indices 1 2 3 4 5 6 
#
# 1 96.5997 32.9234 18.6481 3.6209 18.2344 16.3736
# 2 32.9234 112.3975 38.2794 -24.2871 1.3025 40.0235
# 3 18.6481 38.2794 110.3756 -17.5198 10.7899 -3.6178
# 4 3.6209 -24.2871 -17.5198 28.8658 -1.8516 5.4288
# 5 18.2344 1.3025 10.7899 -1.8516 32.5972 6.9652
# 6 16.3736 40.0235 -3.6178 5.4288 6.9652 48.0657
#
#
#
# Elastic Compliance Matrix: (Units=1/GPa)
#
#
# Indices 1 2 3 4 5 6 
#
# 1 0.014313 -0.007140 -0.000441 -0.009268 -0.008820 0.003361
# 2 -0.007140 0.027939 -0.006351 0.026212 0.012027 -0.026014
# 3 -0.000441 -0.006351 0.012123 0.000428 -0.004989 0.007026
# 4 -0.009268 0.026212 0.000428 0.064232 0.013597 -0.027862
# 5 -0.008820 0.012027 -0.004989 0.013597 0.040722 -0.014823
# 6 0.003361 -0.026014 0.007026 -0.027862 -0.014823 0.047145
#
#
# Mechanical properties :
#
#
# Convention : Reuss Voigt Hill
#
# Bulk Modulus (GPa) = 37.71868 55.45274 46.58571
# Shear Modulus (GPa) = 20.56133 37.20720 28.88426
#
# Velocity S-wave (km/s) = 2.88769 3.88454 3.42260
# Velocity P-wave (km/s) = 5.13959 6.52753 5.87470
#
# Compressibility (1/GPa) = 0.02651206
#
# Stress axis : x y z
#
# Youngs Moduli (GPa) = 69.86625 35.79193 82.48736
#
# Poissons Ratio (x) = 0.25555 0.03636
# Poissons Ratio (y) = 0.49883 0.52388
# Poissons Ratio (z) = 0.03080 0.22732
#
# Static dielectric constant tensor:
#      x y z
#    x 1.997790 0.013880 -0.033520 
#    y 0.013880 1.976900 0.025810 
#    z -0.033520 0.025810 1.960500 
# 
# From -- ./inp_files/577658.got.cif
#   From: 2010.05.17/outbox.cif.g08.bks.cpg/sg2_289_cif.got.tgz:577658.got - 2010.06.03 11:33:40.
