data_PCOD9010708
_publ_section_title
;
Structure prediction by ZEFSAII (Michael W. Deem and Ramdas Pophale) SiO2 
 PCOD9010708
Probable space group: P -1
;
_chemical_formula_sum "Si O2"
_cell_formula_units_Z 15
_cell_length_a 6.228139
_cell_length_b 21.305299
_cell_length_c 13.380557
_cell_angle_alpha 22.220827
_cell_angle_beta 109.374912
_cell_angle_gamma 113.943540
_cell_volume 608.690615
_symmetry_space_group_name_H-M "P -1"
_symmetry_group_IT_number 2
_symmetry_cell_setting 'triclinic'
loop_
_space_group_symop_operation_xyz
x,y,z
-x,-y,-z
loop_
_atom_site_type_symbol
_atom_site_label
_atom_site_fract_x
_atom_site_fract_y
_atom_site_fract_z
Si Si1 0.183989 0.887321 0.702463
Si Si2 0.388198 0.861707 0.978172
Si Si3 0.000000 0.500000 0.500000
Si Si4 0.880069 0.214532 0.367674
Si Si5 0.803887 0.925386 0.226112
Si Si6 0.175309 0.246330 0.718624
Si Si7 0.893198 0.514579 0.277683
Si Si8 0.725569 0.444304 0.148536
O O1 0.264345 0.874808 0.619218
O O2 0.359058 0.927108 0.765084
O O3 0.000000 0.000000 0.500000
O O4 0.020083 0.697523 0.983830
O O5 0.613306 0.789022 0.133409
O O6 0.156001 0.703229 0.198464
O O7 0.399086 0.010812 0.843021
O O8 0.783174 0.520279 0.359460
O O9 0.729826 0.276000 0.337340
O O10 0.037775 0.112736 0.601407
O O11 0.056447 0.394343 0.088834
O O12 0.768106 0.771777 0.364322
O O13 0.947274 0.091533 0.940514
O O14 0.095994 0.418421 0.483157
O O15 0.738514 0.413527 0.313788
O O16 0.500000 0.500000 0.000000
#
# Coordination Sequence:
#
# PCOD9010708 Si02
#       8
#     2   2   1   2   2   2   2   2
#     4  10  21  40  64  89 126 166 208 264 320 380
#     4  11  23  42  66  93 127 175 211 261 326 381
#     4  10  22  40  64  88 126 166 214 252 318 386
#     4  10  21  41  64  88 127 167 206 273 316 367
#     4  11  22  42  64  93 136 159 216 273 314 378
#     4  11  24  41  65  96 126 169 218 265 319 379
#     4  10  21  42  60  91 129 161 211 267 310 382
#     4  10  22  41  65  92 121 166 218 263 320 378
#
# _framework density 24.643060999999999
#
# number of rings (size 3 to 8) (size 9 to 14) (size 15 to 20)
#    0.000    1.600    4.000    0.400    0.000    4.267 
#    2.400    0.667    0.000    0.000    0.000    0.000 
#    0.000    0.000    0.000    0.000    0.000    0.000 
#
# Total GULP energy -83588.569421 kJ/mol
# GULP energy per Si atom -5572.571295 kJ/mol
# Density = 2.458697 g / cm^3
# Si number density = 24.643061 Si / 1000 Ang^3
#
#
#
# Elastic Constant Matrix: (Units=GPa)
#
#
# Indices 1 2 3 4 5 6 
#
# 1 46.0339 17.5883 17.5141 3.8955 8.8438 4.4553
# 2 17.5883 138.0042 17.3164 40.3517 -12.6793 3.2186
# 3 17.5141 17.3164 107.5980 12.1872 7.5112 2.7178
# 4 3.8955 40.3517 12.1872 56.1396 3.8695 -2.5810
# 5 8.8438 -12.6793 7.5112 3.8695 47.1126 13.6969
# 6 4.4553 3.2186 2.7178 -2.5810 13.6969 22.7003
#
#
#
# Elastic Compliance Matrix: (Units=1/GPa)
#
#
# Indices 1 2 3 4 5 6 
#
# 1 0.025386 -0.003901 -0.003359 0.002108 -0.005277 -0.000603
# 2 -0.003901 0.010816 -0.000475 -0.008044 0.005885 -0.005177
# 3 -0.003359 -0.000475 0.010164 -0.001570 -0.000963 -0.000088
# 4 0.002108 -0.008044 -0.001570 0.024594 -0.006560 0.007669
# 5 -0.005277 0.005885 -0.000963 -0.006560 0.029854 -0.018443
# 6 -0.000603 -0.005177 -0.000088 0.007669 -0.018443 0.056915
#
#
# Mechanical properties :
#
#
# Convention : Reuss Voigt Hill
#
# Bulk Modulus (GPa) = 32.36617 44.05260 38.20939
# Shear Modulus (GPa) = 27.24821 41.13832 34.19326
#
# Velocity S-wave (km/s) = 3.32884 4.09022 3.72901
# Velocity P-wave (km/s) = 5.28558 6.34205 5.83777
#
# Compressibility (1/GPa) = 0.03089646
#
# Stress axis : x y z
#
# Youngs Moduli (GPa) = 39.39255 92.45221 98.38321
#
# Poissons Ratio (x) = 0.36064 0.33051
# Poissons Ratio (y) = 0.15366 0.04670
# Poissons Ratio (z) = 0.13234 0.04388
#
# Static dielectric constant tensor:
#      x y z
#    x 1.863660 -0.665910 -0.617030 
#    y -0.665910 11.158610 7.164730 
#    z -0.617030 7.164730 7.543420 
# 
# From -- ./inp_files/65810.got.cif
#   From: 2010.05.17/outbox.cif.g08.bks.cpg/sg2_33_cif.got.tgz:65810.got - 2010.06.03 11:33:40.
