data_PCOD9010079
_publ_section_title
;
Structure prediction by ZEFSAII (Michael W. Deem and Ramdas Pophale) SiO2 
 PCOD9010079
Probable space group: P -1
;
_chemical_formula_sum "Si O2"
_cell_formula_units_Z 14
_cell_length_a 29.746205
_cell_length_b 11.938555
_cell_length_c 23.466351
_cell_angle_alpha 25.261197
_cell_angle_beta 169.985873
_cell_angle_gamma 154.729432
_cell_volume 607.764370
_symmetry_space_group_name_H-M "P -1"
_symmetry_group_IT_number 2
_symmetry_cell_setting 'triclinic'
loop_
_space_group_symop_operation_xyz
x,y,z
-x,-y,-z
loop_
_atom_site_type_symbol
_atom_site_label
_atom_site_fract_x
_atom_site_fract_y
_atom_site_fract_z
Si Si1 0.946229 0.998802 0.794478
Si Si2 0.462361 0.700842 0.809480
Si Si3 0.426120 0.694336 0.066153
Si Si4 0.019221 0.695931 0.651775
Si Si5 0.783091 0.412445 0.721748
Si Si6 0.819195 0.690062 0.160776
Si Si7 0.224558 0.223492 0.147707
O O1 0.002560 0.096910 0.755297
O O2 0.665785 0.056183 0.437904
O O3 0.142890 0.180286 0.999611
O O4 0.050581 0.724310 0.053516
O O5 0.257045 0.502990 0.604768
O O6 0.500000 0.500000 0.000000
O O7 0.696666 0.800112 0.013042
O O8 0.637180 0.615348 0.411059
O O9 0.151555 0.695116 0.755504
O O10 0.382018 0.491191 0.051148
O O11 0.500000 0.000000 0.000000
O O12 0.188241 0.524052 0.980955
O O13 0.000000 0.000000 0.500000
O O14 0.534893 0.220732 0.532405
O O15 0.000000 0.500000 0.000000
O O16 0.000000 0.500000 0.500000
O O17 0.000000 0.000000 0.000000
#
# Coordination Sequence:
#
# PCOD9010079 Si02
#       7
#     2   2   2   2   2   2   2
#     4  11  24  43  69 102 144 186 247 297 366 445
#     4  11  22  40  65 104 138 181 239 298 363 434
#     4  11  24  44  67 102 142 192 242 299 374 438
#     4  10  21  40  62 100 141 179 238 303 354 427
#     4  11  26  46  70 106 151 191 244 312 373 439
#     4  12  23  42  72 103 139 190 241 302 361 436
#     4  10  23  45  73 101 143 198 248 298 371 443
#
# _framework density 23.035243000000001
#
# number of rings (size 3 to 8) (size 9 to 14) (size 15 to 20)
#    0.000    1.143    5.714    1.286    6.000    3.429 
#    0.000    0.714    0.000    0.000    0.000    0.000 
#    0.000    0.000    0.000    0.000    0.000    0.000 
#
# Total GULP energy -78006.074290 kJ/mol
# GULP energy per Si atom -5571.862449 kJ/mol
# Density = 2.298281 g / cm^3
# Si number density = 23.035243 Si / 1000 Ang^3
#
#
#
# Elastic Constant Matrix: (Units=GPa)
#
#
# Indices 1 2 3 4 5 6 
#
# 1 125.1777 20.5032 59.8374 -9.2731 23.8658 10.1406
# 2 20.5032 73.1905 16.4562 -28.0702 12.2792 -2.8816
# 3 59.8374 16.4562 119.2760 -22.2345 13.5936 -4.2050
# 4 -9.2731 -28.0702 -22.2345 38.5207 -4.2831 5.3017
# 5 23.8658 12.2792 13.5936 -4.2831 54.4926 -2.8530
# 6 10.1406 -2.8816 -4.2050 5.3017 -2.8530 37.7503
#
#
#
# Elastic Compliance Matrix: (Units=1/GPa)
#
#
# Indices 1 2 3 4 5 6 
#
# 1 0.012034 -0.002399 -0.005816 -0.002057 -0.003653 -0.004051
# 2 -0.002399 0.020045 0.001461 0.014562 -0.002681 0.000089
# 3 -0.005816 0.001461 0.012418 0.006512 -0.000257 0.002123
# 4 -0.002057 0.014562 0.006512 0.040180 -0.001021 -0.003331
# 5 -0.003653 -0.002681 -0.000257 -0.001021 0.020667 0.002453
# 6 -0.004051 0.000089 0.002123 -0.003331 0.002453 0.028475
#
#
# Mechanical properties :
#
#
# Convention : Reuss Voigt Hill
#
# Bulk Modulus (GPa) = 32.26908 56.80418 44.53663
# Shear Modulus (GPa) = 31.71459 40.87585 36.29522
#
# Velocity S-wave (km/s) = 3.71453 4.21704 3.97374
# Velocity P-wave (km/s) = 5.69526 6.95877 6.35848
#
# Compressibility (1/GPa) = 0.03098942
#
# Stress axis : x y z
#
# Youngs Moduli (GPa) = 83.09811 49.88817 80.52779
#
# Poissons Ratio (x) = 0.11968 0.46836
# Poissons Ratio (y) = 0.19935 -0.11768
# Poissons Ratio (z) = 0.48330 -0.07290
#
# Static dielectric constant tensor:
#      x y z
#    x 1.905840 0.032580 0.034470 
#    y 0.032580 2.154860 -0.056280 
#    z 0.034470 -0.056280 1.915330 
# 
# From -- ./inp_files/614513.got.cif
#   From: 2010.05.17/outbox.cif.g08.bks.cpg/sg2_308_cif.got.tgz:614513.got - 2010.06.03 11:33:40.
