data_PCOD9010262
_publ_section_title
;
Structure prediction by ZEFSAII (Michael W. Deem and Ramdas Pophale) SiO2 
 PCOD9010262
Probable space group: P -1
;
_chemical_formula_sum "Si O2"
_cell_formula_units_Z 16
_cell_length_a 12.508496
_cell_length_b 9.370838
_cell_length_c 15.139026
_cell_angle_alpha 51.614823
_cell_angle_beta 41.718692
_cell_angle_gamma 39.943799
_cell_volume 753.241307
_symmetry_space_group_name_H-M "P -1"
_symmetry_group_IT_number 2
_symmetry_cell_setting 'triclinic'
loop_
_space_group_symop_operation_xyz
x,y,z
-x,-y,-z
loop_
_atom_site_type_symbol
_atom_site_label
_atom_site_fract_x
_atom_site_fract_y
_atom_site_fract_z
Si Si1 0.852924 0.261123 0.479635
Si Si2 0.217908 0.395028 0.739161
Si Si3 0.198504 0.568852 0.180788
Si Si4 0.086140 0.310426 0.448295
Si Si5 0.572139 0.096307 0.495015
Si Si6 0.573661 0.510066 0.288169
Si Si7 0.860345 0.932892 0.146734
Si Si8 0.547507 0.443545 0.132161
O O1 0.896157 0.364400 0.331078
O O2 0.630520 0.338188 0.589782
O O3 0.895631 0.344819 0.509520
O O4 0.000000 0.000000 0.500000
O O5 0.390998 0.244365 0.617902
O O6 0.286253 0.434755 0.773838
O O7 0.128413 0.251945 0.852131
O O8 0.186842 0.363764 0.288722
O O9 0.328175 0.568973 0.179496
O O10 0.973930 0.789127 0.220585
O O11 0.321030 0.538167 0.029093
O O12 0.000000 0.500000 0.500000
O O13 0.246916 0.087808 0.485652
O O14 0.627280 0.261374 0.362865
O O15 0.500000 0.000000 0.500000
O O16 0.550143 0.543925 0.185022
O O17 0.648376 0.174769 0.185474
O O18 0.000000 0.000000 0.000000
#
# Coordination Sequence:
#
# PCOD9010262 Si02
#       8
#     2   2   2   2   2   2   2   2
#     4  11  22  38  58  90 128 166 201 256 329 389
#     4  11  21  40  61  89 133 164 208 265 323 397
#     4  10  21  40  62  94 123 165 218 265 323 364
#     4  12  22  34  61  93 126 154 210 273 314 372
#     4  11  22  37  62  94 126 170 213 258 329 386
#     4  11  23  40  61  95 128 171 211 257 337 395
#     4  10  21  40  68  92 119 171 217 267 319 375
#     4  10  22  41  67  88 129 167 218 272 309 391
#
# _framework density 21.241531999999999
#
# number of rings (size 3 to 8) (size 9 to 14) (size 15 to 20)
#    0.000    1.250    1.250    7.500    1.750    0.000 
#    2.250    2.500    0.000   12.750    0.000    0.000 
#    0.000    0.000    0.000    0.000    0.000    0.000 
#
# Total GULP energy -89273.740467 kJ/mol
# GULP energy per Si atom -5579.608779 kJ/mol
# Density = 2.119319 g / cm^3
# Si number density = 21.241532 Si / 1000 Ang^3
#
#
#
# Elastic Constant Matrix: (Units=GPa)
#
#
# Indices 1 2 3 4 5 6 
#
# 1 167.1348 25.6228 28.5932 -13.7372 5.6822 12.6788
# 2 25.6228 62.6589 9.5303 -23.9059 2.6313 -3.9157
# 3 28.5932 9.5303 76.2232 -19.5834 4.4839 7.8458
# 4 -13.7372 -23.9059 -19.5834 20.6213 0.2579 3.2842
# 5 5.6822 2.6313 4.4839 0.2579 32.3660 -4.0512
# 6 12.6788 -3.9157 7.8458 3.2842 -4.0512 40.9552
#
#
#
# Elastic Compliance Matrix: (Units=1/GPa)
#
#
# Indices 1 2 3 4 5 6 
#
# 1 0.006919 -0.002587 -0.001974 0.000085 -0.000997 -0.002117
# 2 -0.002587 0.033031 0.008922 0.045378 -0.004053 -0.001790
# 3 -0.001974 0.008922 0.021314 0.030192 -0.004256 -0.005461
# 4 0.000085 0.045378 0.030192 0.132048 -0.010580 -0.013107
# 5 -0.000997 -0.004053 -0.004256 -0.010580 0.032678 0.004817
# 6 -0.002117 -0.001790 -0.005461 -0.013107 0.004817 0.027475
#
#
# Mechanical properties :
#
#
# Convention : Reuss Voigt Hill
#
# Bulk Modulus (GPa) = 14.28851 48.16773 31.22812
# Shear Modulus (GPa) = 18.65177 34.93989 26.79583
#
# Velocity S-wave (km/s) = 2.96646 4.06012 3.55559
# Velocity P-wave (km/s) = 4.29819 6.68617 5.62047
#
# Compressibility (1/GPa) = 0.06998628
#
# Stress axis : x y z
#
# Youngs Moduli (GPa) = 144.53178 30.27424 46.91833
#
# Poissons Ratio (x) = 0.07832 0.09260
# Poissons Ratio (y) = 0.37390 -0.41859
# Poissons Ratio (z) = 0.28524 -0.27010
#
# Static dielectric constant tensor:
#      x y z
#    x 1.775530 -0.033810 -0.020990 
#    y -0.033810 1.813920 -0.022250 
#    z -0.020990 -0.022250 1.868770 
# 
# From -- ./inp_files/225307.got.cif
#   From: 2010.05.17/outbox.cif.g08.bks.cpg/sg2_113_cif.got.tgz:225307.got - 2010.06.03 11:33:40.
