data_PCOD9010691
_publ_section_title
;
Structure prediction by ZEFSAII (Michael W. Deem and Ramdas Pophale) SiO2 
 PCOD9010691
Probable space group: P -1
;
_chemical_formula_sum "Si O2"
_cell_formula_units_Z 16
_cell_length_a 19.983637
_cell_length_b 8.992630
_cell_length_c 15.859575
_cell_angle_alpha 121.851388
_cell_angle_beta 161.043812
_cell_angle_gamma 50.325888
_cell_volume 678.807231
_symmetry_space_group_name_H-M "P -1"
_symmetry_group_IT_number 2
_symmetry_cell_setting 'triclinic'
loop_
_space_group_symop_operation_xyz
x,y,z
-x,-y,-z
loop_
_atom_site_type_symbol
_atom_site_label
_atom_site_fract_x
_atom_site_fract_y
_atom_site_fract_z
Si Si1 0.264440 0.487066 0.621784
Si Si2 0.351040 0.549844 0.423007
Si Si3 0.298277 0.845777 0.866023
Si Si4 0.988194 0.332199 0.337898
Si Si5 0.077211 0.006446 0.208879
Si Si6 0.463831 0.595475 0.753960
Si Si7 0.797046 0.964384 0.360235
Si Si8 0.417453 0.881830 0.426668
O O1 0.288835 0.663837 0.750296
O O2 0.280223 0.532737 0.556815
O O3 0.039948 0.481069 0.388676
O O4 0.476304 0.267227 0.839170
O O5 0.500000 0.500000 0.500000
O O6 0.133888 0.777961 0.225797
O O7 0.485825 0.555867 0.669601
O O8 0.348323 0.342222 0.361678
O O9 0.293346 0.995376 0.832281
O O10 0.052732 0.953947 0.656571
O O11 0.705898 0.452485 0.050639
O O12 0.060317 0.133474 0.308670
O O13 0.139606 0.241429 0.576970
O O14 0.296781 0.979109 0.402704
O O15 0.814688 0.121106 0.888752
O O16 0.376428 0.828360 0.737024
O O17 0.500000 0.000000 0.500000
#
# Coordination Sequence:
#
# PCOD9010691 Si02
#       8
#     2   2   2   2   2   2   2   2
#     4  10  23  40  66  92 125 165 209 258 316 370
#     4  10  21  40  64  88 129 162 201 256 303 363
#     4   9  20  45  62  90 129 161 208 263 309 377
#     4  12  23  39  64  95 123 168 207 256 311 372
#     4  10  22  40  60  90 128 155 208 256 302 368
#     4  11  22  43  61  92 129 165 204 262 311 363
#     4  10  21  41  66  87 127 166 203 259 318 361
#     4  10  22  40  65  90 119 168 200 253 312 365
#
# _framework density 23.570755999999999
#
# number of rings (size 3 to 8) (size 9 to 14) (size 15 to 20)
#    0.000    1.750    3.750    0.000    1.750    1.500 
#    6.750    2.500    0.000    0.000    0.000    0.000 
#    0.000    0.000    0.000    0.000    0.000    0.000 
#
# Total GULP energy -89297.692975 kJ/mol
# GULP energy per Si atom -5581.105811 kJ/mol
# Density = 2.351711 g / cm^3
# Si number density = 23.570756 Si / 1000 Ang^3
#
#
#
# Elastic Constant Matrix: (Units=GPa)
#
#
# Indices 1 2 3 4 5 6 
#
# 1 87.2383 56.2420 32.6924 2.0925 5.2659 16.7740
# 2 56.2420 82.4019 9.9525 -28.4442 15.0010 12.2523
# 3 32.6924 9.9525 34.8382 -24.4092 10.0869 -7.2968
# 4 2.0925 -28.4442 -24.4092 37.4373 5.8553 3.8889
# 5 5.2659 15.0010 10.0869 5.8553 28.7535 -6.2751
# 6 16.7740 12.2523 -7.2968 3.8889 -6.2751 44.3718
#
#
#
# Elastic Compliance Matrix: (Units=1/GPa)
#
#
# Indices 1 2 3 4 5 6 
#
# 1 -0.001303 0.010577 0.019178 0.023782 -0.017693 -0.003861
# 2 0.010577 0.000882 -0.027179 -0.018560 0.009669 -0.005718
# 3 0.019178 -0.027179 -0.008132 -0.030746 0.020774 0.004550
# 4 0.023782 -0.018560 -0.030746 -0.010866 0.017115 -0.005549
# 5 -0.017693 0.009669 0.020774 0.017115 0.024245 0.009364
# 6 -0.003861 -0.005718 0.004550 -0.005549 0.009364 0.028134
#
#
# Mechanical properties :
#
#
# Convention : Reuss Voigt Hill
#
# Bulk Modulus (GPa) = -294.13674 44.69471 -124.72102
# Shear Modulus (GPa) = 187.45182 29.15195 108.30188
#
# Velocity S-wave (km/s) = 8.92748 3.52061 6.78582
# Velocity P-wave (km/s) = 4.33511 5.96065 2.89277
#
# Compressibility (1/GPa) = -0.00339978
#
# Stress axis : x y z
#
# Youngs Moduli (GPa) = -767.21360 1133.49718 -122.97488
#
# Poissons Ratio (x) = -11.98948 2.35842
# Poissons Ratio (y) = 8.11514 -3.34232
# Poissons Ratio (z) = 14.71364 30.80718
#
# Static dielectric constant tensor:
#      x y z
#    x 2.050420 -0.023740 -0.096660 
#    y -0.023740 2.005200 0.072090 
#    z -0.096660 0.072090 2.028030 
# 
# From -- ./inp_files/577389.got.cif
#   From: 2010.05.17/outbox.cif.g08.bks.cpg/sg2_289_cif.got.tgz:577389.got - 2010.06.03 11:33:40.
