data_PCOD9010715
_publ_section_title
;
Structure prediction by ZEFSAII (Michael W. Deem and Ramdas Pophale) SiO2 
 PCOD9010715
Probable space group: P -1
;
_chemical_formula_sum "Si O2"
_cell_formula_units_Z 16
_cell_length_a 9.856084
_cell_length_b 22.836812
_cell_length_c 23.233727
_cell_angle_alpha 162.105539
_cell_angle_beta 144.629833
_cell_angle_gamma 44.152676
_cell_volume 878.384597
_symmetry_space_group_name_H-M "P -1"
_symmetry_group_IT_number 2
_symmetry_cell_setting 'triclinic'
loop_
_space_group_symop_operation_xyz
x,y,z
-x,-y,-z
loop_
_atom_site_type_symbol
_atom_site_label
_atom_site_fract_x
_atom_site_fract_y
_atom_site_fract_z
Si Si1 0.242677 0.823748 0.234881
Si Si2 0.264454 0.191054 0.423515
Si Si3 0.254565 0.576914 0.122910
Si Si4 0.563305 0.036196 0.989999
Si Si5 0.622728 0.462548 0.066759
Si Si6 0.982590 0.105810 0.362975
Si Si7 0.000422 0.099962 0.030944
Si Si8 0.035830 0.544069 0.486407
O O1 0.199614 0.683261 0.145147
O O2 0.500000 0.000000 0.500000
O O3 0.272717 0.712942 0.081983
O O4 0.047214 0.939404 0.267440
O O5 0.534575 0.274525 0.623891
O O6 0.074891 0.089105 0.314182
O O7 0.166236 0.366868 0.528277
O O8 0.229589 0.034339 0.212733
O O9 0.410742 0.435919 0.017907
O O10 0.000000 0.500000 0.000000
O O11 0.309302 0.942135 0.779900
O O12 0.757106 0.926563 0.937984
O O13 0.702820 0.275478 0.257075
O O14 0.500000 0.000000 0.000000
O O15 0.848724 0.666897 0.349662
O O16 0.500000 0.500000 0.000000
O O17 0.019306 0.331475 0.254618
O O18 0.000000 0.000000 0.000000
O O19 0.000000 0.500000 0.500000
#
# Coordination Sequence:
#
# PCOD9010715 Si02
#       8
#     2   2   2   2   2   2   2   2
#     4  11  20  40  69  86 123 172 207 247 312 369
#     4  10  21  40  64  89 128 163 206 258 313 365
#     4  10  22  42  62  94 133 156 207 266 303 366
#     4  11  23  42  61  97 128 153 215 268 295 376
#     4   9  19  38  64  87 123 166 203 250 310 360
#     4  11  21  40  65  95 124 160 213 262 301 367
#     4  11  22  43  66  89 128 170 202 254 325 376
#     4  11  22  41  65  86 126 168 203 251 319 371
#
# _framework density 18.215254999999999
#
# number of rings (size 3 to 8) (size 9 to 14) (size 15 to 20)
#    0.000    1.500    8.750    0.000    0.000    4.500 
#    4.500    0.625    0.000    0.000    0.000    0.000 
#    0.000    0.000    0.000    0.000    0.000    0.000 
#
# Total GULP energy -89095.560582 kJ/mol
# GULP energy per Si atom -5568.472536 kJ/mol
# Density = 1.817380 g / cm^3
# Si number density = 18.215255 Si / 1000 Ang^3
#
#
#
# Elastic Constant Matrix: (Units=GPa)
#
#
# Indices 1 2 3 4 5 6 
#
# 1 115.9163 30.0364 57.9310 1.1403 3.9153 3.7397
# 2 30.0364 83.2686 36.5599 -1.5632 1.6977 -1.3058
# 3 57.9310 36.5599 124.2182 0.4049 -13.3430 -11.2892
# 4 1.1403 -1.5632 0.4049 39.6237 -1.6329 1.5233
# 5 3.9153 1.6977 -13.3430 -1.6329 37.1794 1.9011
# 6 3.7397 -1.3058 -11.2892 1.5233 1.9011 33.2672
#
#
#
# Elastic Compliance Matrix: (Units=1/GPa)
#
#
# Indices 1 2 3 4 5 6 
#
# 1 0.012206 -0.001863 -0.005770 -0.000371 -0.003123 -0.003208
# 2 -0.001863 0.014280 -0.003550 0.000598 -0.001685 -0.000366
# 3 -0.005770 -0.003550 0.012748 -0.000069 0.005109 0.004547
# 4 -0.000371 0.000598 -0.000069 0.025366 0.001162 -0.001186
# 5 -0.003123 -0.001685 0.005109 0.001162 0.029172 0.000299
# 6 -0.003208 -0.000366 0.004547 -0.001186 0.000299 0.031986
#
#
# Mechanical properties :
#
#
# Convention : Reuss Voigt Hill
#
# Bulk Modulus (GPa) = 59.28427 63.60640 61.44533
# Shear Modulus (GPa) = 32.52097 35.27245 33.89671
#
# Velocity S-wave (km/s) = 4.22995 4.40526 4.31849
# Velocity P-wave (km/s) = 7.51490 7.80193 7.65976
#
# Compressibility (1/GPa) = 0.01686788
#
# Stress axis : x y z
#
# Youngs Moduli (GPa) = 81.92760 70.02812 78.44156
#
# Poissons Ratio (x) = 0.13047 0.45260
# Poissons Ratio (y) = 0.15264 0.27848
# Poissons Ratio (z) = 0.47271 0.24861
#
# Static dielectric constant tensor:
#      x y z
#    x 1.368860 0.412640 -0.098080 
#    y 0.412640 0.975340 0.093800 
#    z -0.098080 0.093800 1.643120 
# 
# From -- ./inp_files/313151.got.cif
#   From: 2010.05.17/outbox.cif.g08.bks.cpg/sg2_157_cif.got.tgz:313151.got - 2010.06.03 11:33:40.
