data_PCOD9010936
_publ_section_title
;
Structure prediction by ZEFSAII (Michael W. Deem and Ramdas Pophale) SiO2 
 PCOD9010936
Probable space group: P -1
;
_chemical_formula_sum "Si O2"
_cell_formula_units_Z 16
_cell_length_a 11.168297
_cell_length_b 8.349827
_cell_length_c 8.284865
_cell_angle_alpha 77.002349
_cell_angle_beta 70.585362
_cell_angle_gamma 59.411923
_cell_volume 625.784267
_symmetry_space_group_name_H-M "P -1"
_symmetry_group_IT_number 2
_symmetry_cell_setting 'triclinic'
loop_
_space_group_symop_operation_xyz
x,y,z
-x,-y,-z
loop_
_atom_site_type_symbol
_atom_site_label
_atom_site_fract_x
_atom_site_fract_y
_atom_site_fract_z
Si Si1 0.545151 0.006278 0.161813
Si Si2 0.811971 0.961521 0.233505
Si Si3 0.944984 0.697098 0.752973
Si Si4 0.798974 0.330268 0.538056
Si Si5 0.926322 0.346893 0.939134
Si Si6 0.571815 0.561974 0.810712
Si Si7 0.313474 0.595370 0.765417
Si Si8 0.291660 0.991915 0.384450
O O1 0.472990 0.223354 0.196998
O O2 0.462944 0.912214 0.316126
O O3 0.712170 0.930550 0.151965
O O4 0.500000 0.000000 0.000000
O O5 0.762296 0.920312 0.436162
O O6 0.982857 0.844303 0.155403
O O7 0.764375 0.180750 0.216311
O O8 0.964260 0.490815 0.797720
O O9 0.784006 0.850201 0.752281
O O10 0.037064 0.729124 0.563918
O O11 0.001060 0.712033 0.901488
O O12 0.734884 0.438858 0.707736
O O13 0.726588 0.448309 0.380848
O O14 0.761897 0.160070 0.589095
O O15 0.758287 0.461470 0.042106
O O16 0.480155 0.535081 0.712536
O O17 0.500000 0.500000 0.000000
#
# Coordination Sequence:
#
# PCOD9010936 Si02
#       8
#     2   2   2   2   2   2   2   2
#     4  11  24  43  64  93 131 170 217 269 325 388
#     4  10  22  40  65  96 128 171 218 266 324 388
#     4  10  23  40  65  96 130 173 218 265 326 378
#     4  10  22  44  64  94 132 172 214 264 325 386
#     4  10  21  40  64  96 132 172 216 267 317 390
#     4  11  24  39  64  98 129 167 217 268 321 388
#     4   9  21  41  65  93 132 173 211 262 327 384
#     4  11  23  41  66  95 130 174 215 267 324 388
#
# _framework density 25.567919
#
# number of rings (size 3 to 8) (size 9 to 14) (size 15 to 20)
#    0.000    1.750    0.000    3.000    3.500    2.500 
#    9.000    0.000    0.000    0.000    0.000    0.000 
#    0.000    0.000    0.000    0.000    0.000    0.000 
#
# Total GULP energy -89436.686235 kJ/mol
# GULP energy per Si atom -5589.792890 kJ/mol
# Density = 2.550972 g / cm^3
# Si number density = 25.567919 Si / 1000 Ang^3
#
#
#
# Elastic Constant Matrix: (Units=GPa)
#
#
# Indices 1 2 3 4 5 6 
#
# 1 100.2738 5.4556 17.1505 4.3233 -10.6123 1.2933
# 2 5.4556 57.9072 24.1403 -6.4258 -13.2441 -1.3701
# 3 17.1505 24.1403 123.0080 15.6767 -14.7336 8.0934
# 4 4.3233 -6.4258 15.6767 33.6831 0.1030 -9.9689
# 5 -10.6123 -13.2441 -14.7336 0.1030 51.1170 5.5947
# 6 1.2933 -1.3701 8.0934 -9.9689 5.5947 23.4468
#
#
#
# Elastic Compliance Matrix: (Units=1/GPa)
#
#
# Indices 1 2 3 4 5 6 
#
# 1 0.010429 -0.000353 -0.000880 -0.001405 0.001972 -0.001360
# 2 -0.000353 0.021245 -0.005143 0.008175 0.003306 0.005723
# 3 -0.000880 -0.005143 0.011229 -0.008593 0.002660 -0.008416
# 4 -0.001405 0.008175 -0.008593 0.041986 -0.003157 0.022126
# 5 0.001972 0.003306 0.002660 -0.003157 0.022426 -0.007527
# 6 -0.001360 0.005723 -0.008416 0.022126 -0.007527 0.057167
#
#
# Mechanical properties :
#
#
# Convention : Reuss Voigt Hill
#
# Bulk Modulus (GPa) = 33.16523 41.63130 37.39826
# Shear Modulus (GPa) = 26.69748 37.27890 31.98819
#
# Velocity S-wave (km/s) = 3.23488 3.82256 3.54094
# Velocity P-wave (km/s) = 5.19155 5.98336 5.60147
#
# Compressibility (1/GPa) = 0.03015206
#
# Stress axis : x y z
#
# Youngs Moduli (GPa) = 95.88449 47.07039 89.05497
#
# Poissons Ratio (x) = 0.01660 0.07839
# Poissons Ratio (y) = 0.03382 0.45797
# Poissons Ratio (z) = 0.08440 0.24206
#
# Static dielectric constant tensor:
#      x y z
#    x 2.083050 -0.018330 0.006200 
#    y -0.018330 1.944160 -0.027020 
#    z 0.006200 -0.027020 2.055210 
# 
# From -- ./inp_files/243393.got.cif
#   From: 2010.05.17/outbox.cif.g08.bks.cpg/sg2_122_cif.got.tgz:243393.got - 2010.06.03 11:33:40.
