data_PCOD9010387
_publ_section_title
;
Structure prediction by ZEFSAII (Michael W. Deem and Ramdas Pophale) SiO2 
 PCOD9010387
Probable space group: P -1
;
_chemical_formula_sum "Si O2"
_cell_formula_units_Z 16
_cell_length_a 7.395972
_cell_length_b 9.318059
_cell_length_c 17.738619
_cell_angle_alpha 42.211047
_cell_angle_beta 118.343144
_cell_angle_gamma 99.692087
_cell_volume 687.274570
_symmetry_space_group_name_H-M "P -1"
_symmetry_group_IT_number 2
_symmetry_cell_setting 'triclinic'
loop_
_space_group_symop_operation_xyz
x,y,z
-x,-y,-z
loop_
_atom_site_type_symbol
_atom_site_label
_atom_site_fract_x
_atom_site_fract_y
_atom_site_fract_z
Si Si1 0.253412 0.187177 0.986512
Si Si2 0.584362 0.408152 0.450147
Si Si3 0.569683 0.622788 0.727395
Si Si4 0.303611 0.083778 0.567670
Si Si5 0.013835 0.752346 0.296219
Si Si6 0.161935 0.845305 0.990294
Si Si7 0.035031 0.423537 0.288832
Si Si8 0.384308 0.139575 0.726299
O O1 0.037717 0.180526 0.990379
O O2 0.193639 0.441155 0.845721
O O3 0.272049 0.007836 0.992958
O O4 0.456368 0.085231 0.119508
O O5 0.591031 0.383527 0.370705
O O6 0.442337 0.254166 0.509793
O O7 0.490832 0.678796 0.337466
O O8 0.799610 0.330367 0.572950
O O9 0.660039 0.397179 0.882251
O O10 0.783257 0.630789 0.719664
O O11 0.452191 0.842207 0.665376
O O12 0.085178 0.195295 0.434066
O O13 0.271878 0.093262 0.646688
O O14 0.797420 0.736848 0.298394
O O15 0.058743 0.606170 0.285195
O O16 0.949831 0.015420 0.158967
#
# Coordination Sequence:
#
# PCOD9010387 Si02
#       8
#     2   2   2   2   2   2   2   2
#     4   9  18  34  60  89 110 149 197 248 283 334
#     4  11  21  38  61  88 114 154 198 243 286 338
#     4  10  21  40  63  89 114 154 198 242 289 350
#     4  11  23  38  63  88 120 150 196 244 294 345
#     4  11  23  36  59  92 122 150 193 247 289 343
#     4   9  18  36  60  86 120 147 194 244 293 335
#     4   9  19  35  60  88 117 141 195 245 292 330
#     4  12  23  37  58  93 121 153 195 237 296 346
#
# _framework density 23.280362
#
# number of rings (size 3 to 8) (size 9 to 14) (size 15 to 20)
#    0.000    1.750    2.500    3.750    5.250    2.000 
#    0.000    8.125    2.750    0.000    0.000    0.000 
#    0.000    0.000    0.000    0.000    0.000    0.000 
#
# Total GULP energy -89342.467446 kJ/mol
# GULP energy per Si atom -5583.904215 kJ/mol
# Density = 2.322737 g / cm^3
# Si number density = 23.280362 Si / 1000 Ang^3
#
#
#
# Elastic Constant Matrix: (Units=GPa)
#
#
# Indices 1 2 3 4 5 6 
#
# 1 53.2094 8.9482 16.0820 -8.2629 13.3123 -4.9545
# 2 8.9482 41.2995 26.0530 -21.2543 -18.8467 -19.0002
# 3 16.0820 26.0530 213.1909 -18.1764 1.8097 -0.8279
# 4 -8.2629 -21.2543 -18.1764 29.5685 -4.5858 4.6787
# 5 13.3123 -18.8467 1.8097 -4.5858 -12.7144 -5.3307
# 6 -4.9545 -19.0002 -0.8279 4.6787 -5.3307 17.3494
#
#
#
# Elastic Compliance Matrix: (Units=1/GPa)
#
#
# Indices 1 2 3 4 5 6 
#
# 1 0.019995 0.007317 -0.001672 0.008209 0.001860 0.012001
# 2 0.007317 0.019989 -0.001960 0.008551 -0.030457 0.012223
# 3 -0.001672 -0.001960 0.005201 0.002008 0.002120 -0.002266
# 4 0.008209 0.008551 0.002008 0.041606 -0.016872 -0.004599
# 5 0.001860 -0.030457 0.002120 -0.016872 -0.011833 -0.031809
# 6 0.012001 0.012223 -0.002266 -0.004599 -0.031809 0.065811
#
#
# Mechanical properties :
#
#
# Convention : Reuss Voigt Hill
#
# Bulk Modulus (GPa) = 19.02735 45.54069 32.28402
# Shear Modulus (GPa) = 33.13071 23.94849 28.53960
#
# Velocity S-wave (km/s) = 3.77652 3.21081 3.50510
# Velocity P-wave (km/s) = 5.21603 5.77495 5.50259
#
# Compressibility (1/GPa) = 0.05255593
#
# Stress axis : x y z
#
# Youngs Moduli (GPa) = 50.01138 50.02677 192.28312
#
# Poissons Ratio (x) = -0.36603 0.32146
# Poissons Ratio (y) = -0.36592 0.37681
# Poissons Ratio (z) = 0.08361 0.09804
#
# Static dielectric constant tensor:
#      x y z
#    x 1.940000 0.017790 -0.024420 
#    y 0.017790 1.833170 0.006540 
#    z -0.024420 0.006540 1.928650 
# 
# From -- ./inp_files/277770.got.cif
#   From: 2010.05.17/outbox.cif.g08.bks.cpg/sg2_139_cif.got.tgz:277770.got - 2010.06.03 11:33:40.
