data_PCOD9010580
_publ_section_title
;
Structure prediction by ZEFSAII (Michael W. Deem and Ramdas Pophale) SiO2 
 PCOD9010580
Probable space group: P -1
;
_chemical_formula_sum "Si O2"
_cell_formula_units_Z 16
_cell_length_a 5.169516
_cell_length_b 24.762855
_cell_length_c 10.761469
_cell_angle_alpha 149.099416
_cell_angle_beta 68.730467
_cell_angle_gamma 103.353181
_cell_volume 649.925392
_symmetry_space_group_name_H-M "P -1"
_symmetry_group_IT_number 2
_symmetry_cell_setting 'triclinic'
loop_
_space_group_symop_operation_xyz
x,y,z
-x,-y,-z
loop_
_atom_site_type_symbol
_atom_site_label
_atom_site_fract_x
_atom_site_fract_y
_atom_site_fract_z
Si Si1 0.037162 0.773580 0.007356
Si Si2 0.179334 0.554037 0.674721
Si Si3 0.833578 0.988584 0.135854
Si Si4 0.461192 0.207360 0.209089
Si Si5 0.807659 0.897285 0.522415
Si Si6 0.777693 0.714124 0.342268
Si Si7 0.907663 0.627021 0.523452
Si Si8 0.699450 0.392744 0.801141
O O1 0.869847 0.863976 0.302992
O O2 0.159956 0.677808 0.893292
O O3 0.261716 0.821963 0.979864
O O4 0.884617 0.704134 0.799455
O O5 0.500000 0.500000 0.500000
O O6 0.074991 0.498571 0.705380
O O7 0.000000 0.500000 0.500000
O O8 0.524841 0.060774 0.322533
O O9 0.014697 0.021633 0.283662
O O10 0.759187 0.871134 0.940460
O O11 0.000000 0.000000 0.000000
O O12 0.414099 0.214547 0.378899
O O13 0.365270 0.329386 0.422463
O O14 0.898635 0.793214 0.387151
O O15 0.538485 0.666077 0.215469
O O16 0.024760 0.631630 0.205563
O O17 0.161123 0.649392 0.437443
O O18 0.500000 0.500000 0.000000
#
# Coordination Sequence:
#
# PCOD9010580 Si02
#       8
#     2   2   2   2   2   2   2   2
#     4  11  25  45  70 104 147 182 231 291 358 427
#     4  10  21  40  63  95 134 182 222 264 334 417
#     4  12  28  49  76 104 138 185 242 298 361 424
#     4  11  24  44  77  96 142 185 237 292 358 424
#     4  12  29  47  73 108 140 186 237 299 360 419
#     4  11  24  46  70 101 140 189 236 289 352 416
#     4  10  23  43  68 102 141 187 231 285 355 415
#     4  11  24  42  70 105 141 188 243 288 339 416
#
# _framework density 24.618212
#
# number of rings (size 3 to 8) (size 9 to 14) (size 15 to 20)
#    0.000    1.000    3.750    1.500    7.000    1.000 
#    4.500    0.000    0.000    0.000    0.000    0.000 
#    0.000    0.000    0.000    0.000    0.000    0.000 
#
# Total GULP energy -89228.241414 kJ/mol
# GULP energy per Si atom -5576.765088 kJ/mol
# Density = 2.456218 g / cm^3
# Si number density = 24.618212 Si / 1000 Ang^3
#
#
#
# Elastic Constant Matrix: (Units=GPa)
#
#
# Indices 1 2 3 4 5 6 
#
# 1 133.4916 27.4138 50.0399 -15.7410 -15.1369 11.9179
# 2 27.4138 106.2327 25.6479 0.3519 -0.5819 0.2186
# 3 50.0399 25.6479 111.0118 -37.4354 -10.0608 -7.2647
# 4 -15.7410 0.3519 -37.4354 39.2700 -5.6529 -2.3929
# 5 -15.1369 -0.5819 -10.0608 -5.6529 34.8020 6.5953
# 6 11.9179 0.2186 -7.2647 -2.3929 6.5953 42.2245
#
#
#
# Elastic Compliance Matrix: (Units=1/GPa)
#
#
# Indices 1 2 3 4 5 6 
#
# 1 0.010219 -0.001683 -0.003831 0.000815 0.004228 -0.004149
# 2 -0.001683 0.010660 -0.003354 -0.004289 -0.002210 -0.000055
# 3 -0.003831 -0.003354 0.017846 0.016532 0.005312 0.004276
# 4 0.000815 -0.004289 0.016532 0.043445 0.011493 0.003303
# 5 0.004228 -0.002210 0.005312 0.011493 0.034898 -0.005068
# 6 -0.004149 -0.000055 0.004276 0.003303 -0.005068 0.026569
#
#
# Mechanical properties :
#
#
# Convention : Reuss Voigt Hill
#
# Bulk Modulus (GPa) = 47.64735 61.88215 54.76475
# Shear Modulus (GPa) = 29.69664 39.76828 34.73246
#
# Velocity S-wave (km/s) = 3.47693 4.02357 3.76020
# Velocity P-wave (km/s) = 5.95947 6.83935 6.41452
#
# Compressibility (1/GPa) = 0.02098753
#
# Stress axis : x y z
#
# Youngs Moduli (GPa) = 97.86066 93.81116 56.03495
#
# Poissons Ratio (x) = 0.15789 0.21466
# Poissons Ratio (y) = 0.16471 0.18797
# Poissons Ratio (z) = 0.37489 0.31469
#
# Static dielectric constant tensor:
#      x y z
#    x 2.009100 -0.040440 -0.021740 
#    y -0.040440 1.993590 0.031050 
#    z -0.021740 0.031050 2.040620 
# 
# From -- ./inp_files/371445.got.cif
#   From: 2010.05.17/outbox.cif.g08.bks.cpg/sg2_186_cif.got.tgz:371445.got - 2010.06.03 11:33:40.
