data_PCOD9010669
_publ_section_title
;
Structure prediction by ZEFSAII (Michael W. Deem and Ramdas Pophale) SiO2 
 PCOD9010669
Probable space group: P -1
;
_chemical_formula_sum "Si O2"
_cell_formula_units_Z 14
_cell_length_a 12.321392
_cell_length_b 8.419053
_cell_length_c 9.339929
_cell_angle_alpha 53.878388
_cell_angle_beta 51.212908
_cell_angle_gamma 69.653088
_cell_volume 609.680554
_symmetry_space_group_name_H-M "P -1"
_symmetry_group_IT_number 2
_symmetry_cell_setting 'triclinic'
loop_
_space_group_symop_operation_xyz
x,y,z
-x,-y,-z
loop_
_atom_site_type_symbol
_atom_site_label
_atom_site_fract_x
_atom_site_fract_y
_atom_site_fract_z
Si Si1 0.770459 0.896529 0.292766
Si Si2 0.615710 0.945651 0.123375
Si Si3 0.779486 0.305167 0.689782
Si Si4 0.533260 0.703610 0.063083
Si Si5 0.034115 0.753792 0.974203
Si Si6 0.981574 0.701531 0.729141
Si Si7 0.768730 0.648289 0.706824
O O1 0.640738 0.894822 0.293124
O O2 0.739468 0.787411 0.524030
O O3 0.899206 0.792000 0.162734
O O4 0.834484 0.113737 0.154673
O O5 0.488725 0.086941 0.113488
O O6 0.600775 0.760574 0.128932
O O7 0.747314 0.088518 0.894117
O O8 0.875032 0.298551 0.476865
O O9 0.835769 0.455392 0.684780
O O10 0.623936 0.377355 0.743950
O O11 0.632418 0.583452 0.944244
O O12 0.998638 0.804833 0.811973
O O13 0.063784 0.524463 0.079476
O O14 0.867559 0.765732 0.675013
#
# Coordination Sequence:
#
# PCOD9010669 Si02
#       7
#     2   2   2   2   2   2   2
#     4  11  23  37  60  94 123 153 197 253 296 350
#     4   9  21  41  63  80 126 157 199 241 297 348
#     4  10  21  40  64  87 118 162 198 246 291 358
#     4   9  22  41  65  84 120 162 201 241 294 360
#     4  10  24  40  58  90 128 153 197 249 302 349
#     4  11  23  41  64  88 119 162 200 243 298 358
#     4  12  23  37  65  93 119 157 202 242 301 354
#
# _framework density 22.962842999999999
#
# number of rings (size 3 to 8) (size 9 to 14) (size 15 to 20)
#    0.857    0.857    1.429    2.571    6.000    1.143 
#    0.000    0.714    0.000    0.000    0.000    0.000 
#    0.000    0.000    0.000    0.000    0.000    0.000 
#
# Total GULP energy -78224.913783 kJ/mol
# GULP energy per Si atom -5587.493842 kJ/mol
# Density = 2.291058 g / cm^3
# Si number density = 22.962843 Si / 1000 Ang^3
#
#
#
# Elastic Constant Matrix: (Units=GPa)
#
#
# Indices 1 2 3 4 5 6 
#
# 1 118.4167 11.9497 41.2490 15.7008 28.0209 25.9593
# 2 11.9497 42.4430 3.3520 13.7584 3.6918 9.8263
# 3 41.2490 3.3520 71.3883 24.2000 7.7609 3.8118
# 4 15.7008 13.7584 24.2000 37.1860 -2.1242 3.8862
# 5 28.0209 3.6918 7.7609 -2.1242 40.5919 10.8040
# 6 25.9593 9.8263 3.8118 3.8862 10.8040 28.7239
#
#
#
# Elastic Compliance Matrix: (Units=1/GPa)
#
#
# Indices 1 2 3 4 5 6 
#
# 1 0.014608 -0.000535 -0.006964 -0.000780 -0.006171 -0.009668
# 2 -0.000535 0.029352 0.003692 -0.012313 -0.001578 -0.007788
# 3 -0.006964 0.003692 0.022409 -0.013583 -0.001734 0.004547
# 4 -0.000780 -0.012313 -0.013583 0.041150 0.006781 -0.001398
# 5 -0.006171 -0.001578 -0.001734 0.006781 0.031426 -0.006391
# 6 -0.009668 -0.007788 0.004547 -0.001398 -0.006391 0.048206
#
#
# Mechanical properties :
#
#
# Convention : Reuss Voigt Hill
#
# Bulk Modulus (GPa) = 17.01981 38.37216 27.69599
# Shear Modulus (GPa) = 23.32659 33.01351 28.17005
#
# Velocity S-wave (km/s) = 3.19068 3.79581 3.50632
# Velocity P-wave (km/s) = 4.58279 5.99647 5.33665
#
# Compressibility (1/GPa) = 0.05875506
#
# Stress axis : x y z
#
# Youngs Moduli (GPa) = 68.45762 34.06952 44.62577
#
# Poissons Ratio (x) = 0.01822 0.31076
# Poissons Ratio (y) = 0.03661 -0.16477
# Poissons Ratio (z) = 0.47672 -0.12579
#
# Static dielectric constant tensor:
#      x y z
#    x 1.903610 -0.022030 0.017240 
#    y -0.022030 1.869190 -0.009540 
#    z 0.017240 -0.009540 1.813320 
# 
# From -- ./inp_files/242443.got.cif
#   From: 2010.05.17/outbox.cif.g08.bks.cpg/sg2_122_cif.got.tgz:242443.got - 2010.06.03 11:33:40.
