data_PCOD9010447
_publ_section_title
;
Structure prediction by ZEFSAII (Michael W. Deem and Ramdas Pophale) SiO2 
 PCOD9010447
Probable space group: P -1
;
_chemical_formula_sum "Si O2"
_cell_formula_units_Z 16
_cell_length_a 9.524394
_cell_length_b 14.292136
_cell_length_c 14.449975
_cell_angle_alpha 138.203513
_cell_angle_beta 74.669270
_cell_angle_gamma 74.098421
_cell_volume 860.149271
_symmetry_space_group_name_H-M "P -1"
_symmetry_group_IT_number 2
_symmetry_cell_setting 'triclinic'
loop_
_space_group_symop_operation_xyz
x,y,z
-x,-y,-z
loop_
_atom_site_type_symbol
_atom_site_label
_atom_site_fract_x
_atom_site_fract_y
_atom_site_fract_z
Si Si1 0.679917 0.473543 0.995103
Si Si2 0.529196 0.332008 0.627177
Si Si3 0.375763 0.963513 0.938949
Si Si4 0.815500 0.913276 0.351182
Si Si5 0.550960 0.545243 0.620340
Si Si6 0.373132 0.212264 0.424342
Si Si7 0.054011 0.578436 0.622716
Si Si8 0.456367 0.127998 0.731310
O O1 0.611395 0.533621 0.159332
O O2 0.646938 0.646581 0.078491
O O3 0.500000 0.500000 0.000000
O O4 0.935182 0.261696 0.793276
O O5 0.550315 0.442617 0.632098
O O6 0.423387 0.279007 0.549825
O O7 0.750726 0.107841 0.459881
O O8 0.405429 0.785883 0.843307
O O9 0.471296 0.879119 0.757633
O O10 0.500000 0.000000 0.000000
O O11 0.136727 0.187331 0.141385
O O12 0.734077 0.844510 0.246870
O O13 0.647306 0.009076 0.535045
O O14 0.500000 0.500000 0.500000
O O15 0.778882 0.446226 0.480789
O O16 0.150463 0.424097 0.578343
O O17 0.422438 0.022408 0.312549
O O18 0.000000 0.500000 0.500000
#
# Coordination Sequence:
#
# PCOD9010447 Si02
#       8
#     2   2   2   2   2   2   2   2
#     4  11  24  41  60  95 130 160 210 266 324 384
#     4  10  22  42  62  90 127 166 210 265 311 379
#     4  11  22  39  61  88 127 165 208 260 311 370
#     4   9  20  41  66  87 123 161 208 264 315 378
#     4  11  22  43  63  92 132 166 215 262 311 379
#     4  10  21  40  63  91 124 161 219 258 310 381
#     4  11  22  41  63  92 131 170 207 268 319 367
#     4   9  20  39  65  90 118 163 211 260 314 376
#
# _framework density 18.601421999999999
#
# number of rings (size 3 to 8) (size 9 to 14) (size 15 to 20)
#    0.000    1.750    5.000    1.125    0.000    7.500 
#    4.500    0.000    0.000    0.000    0.000    0.000 
#    0.000    0.000    0.000    0.000    0.000    0.000 
#
# Total GULP energy -89078.522088 kJ/mol
# GULP energy per Si atom -5567.407631 kJ/mol
# Density = 1.855908 g / cm^3
# Si number density = 18.601422 Si / 1000 Ang^3
#
#
#
# Elastic Constant Matrix: (Units=GPa)
#
#
# Indices 1 2 3 4 5 6 
#
# 1 82.6527 26.8627 36.3072 11.8719 -4.7184 -1.6897
# 2 26.8627 134.6121 41.5476 34.5507 -0.4977 17.5676
# 3 36.3072 41.5476 110.3452 35.1329 -7.6034 -10.9515
# 4 11.8719 34.5507 35.1329 45.9711 -6.6522 9.6727
# 5 -4.7184 -0.4977 -7.6034 -6.6522 26.4823 7.3486
# 6 -1.6897 17.5676 -10.9515 9.6727 7.3486 31.0082
#
#
#
# Elastic Compliance Matrix: (Units=1/GPa)
#
#
# Indices 1 2 3 4 5 6 
#
# 1 0.014544 -0.001784 -0.004512 0.001435 0.001808 -0.000666
# 2 -0.001784 0.010377 -0.002499 -0.004357 -0.000437 -0.005396
# 3 -0.004512 -0.002499 0.016306 -0.012129 -0.002342 0.011267
# 4 0.001435 -0.004357 -0.012129 0.039006 0.011077 -0.016530
# 5 0.001808 -0.000437 -0.002342 0.011077 0.044183 -0.014407
# 6 -0.000666 -0.005396 0.011267 -0.016530 -0.014407 0.047820
#
#
# Mechanical properties :
#
#
# Convention : Reuss Voigt Hill
#
# Bulk Modulus (GPa) = 42.30665 59.67165 50.98915
# Shear Modulus (GPa) = 25.29003 35.55180 30.42091
#
# Velocity S-wave (km/s) = 3.69124 4.37652 4.04840
# Velocity P-wave (km/s) = 6.40001 7.59521 7.02308
#
# Compressibility (1/GPa) = 0.02363694
#
# Stress axis : x y z
#
# Youngs Moduli (GPa) = 68.75540 96.36882 61.32579
#
# Poissons Ratio (x) = 0.17197 0.27672
# Poissons Ratio (y) = 0.12269 0.15323
# Poissons Ratio (z) = 0.31024 0.24078
#
# Static dielectric constant tensor:
#      x y z
#    x 1.641510 -0.016870 0.001610 
#    y -0.016870 1.662980 0.038390 
#    z 0.001610 0.038390 1.652020 
# 
# From -- ./inp_files/207566.got.cif
#   From: 2010.05.17/outbox.cif.g08.bks.cpg/sg2_104_cif.got.tgz:207566.got - 2010.06.03 11:33:40.
