data_PCOD9010022
_publ_section_title
;
Structure prediction by ZEFSAII (Michael W. Deem and Ramdas Pophale) SiO2 
 PCOD9010022
Probable space group: P -1
;
_chemical_formula_sum "Si O2"
_cell_formula_units_Z 15
_cell_length_a 7.505713
_cell_length_b 8.383116
_cell_length_c 11.879156
_cell_angle_alpha 101.056452
_cell_angle_beta 121.538316
_cell_angle_gamma 71.745458
_cell_volume 604.625761
_symmetry_space_group_name_H-M "P -1"
_symmetry_group_IT_number 2
_symmetry_cell_setting 'triclinic'
loop_
_space_group_symop_operation_xyz
x,y,z
-x,-y,-z
loop_
_atom_site_type_symbol
_atom_site_label
_atom_site_fract_x
_atom_site_fract_y
_atom_site_fract_z
Si Si1 0.887964 0.904053 0.650682
Si Si2 0.683733 0.253923 0.605241
Si Si3 0.467918 0.369243 0.322675
Si Si4 0.726555 0.945407 0.133695
Si Si5 0.837528 0.428048 0.301001
Si Si6 0.138926 0.205382 0.621947
Si Si7 0.500000 0.500000 0.000000
Si Si8 0.799132 0.657873 0.963948
O O1 0.857129 0.900134 0.503930
O O2 0.935262 0.705643 0.664916
O O3 0.706091 0.073364 0.648515
O O4 0.115952 0.933995 0.776210
O O5 0.516885 0.292152 0.451790
O O6 0.632513 0.427769 0.680505
O O7 0.917093 0.229574 0.621150
O O8 0.697675 0.351830 0.334097
O O9 0.311438 0.288580 0.185647
O O10 0.688287 0.879249 0.236756
O O11 0.861314 0.800905 0.076405
O O12 0.500000 0.000000 0.000000
O O13 0.847016 0.608118 0.376311
O O14 0.713223 0.469421 0.148458
O O15 0.388385 0.396372 0.037546
O O16 0.000000 0.500000 0.000000
#
# Coordination Sequence:
#
# PCOD9010022 Si02
#       8
#     2   2   2   2   2   2   1   2
#     4  11  23  37  63  92 125 165 217 269 314 387
#     4  10  21  40  61  91 124 162 211 267 311 383
#     4  10  22  37  65  90 127 162 212 260 321 387
#     4  11  22  37  64  94 125 167 219 267 323 390
#     4  11  22  40  64  92 125 169 210 265 326 388
#     4  11  22  38  65  91 122 168 213 259 322 386
#     4  10  22  40  64  98 130 164 222 270 318 394
#     4  11  22  40  67  97 127 174 218 265 326 395
#
# _framework density 24.808733
#
# number of rings (size 3 to 8) (size 9 to 14) (size 15 to 20)
#    0.000    1.333    2.667    5.200    1.867    0.000 
#    0.000    0.667    2.933    3.200    0.000    0.000 
#    0.000    0.000    0.000    0.000    0.000    0.000 
#
# Total GULP energy -83568.008349 kJ/mol
# GULP energy per Si atom -5571.200557 kJ/mol
# Density = 2.475227 g / cm^3
# Si number density = 24.808733 Si / 1000 Ang^3
#
#
#
# Elastic Constant Matrix: (Units=GPa)
#
#
# Indices 1 2 3 4 5 6 
#
# 1 39.4583 -3.5667 10.0795 6.8313 14.4608 -7.9659
# 2 -3.5667 124.9958 43.0220 17.9542 12.7134 -23.6291
# 3 10.0795 43.0220 181.6197 -0.5056 7.0590 -3.9057
# 4 6.8313 17.9542 -0.5056 38.7359 -4.3562 -3.5894
# 5 14.4608 12.7134 7.0590 -4.3562 24.3172 0.9349
# 6 -7.9659 -23.6291 -3.9057 -3.5894 0.9349 22.8424
#
#
#
# Elastic Compliance Matrix: (Units=1/GPa)
#
#
# Indices 1 2 3 4 5 6 
#
# 1 0.055200 0.017251 -0.004688 -0.019643 -0.045351 0.035063
# 2 0.017251 0.018101 -0.003943 -0.011769 -0.021574 0.023100
# 3 -0.004688 -0.003943 0.006474 0.002746 0.003628 -0.004323
# 4 -0.019643 -0.011769 0.002746 0.036192 0.024053 -0.013853
# 5 -0.045351 -0.021574 0.003628 0.024053 0.084056 -0.037173
# 6 0.035063 0.023100 -0.004323 -0.013853 -0.037173 0.078507
#
#
# Mechanical properties :
#
#
# Convention : Reuss Voigt Hill
#
# Bulk Modulus (GPa) = 10.30764 49.46037 29.88401
# Shear Modulus (GPa) = 17.02839 36.94838 26.98838
#
# Velocity S-wave (km/s) = 2.62274 3.86337 3.30185
# Velocity P-wave (km/s) = 3.65179 6.31512 5.15831
#
# Compressibility (1/GPa) = 0.09701542
#
# Stress axis : x y z
#
# Youngs Moduli (GPa) = 18.11608 55.24495 154.46924
#
# Poissons Ratio (x) = -0.95303 0.72413
# Poissons Ratio (y) = -0.31252 0.60902
# Poissons Ratio (z) = 0.08493 0.21781
#
# Static dielectric constant tensor:
#      x y z
#    x 1.998940 0.035470 0.028890 
#    y 0.035470 2.069410 -0.024960 
#    z 0.028890 -0.024960 1.958040 
# 
# From -- ./inp_files/383052.got.cif
#   From: 2010.05.17/outbox.cif.g08.bks.cpg/sg2_192_cif.got.tgz:383052.got - 2010.06.03 11:33:40.
