data_PCOD9010019
_publ_section_title
;
Structure prediction by ZEFSAII (Michael W. Deem and Ramdas Pophale) SiO2 
 PCOD9010019
Probable space group: P -1
;
_chemical_formula_sum "Si O2"
_cell_formula_units_Z 16
_cell_length_a 14.216747
_cell_length_b 15.177603
_cell_length_c 13.270538
_cell_angle_alpha 27.535165
_cell_angle_beta 32.366961
_cell_angle_gamma 29.779115
_cell_volume 621.385369
_symmetry_space_group_name_H-M "P -1"
_symmetry_group_IT_number 2
_symmetry_cell_setting 'triclinic'
loop_
_space_group_symop_operation_xyz
x,y,z
-x,-y,-z
loop_
_atom_site_type_symbol
_atom_site_label
_atom_site_fract_x
_atom_site_fract_y
_atom_site_fract_z
Si Si1 0.783113 0.402831 0.604453
Si Si2 0.114322 0.073939 0.931195
Si Si3 0.017027 0.208318 0.094561
Si Si4 0.301169 0.203601 0.013433
Si Si5 0.584544 0.563341 0.180471
Si Si6 0.870937 0.866587 0.551304
Si Si7 0.453496 0.133142 0.275671
Si Si8 0.794345 0.496163 0.713873
O O1 0.599808 0.483216 0.611932
O O2 0.699303 0.532417 0.652480
O O3 0.976480 0.364250 0.404457
O O4 0.870515 0.155323 0.820485
O O5 0.895025 0.244181 0.915141
O O6 0.317250 0.022305 0.739654
O O7 0.120959 0.187903 0.914159
O O8 0.785622 0.381447 0.134383
O O9 0.134571 0.251304 0.032673
O O10 0.999704 0.986458 0.341504
O O11 0.218848 0.155242 0.240200
O O12 0.362523 0.382151 0.813623
O O13 0.500000 0.000000 0.000000
O O14 0.517696 0.763696 0.959525
O O15 0.689858 0.963743 0.534301
O O16 0.341785 0.329953 0.256531
O O17 0.000000 0.500000 0.500000
#
# Coordination Sequence:
#
# PCOD9010019 Si02
#       8
#     2   2   2   2   2   2   2   2
#     4  10  22  42  62  89 130 166 206 266 313 367
#     4  10  23  41  64  91 129 169 214 255 317 369
#     4  11  21  40  65  96 123 165 208 262 313 373
#     4  11  22  41  67  90 123 169 206 252 324 381
#     4  10  22  40  63  93 123 163 213 256 312 375
#     4  10  21  40  61  90 131 162 204 261 316 366
#     4  10  21  42  62  89 130 170 207 262 307 371
#     4  12  23  40  64  94 126 171 217 257 311 371
#
# _framework density 25.748916000000001
#
# number of rings (size 3 to 8) (size 9 to 14) (size 15 to 20)
#    0.000    1.500    2.500    4.125    0.000    3.500 
#    4.500    3.750    0.000    0.000    0.000    0.000 
#    0.000    0.000    0.000    0.000    0.000    0.000 
#
# Total GULP energy -89400.093027 kJ/mol
# GULP energy per Si atom -5587.505814 kJ/mol
# Density = 2.569031 g / cm^3
# Si number density = 25.748916 Si / 1000 Ang^3
#
#
#
# Elastic Constant Matrix: (Units=GPa)
#
#
# Indices 1 2 3 4 5 6 
#
# 1 158.8938 56.6595 20.8221 18.2920 -11.3048 30.9565
# 2 56.6595 165.0978 16.5207 30.5867 0.9704 7.8595
# 3 20.8221 16.5207 34.6956 14.2459 -0.4253 -0.7601
# 4 18.2920 30.5867 14.2459 40.6950 -2.0012 -2.5415
# 5 -11.3048 0.9704 -0.4253 -2.0012 23.3911 -2.0644
# 6 30.9565 7.8595 -0.7601 -2.5415 -2.0644 40.4185
#
#
#
# Elastic Compliance Matrix: (Units=1/GPa)
#
#
# Indices 1 2 3 4 5 6 
#
# 1 0.009368 -0.002267 -0.004109 -0.001297 0.003845 -0.006697
# 2 -0.002267 0.007783 -0.000405 -0.004791 -0.001852 -0.000180
# 3 -0.004109 -0.000405 0.035738 -0.010257 -0.001919 0.003155
# 4 -0.001297 -0.004791 -0.010257 0.032717 0.002530 0.003919
# 5 0.003845 -0.001852 -0.001919 0.002530 0.044853 -0.000171
# 6 -0.006697 -0.000180 0.003155 0.003919 -0.000171 0.030202
#
#
# Mechanical properties :
#
#
# Convention : Reuss Voigt Hill
#
# Bulk Modulus (GPa) = 25.42838 60.74354 43.08596
# Shear Modulus (GPa) = 26.69060 38.54658 32.61859
#
# Velocity S-wave (km/s) = 3.22308 3.87333 3.56307
# Velocity P-wave (km/s) = 4.87318 6.60647 5.80489
#
# Compressibility (1/GPa) = 0.03932614
#
# Stress axis : x y z
#
# Youngs Moduli (GPa) = 106.74549 128.49045 27.98145
#
# Poissons Ratio (x) = 0.29132 0.11499
# Poissons Ratio (y) = 0.24202 0.01132
# Poissons Ratio (z) = 0.43867 0.05199
#
# Static dielectric constant tensor:
#      x y z
#    x 2.072440 -0.028630 -0.013830 
#    y -0.028630 2.051510 -0.066320 
#    z -0.013830 -0.066320 2.209690 
# 
# From -- ./inp_files/534062.got.cif
#   From: 2010.05.17/outbox.cif.g08.bks.cpg/sg2_268_cif.got.tgz:534062.got - 2010.06.03 11:33:40.
