data_PCOD9010775
_publ_section_title
;
Structure prediction by ZEFSAII (Michael W. Deem and Ramdas Pophale) SiO2 
 PCOD9010775
Probable space group: P -1
;
_chemical_formula_sum "Si O2"
_cell_formula_units_Z 16
_cell_length_a 10.614293
_cell_length_b 9.785868
_cell_length_c 9.057207
_cell_angle_alpha 100.577424
_cell_angle_beta 55.788018
_cell_angle_gamma 123.587906
_cell_volume 636.896371
_symmetry_space_group_name_H-M "P -1"
_symmetry_group_IT_number 2
_symmetry_cell_setting 'triclinic'
loop_
_space_group_symop_operation_xyz
x,y,z
-x,-y,-z
loop_
_atom_site_type_symbol
_atom_site_label
_atom_site_fract_x
_atom_site_fract_y
_atom_site_fract_z
Si Si1 0.412735 0.174514 0.727497
Si Si2 0.038297 0.911065 0.320709
Si Si3 0.375114 0.087992 0.281059
Si Si4 0.670903 0.292712 0.324327
Si Si5 0.250403 0.371440 0.729920
Si Si6 0.527964 0.351445 0.992060
Si Si7 0.068523 0.407883 0.137475
Si Si8 0.109602 0.931706 0.703577
O O1 0.581265 0.206804 0.522547
O O2 0.353887 0.292804 0.716838
O O3 0.471117 0.231067 0.865766
O O4 0.232542 0.991948 0.780645
O O5 0.869139 0.727267 0.355295
O O6 0.229728 0.935190 0.240687
O O7 0.000000 0.000000 0.500000
O O8 0.031823 0.012910 0.205722
O O9 0.576028 0.157197 0.227729
O O10 0.262613 0.034836 0.497905
O O11 0.409060 0.241853 0.188817
O O12 0.627293 0.432223 0.343995
O O13 0.888484 0.402556 0.216901
O O14 0.117055 0.348564 0.945953
O O15 0.740766 0.431932 0.905360
O O16 0.500000 0.500000 0.000000
O O17 0.001854 0.264718 0.276355
#
# Coordination Sequence:
#
# PCOD9010775 Si02
#       8
#     2   2   2   2   2   2   2   2
#     4  10  23  40  68  97 130 172 222 273 326 393
#     4   9  20  38  65  97 127 167 219 273 317 386
#     4  10  21  40  64  91 130 173 212 265 320 394
#     4  11  24  45  66  93 139 177 221 259 342 397
#     4  11  22  40  69 100 130 174 222 273 329 386
#     4  12  23  40  66 100 132 165 223 278 327 379
#     4  12  25  41  69  97 136 174 216 279 327 392
#     4   9  22  41  65  94 133 173 218 262 338 387
#
# _framework density 25.121825999999999
#
# number of rings (size 3 to 8) (size 9 to 14) (size 15 to 20)
#    0.000    1.500    2.500    2.250    1.750    8.500 
#    0.000    1.875    0.000    0.000    0.000    0.000 
#    0.000    0.000    0.000    0.000    0.000    0.000 
#
# Total GULP energy -89281.062306 kJ/mol
# GULP energy per Si atom -5580.066394 kJ/mol
# Density = 2.506465 g / cm^3
# Si number density = 25.121826 Si / 1000 Ang^3
#
#
#
# Elastic Constant Matrix: (Units=GPa)
#
#
# Indices 1 2 3 4 5 6 
#
# 1 123.6604 34.9150 30.1119 8.1372 1.8729 46.1245
# 2 34.9150 80.7709 42.7202 -5.3877 10.1995 41.1352
# 3 30.1119 42.7202 101.3234 -11.4047 17.7211 14.1844
# 4 8.1372 -5.3877 -11.4047 35.4462 2.6778 11.1489
# 5 1.8729 10.1995 17.7211 2.6778 25.0244 0.6516
# 6 46.1245 41.1352 14.1844 11.1489 0.6516 61.9921
#
#
#
# Elastic Compliance Matrix: (Units=1/GPa)
#
#
# Indices 1 2 3 4 5 6 
#
# 1 0.011780 0.000317 -0.002857 -0.001118 0.001343 -0.008135
# 2 0.000317 0.025733 -0.006619 0.007552 -0.006188 -0.017090
# 3 -0.002857 -0.006619 0.015135 0.004411 -0.008340 0.002349
# 4 -0.001118 0.007552 0.004411 0.035361 -0.009603 -0.011447
# 5 0.001343 -0.006188 -0.008340 -0.009603 0.049154 0.006225
# 6 -0.008135 -0.017090 0.002349 -0.011447 0.006225 0.034980
#
#
# Mechanical properties :
#
#
# Convention : Reuss Voigt Hill
#
# Bulk Modulus (GPa) = 29.12778 57.91653 43.52215
# Shear Modulus (GPa) = 24.76418 37.69305 31.22861
#
# Velocity S-wave (km/s) = 3.14309 3.87772 3.52957
# Velocity P-wave (km/s) = 4.97914 6.56911 5.82860
#
# Compressibility (1/GPa) = 0.03433149
#
# Stress axis : x y z
#
# Youngs Moduli (GPa) = 84.88851 38.86025 66.07030
#
# Poissons Ratio (x) = -0.01234 0.18875
# Poissons Ratio (y) = -0.02695 0.43735
# Poissons Ratio (z) = 0.24250 0.25723
#
# Static dielectric constant tensor:
#      x y z
#    x 2.091770 -0.006640 -0.024680 
#    y -0.006640 1.999120 0.021260 
#    z -0.024680 0.021260 2.003060 
# 
# From -- ./inp_files/258913.got.cif
#   From: 2010.05.17/outbox.cif.g08.bks.cpg/sg2_130_cif.got.tgz:258913.got - 2010.06.03 11:33:40.
