data_PCOD9010687
_publ_section_title
;
Structure prediction by ZEFSAII (Michael W. Deem and Ramdas Pophale) SiO2 
 PCOD9010687
Probable space group: P -1
;
_chemical_formula_sum "Si O2"
_cell_formula_units_Z 16
_cell_length_a 7.958564
_cell_length_b 7.649069
_cell_length_c 17.693681
_cell_angle_alpha 94.168922
_cell_angle_beta 119.517411
_cell_angle_gamma 124.373782
_cell_volume 675.040557
_symmetry_space_group_name_H-M "P -1"
_symmetry_group_IT_number 2
_symmetry_cell_setting 'triclinic'
loop_
_space_group_symop_operation_xyz
x,y,z
-x,-y,-z
loop_
_atom_site_type_symbol
_atom_site_label
_atom_site_fract_x
_atom_site_fract_y
_atom_site_fract_z
Si Si1 0.847304 0.486882 0.036118
Si Si2 0.316537 0.796852 0.339896
Si Si3 0.923241 0.969354 0.678404
Si Si4 0.362093 0.341378 0.264589
Si Si5 0.276172 0.215117 0.526584
Si Si6 0.598710 0.017830 0.789812
Si Si7 0.737196 0.294738 0.162070
Si Si8 0.489573 0.464095 0.847811
O O1 0.769584 0.302588 0.079072
O O2 0.601451 0.433768 0.943299
O O3 0.078127 0.766079 0.125328
O O4 0.000000 0.500000 0.000000
O O5 0.532240 0.834232 0.439113
O O6 0.038298 0.514645 0.266800
O O7 0.237419 0.946630 0.346772
O O8 0.449254 0.883856 0.287979
O O9 0.896225 0.853491 0.748106
O O10 0.804578 0.785402 0.576689
O O11 0.227740 0.214691 0.745206
O O12 0.565644 0.556185 0.375563
O O13 0.475823 0.223158 0.262084
O O14 0.311440 0.403318 0.175719
O O15 0.000000 0.000000 0.500000
O O16 0.436512 0.940855 0.829424
O O17 0.588301 0.389791 0.139456
#
# Coordination Sequence:
#
# PCOD9010687 Si02
#       8
#     2   2   2   2   2   2   2   2
#     4  11  24  38  63  96 129 156 205 257 308 364
#     4   9  21  41  63  89 125 164 202 255 306 364
#     4  10  21  42  63  90 123 167 208 252 306 362
#     4  10  22  40  63  91 122 159 212 252 301 367
#     4  12  23  40  64  92 129 161 204 260 311 359
#     4   9  21  43  64  89 125 164 204 250 307 370
#     4   9  20  40  64  88 120 164 207 243 306 371
#     4  10  21  40  64  88 125 166 203 251 306 363
#
# _framework density 23.702279000000001
#
# number of rings (size 3 to 8) (size 9 to 14) (size 15 to 20)
#    0.000    2.000    1.250    1.875    3.500    3.500 
#    6.750    1.250    0.000    0.000    0.000    0.000 
#    0.000    0.000    0.000    0.000    0.000    0.000 
#
# Total GULP energy -89371.123873 kJ/mol
# GULP energy per Si atom -5585.695242 kJ/mol
# Density = 2.364833 g / cm^3
# Si number density = 23.702279 Si / 1000 Ang^3
#
#
#
# Elastic Constant Matrix: (Units=GPa)
#
#
# Indices 1 2 3 4 5 6 
#
# 1 75.2696 16.5239 14.3079 -3.0016 -5.6859 7.8433
# 2 16.5239 78.9391 17.3902 -12.4579 -7.0749 31.3512
# 3 14.3079 17.3902 90.6405 -18.0822 -7.7437 13.0992
# 4 -3.0016 -12.4579 -18.0822 32.7496 3.0122 -21.8089
# 5 -5.6859 -7.0749 -7.7437 3.0122 38.2120 -0.6249
# 6 7.8433 31.3512 13.0992 -21.8089 -0.6249 41.6417
#
#
#
# Elastic Compliance Matrix: (Units=1/GPa)
#
#
# Indices 1 2 3 4 5 6 
#
# 1 0.014295 -0.002217 -0.001829 -0.001473 0.001443 -0.001198
# 2 -0.002217 0.019439 -0.001746 -0.004796 0.003030 -0.016135
# 3 -0.001829 -0.001746 0.013009 0.007075 0.001504 0.001294
# 4 -0.001473 -0.004796 0.007075 0.051993 -0.003300 0.028843
# 5 0.001443 0.003030 0.001504 -0.003300 0.027439 -0.004343
# 6 -0.001198 -0.016135 0.001294 0.028843 -0.004343 0.051022
#
#
# Mechanical properties :
#
#
# Convention : Reuss Voigt Hill
#
# Bulk Modulus (GPa) = 28.44071 37.92147 33.18109
# Shear Modulus (GPa) = 24.93769 35.62915 30.28342
#
# Velocity S-wave (km/s) = 3.24716 3.88131 3.57831
# Velocity P-wave (km/s) = 5.10724 6.00999 5.57691
#
# Compressibility (1/GPa) = 0.03516087
#
# Stress axis : x y z
#
# Youngs Moduli (GPa) = 69.95496 51.44181 76.86973
#
# Poissons Ratio (x) = 0.11403 0.14057
# Poissons Ratio (y) = 0.15507 0.13420
# Poissons Ratio (z) = 0.12793 0.08981
#
# Static dielectric constant tensor:
#      x y z
#    x 1.922710 -0.001900 -0.046420 
#    y -0.001900 1.934560 -0.008070 
#    z -0.046420 -0.008070 1.915410 
# 
# From -- ./inp_files/215194.got.cif
#   From: 2010.05.17/outbox.cif.g08.bks.cpg/sg2_108_cif.got.tgz:215194.got - 2010.06.03 11:33:40.
