data_PCOD9010832
_publ_section_title
;
Structure prediction by ZEFSAII (Michael W. Deem and Ramdas Pophale) SiO2 
 PCOD9010832
Probable space group: P -1
;
_chemical_formula_sum "Si O2"
_cell_formula_units_Z 16
_cell_length_a 13.050857
_cell_length_b 12.732914
_cell_length_c 5.014744
_cell_angle_alpha 88.127793
_cell_angle_beta 88.783559
_cell_angle_gamma 131.189646
_cell_volume 625.759314
_symmetry_space_group_name_H-M "P -1"
_symmetry_group_IT_number 2
_symmetry_cell_setting 'triclinic'
loop_
_space_group_symop_operation_xyz
x,y,z
-x,-y,-z
loop_
_atom_site_type_symbol
_atom_site_label
_atom_site_fract_x
_atom_site_fract_y
_atom_site_fract_z
Si Si1 0.444116 0.056838 0.172498
Si Si2 0.720843 0.717246 0.934572
Si Si3 0.229000 0.780033 0.445302
Si Si4 0.119005 0.505385 0.370788
Si Si5 0.076377 0.743462 0.947842
Si Si6 0.535907 0.726090 0.606049
Si Si7 0.770373 0.954348 0.166995
Si Si8 0.718207 0.570234 0.457970
O O1 0.528275 0.208706 0.285772
O O2 0.361253 0.940269 0.414406
O O3 0.334662 0.047318 0.002419
O O4 0.500000 0.000000 0.000000
O O5 0.583555 0.683960 0.849388
O O6 0.762125 0.679079 0.678446
O O7 0.811365 0.876238 0.016582
O O8 0.705989 0.627268 0.184814
O O9 0.238693 0.671738 0.323790
O O10 0.181755 0.749177 0.754743
O O11 0.120975 0.763956 0.250199
O O12 0.173399 0.449799 0.556646
O O13 0.000000 0.500000 0.500000
O O14 0.061650 0.408360 0.120795
O O15 0.102350 0.879582 0.827398
O O16 0.674842 0.851413 0.427920
O O17 0.426617 0.584257 0.461861
#
# Coordination Sequence:
#
# PCOD9010832 Si02
#       8
#     2   2   2   2   2   2   2   2
#     4  10  23  36  61 103 142 172 219 271 335 412
#     4  11  25  45  68 101 133 174 223 286 334 402
#     4  10  21  40  64  93 129 176 218 265 330 396
#     4  10  25  46  70  97 137 180 225 279 333 399
#     4  10  21  42  67  94 126 176 223 266 330 394
#     4  11  23  42  69  97 139 178 218 277 341 402
#     4  10  22  41  68  94 133 180 218 275 346 391
#     4  12  27  41  70 101 133 175 231 273 339 401
#
# _framework density 25.568939
#
# number of rings (size 3 to 8) (size 9 to 14) (size 15 to 20)
#    0.000    1.500    2.500    1.125    5.250    8.500 
#    0.000    1.250    0.000    0.000    0.000    0.000 
#    0.000    0.000    0.000    0.000    0.000    0.000 
#
# Total GULP energy -89403.653746 kJ/mol
# GULP energy per Si atom -5587.728359 kJ/mol
# Density = 2.551074 g / cm^3
# Si number density = 25.568939 Si / 1000 Ang^3
#
#
#
# Elastic Constant Matrix: (Units=GPa)
#
#
# Indices 1 2 3 4 5 6 
#
# 1 92.5856 56.7517 36.2978 -1.1491 9.5829 -33.0027
# 2 56.7517 138.5783 41.7692 17.9735 19.9649 -38.3333
# 3 36.2978 41.7692 119.4227 0.7465 4.0073 -10.3975
# 4 -1.1491 17.9735 0.7465 37.4489 -5.7338 3.8118
# 5 9.5829 19.9649 4.0073 -5.7338 22.6698 5.0074
# 6 -33.0027 -38.3333 -10.3975 3.8118 5.0074 36.5819
#
#
#
# Elastic Compliance Matrix: (Units=1/GPa)
#
#
# Indices 1 2 3 4 5 6 
#
# 1 0.020923 0.001803 -0.004504 -0.004797 -0.015739 0.022139
# 2 0.001803 0.024393 -0.005003 -0.019997 -0.033585 0.032447
# 3 -0.004504 -0.005003 0.010559 0.003928 0.007136 -0.007691
# 4 -0.004797 -0.019997 0.003928 0.045355 0.037945 -0.034086
# 5 -0.015739 -0.033585 0.007136 0.037945 0.103133 -0.065435
# 6 0.022139 0.032447 -0.007691 -0.034086 -0.065435 0.091631
#
#
# Mechanical properties :
#
#
# Convention : Reuss Voigt Hill
#
# Bulk Modulus (GPa) = 24.71183 68.91376 46.81280
# Shear Modulus (GPa) = 15.38980 33.72465 24.55722
#
# Velocity S-wave (km/s) = 2.45601 3.63570 3.10245
# Velocity P-wave (km/s) = 4.21052 6.68095 5.58406
#
# Compressibility (1/GPa) = 0.04046645
#
# Stress axis : x y z
#
# Youngs Moduli (GPa) = 47.79530 40.99473 94.70720
#
# Poissons Ratio (x) = -0.07391 0.42658
# Poissons Ratio (y) = -0.08617 0.47381
# Poissons Ratio (z) = 0.21528 0.20509
#
# Static dielectric constant tensor:
#      x y z
#    x 2.077380 0.065610 -0.029370 
#    y 0.065610 2.123660 -0.008190 
#    z -0.029370 -0.008190 1.998520 
# 
# From -- ./inp_files/93657.got.cif
#   From: 2010.05.17/outbox.cif.g08.bks.cpg/sg2_47_cif.got.tgz:93657.got - 2010.06.03 11:33:40.
