data_PCOD9010430
_publ_section_title
;
Structure prediction by ZEFSAII (Michael W. Deem and Ramdas Pophale) SiO2 
 PCOD9010430
Probable space group: P -1
;
_chemical_formula_sum "Si O2"
_cell_formula_units_Z 16
_cell_length_a 7.339431
_cell_length_b 20.836620
_cell_length_c 5.299516
_cell_angle_alpha 66.709093
_cell_angle_beta 88.541381
_cell_angle_gamma 117.740015
_cell_volume 636.596584
_symmetry_space_group_name_H-M "P -1"
_symmetry_group_IT_number 2
_symmetry_cell_setting 'triclinic'
loop_
_space_group_symop_operation_xyz
x,y,z
-x,-y,-z
loop_
_atom_site_type_symbol
_atom_site_label
_atom_site_fract_x
_atom_site_fract_y
_atom_site_fract_z
Si Si1 0.296238 0.412513 0.197114
Si Si2 0.901660 0.353519 0.628205
Si Si3 0.929392 0.097070 0.919979
Si Si4 0.124346 0.800038 0.890114
Si Si5 0.734313 0.751003 0.652005
Si Si6 0.511433 0.848876 0.505982
Si Si7 0.085566 0.590309 0.959249
Si Si8 0.736326 0.944880 0.845208
O O1 0.153611 0.405083 0.458319
O O2 0.344957 0.340353 0.293994
O O3 0.500000 0.500000 0.000000
O O4 0.115563 0.396808 0.022412
O O5 0.852059 0.265411 0.847514
O O6 0.827632 0.391652 0.790918
O O7 0.791391 0.353240 0.370046
O O8 0.797124 0.118028 0.082317
O O9 0.107135 0.183109 0.660859
O O10 0.051199 0.060764 0.127992
O O11 0.802401 0.034866 0.795680
O O12 0.265298 0.815118 0.614663
O O13 0.883560 0.766486 0.864956
O O14 0.569705 0.779911 0.667595
O O15 0.590144 0.886016 0.169904
O O16 0.635702 0.915292 0.620808
O O17 0.000000 0.500000 0.000000
#
# Coordination Sequence:
#
# PCOD9010430 Si02
#       8
#     2   2   2   2   2   2   2   2
#     4  10  23  41  67  95 130 170 223 276 332 401
#     4  10  22  41  64  94 128 170 222 262 333 406
#     4  10  22  41  75  89 145 183 221 282 349 393
#     4  12  23  43  71  96 137 187 221 284 339 402
#     4  11  23  47  65 100 136 184 225 281 346 409
#     4  11  27  42  69 101 141 173 238 277 338 404
#     4  10  21  40  63  90 126 161 212 271 324 395
#     4  10  24  44  64 109 133 181 232 281 332 412
#
# _framework density 25.133655999999998
#
# number of rings (size 3 to 8) (size 9 to 14) (size 15 to 20)
#    0.750    0.750    3.750    0.375    3.500    4.000 
#    0.000    1.250    0.000    0.000    0.000    0.000 
#    0.000    0.000    0.000    0.000    0.000    0.000 
#
# Total GULP energy -89517.242094 kJ/mol
# GULP energy per Si atom -5594.827631 kJ/mol
# Density = 2.507645 g / cm^3
# Si number density = 25.133656 Si / 1000 Ang^3
#
#
#
# Elastic Constant Matrix: (Units=GPa)
#
#
# Indices 1 2 3 4 5 6 
#
# 1 78.8359 38.6816 20.8763 -0.4059 -1.0498 -17.8375
# 2 38.6816 151.5009 49.9642 2.1386 1.1748 -27.1571
# 3 20.8763 49.9642 112.2463 6.9924 -8.9711 -5.9407
# 4 -0.4059 2.1386 6.9924 51.9400 -2.6471 5.8123
# 5 -1.0498 1.1748 -8.9711 -2.6471 22.8751 3.7882
# 6 -17.8375 -27.1571 -5.9407 5.8123 3.7882 44.9778
#
#
#
# Elastic Compliance Matrix: (Units=1/GPa)
#
#
# Indices 1 2 3 4 5 6 
#
# 1 0.015352 -0.002649 -0.001479 -0.000082 -0.000468 0.004344
# 2 -0.002649 0.009277 -0.003594 -0.000552 -0.002797 0.004383
# 3 -0.001479 -0.003594 0.011131 -0.000952 0.004629 -0.001553
# 4 -0.000082 -0.000552 -0.000952 0.019897 0.002496 -0.003273
# 5 -0.000468 -0.002797 0.004629 0.002496 0.046858 -0.005532
# 6 0.004344 0.004383 -0.001553 -0.003273 -0.005532 0.027286
#
#
# Mechanical properties :
#
#
# Convention : Reuss Voigt Hill
#
# Bulk Modulus (GPa) = 49.21929 62.40303 55.81116
# Shear Modulus (GPa) = 32.89104 39.49597 36.19351
#
# Velocity S-wave (km/s) = 3.62144 3.96844 3.79890
# Velocity P-wave (km/s) = 6.09196 6.77350 6.44175
#
# Compressibility (1/GPa) = 0.02031724
#
# Stress axis : x y z
#
# Youngs Moduli (GPa) = 65.13864 107.78803 89.83904
#
# Poissons Ratio (x) = 0.28548 0.13285
# Poissons Ratio (y) = 0.17252 0.32291
# Poissons Ratio (z) = 0.09632 0.38742
#
# Static dielectric constant tensor:
#      x y z
#    x 1.993340 0.040650 0.021350 
#    y 0.040650 2.040540 0.038230 
#    z 0.021350 0.038230 2.024570 
# 
# From -- ./inp_files/52720.got.cif
#   From: 2010.05.17/outbox.cif.g08.bks.cpg/sg2_27_cif.got.tgz:52720.got - 2010.06.03 11:33:40.
