data_PCOD9010303
_publ_section_title
;
Structure prediction by ZEFSAII (Michael W. Deem and Ramdas Pophale) SiO2 
 PCOD9010303
Probable space group: P -1
;
_chemical_formula_sum "Si O2"
_cell_formula_units_Z 14
_cell_length_a 27.041182
_cell_length_b 7.782945
_cell_length_c 10.088839
_cell_angle_alpha 43.021125
_cell_angle_beta 154.717065
_cell_angle_gamma 134.034756
_cell_volume 614.472773
_symmetry_space_group_name_H-M "P -1"
_symmetry_group_IT_number 2
_symmetry_cell_setting 'triclinic'
loop_
_space_group_symop_operation_xyz
x,y,z
-x,-y,-z
loop_
_atom_site_type_symbol
_atom_site_label
_atom_site_fract_x
_atom_site_fract_y
_atom_site_fract_z
Si Si1 0.470134 0.671371 0.207659
Si Si2 0.228405 0.636817 0.764357
Si Si3 0.303174 0.356542 0.546244
Si Si4 0.498820 0.732867 0.720713
Si Si5 0.904136 0.963460 0.670446
Si Si6 0.717755 0.866676 0.673094
Si Si7 0.916258 0.257471 0.897167
O O1 0.500000 0.500000 0.500000
O O2 0.470115 0.488019 0.182299
O O3 0.580463 0.885522 0.347403
O O4 0.346653 0.743662 0.913781
O O5 0.133113 0.646853 0.414967
O O6 0.182397 0.820994 0.659110
O O7 0.247614 0.366783 0.023186
O O8 0.368913 0.633708 0.514522
O O9 0.183868 0.294573 0.374641
O O10 0.269932 0.222525 0.399735
O O11 0.405910 0.249021 0.941532
O O12 0.500000 0.000000 0.500000
O O13 0.992116 0.952370 0.769358
O O14 0.000000 0.000000 0.000000
O O15 0.802144 0.118283 0.768851
O O16 0.000000 0.500000 0.000000
#
# Coordination Sequence:
#
# PCOD9010303 Si02
#       7
#     2   2   2   2   2   2   2
#     4   9  21  40  64  99 126 157 213 254 318 388
#     4  10  22  42  67  94 125 167 213 264 319 377
#     4  10  21  40  62  98 123 161 225 248 317 378
#     4  10  23  40  64  95 133 166 203 266 319 377
#     4  10  21  43  65  90 123 167 220 258 307 378
#     4  10  21  42  68  95 123 172 213 255 324 379
#     4  11  25  44  62  94 131 167 218 266 310 373
#
# _framework density 22.783760000000001
#
# number of rings (size 3 to 8) (size 9 to 14) (size 15 to 20)
#    0.000    2.000    2.857    0.000    8.000    1.714 
#    5.143    0.000    0.000    0.000    0.000    0.000 
#    0.000    0.000    0.000    0.000    0.000    0.000 
#
# Total GULP energy -78035.818049 kJ/mol
# GULP energy per Si atom -5573.987004 kJ/mol
# Density = 2.273190 g / cm^3
# Si number density = 22.783760 Si / 1000 Ang^3
#
#
#
# Elastic Constant Matrix: (Units=GPa)
#
#
# Indices 1 2 3 4 5 6 
#
# 1 47.6530 22.5544 36.8319 10.3700 1.9551 12.4954
# 2 22.5544 154.2280 67.1254 24.6623 1.8153 23.9639
# 3 36.8319 67.1254 128.1186 16.8412 22.7714 10.2313
# 4 10.3700 24.6623 16.8412 47.7059 10.6599 1.6500
# 5 1.9551 1.8153 22.7714 10.6599 28.6164 -6.0024
# 6 12.4954 23.9639 10.2313 1.6500 -6.0024 31.4918
#
#
#
# Elastic Compliance Matrix: (Units=1/GPa)
#
#
# Indices 1 2 3 4 5 6 
#
# 1 0.030599 0.001716 -0.009191 -0.005111 0.005083 -0.009224
# 2 0.001716 0.010162 -0.005518 -0.004398 0.004091 -0.005610
# 3 -0.009191 -0.005518 0.015090 0.002115 -0.011691 0.000604
# 4 -0.005111 -0.004398 0.002115 0.025880 -0.010413 0.001347
# 5 0.005083 0.004091 -0.011691 -0.010413 0.049328 0.008616
# 6 -0.009224 -0.005610 0.000604 0.001347 0.008616 0.041059
#
#
# Mechanical properties :
#
#
# Convention : Reuss Voigt Hill
#
# Bulk Modulus (GPa) = 33.48395 64.78034 49.13214
# Shear Modulus (GPa) = 24.03170 35.12870 29.58020
#
# Velocity S-wave (km/s) = 3.25125 3.93087 3.60710
# Velocity P-wave (km/s) = 5.36866 7.00691 6.24177
#
# Compressibility (1/GPa) = 0.02986506
#
# Stress axis : x y z
#
# Youngs Moduli (GPa) = 32.68076 98.40991 66.26740
#
# Poissons Ratio (x) = -0.16888 0.60905
# Poissons Ratio (y) = -0.05608 0.36568
# Poissons Ratio (z) = 0.30036 0.54305
#
# Static dielectric constant tensor:
#      x y z
#    x 1.974870 -0.076390 0.029120 
#    y -0.076390 1.989770 -0.050710 
#    z 0.029120 -0.050710 1.844740 
# 
# From -- ./inp_files/477468.got.cif
#   From: 2010.05.17/outbox.cif.g08.bks.cpg/sg2_239_cif.got.tgz:477468.got - 2010.06.03 11:33:40.
