data_PCOD9010533
_publ_section_title
;
Structure prediction by ZEFSAII (Michael W. Deem and Ramdas Pophale) SiO2 
 PCOD9010533
Probable space group: P -1
;
_chemical_formula_sum "Si O2"
_cell_formula_units_Z 16
_cell_length_a 20.013844
_cell_length_b 23.769982
_cell_length_c 9.795825
_cell_angle_alpha 138.583246
_cell_angle_beta 50.290571
_cell_angle_gamma 164.180305
_cell_volume 747.032563
_symmetry_space_group_name_H-M "P -1"
_symmetry_group_IT_number 2
_symmetry_cell_setting 'triclinic'
loop_
_space_group_symop_operation_xyz
x,y,z
-x,-y,-z
loop_
_atom_site_type_symbol
_atom_site_label
_atom_site_fract_x
_atom_site_fract_y
_atom_site_fract_z
Si Si1 0.764580 0.796554 0.327854
Si Si2 0.571976 0.688302 0.131620
Si Si3 0.839076 0.188847 0.127058
Si Si4 0.634333 0.250033 0.688487
Si Si5 0.521041 0.725525 0.673759
Si Si6 0.311907 0.797991 0.184956
Si Si7 0.355272 0.166532 0.987436
Si Si8 0.161183 0.411562 0.337499
O O1 0.819399 0.891110 0.280532
O O2 0.572433 0.687338 0.454123
O O3 0.625569 0.576749 0.087707
O O4 0.000000 0.000000 0.500000
O O5 0.630443 0.759646 0.027162
O O6 0.408493 0.615571 0.282469
O O7 0.070376 0.450085 0.212997
O O8 0.974063 0.308218 0.319592
O O9 0.547985 0.965660 0.100336
O O10 0.769962 0.025966 0.883949
O O11 0.683696 0.241090 0.743024
O O12 0.482586 0.196010 0.824964
O O13 0.434999 0.007527 0.413741
O O14 0.270736 0.535011 0.569514
O O15 0.494252 0.677142 0.779861
O O16 0.000000 0.500000 0.000000
O O17 0.037687 0.854376 0.870101
#
# Coordination Sequence:
#
# PCOD9010533 Si02
#       8
#     2   2   2   2   2   2   2   2
#     4  10  21  40  63  93 133 169 215 267 326 381
#     4  10  22  41  65  92 127 175 216 269 325 380
#     4  11  22  43  67  94 131 169 218 269 320 389
#     4  11  24  42  68  94 129 172 212 271 324 383
#     4  10  23  39  64  99 130 171 215 275 318 388
#     4  11  26  44  65  98 134 167 212 270 327 387
#     4  11  22  40  65  96 128 169 220 266 326 386
#     4  10  21  41  63  93 130 168 220 269 322 379
#
# _framework density 21.418075000000002
#
# number of rings (size 3 to 8) (size 9 to 14) (size 15 to 20)
#    0.000    1.500    3.750    1.875    1.750    3.000 
#    2.250    8.750    0.000    0.000    0.000    0.000 
#    0.000    0.000    0.000    0.000    0.000    0.000 
#
# Total GULP energy -89229.010581 kJ/mol
# GULP energy per Si atom -5576.813161 kJ/mol
# Density = 2.136933 g / cm^3
# Si number density = 21.418075 Si / 1000 Ang^3
#
#
#
# Elastic Constant Matrix: (Units=GPa)
#
#
# Indices 1 2 3 4 5 6 
#
# 1 68.0888 18.8709 24.7496 -0.1192 -0.1372 -5.2214
# 2 18.8709 88.4811 12.6977 5.2050 -5.9583 -8.2254
# 3 24.7496 12.6977 76.6077 -1.7323 9.8209 9.7525
# 4 -0.1192 5.2050 -1.7323 27.5917 6.1897 9.4026
# 5 -0.1372 -5.9583 9.8209 6.1897 20.7602 2.6170
# 6 -5.2214 -8.2254 9.7525 9.4026 2.6170 36.8504
#
#
#
# Elastic Compliance Matrix: (Units=1/GPa)
#
#
# Indices 1 2 3 4 5 6 
#
# 1 0.017903 -0.002279 -0.006268 -0.001791 0.002463 0.003969
# 2 -0.002279 0.013395 -0.002997 -0.005674 0.006377 0.004455
# 3 -0.006268 -0.002997 0.017977 0.006467 -0.010424 -0.007225
# 4 -0.001791 -0.005674 0.006467 0.046175 -0.016724 -0.013826
# 5 0.002463 0.006377 -0.010424 -0.016724 0.059355 0.004583
# 6 0.003969 0.004455 -0.007225 -0.013826 0.004583 0.033808
#
#
# Mechanical properties :
#
#
# Convention : Reuss Voigt Hill
#
# Bulk Modulus (GPa) = 38.18448 38.42379 38.30413
# Shear Modulus (GPa) = 22.68297 28.83109 25.75703
#
# Velocity S-wave (km/s) = 3.25785 3.67292 3.47159
# Velocity P-wave (km/s) = 5.65847 5.99716 5.83028
#
# Compressibility (1/GPa) = 0.02618865
#
# Stress axis : x y z
#
# Youngs Moduli (GPa) = 55.85773 74.65313 55.62524
#
# Poissons Ratio (x) = 0.17010 0.34864
# Poissons Ratio (y) = 0.12727 0.16672
# Poissons Ratio (z) = 0.35010 0.22375
#
# Static dielectric constant tensor:
#      x y z
#    x 1.811070 0.025600 0.035570 
#    y 0.025600 1.808190 -0.010530 
#    z 0.035570 -0.010530 1.814820 
# 
# From -- ./inp_files/337825.got.cif
#   From: 2010.05.17/outbox.cif.g08.bks.cpg/sg2_169_cif.got.tgz:337825.got - 2010.06.03 11:33:40.
