data_PCOD9010835
_publ_section_title
;
Structure prediction by ZEFSAII (Michael W. Deem and Ramdas Pophale) SiO2 
 PCOD9010835
Probable space group: P -1
;
_chemical_formula_sum "Si O2"
_cell_formula_units_Z 14
_cell_length_a 13.829135
_cell_length_b 5.132940
_cell_length_c 14.105608
_cell_angle_alpha 75.462606
_cell_angle_beta 136.049695
_cell_angle_gamma 112.210610
_cell_volume 643.007843
_symmetry_space_group_name_H-M "P -1"
_symmetry_group_IT_number 2
_symmetry_cell_setting 'triclinic'
loop_
_space_group_symop_operation_xyz
x,y,z
-x,-y,-z
loop_
_atom_site_type_symbol
_atom_site_label
_atom_site_fract_x
_atom_site_fract_y
_atom_site_fract_z
Si Si1 0.312957 0.618127 0.069962
Si Si2 0.114562 0.833227 0.619058
Si Si3 0.691829 0.883510 0.605050
Si Si4 0.058792 0.726090 0.380976
Si Si5 0.417350 0.208296 0.878331
Si Si6 0.358563 0.722462 0.315114
Si Si7 0.783702 0.836547 0.103390
O O1 0.472218 0.629069 0.138919
O O2 0.324995 0.657354 0.187354
O O3 0.214007 0.334330 0.976176
O O4 0.257186 0.878723 0.971928
O O5 0.128770 0.714441 0.535030
O O6 0.043635 0.593986 0.667209
O O7 0.270880 0.023218 0.741902
O O8 0.000000 0.000000 0.500000
O O9 0.532349 0.815441 0.450221
O O10 0.715043 0.576611 0.657610
O O11 0.810623 0.116151 0.608919
O O12 0.689015 0.024754 0.693362
O O13 0.935304 0.882133 0.260764
O O14 0.346373 0.343525 0.901496
O O15 0.500000 0.000000 0.000000
#
# Coordination Sequence:
#
# PCOD9010835 Si02
#       7
#     2   2   2   2   2   2   2
#     4  11  23  41  65  92 131 170 217 266 321 372
#     4  11  23  41  63  96 134 164 219 262 316 405
#     4  10  23  42  70  89 128 167 212 274 327 375
#     4  11  24  41  64  94 131 173 209 265 336 379
#     4  10  21  40  64  93 130 172 209 260 325 383
#     4  10  22  44  64  98 121 164 226 269 315 382
#     4  11  23  40  63  94 132 171 211 263 318 405
#
# _framework density 21.772673999999999
#
# number of rings (size 3 to 8) (size 9 to 14) (size 15 to 20)
#    0.000    1.429    1.429    3.857    2.000    1.143 
#    5.143    4.286    0.000    0.000    0.000    0.000 
#    0.000    0.000    0.000    0.000    0.000    0.000 
#
# Total GULP energy -78079.809171 kJ/mol
# GULP energy per Si atom -5577.129227 kJ/mol
# Density = 2.172312 g / cm^3
# Si number density = 21.772674 Si / 1000 Ang^3
#
#
#
# Elastic Constant Matrix: (Units=GPa)
#
#
# Indices 1 2 3 4 5 6 
#
# 1 69.9866 35.2960 30.1538 6.7804 -12.1091 8.0534
# 2 35.2960 76.2479 27.1197 3.6698 -4.5957 -10.8297
# 3 30.1538 27.1197 106.0729 14.7948 -15.2885 -2.1261
# 4 6.7804 3.6698 14.7948 24.9509 -7.2632 -4.9469
# 5 -12.1091 -4.5957 -15.2885 -7.2632 32.9572 5.2396
# 6 8.0534 -10.8297 -2.1261 -4.9469 5.2396 42.1531
#
#
#
# Elastic Compliance Matrix: (Units=1/GPa)
#
#
# Indices 1 2 3 4 5 6 
#
# 1 0.023042 -0.010349 -0.002740 -0.002894 0.006440 -0.008339
# 2 -0.010349 0.019634 -0.002658 0.002108 -0.003027 0.007511
# 3 -0.002740 -0.002658 0.012055 -0.005204 0.003156 -0.000554
# 4 -0.002894 0.002108 -0.005204 0.046539 0.006195 0.005524
# 5 0.006440 -0.003027 0.003156 0.006195 0.036006 -0.005597
# 6 -0.008339 0.007511 -0.000554 0.005524 -0.005597 0.028562
#
#
# Mechanical properties :
#
#
# Convention : Reuss Voigt Hill
#
# Bulk Modulus (GPa) = 43.03127 48.60515 45.81821
# Shear Modulus (GPa) = 24.38090 30.66143 27.52117
#
# Velocity S-wave (km/s) = 3.34996 3.75674 3.55917
# Velocity P-wave (km/s) = 5.89659 6.41793 6.16278
#
# Compressibility (1/GPa) = 0.02323891
#
# Stress axis : x y z
#
# Youngs Moduli (GPa) = 43.39811 50.93198 82.94992
#
# Poissons Ratio (x) = 0.52710 0.22726
# Poissons Ratio (y) = 0.44914 0.22045
# Poissons Ratio (z) = 0.11890 0.13536
#
# Static dielectric constant tensor:
#      x y z
#    x 1.870800 -0.035120 -0.017120 
#    y -0.035120 1.858800 0.012490 
#    z -0.017120 0.012490 1.896420 
# 
# From -- ./inp_files/525625.got.cif
#   From: 2010.05.17/outbox.cif.g08.bks.cpg/sg2_263_cif.got.tgz:525625.got - 2010.06.03 11:33:40.
