data_PCOD9010609
_publ_section_title
;
Structure prediction by ZEFSAII (Michael W. Deem and Ramdas Pophale) SiO2 
 PCOD9010609
Probable space group: P -1
;
_chemical_formula_sum "Si O2"
_cell_formula_units_Z 14
_cell_length_a 9.304034
_cell_length_b 21.369724
_cell_length_c 10.429819
_cell_angle_alpha 148.777268
_cell_angle_beta 52.247792
_cell_angle_gamma 148.347254
_cell_volume 510.526456
_symmetry_space_group_name_H-M "P -1"
_symmetry_group_IT_number 2
_symmetry_cell_setting 'triclinic'
loop_
_space_group_symop_operation_xyz
x,y,z
-x,-y,-z
loop_
_atom_site_type_symbol
_atom_site_label
_atom_site_fract_x
_atom_site_fract_y
_atom_site_fract_z
Si Si1 0.028699 0.083527 0.888477
Si Si2 0.500000 0.500000 0.500000
Si Si3 0.286756 0.851892 0.084358
Si Si4 0.259304 0.718803 0.117887
Si Si5 0.826680 0.709155 0.416887
Si Si6 0.277347 0.293418 0.853126
Si Si7 0.349639 0.727833 0.369716
Si Si8 0.500000 0.000000 0.000000
O O1 0.110307 0.138130 0.790161
O O2 0.946052 0.905488 0.665620
O O3 0.750711 0.027303 0.958426
O O4 0.321937 0.291703 0.163622
O O5 0.708288 0.631658 0.488626
O O6 0.407028 0.836718 0.109057
O O7 0.003970 0.776062 0.162899
O O8 0.533568 0.084750 0.305887
O O9 0.219568 0.772689 0.840051
O O10 0.422600 0.770029 0.250680
O O11 0.073928 0.736813 0.303314
O O12 0.006508 0.486240 0.808455
O O13 0.534537 0.522429 0.161752
O O14 0.478531 0.289061 0.683840
#
# Coordination Sequence:
#
# PCOD9010609 Si02
#       8
#     2   1   2   2   2   2   2   1
#     4  10  21  43  64  90 127 175 210 273 316 388
#     4  10  22  40  64  96 124 168 222 256 318 396
#     4  11  22  41  64  90 130 175 213 274 320 390
#     4  10  23  40  65  99 126 167 223 265 332 388
#     4  10  21  40  66  92 130 165 214 265 326 387
#     4   9  21  39  63  95 126 163 223 261 326 395
#     4  10  21  40  63  97 131 163 213 281 320 384
#     4  10  26  44  62  96 134 168 230 258 330 394
#
# _framework density 27.422671999999999
#
# number of rings (size 3 to 8) (size 9 to 14) (size 15 to 20)
#    0.000    2.000    0.000    2.143    2.000    5.714 
#   10.286    7.143    0.000    0.000    0.000    0.000 
#    0.000    0.000    0.000    0.000    0.000    0.000 
#
# Total GULP energy -77953.898546 kJ/mol
# GULP energy per Si atom -5568.135610 kJ/mol
# Density = 2.736026 g / cm^3
# Si number density = 27.422672 Si / 1000 Ang^3
#
#
#
# Elastic Constant Matrix: (Units=GPa)
#
#
# Indices 1 2 3 4 5 6 
#
# 1 126.6113 38.6192 15.0442 5.2270 -20.4497 -1.9586
# 2 38.6192 105.7706 25.6683 12.2445 -15.8252 -28.8311
# 3 15.0442 25.6683 160.0186 29.8908 -8.3487 -1.8002
# 4 5.2270 12.2445 29.8908 49.5300 -12.6311 -2.8633
# 5 -20.4497 -15.8252 -8.3487 -12.6311 38.6608 2.6777
# 6 -1.9586 -28.8311 -1.8002 -2.8633 2.6777 59.4704
#
#
#
# Elastic Compliance Matrix: (Units=1/GPa)
#
#
# Indices 1 2 3 4 5 6 
#
# 1 0.009534 -0.003293 -0.000355 0.000968 0.004034 -0.001428
# 2 -0.003293 0.013156 -0.001402 -0.001051 0.002578 0.006061
# 3 -0.000355 -0.001402 0.007250 -0.004159 -0.000509 -0.000649
# 4 0.000968 -0.001051 -0.004159 0.024719 0.007242 0.000260
# 5 0.004034 0.002578 -0.000509 0.007242 0.031289 0.000307
# 6 -0.001428 0.006061 -0.000649 0.000260 0.000307 0.019685
#
#
# Mechanical properties :
#
#
# Convention : Reuss Voigt Hill
#
# Bulk Modulus (GPa) = 50.39704 61.22934 55.81319
# Shear Modulus (GPa) = 40.86716 50.40349 45.63533
#
# Velocity S-wave (km/s) = 3.86459 4.29187 4.08382
# Velocity P-wave (km/s) = 6.19122 6.85103 6.52946
#
# Compressibility (1/GPa) = 0.01984243
#
# Stress axis : x y z
#
# Youngs Moduli (GPa) = 104.88555 76.00946 137.92198
#
# Poissons Ratio (x) = 0.25029 0.04890
# Poissons Ratio (y) = 0.34538 0.19333
# Poissons Ratio (z) = 0.03719 0.10655
#
# Static dielectric constant tensor:
#      x y z
#    x 2.217010 -0.134230 0.111040 
#    y -0.134230 2.361530 -0.213140 
#    z 0.111040 -0.213140 2.343490 
# 
# From -- ./inp_files/261918.got.cif
#   From: 2010.05.17/outbox.cif.g08.bks.cpg/sg2_131_cif.got.tgz:261918.got - 2010.06.03 11:33:40.
