data_PCOD9010350
_publ_section_title
;
Structure prediction by ZEFSAII (Michael W. Deem and Ramdas Pophale) SiO2 
 PCOD9010350
Probable space group: P -1
;
_chemical_formula_sum "Si O2"
_cell_formula_units_Z 16
_cell_length_a 14.359149
_cell_length_b 23.849773
_cell_length_c 25.882280
_cell_angle_alpha 169.101838
_cell_angle_beta 30.960039
_cell_angle_gamma 148.464020
_cell_volume 857.300899
_symmetry_space_group_name_H-M "P -1"
_symmetry_group_IT_number 2
_symmetry_cell_setting 'triclinic'
loop_
_space_group_symop_operation_xyz
x,y,z
-x,-y,-z
loop_
_atom_site_type_symbol
_atom_site_label
_atom_site_fract_x
_atom_site_fract_y
_atom_site_fract_z
Si Si1 0.939894 0.565030 0.671567
Si Si2 0.637429 0.604708 0.983306
Si Si3 0.656750 0.960083 0.638143
Si Si4 0.706962 0.303205 0.821762
Si Si5 0.237799 0.834451 0.692951
Si Si6 0.880394 0.135313 0.399287
Si Si7 0.914806 0.931719 0.308141
Si Si8 0.847489 0.386113 0.012321
O O1 0.796862 0.370975 0.526880
O O2 0.986348 0.358007 0.509666
O O3 0.113249 0.674661 0.653302
O O4 0.846473 0.854370 0.995558
O O5 0.506196 0.754454 0.141859
O O6 0.796572 0.837861 0.140813
O O7 0.500000 0.500000 0.000000
O O8 0.715604 0.320532 0.663931
O O9 0.444704 0.881059 0.655320
O O10 0.742821 0.133168 0.703334
O O11 0.695480 0.176638 0.864037
O O12 0.759982 0.668441 0.331799
O O13 0.824922 0.179552 0.608157
O O14 0.761065 0.654275 0.120558
O O15 0.976114 0.052841 0.332213
O O16 0.063289 0.796619 0.150790
O O17 0.000000 0.500000 0.000000
#
# Coordination Sequence:
#
# PCOD9010350 Si02
#       8
#     2   2   2   2   2   2   2   2
#     4  10  21  40  63  87 119 144 184 233 291 351
#     4  12  22  34  51  81 117 150 183 221 269 348
#     4  12  22  37  59  80 111 146 192 241 283 325
#     4  12  21  33  52  77 109 146 182 222 272 334
#     4  10  22  40  62  91 112 145 189 238 287 341
#     4  12  22  37  55  79 116 155 181 224 288 338
#     4  12  23  35  51  76 110 150 187 220 270 328
#     4  12  23  38  55  78 112 155 195 235 277 324
#
# _framework density 18.663226000000002
#
# number of rings (size 3 to 8) (size 9 to 14) (size 15 to 20)
#    0.000    0.500    5.000    5.250    0.000    0.000 
#    0.000    0.000    0.000    1.500    0.000    0.000 
#    0.000    0.000    0.000    0.000    0.000    0.000 
#
# Total GULP energy -89483.725960 kJ/mol
# GULP energy per Si atom -5592.732873 kJ/mol
# Density = 1.862075 g / cm^3
# Si number density = 18.663226 Si / 1000 Ang^3
#
#
#
# Elastic Constant Matrix: (Units=GPa)
#
#
# Indices 1 2 3 4 5 6 
#
# 1 100.0790 16.0646 9.4795 18.6426 -18.0480 -12.3903
# 2 16.0646 49.4435 1.4945 18.8262 -5.9883 -6.3988
# 3 9.4795 1.4945 63.4113 8.9368 1.0520 -5.3916
# 4 18.6426 18.8262 8.9368 24.4012 -3.2606 -3.6909
# 5 -18.0480 -5.9883 1.0520 -3.2606 41.5785 6.4120
# 6 -12.3903 -6.3988 -5.3916 -3.6909 6.4120 25.8957
#
#
#
# Elastic Compliance Matrix: (Units=1/GPa)
#
#
# Indices 1 2 3 4 5 6 
#
# 1 0.012874 0.000127 -0.000465 -0.008608 0.004359 0.003788
# 2 0.000127 0.029687 0.002879 -0.023174 0.001785 0.004251
# 3 -0.000465 0.002879 0.017178 -0.007841 -0.001342 0.003281
# 4 -0.008608 -0.023174 -0.007841 0.067911 -0.001324 -0.001471
# 5 0.004359 0.001785 -0.001342 -0.001324 0.026838 -0.004587
# 6 0.003788 0.004251 0.003281 -0.001471 -0.004587 0.043089
#
#
# Mechanical properties :
#
#
# Convention : Reuss Voigt Hill
#
# Bulk Modulus (GPa) = 15.42668 29.66788 22.54728
# Shear Modulus (GPa) = 23.35351 30.76808 27.06079
#
# Velocity S-wave (km/s) = 3.54123 4.06469 3.81196
# Velocity P-wave (km/s) = 5.00041 6.16116 5.61088
#
# Compressibility (1/GPa) = 0.06482277
#
# Stress axis : x y z
#
# Youngs Moduli (GPa) = 77.67335 33.68465 58.21429
#
# Poissons Ratio (x) = -0.00428 0.02705
# Poissons Ratio (y) = -0.00987 -0.16761
# Poissons Ratio (z) = 0.03609 -0.09699
#
# Static dielectric constant tensor:
#      x y z
#    x 1.674410 -0.029710 -0.010410 
#    y -0.029710 1.633580 0.024610 
#    z -0.010410 0.024610 1.638490 
# 
# From -- ./inp_files/455742.got.cif
#   From: 2010.05.17/outbox.cif.g08.bks.cpg/sg2_228_cif.got.tgz:455742.got - 2010.06.03 11:33:40.
