data_PCOD9010349
_publ_section_title
;
Structure prediction by ZEFSAII (Michael W. Deem and Ramdas Pophale) SiO2 
 PCOD9010349
Probable space group: P -1
;
_chemical_formula_sum "Si O2"
_cell_formula_units_Z 16
_cell_length_a 14.592614
_cell_length_b 10.134854
_cell_length_c 6.525517
_cell_angle_alpha 87.831679
_cell_angle_beta 56.038688
_cell_angle_gamma 111.417903
_cell_volume 707.686843
_symmetry_space_group_name_H-M "P -1"
_symmetry_group_IT_number 2
_symmetry_cell_setting 'triclinic'
loop_
_space_group_symop_operation_xyz
x,y,z
-x,-y,-z
loop_
_atom_site_type_symbol
_atom_site_label
_atom_site_fract_x
_atom_site_fract_y
_atom_site_fract_z
Si Si1 0.475459 0.682021 0.657358
Si Si2 0.817487 0.484126 0.290278
Si Si3 0.129631 0.900877 0.340301
Si Si4 0.388259 0.095496 0.193254
Si Si5 0.062023 0.607424 0.225307
Si Si6 0.311658 0.372460 0.781662
Si Si7 0.610092 0.173164 0.590898
Si Si8 0.952171 0.915520 0.851458
O O1 0.554992 0.756729 0.753197
O O2 0.364362 0.517231 0.854616
O O3 0.574096 0.663348 0.387957
O O4 0.424160 0.781336 0.589991
O O5 0.726238 0.557402 0.369936
O O6 0.732343 0.321607 0.503527
O O7 0.942397 0.591881 0.246863
O O8 0.863525 0.447629 0.017386
O O9 0.142421 0.770997 0.211443
O O10 0.045466 0.855029 0.652902
O O11 0.260099 0.036280 0.236052
O O12 0.054993 0.957447 0.283835
O O13 0.364171 0.966972 0.401545
O O14 0.493649 0.125815 0.891093
O O15 0.000000 0.500000 0.500000
O O16 0.185075 0.223725 0.984435
O O17 0.000000 0.000000 0.000000
#
# Coordination Sequence:
#
# PCOD9010349 Si02
#       8
#     2   2   2   2   2   2   2   2
#     4  10  22  41  62  87 121 161 205 256 308 365
#     4  10  23  41  63  92 123 162 205 256 312 363
#     4  11  25  39  62  96 122 161 210 249 305 374
#     4  11  23  40  61  90 126 162 203 257 311 362
#     4  11  23  41  64  92 127 161 202 254 310 371
#     4  10  21  40  63  87 118 160 207 250 306 368
#     4  10  23  40  62  91 120 160 209 250 308 373
#     4  11  23  42  64  90 127 163 201 254 310 368
#
# _framework density 22.60887
#
# number of rings (size 3 to 8) (size 9 to 14) (size 15 to 20)
#    0.000    1.500    0.000    4.125    0.000   13.000 
#    0.000   11.250    0.000    0.000    0.000    0.000 
#    0.000    0.000    0.000    0.000    0.000    0.000 
#
# Total GULP energy -89279.372802 kJ/mol
# GULP energy per Si atom -5579.960800 kJ/mol
# Density = 2.255741 g / cm^3
# Si number density = 22.608870 Si / 1000 Ang^3
#
#
#
# Elastic Constant Matrix: (Units=GPa)
#
#
# Indices 1 2 3 4 5 6 
#
# 1 85.9939 27.9246 15.9695 16.6145 -1.9730 18.6062
# 2 27.9246 72.4871 8.9007 4.3181 10.8140 31.2677
# 3 15.9695 8.9007 43.1149 -6.7268 -1.4518 14.1798
# 4 16.6145 4.3181 -6.7268 27.3761 13.2222 0.6046
# 5 -1.9730 10.8140 -1.4518 13.2222 26.7119 -4.8913
# 6 18.6062 31.2677 14.1798 0.6046 -4.8913 37.4822
#
#
#
# Elastic Compliance Matrix: (Units=1/GPa)
#
#
# Indices 1 2 3 4 5 6 
#
# 1 0.019854 -0.009182 -0.009340 -0.020451 0.015474 0.003687
# 2 -0.009182 0.031545 0.007783 0.015683 -0.025979 -0.028344
# 3 -0.009340 0.007783 0.033199 0.020278 -0.015135 -0.016717
# 4 -0.020451 0.015683 0.020278 0.074506 -0.046920 -0.017927
# 5 0.015474 -0.025979 -0.015135 -0.046920 0.077090 0.030533
# 6 0.003687 -0.028344 -0.016717 -0.017927 0.030533 0.059092
#
#
# Mechanical properties :
#
#
# Convention : Reuss Voigt Hill
#
# Bulk Modulus (GPa) = 15.84329 34.13171 24.98750
# Shear Modulus (GPa) = 14.80144 28.23413 21.51778
#
# Velocity S-wave (km/s) = 2.56144 3.53768 3.08838
# Velocity P-wave (km/s) = 3.97123 5.64059 4.87786
#
# Compressibility (1/GPa) = 0.06311820
#
# Stress axis : x y z
#
# Youngs Moduli (GPa) = 50.36894 31.70055 30.12139
#
# Poissons Ratio (x) = 0.29108 0.28135
# Poissons Ratio (y) = 0.46250 -0.23443
# Poissons Ratio (z) = 0.47047 -0.24672
#
# Static dielectric constant tensor:
#      x y z
#    x 1.872360 -0.021760 0.013900 
#    y -0.021760 1.903410 0.006720 
#    z 0.013900 0.006720 1.862040 
# 
# From -- ./inp_files/94910.got.cif
#   From: 2010.05.17/outbox.cif.g08.bks.cpg/sg2_48_cif.got.tgz:94910.got - 2010.06.03 11:33:40.
