data_PCOD9010672
_publ_section_title
;
Structure prediction by ZEFSAII (Michael W. Deem and Ramdas Pophale) SiO2 
 PCOD9010672
Probable space group: P -1
;
_chemical_formula_sum "Si O2"
_cell_formula_units_Z 14
_cell_length_a 7.457062
_cell_length_b 15.783832
_cell_length_c 12.277109
_cell_angle_alpha 153.826991
_cell_angle_beta 71.343479
_cell_angle_gamma 106.844940
_cell_volume 603.872958
_symmetry_space_group_name_H-M "P -1"
_symmetry_group_IT_number 2
_symmetry_cell_setting 'triclinic'
loop_
_space_group_symop_operation_xyz
x,y,z
-x,-y,-z
loop_
_atom_site_type_symbol
_atom_site_label
_atom_site_fract_x
_atom_site_fract_y
_atom_site_fract_z
Si Si1 0.598595 0.587163 0.474710
Si Si2 0.772144 0.535536 0.704151
Si Si3 0.150477 0.279115 0.874315
Si Si4 0.088388 0.215271 0.243423
Si Si5 0.746803 0.250350 0.930094
Si Si6 0.525729 0.933403 0.543333
Si Si7 0.695980 0.379047 0.839712
O O1 0.500000 0.500000 0.500000
O O2 0.424658 0.578373 0.413282
O O3 0.729754 0.767739 0.690407
O O4 0.737314 0.424927 0.215067
O O5 0.754474 0.669139 0.968937
O O6 0.835102 0.683934 0.767265
O O7 0.929155 0.368850 0.489090
O O8 0.125740 0.494138 0.081495
O O9 0.279347 0.181420 0.645549
O O10 0.956906 0.168549 0.802624
O O11 0.000000 0.000000 0.000000
O O12 0.717113 0.317999 0.889623
O O13 0.578452 0.098552 0.807013
O O14 0.343751 0.800250 0.439227
O O15 0.500000 0.000000 0.500000
O O16 0.500000 0.500000 0.000000
#
# Coordination Sequence:
#
# PCOD9010672 Si02
#       7
#     2   2   2   2   2   2   2
#     4  10  21  40  64  87 123 167 207 258 320 366
#     4  10  21  41  66  86 132 162 201 266 318 363
#     4  11  20  37  59  90 122 163 199 253 316 367
#     4  10  22  43  64  94 120 162 217 261 312 375
#     4  11  20  37  59  87 122 163 204 257 306 366
#     4   9  19  35  55  84 119 157 204 242 301 376
#     4   9  19  35  56  82 119 156 199 243 303 372
#
# _framework density 23.183684
#
# number of rings (size 3 to 8) (size 9 to 14) (size 15 to 20)
#    0.000    2.000    1.429    3.429    0.000    0.571 
#   10.286    4.286    0.000    0.000    0.000    0.000 
#    0.000    0.000    0.000    0.000    0.000    0.000 
#
# Total GULP energy -77969.616182 kJ/mol
# GULP energy per Si atom -5569.258299 kJ/mol
# Density = 2.313092 g / cm^3
# Si number density = 23.183684 Si / 1000 Ang^3
#
#
#
# Elastic Constant Matrix: (Units=GPa)
#
#
# Indices 1 2 3 4 5 6 
#
# 1 103.3694 3.1449 37.0991 15.9743 30.8313 15.7252
# 2 3.1449 37.0639 29.2921 7.4149 13.1886 10.3104
# 3 37.0991 29.2921 96.1014 15.2980 41.2168 15.3816
# 4 15.9743 7.4149 15.2980 37.5578 15.0010 11.3944
# 5 30.8313 13.1886 41.2168 15.0010 43.1113 3.8777
# 6 15.7252 10.3104 15.3816 11.3944 3.8777 28.7558
#
#
#
# Elastic Compliance Matrix: (Units=1/GPa)
#
#
# Indices 1 2 3 4 5 6 
#
# 1 0.014132 0.005802 -0.002101 -0.000478 -0.009052 -0.007274
# 2 0.005802 0.039598 -0.010168 -0.000704 -0.005313 -0.010936
# 3 -0.002101 -0.010168 0.022038 0.002336 -0.016760 -0.005659
# 4 -0.000478 -0.000704 0.002336 0.034998 -0.012694 -0.012892
# 5 -0.009052 -0.005313 -0.016760 -0.012694 0.050472 0.014044
# 6 -0.007274 -0.010936 -0.005659 -0.012892 0.014044 0.048916
#
#
# Mechanical properties :
#
#
# Convention : Reuss Voigt Hill
#
# Bulk Modulus (GPa) = 15.91534 41.73412 28.82473
# Shear Modulus (GPa) = 20.48895 33.01822 26.75358
#
# Velocity S-wave (km/s) = 2.97604 3.77795 3.40072
# Velocity P-wave (km/s) = 4.32307 6.08861 5.28015
#
# Compressibility (1/GPa) = 0.06283244
#
# Stress axis : x y z
#
# Youngs Moduli (GPa) = 70.76145 25.25401 45.37536
#
# Poissons Ratio (x) = -0.14652 0.09535
# Poissons Ratio (y) = -0.41053 0.46139
# Poissons Ratio (z) = 0.14869 0.25679
#
# Static dielectric constant tensor:
#      x y z
#    x 1.940850 -0.029960 -0.021270 
#    y -0.029960 1.914300 0.084620 
#    z -0.021270 0.084620 1.944660 
# 
# From -- ./inp_files/507988.got.cif
#   From: 2010.05.17/outbox.cif.g08.bks.cpg/sg2_254_cif.got.tgz:507988.got - 2010.06.03 11:33:40.
