data_PCOD9010255
_publ_section_title
;
Structure prediction by ZEFSAII (Michael W. Deem and Ramdas Pophale) SiO2 
 PCOD9010255
Probable space group: P -1
;
_chemical_formula_sum "Si O2"
_cell_formula_units_Z 12
_cell_length_a 7.879868
_cell_length_b 14.468187
_cell_length_c 10.159420
_cell_angle_alpha 136.115251
_cell_angle_beta 137.460446
_cell_angle_gamma 61.051172
_cell_volume 540.108076
_symmetry_space_group_name_H-M "P -1"
_symmetry_group_IT_number 2
_symmetry_cell_setting 'triclinic'
loop_
_space_group_symop_operation_xyz
x,y,z
-x,-y,-z
loop_
_atom_site_type_symbol
_atom_site_label
_atom_site_fract_x
_atom_site_fract_y
_atom_site_fract_z
Si Si1 0.239612 0.444996 0.363654
Si Si2 0.330645 0.622202 0.054796
Si Si3 0.747993 0.293171 0.197858
Si Si4 0.514827 0.964918 0.126619
Si Si5 0.686485 0.092037 0.604030
Si Si6 0.866724 0.834134 0.859950
O O1 0.500000 0.500000 0.500000
O O2 0.199931 0.561723 0.563705
O O3 0.276497 0.302532 0.303660
O O4 0.959741 0.425817 0.117042
O O5 0.403963 0.758590 0.318845
O O6 0.500000 0.500000 0.000000
O O7 0.328809 0.685502 0.973299
O O8 0.994209 0.215921 0.240539
O O9 0.543031 0.194023 0.053835
O O10 0.721747 0.020425 0.409981
O O11 0.290311 0.044679 0.137773
O O12 0.500000 0.000000 0.000000
O O13 0.500000 0.000000 0.500000
O O14 0.942944 0.116332 0.861002
#
# Coordination Sequence:
#
# PCOD9010255 Si02
#       6
#     2   2   2   2   2   2
#     4  10  21  40  62  93 133 167 218 283 330 389
#     4  10  22  39  68  98 123 175 226 272 328 399
#     4  10  21  40  62  94 126 173 229 264 324 416
#     4  12  24  39  65  97 132 174 216 279 347 382
#     4  10  21  41  64  94 130 167 226 278 318 405
#     4  10  22  40  67  90 124 180 226 270 331 404
#
# _framework density 22.217773999999999
#
# number of rings (size 3 to 8) (size 9 to 14) (size 15 to 20)
#    0.000    2.000    3.333    3.500    4.667    0.667 
#    0.000    0.833    3.667    0.000    0.000    0.000 
#    0.000    0.000    0.000    0.000    0.000    0.000 
#
# Total GULP energy -66818.126373 kJ/mol
# GULP energy per Si atom -5568.177198 kJ/mol
# Density = 2.216720 g / cm^3
# Si number density = 22.217774 Si / 1000 Ang^3
#
#
#
# Elastic Constant Matrix: (Units=GPa)
#
#
# Indices 1 2 3 4 5 6 
#
# 1 86.0041 9.1627 35.0311 2.9609 9.7875 15.8601
# 2 9.1627 66.1817 25.9040 13.3962 18.6639 -11.7659
# 3 35.0311 25.9040 130.3877 27.3067 2.0823 26.2177
# 4 2.9609 13.3962 27.3067 36.3104 8.0755 3.2298
# 5 9.7875 18.6639 2.0823 8.0755 39.2468 0.5669
# 6 15.8601 -11.7659 26.2177 3.2298 0.5669 29.5741
#
#
#
# Elastic Compliance Matrix: (Units=1/GPa)
#
#
# Indices 1 2 3 4 5 6 
#
# 1 0.014340 -0.001631 -0.002849 0.002812 -0.003140 -0.006061
# 2 -0.001631 0.024990 -0.007373 -0.002733 -0.010782 0.017858
# 3 -0.002849 -0.007373 0.014049 -0.007608 0.005226 -0.013130
# 4 0.002812 -0.002733 -0.007608 0.035403 -0.006289 0.000403
# 5 -0.003140 -0.010782 0.005226 -0.006289 0.032510 -0.007175
# 6 -0.006061 0.017858 -0.013130 0.000403 -0.007175 0.055902
#
#
# Mechanical properties :
#
#
# Convention : Reuss Voigt Hill
#
# Bulk Modulus (GPa) = 33.70035 46.97434 40.33735
# Shear Modulus (GPa) = 23.72010 35.19132 29.45571
#
# Velocity S-wave (km/s) = 3.27099 3.98417 3.64507
# Velocity P-wave (km/s) = 5.42835 6.50795 5.99251
#
# Compressibility (1/GPa) = 0.02967328
#
# Stress axis : x y z
#
# Youngs Moduli (GPa) = 69.73643 40.01577 71.17734
#
# Poissons Ratio (x) = 0.06528 0.20276
# Poissons Ratio (y) = 0.11377 0.52478
# Poissons Ratio (z) = 0.19866 0.29503
#
# Static dielectric constant tensor:
#      x y z
#    x 1.940000 -0.064310 0.007020 
#    y -0.064310 1.865090 -0.039430 
#    z 0.007020 -0.039430 1.924480 
# 
# From -- ./inp_files/396695.got.cif
#   From: 2010.05.17/outbox.cif.g08.bks.cpg/sg2_199_cif.got.tgz:396695.got - 2010.06.03 11:33:40.
