data_PCOD9010205
_publ_section_title
;
Structure prediction by ZEFSAII (Michael W. Deem and Ramdas Pophale) SiO2 
 PCOD9010205
Probable space group: P -1
;
_chemical_formula_sum "Si O2"
_cell_formula_units_Z 12
_cell_length_a 17.779132
_cell_length_b 6.869946
_cell_length_c 5.218577
_cell_angle_alpha 69.243964
_cell_angle_beta 108.003742
_cell_angle_gamma 129.911123
_cell_volume 454.208591
_symmetry_space_group_name_H-M "P -1"
_symmetry_group_IT_number 2
_symmetry_cell_setting 'triclinic'
loop_
_space_group_symop_operation_xyz
x,y,z
-x,-y,-z
loop_
_atom_site_type_symbol
_atom_site_label
_atom_site_fract_x
_atom_site_fract_y
_atom_site_fract_z
Si Si1 0.769641 0.460980 0.927948
Si Si2 0.597855 0.022088 0.269706
Si Si3 0.265370 0.143638 0.334187
Si Si4 0.430920 0.580944 0.976244
Si Si5 0.888943 0.278507 0.910762
Si Si6 0.929001 0.899576 0.227401
O O1 0.665417 0.202582 0.017947
O O2 0.825731 0.376129 0.868982
O O3 0.840261 0.608398 0.183663
O O4 0.756148 0.658742 0.674602
O O5 0.660624 0.923096 0.476215
O O6 0.492836 0.765020 0.198501
O O7 0.582857 0.226474 0.291615
O O8 0.325850 0.318310 0.061683
O O9 0.157595 0.864604 0.342063
O O10 0.500000 0.500000 0.000000
O O11 0.875523 0.036141 0.143939
O O12 0.000000 0.500000 0.000000
O O13 0.000000 0.000000 0.500000
O O14 0.000000 0.000000 0.000000
#
# Coordination Sequence:
#
# PCOD9010205 Si02
#       6
#     2   2   2   2   2   2
#     4  10  23  42  63  96 136 173 230 286 339 418
#     4  10  22  39  64  93 125 174 215 279 349 415
#     4  10  23  39  62  94 132 171 226 280 346 416
#     4  10  21  40  62  91 128 163 220 279 344 417
#     4  11  23  41  66  95 133 180 231 282 348 412
#     4  11  25  44  67  98 135 181 235 291 348 415
#
# _framework density 26.41958
#
# number of rings (size 3 to 8) (size 9 to 14) (size 15 to 20)
#    0.000    1.667    1.667    1.500    2.333    5.333 
#    0.000    0.000    0.000    0.000    0.000    0.000 
#    0.000    0.000    0.000    0.000    0.000    0.000 
#
# Total GULP energy -66844.038848 kJ/mol
# GULP energy per Si atom -5570.336571 kJ/mol
# Density = 2.635945 g / cm^3
# Si number density = 26.419580 Si / 1000 Ang^3
#
#
#
# Elastic Constant Matrix: (Units=GPa)
#
#
# Indices 1 2 3 4 5 6 
#
# 1 167.0745 62.4332 45.8734 -14.0643 38.9636 -22.9272
# 2 62.4332 147.9503 50.6630 -8.9691 20.0693 -16.4020
# 3 45.8734 50.6630 103.4624 -7.9801 30.8949 -14.7846
# 4 -14.0643 -8.9691 -7.9801 48.2008 -7.4652 25.2831
# 5 38.9636 20.0693 30.8949 -7.4652 50.5079 -9.3841
# 6 -22.9272 -16.4020 -14.7846 25.2831 -9.3841 83.9249
#
#
#
# Elastic Compliance Matrix: (Units=1/GPa)
#
#
# Indices 1 2 3 4 5 6 
#
# 1 0.008440 -0.002456 -0.000959 0.000627 -0.004681 0.000945
# 2 -0.002456 0.008942 -0.003359 0.000222 0.000517 0.000476
# 3 -0.000959 -0.003359 0.013686 -0.000016 -0.006149 0.000810
# 4 0.000627 0.000222 -0.000016 0.024978 0.001809 -0.007111
# 5 -0.004681 0.000517 -0.006149 0.001809 0.027278 0.000244
# 6 0.000945 0.000476 0.000810 -0.007111 0.000244 0.014579
#
#
# Mechanical properties :
#
#
# Convention : Reuss Voigt Hill
#
# Bulk Modulus (GPa) = 57.07486 81.82514 69.45000
# Shear Modulus (GPa) = 42.62940 53.82792 48.22866
#
# Velocity S-wave (km/s) = 4.02126 4.51868 4.27721
# Velocity P-wave (km/s) = 6.57350 7.63304 7.12300
#
# Compressibility (1/GPa) = 0.01752085
#
# Stress axis : x y z
#
# Youngs Moduli (GPa) = 118.47992 111.83716 73.06790
#
# Poissons Ratio (x) = 0.27464 0.07005
# Poissons Ratio (y) = 0.29095 0.24544
# Poissons Ratio (z) = 0.11359 0.37566
#
# Static dielectric constant tensor:
#      x y z
#    x 2.078860 -0.008200 0.006220 
#    y -0.008200 2.101840 0.060790 
#    z 0.006220 0.060790 2.240330 
# 
# From -- ./inp_files/102737.got.cif
#   From: 2010.05.17/outbox.cif.g08.bks.cpg/sg2_52_cif.got.tgz:102737.got - 2010.06.03 11:33:40.
