data_PCOD9010572
_publ_section_title
;
Structure prediction by ZEFSAII (Michael W. Deem and Ramdas Pophale) SiO2 
 PCOD9010572
Probable space group: P -1
;
_chemical_formula_sum "Si O2"
_cell_formula_units_Z 16
_cell_length_a 20.514694
_cell_length_b 13.111954
_cell_length_c 9.789721
_cell_angle_alpha 28.971876
_cell_angle_beta 46.853654
_cell_angle_gamma 35.881550
_cell_volume 744.702515
_symmetry_space_group_name_H-M "P -1"
_symmetry_group_IT_number 2
_symmetry_cell_setting 'triclinic'
loop_
_space_group_symop_operation_xyz
x,y,z
-x,-y,-z
loop_
_atom_site_type_symbol
_atom_site_label
_atom_site_fract_x
_atom_site_fract_y
_atom_site_fract_z
Si Si1 0.515434 0.331571 0.044498
Si Si2 0.630511 0.803046 0.657041
Si Si3 0.106751 0.793110 0.494575
Si Si4 0.210015 0.246685 0.095991
Si Si5 0.670781 0.272583 0.645166
Si Si6 0.589945 0.781857 0.027734
Si Si7 0.148899 0.307515 0.405435
Si Si8 0.957435 0.914010 0.038257
O O1 0.392296 0.405263 0.108511
O O2 0.589023 0.026339 0.343618
O O3 0.500000 0.500000 0.000000
O O4 0.581615 0.342536 0.810282
O O5 0.748830 0.710050 0.651927
O O6 0.557083 0.906646 0.779243
O O7 0.219610 0.761252 0.412729
O O8 0.131276 0.511660 0.812197
O O9 0.000000 0.000000 0.500000
O O10 0.080522 0.891228 0.262152
O O11 0.152413 0.229423 0.332763
O O12 0.278640 0.996815 0.192518
O O13 0.295866 0.275360 0.019470
O O14 0.609519 0.508488 0.345579
O O15 0.500000 0.000000 0.000000
O O16 0.135168 0.114154 0.737870
O O17 0.049663 0.617028 0.199885
O O18 0.000000 0.000000 0.000000
#
# Coordination Sequence:
#
# PCOD9010572 Si02
#       8
#     2   2   2   2   2   2   2   2
#     4  11  24  42  64  94 131 176 220 272 336 405
#     4  10  23  40  64  89 128 167 215 267 332 392
#     4  11  24  44  67  98 137 176 227 281 335 399
#     4  10  23  41  67  95 133 172 225 273 334 403
#     4  11  25  41  68  99 130 176 226 271 342 398
#     4  10  21  40  63  95 131 166 215 274 325 398
#     4  10  23  43  63  97 130 172 221 280 336 401
#     4  11  25  42  68  95 133 174 226 277 339 397
#
# _framework density 21.485088999999999
#
# number of rings (size 3 to 8) (size 9 to 14) (size 15 to 20)
#    0.000    1.500    1.250    2.250    1.750   12.500 
#    0.000    0.000    0.000    0.000    0.000    0.000 
#    0.000    0.000    0.000    0.000    0.000    0.000 
#
# Total GULP energy -89256.634078 kJ/mol
# GULP energy per Si atom -5578.539630 kJ/mol
# Density = 2.143619 g / cm^3
# Si number density = 21.485089 Si / 1000 Ang^3
#
#
#
# Elastic Constant Matrix: (Units=GPa)
#
#
# Indices 1 2 3 4 5 6 
#
# 1 95.2095 15.9495 27.9444 19.4972 -7.0131 7.3268
# 2 15.9495 81.8370 46.4307 7.8894 -5.1903 14.7720
# 3 27.9444 46.4307 104.3851 16.9580 18.9995 1.1652
# 4 19.4972 7.8894 16.9580 37.8388 3.6342 0.0162
# 5 -7.0131 -5.1903 18.9995 3.6342 41.4989 1.4481
# 6 7.3268 14.7720 1.1652 0.0162 1.4481 32.9677
#
#
#
# Elastic Compliance Matrix: (Units=1/GPa)
#
#
# Indices 1 2 3 4 5 6 
#
# 1 0.013287 0.001176 -0.003985 -0.005770 0.004846 -0.003549
# 2 0.001176 0.020217 -0.010507 -0.000871 0.007938 -0.009297
# 3 -0.003985 -0.010507 0.017502 -0.002646 -0.009958 0.005414
# 4 -0.005770 -0.000871 -0.002646 0.031022 -0.002654 0.001867
# 5 0.004846 0.007938 -0.009958 -0.002654 0.030897 -0.005638
# 6 -0.003549 -0.009297 0.005414 0.001867 -0.005638 0.035343
#
#
# Mechanical properties :
#
#
# Convention : Reuss Voigt Hill
#
# Bulk Modulus (GPa) = 41.02824 51.34233 46.18529
# Shear Modulus (GPa) = 27.31854 35.20155 31.26004
#
# Velocity S-wave (km/s) = 3.56969 4.05213 3.81854
# Velocity P-wave (km/s) = 6.01065 6.77064 6.40193
#
# Compressibility (1/GPa) = 0.02437345
#
# Stress axis : x y z
#
# Youngs Moduli (GPa) = 75.25889 49.46327 57.13601
#
# Poissons Ratio (x) = -0.05814 0.22769
# Poissons Ratio (y) = -0.08847 0.60032
# Poissons Ratio (z) = 0.29992 0.51971
#
# Static dielectric constant tensor:
#      x y z
#    x 1.699160 0.157640 0.122390 
#    y 0.157640 1.519130 -0.191320 
#    z 0.122390 -0.191320 1.581250 
# 
# From -- ./inp_files/38186.got.cif
#   From: 2010.05.17/outbox.cif.g08.bks.cpg/sg2_20_cif.got.tgz:38186.got - 2010.06.03 11:33:40.
