data_PCOD9010119
_publ_section_title
;
Structure prediction by ZEFSAII (Michael W. Deem and Ramdas Pophale) SiO2 
 PCOD9010119
Probable space group: P -1
;
_chemical_formula_sum "Si O2"
_cell_formula_units_Z 14
_cell_length_a 22.620611
_cell_length_b 5.763321
_cell_length_c 14.321752
_cell_angle_alpha 69.964977
_cell_angle_beta 20.365991
_cell_angle_gamma 78.929071
_cell_volume 560.817372
_symmetry_space_group_name_H-M "P -1"
_symmetry_group_IT_number 2
_symmetry_cell_setting 'triclinic'
loop_
_space_group_symop_operation_xyz
x,y,z
-x,-y,-z
loop_
_atom_site_type_symbol
_atom_site_label
_atom_site_fract_x
_atom_site_fract_y
_atom_site_fract_z
Si Si1 0.697326 0.362705 0.180125
Si Si2 0.298477 0.357098 0.198261
Si Si3 0.692798 0.414610 0.640620
Si Si4 0.513933 0.743230 0.318320
Si Si5 0.840625 0.616073 0.216859
Si Si6 0.016909 0.837837 0.747781
Si Si7 0.208666 0.709368 0.146665
O O1 0.574048 0.509437 0.297524
O O2 0.582329 0.178156 0.460215
O O3 0.763703 0.243110 0.011259
O O4 0.873045 0.593506 0.935996
O O5 0.292092 0.502918 0.285221
O O6 0.320288 0.548890 0.051925
O O7 0.105594 0.101887 0.518172
O O8 0.477838 0.288433 0.950659
O O9 0.791465 0.665791 0.388255
O O10 0.805551 0.229995 0.482959
O O11 0.348792 0.617321 0.507531
O O12 0.699123 0.997666 0.982590
O O13 0.000000 0.500000 0.000000
O O14 0.910891 0.841820 0.000732
O O15 0.000000 0.500000 0.500000
#
# Coordination Sequence:
#
# PCOD9010119 Si02
#       7
#     2   2   2   2   2   2   2
#     4  10  22  41  65  88 116 159 201 244 299 350
#     4  11  24  37  58  90 121 160 198 239 303 360
#     4  10  22  40  58  86 122 158 201 246 296 352
#     4  10  22  42  64  88 120 156 201 250 293 351
#     4   9  20  39  64  87 113 157 201 245 297 342
#     4  10  21  40  62  87 119 154 201 251 294 351
#     4  12  25  39  60  92 125 158 197 243 299 359
#
# _framework density 24.963563000000001
#
# number of rings (size 3 to 8) (size 9 to 14) (size 15 to 20)
#    0.000    1.714    0.000    3.429    0.000   10.857 
#    0.000   12.857    0.000    0.000    0.000    0.000 
#    0.000    0.000    0.000    0.000    0.000    0.000 
#
# Total GULP energy -78253.443693 kJ/mol
# GULP energy per Si atom -5589.531692 kJ/mol
# Density = 2.490674 g / cm^3
# Si number density = 24.963563 Si / 1000 Ang^3
#
#
#
# Elastic Constant Matrix: (Units=GPa)
#
#
# Indices 1 2 3 4 5 6 
#
# 1 92.9780 4.7822 32.3259 1.9186 6.0467 5.5168
# 2 4.7822 17.2113 22.3082 -3.3990 -7.5875 -4.0032
# 3 32.3259 22.3082 122.4205 -5.0315 -11.3703 17.2684
# 4 1.9186 -3.3990 -5.0315 43.2335 3.4802 -6.5561
# 5 6.0467 -7.5875 -11.3703 3.4802 64.9090 9.1098
# 6 5.5168 -4.0032 17.2684 -6.5561 9.1098 26.9724
#
#
#
# Elastic Compliance Matrix: (Units=1/GPa)
#
#
# Indices 1 2 3 4 5 6 
#
# 1 0.012053 0.000255 -0.003438 -0.000756 -0.001677 0.000156
# 2 0.000255 0.094485 -0.020647 0.009086 0.002930 0.028409
# 3 -0.003438 -0.020647 0.014845 -0.001938 0.002459 -0.013167
# 4 -0.000756 0.009086 -0.001938 0.025249 -0.001897 0.009522
# 5 -0.001677 0.002930 0.002459 -0.001897 0.017441 -0.007148
# 6 0.000156 0.028409 -0.013167 0.009522 -0.007148 0.054418
#
#
# Mechanical properties :
#
#
# Convention : Reuss Voigt Hill
#
# Bulk Modulus (GPa) = 13.56418 39.04914 26.30666
# Shear Modulus (GPa) = 17.19845 38.56923 27.88384
#
# Velocity S-wave (km/s) = 2.62762 3.93494 3.34575
# Velocity P-wave (km/s) = 3.82769 6.02673 5.04840
#
# Compressibility (1/GPa) = 0.07372358
#
# Stress axis : x y z
#
# Youngs Moduli (GPa) = 82.96862 10.58365 67.36407
#
# Poissons Ratio (x) = -0.00270 0.23159
# Poissons Ratio (y) = -0.02115 1.39084
# Poissons Ratio (z) = 0.28524 0.21852
#
# Static dielectric constant tensor:
#      x y z
#    x 1.996650 0.004230 0.056940 
#    y 0.004230 2.011460 -0.010630 
#    z 0.056940 -0.010630 1.988890 
# 
# From -- ./inp_files/38701.got.cif
#   From: 2010.05.17/outbox.cif.g08.bks.cpg/sg2_20_cif.got.tgz:38701.got - 2010.06.03 11:33:40.
