data_PCOD9010222
_publ_section_title
;
Structure prediction by ZEFSAII (Michael W. Deem and Ramdas Pophale) SiO2 
 PCOD9010222
Probable space group: P -1
;
_chemical_formula_sum "Si O2"
_cell_formula_units_Z 14
_cell_length_a 15.687930
_cell_length_b 9.406763
_cell_length_c 9.067026
_cell_angle_alpha 122.118480
_cell_angle_beta 129.373810
_cell_angle_gamma 92.563537
_cell_volume 711.456106
_symmetry_space_group_name_H-M "P -1"
_symmetry_group_IT_number 2
_symmetry_cell_setting 'triclinic'
loop_
_space_group_symop_operation_xyz
x,y,z
-x,-y,-z
loop_
_atom_site_type_symbol
_atom_site_label
_atom_site_fract_x
_atom_site_fract_y
_atom_site_fract_z
Si Si1 0.507420 0.333747 0.829851
Si Si2 0.784693 0.072785 0.652336
Si Si3 0.513507 0.689716 0.539307
Si Si4 0.947521 0.897578 0.725439
Si Si5 0.812452 0.116040 0.047866
Si Si6 0.756849 0.410000 0.299569
Si Si7 0.634445 0.191514 0.340015
O O1 0.357202 0.132358 0.567426
O O2 0.543852 0.386516 0.729301
O O3 0.500000 0.500000 0.000000
O O4 0.612602 0.300485 0.999570
O O5 0.879403 0.008892 0.655724
O O6 0.835781 0.176103 0.929755
O O7 0.736957 0.157939 0.520044
O O8 0.500000 0.500000 0.500000
O O9 0.426645 0.742761 0.566917
O O10 0.665314 0.901877 0.803025
O O11 0.838134 0.651663 0.487122
O O12 0.075655 0.922447 0.804179
O O13 0.000000 0.000000 0.000000
O O14 0.823772 0.299698 0.250735
O O15 0.722752 0.364365 0.408903
O O16 0.500000 0.000000 0.000000
#
# Coordination Sequence:
#
# PCOD9010222 Si02
#       7
#     2   2   2   2   2   2   2
#     4  11  20  35  64  94 121 161 206 254 311 369
#     4  10  21  40  62  92 127 160 204 255 312 367
#     4  11  24  38  64  97 130 157 204 265 317 363
#     4  10  23  41  65  85 122 172 212 248 300 379
#     4  10  22  42  63  90 123 169 210 250 305 375
#     4  12  22  39  67  91 125 163 210 256 311 368
#     4  12  23  38  63  99 131 154 200 267 318 361
#
# _framework density 19.677952000000001
#
# number of rings (size 3 to 8) (size 9 to 14) (size 15 to 20)
#    0.000    1.143    4.286    2.143    4.000    2.286 
#    0.000    3.571    3.143    0.000    0.000    0.000 
#    0.000    0.000    0.000    0.000    0.000    0.000 
#
# Total GULP energy -78078.502481 kJ/mol
# GULP energy per Si atom -5577.035892 kJ/mol
# Density = 1.963316 g / cm^3
# Si number density = 19.677952 Si / 1000 Ang^3
#
#
#
# Elastic Constant Matrix: (Units=GPa)
#
#
# Indices 1 2 3 4 5 6 
#
# 1 149.9323 54.0062 33.4417 -22.6305 -7.8138 -29.0807
# 2 54.0062 103.6782 17.0347 -33.0903 -5.5640 -13.5991
# 3 33.4417 17.0347 41.7420 -11.7734 -8.7416 -11.5593
# 4 -22.6305 -33.0903 -11.7734 35.0909 -5.9542 1.0265
# 5 -7.8138 -5.5640 -8.7416 -5.9542 29.9649 -12.1838
# 6 -29.0807 -13.5991 -11.5593 1.0265 -12.1838 39.1092
#
#
#
# Elastic Compliance Matrix: (Units=1/GPa)
#
#
# Indices 1 2 3 4 5 6 
#
# 1 0.010645 -0.002344 -0.003040 0.004337 0.005486 0.007797
# 2 -0.002344 0.017760 0.004654 0.018457 0.011309 0.008847
# 3 -0.003040 0.004654 0.039372 0.018932 0.022429 0.017485
# 4 0.004337 0.018457 0.018932 0.059708 0.031494 0.023483
# 5 0.005486 0.011309 0.022429 0.031494 0.063345 0.033548
# 6 0.007797 0.008847 0.017485 0.023483 0.033548 0.049446
#
#
# Mechanical properties :
#
#
# Convention : Reuss Voigt Hill
#
# Bulk Modulus (GPa) = 15.07924 56.03531 35.55728
# Shear Modulus (GPa) = 18.95078 33.55765 26.25421
#
# Velocity S-wave (km/s) = 3.10667 4.13406 3.65663
# Velocity P-wave (km/s) = 4.53301 7.16417 5.99472
#
# Compressibility (1/GPa) = 0.06631634
#
# Stress axis : x y z
#
# Youngs Moduli (GPa) = 93.94124 56.30723 25.39880
#
# Poissons Ratio (x) = 0.13199 0.07722
# Poissons Ratio (y) = 0.22021 -0.11822
# Poissons Ratio (z) = 0.28562 -0.26208
#
# Static dielectric constant tensor:
#      x y z
#    x 1.727670 0.001510 -0.031270 
#    y 0.001510 1.725750 -0.032930 
#    z -0.031270 -0.032930 1.786710 
# 
# From -- ./inp_files/171643.got.cif
#   From: 2010.05.17/outbox.cif.g08.bks.cpg/sg2_86_cif.got.tgz:171643.got - 2010.06.03 11:33:40.
