data_PCOD9010837
_publ_section_title
;
Structure prediction by ZEFSAII (Michael W. Deem and Ramdas Pophale) SiO2 
 PCOD9010837
Probable space group: P -1
;
_chemical_formula_sum "Si O2"
_cell_formula_units_Z 16
_cell_length_a 12.878490
_cell_length_b 11.428752
_cell_length_c 9.226313
_cell_angle_alpha 50.608296
_cell_angle_beta 133.542410
_cell_angle_gamma 110.109198
_cell_volume 750.087813
_symmetry_space_group_name_H-M "P -1"
_symmetry_group_IT_number 2
_symmetry_cell_setting 'triclinic'
loop_
_space_group_symop_operation_xyz
x,y,z
-x,-y,-z
loop_
_atom_site_type_symbol
_atom_site_label
_atom_site_fract_x
_atom_site_fract_y
_atom_site_fract_z
Si Si1 0.596911 0.126286 0.675839
Si Si2 0.391050 0.120658 0.892298
Si Si3 0.254268 0.204873 0.225696
Si Si4 0.432531 0.659995 0.237870
Si Si5 0.141749 0.329099 0.424384
Si Si6 0.055657 0.321571 0.669765
Si Si7 0.176133 0.525942 0.068310
Si Si8 0.852218 0.087392 0.714553
O O1 0.430732 0.174089 0.421076
O O2 0.609035 0.229198 0.750344
O O3 0.721674 0.133444 0.670324
O O4 0.619037 0.955274 0.901719
O O5 0.463950 0.272128 0.827948
O O6 0.244434 0.168077 0.619331
O O7 0.500000 0.000000 0.000000
O O8 0.197712 0.356393 0.149766
O O9 0.203822 0.040759 0.340596
O O10 0.170057 0.253085 0.956679
O O11 0.500000 0.500000 0.500000
O O12 0.292992 0.623024 0.050201
O O13 0.137419 0.317395 0.600405
O O14 0.199203 0.476482 0.297416
O O15 0.977775 0.367516 0.182013
O O16 0.000000 0.500000 0.500000
O O17 0.917027 0.231967 0.598911
O O18 0.000000 0.000000 0.000000
#
# Coordination Sequence:
#
# PCOD9010837 Si02
#       8
#     2   2   2   2   2   2   2   2
#     4  11  23  42  69  97 136 183 224 275 345 403
#     4  10  21  40  64  93 133 173 218 277 329 404
#     4  11  22  45  67  98 139 177 225 279 341 404
#     4  11  21  40  67 102 136 174 224 280 346 395
#     4  11  23  41  66  97 133 175 221 277 343 391
#     4  11  24  44  68  98 139 175 229 283 335 407
#     4  11  23  40  68 101 134 176 220 285 334 407
#     4  10  24  41  65  92 133 184 222 272 333 405
#
# _framework density 21.330836000000001
#
# number of rings (size 3 to 8) (size 9 to 14) (size 15 to 20)
#    0.000    1.250    3.750    2.625    1.750    2.000 
#    0.000    3.750    0.000    0.000    0.000    0.000 
#    0.000    0.000    0.000    0.000    0.000    0.000 
#
# Total GULP energy -89101.305747 kJ/mol
# GULP energy per Si atom -5568.831609 kJ/mol
# Density = 2.128229 g / cm^3
# Si number density = 21.330836 Si / 1000 Ang^3
#
#
#
# Elastic Constant Matrix: (Units=GPa)
#
#
# Indices 1 2 3 4 5 6 
#
# 1 85.6736 44.6546 41.0182 1.3911 7.6980 5.5619
# 2 44.6546 114.3554 24.5637 -10.3471 3.5388 11.1338
# 3 41.0182 24.5637 137.6891 -14.0162 21.4010 2.8306
# 4 1.3911 -10.3471 -14.0162 28.6685 0.0379 2.6541
# 5 7.6980 3.5388 21.4010 0.0379 50.6982 -6.5094
# 6 5.5619 11.1338 2.8306 2.6541 -6.5094 24.2999
#
#
#
# Elastic Compliance Matrix: (Units=1/GPa)
#
#
# Indices 1 2 3 4 5 6 
#
# 1 0.017174 -0.006201 -0.004501 -0.005266 -0.000279 -0.000065
# 2 -0.006201 0.012054 0.000454 0.005331 -0.000729 -0.004934
# 3 -0.004501 0.000454 0.009670 0.005288 -0.003674 -0.001866
# 4 -0.005266 0.005331 0.005288 0.040297 -0.002732 -0.006987
# 5 -0.000279 -0.000729 -0.003674 -0.002732 0.022281 0.007093
# 6 -0.000065 -0.004934 -0.001866 -0.006987 0.007093 0.046309
#
#
# Mechanical properties :
#
#
# Convention : Reuss Voigt Hill
#
# Bulk Modulus (GPa) = 54.34041 62.02124 58.18083
# Shear Modulus (GPa) = 28.66724 35.89876 32.28300
#
# Velocity S-wave (km/s) = 3.66995 4.10683 3.89452
# Velocity P-wave (km/s) = 6.59457 7.18520 6.89621
#
# Compressibility (1/GPa) = 0.01840251
#
# Stress axis : x y z
#
# Youngs Moduli (GPa) = 58.22695 82.96134 103.40911
#
# Poissons Ratio (x) = 0.51444 0.46548
# Poissons Ratio (y) = 0.36106 -0.04698
# Poissons Ratio (z) = 0.26210 -0.03769
#
# Static dielectric constant tensor:
#      x y z
#    x 0.672530 1.043020 -0.676470 
#    y 1.043020 0.894760 0.590770 
#    z -0.676470 0.590770 1.393540 
# 
# From -- ./inp_files/261819.got.cif
#   From: 2010.05.17/outbox.cif.g08.bks.cpg/sg2_131_cif.got.tgz:261819.got - 2010.06.03 11:33:40.
