data_PCOD9010624
_publ_section_title
;
Structure prediction by ZEFSAII (Michael W. Deem and Ramdas Pophale) SiO2 
 PCOD9010624
Probable space group: P -1
;
_chemical_formula_sum "Si O2"
_cell_formula_units_Z 12
_cell_length_a 12.716323
_cell_length_b 10.612176
_cell_length_c 5.099969
_cell_angle_alpha 98.798709
_cell_angle_beta 84.919976
_cell_angle_gamma 139.585772
_cell_volume 440.516068
_symmetry_space_group_name_H-M "P -1"
_symmetry_group_IT_number 2
_symmetry_cell_setting 'triclinic'
loop_
_space_group_symop_operation_xyz
x,y,z
-x,-y,-z
loop_
_atom_site_type_symbol
_atom_site_label
_atom_site_fract_x
_atom_site_fract_y
_atom_site_fract_z
Si Si1 0.011748 0.693988 0.314898
Si Si2 0.234815 0.691971 0.392678
Si Si3 0.780170 0.647418 0.044766
Si Si4 0.443000 0.060901 0.842815
Si Si5 0.243525 0.074340 0.736351
Si Si6 0.427316 0.570846 0.490113
O O1 0.877290 0.497848 0.460127
O O2 0.937976 0.707088 0.094853
O O3 0.130357 0.684236 0.217855
O O4 0.100337 0.876289 0.545172
O O5 0.378311 0.742845 0.249958
O O6 0.329754 0.880984 0.607145
O O7 0.795962 0.814102 0.159147
O O8 0.653655 0.471772 0.228771
O O9 0.709780 0.577612 0.747645
O O10 0.320913 0.063061 0.957888
O O11 0.500000 0.000000 0.000000
O O12 0.408103 0.210437 0.569010
O O13 0.500000 0.500000 0.500000
#
# Coordination Sequence:
#
# PCOD9010624 Si02
#       6
#     2   2   2   2   2   2
#     4  10  21  42  66  94 141 171 217 278 346 405
#     4   9  21  43  63  94 128 176 223 272 333 395
#     4  11  23  44  69 101 136 178 224 276 340 399
#     4  10  21  40  67  91 123 171 233 274 321 396
#     4  10  21  40  63  98 130 171 224 279 335 397
#     4  10  22  43  68  97 135 178 229 273 324 404
#
# _framework density 27.240777999999999
#
# number of rings (size 3 to 8) (size 9 to 14) (size 15 to 20)
#    0.000    2.000    0.000    3.500    2.333    0.000 
#   24.000    8.333    0.000    0.000    0.000    0.000 
#    0.000    0.000    0.000    0.000    0.000    0.000 
#
# Total GULP energy -67116.895701 kJ/mol
# GULP energy per Si atom -5593.074642 kJ/mol
# Density = 2.717878 g / cm^3
# Si number density = 27.240778 Si / 1000 Ang^3
#
#
#
# Elastic Constant Matrix: (Units=GPa)
#
#
# Indices 1 2 3 4 5 6 
#
# 1 208.7920 50.5232 73.9380 17.3550 62.3785 -13.6944
# 2 50.5232 140.3343 26.4747 18.1625 6.3023 -2.4642
# 3 73.9380 26.4747 143.2585 29.4560 31.9609 3.2012
# 4 17.3550 18.1625 29.4560 29.9012 3.9021 -0.6874
# 5 62.3785 6.3023 31.9609 3.9021 63.5031 -1.6322
# 6 -13.6944 -2.4642 3.2012 -0.6874 -1.6322 45.6919
#
#
#
# Elastic Compliance Matrix: (Units=1/GPa)
#
#
# Indices 1 2 3 4 5 6 
#
# 1 0.008339 -0.002178 -0.002418 -0.000209 -0.006686 0.002309
# 2 -0.002178 0.008352 0.000092 -0.004101 0.001511 -0.000217
# 3 -0.002418 0.000092 0.010617 -0.008826 -0.002478 -0.001685
# 4 -0.000209 -0.004101 -0.008826 0.044469 0.002350 0.001087
# 5 -0.006686 0.001511 -0.002478 0.002350 0.023245 -0.000883
# 6 0.002309 -0.000217 -0.001685 0.001087 -0.000883 0.022669
#
#
# Mechanical properties :
#
#
# Convention : Reuss Voigt Hill
#
# Bulk Modulus (GPa) = 54.64981 88.25074 71.45027
# Shear Modulus (GPa) = 37.65044 50.58250 44.11647
#
# Velocity S-wave (km/s) = 3.72174 4.31381 4.02867
# Velocity P-wave (km/s) = 6.21078 7.56828 6.92288
#
# Compressibility (1/GPa) = 0.01829833
#
# Stress axis : x y z
#
# Youngs Moduli (GPa) = 119.91346 119.73367 94.18930
#
# Poissons Ratio (x) = 0.26080 0.22780
# Poissons Ratio (y) = 0.26120 -0.00864
# Poissons Ratio (z) = 0.29001 -0.01099
#
# Static dielectric constant tensor:
#      x y z
#    x 2.099740 -0.398010 0.306520 
#    y -0.398010 0.445470 0.843600 
#    z 0.306520 0.843600 1.745710 
# 
# From -- ./inp_files/30247.got.cif
#   From: 2010.05.17/outbox.cif.g08.bks.cpg/sg2_16_cif.got.tgz:30247.got - 2010.06.03 11:33:40.
