data_PCOD9010543
_publ_section_title
;
Structure prediction by ZEFSAII (Michael W. Deem and Ramdas Pophale) SiO2 
 PCOD9010543
Probable space group: P -1
;
_chemical_formula_sum "Si O2"
_cell_formula_units_Z 12
_cell_length_a 8.312792
_cell_length_b 17.966269
_cell_length_c 11.178987
_cell_angle_alpha 29.938713
_cell_angle_beta 40.584917
_cell_angle_gamma 30.974598
_cell_volume 427.953901
_symmetry_space_group_name_H-M "P -1"
_symmetry_group_IT_number 2
_symmetry_cell_setting 'triclinic'
loop_
_space_group_symop_operation_xyz
x,y,z
-x,-y,-z
loop_
_atom_site_type_symbol
_atom_site_label
_atom_site_fract_x
_atom_site_fract_y
_atom_site_fract_z
Si Si1 0.284859 0.930756 0.790475
Si Si2 0.668122 0.823014 0.405947
Si Si3 0.226316 0.615883 0.204502
Si Si4 0.741739 0.852108 0.966675
Si Si5 0.352923 0.723108 0.406947
Si Si6 0.910492 0.641582 0.747945
O O1 0.645240 0.840980 0.682875
O O2 0.219628 0.058332 0.765031
O O3 0.321286 0.738739 0.037936
O O4 0.971033 0.064070 0.700874
O O5 0.717777 0.683285 0.676944
O O6 0.916046 0.685839 0.356678
O O7 0.331805 0.997702 0.301902
O O8 0.493010 0.396972 0.390428
O O9 0.087539 0.699652 0.034884
O O10 0.600103 0.738613 0.178954
O O11 0.500000 0.000000 0.000000
O O12 0.216084 0.622515 0.566268
O O13 0.000000 0.500000 0.000000
#
# Coordination Sequence:
#
# PCOD9010543 Si02
#       6
#     2   2   2   2   2   2
#     4  11  22  41  63  91 129 162 209 259 312 362
#     4  10  22  39  65  94 126 164 209 260 310 367
#     4  11  22  39  67  95 127 160 211 258 311 371
#     4  10  21  40  63  94 127 162 206 262 314 362
#     4  11  21  38  68  88 126 165 207 253 317 356
#     4  11  24  41  63  93 129 166 208 258 312 373
#
# _framework density 28.040400000000002
#
# number of rings (size 3 to 8) (size 9 to 14) (size 15 to 20)
#    0.000    1.333    5.000    3.000    2.333    4.000 
#    0.000    0.833    3.667    6.000    0.000    0.000 
#    0.000    0.000    0.000    0.000    0.000    0.000 
#
# Total GULP energy -66873.496223 kJ/mol
# GULP energy per Si atom -5572.791352 kJ/mol
# Density = 2.797658 g / cm^3
# Si number density = 28.040400 Si / 1000 Ang^3
#
#
#
# Elastic Constant Matrix: (Units=GPa)
#
#
# Indices 1 2 3 4 5 6 
#
# 1 98.7803 38.3897 37.5670 -18.2666 9.7908 -28.1196
# 2 38.3897 102.7605 61.7477 -38.8723 10.0980 -34.0603
# 3 37.5670 61.7477 99.4729 -51.5809 47.1699 -27.2778
# 4 -18.2666 -38.8723 -51.5809 66.4777 -27.7150 13.9719
# 5 9.7908 10.0980 47.1699 -27.7150 72.9584 -21.4273
# 6 -28.1196 -34.0603 -27.2778 13.9719 -21.4273 51.5757
#
#
#
# Elastic Compliance Matrix: (Units=1/GPa)
#
#
# Indices 1 2 3 4 5 6 
#
# 1 0.013420 -0.000873 -0.004441 -0.000313 0.002718 0.005606
# 2 -0.000873 0.021960 -0.012917 0.004694 0.010196 0.010159
# 3 -0.004441 -0.012917 0.030926 0.009721 -0.014925 -0.003429
# 4 -0.000313 0.004694 0.009721 0.026315 0.003850 0.002541
# 5 0.002718 0.010196 -0.014925 0.003850 0.026004 0.010082
# 6 0.005606 0.010159 -0.003429 0.002541 0.010082 0.030841
#
#
# Mechanical properties :
#
#
# Convention : Reuss Voigt Hill
#
# Bulk Modulus (GPa) = 33.50542 64.04692 48.77617
# Shear Modulus (GPa) = 25.52644 49.08965 37.30805
#
# Velocity S-wave (km/s) = 3.02047 4.18865 3.65157
# Velocity P-wave (km/s) = 4.91317 6.80320 5.93392
#
# Compressibility (1/GPa) = 0.02984592
#
# Stress axis : x y z
#
# Youngs Moduli (GPa) = 74.51608 45.53701 32.33499
#
# Poissons Ratio (x) = 0.03974 0.14359
# Poissons Ratio (y) = 0.06502 0.41767
# Poissons Ratio (z) = 0.33090 0.58820
#
# Static dielectric constant tensor:
#      x y z
#    x 2.837280 0.937100 2.045370 
#    y 0.937100 3.784140 3.730650 
#    z 2.045370 3.730650 10.573860 
# 
# From -- ./inp_files/183307.got.cif
#   From: 2010.05.17/outbox.cif.g08.bks.cpg/sg2_92_cif.got.tgz:183307.got - 2010.06.03 11:33:40.
