data_PCOD9010361
_publ_section_title
;
Structure prediction by ZEFSAII (Michael W. Deem and Ramdas Pophale) SiO2 
 PCOD9010361
Probable space group: P -1
;
_chemical_formula_sum "Si O2"
_cell_formula_units_Z 16
_cell_length_a 14.677379
_cell_length_b 13.217021
_cell_length_c 8.980834
_cell_angle_alpha 67.432275
_cell_angle_beta 64.044722
_cell_angle_gamma 27.195707
_cell_volume 715.864785
_symmetry_space_group_name_H-M "P -1"
_symmetry_group_IT_number 2
_symmetry_cell_setting 'triclinic'
loop_
_space_group_symop_operation_xyz
x,y,z
-x,-y,-z
loop_
_atom_site_type_symbol
_atom_site_label
_atom_site_fract_x
_atom_site_fract_y
_atom_site_fract_z
Si Si1 0.297964 0.164461 0.906477
Si Si2 0.648742 0.267290 0.588704
Si Si3 0.528725 0.720857 0.052006
Si Si4 0.253678 0.680370 0.250643
Si Si5 0.637511 0.905775 0.597112
Si Si6 0.122788 0.093770 0.614939
Si Si7 0.679590 0.218926 0.095360
Si Si8 0.876224 0.539059 0.854141
O O1 0.467192 0.079367 0.751197
O O2 0.117578 0.310559 0.834709
O O3 0.205025 0.308036 0.038003
O O4 0.405522 0.950742 0.997837
O O5 0.500000 0.500000 0.500000
O O6 0.516965 0.300808 0.753213
O O7 0.787209 0.198837 0.652020
O O8 0.775473 0.083859 0.477661
O O9 0.441829 0.731131 0.974056
O O10 0.765318 0.528077 0.967575
O O11 0.497084 0.431619 0.212616
O O12 0.212105 0.783874 0.067593
O O13 0.120144 0.696175 0.349999
O O14 0.774771 0.884200 0.488021
O O15 0.500000 0.000000 0.500000
O O16 0.789634 0.669702 0.688343
O O17 0.180061 0.992915 0.792191
#
# Coordination Sequence:
#
# PCOD9010361 Si02
#       8
#     2   2   2   2   2   2   2   2
#     4  10  21  41  64  89 120 166 216 262 309 373
#     4  11  22  42  62  94 133 162 202 268 311 368
#     4  10  21  40  63  87 124 166 206 252 318 370
#     4  10  23  42  60  88 124 166 210 251 304 372
#     4  11  24  40  63  95 135 162 203 266 319 374
#     4  12  22  39  66  92 124 170 203 255 320 367
#     4  10  22  40  61  85 124 164 207 254 299 371
#     4  10  21  41  64  91 118 164 218 262 306 379
#
# _framework density 22.350587999999998
#
# number of rings (size 3 to 8) (size 9 to 14) (size 15 to 20)
#    0.000    1.500    1.250    5.250    0.000    3.500 
#   11.250    0.000    0.000    0.000    0.000    0.000 
#    0.000    0.000    0.000    0.000    0.000    0.000 
#
# Total GULP energy -89437.100235 kJ/mol
# GULP energy per Si atom -5589.818765 kJ/mol
# Density = 2.229972 g / cm^3
# Si number density = 22.350588 Si / 1000 Ang^3
#
#
#
# Elastic Constant Matrix: (Units=GPa)
#
#
# Indices 1 2 3 4 5 6 
#
# 1 113.9628 26.5332 48.0478 10.1993 -20.3742 -21.1451
# 2 26.5332 49.5348 37.0922 -2.5791 -4.9340 -20.0498
# 3 48.0478 37.0922 114.2075 -7.2336 -16.8566 -16.2286
# 4 10.1993 -2.5791 -7.2336 28.8867 -2.0680 6.6631
# 5 -20.3742 -4.9340 -16.8566 -2.0680 49.8394 10.7386
# 6 -21.1451 -20.0498 -16.2286 6.6631 10.7386 43.5618
#
#
#
# Elastic Compliance Matrix: (Units=1/GPa)
#
#
# Indices 1 2 3 4 5 6 
#
# 1 0.012814 -0.002218 -0.004143 -0.006515 0.002476 0.004042
# 2 -0.002218 0.031874 -0.008331 -0.001321 -0.003092 0.011454
# 3 -0.004143 -0.008331 0.013606 0.004830 0.002757 -0.002195
# 4 -0.006515 -0.001321 0.004830 0.040188 0.002383 -0.008705
# 5 0.002476 -0.003092 0.002757 0.002383 0.022924 -0.005210
# 6 0.004042 0.011454 -0.002195 -0.008705 -0.005210 0.031988
#
#
# Mechanical properties :
#
#
# Convention : Reuss Voigt Hill
#
# Bulk Modulus (GPa) = 34.59189 55.67238 45.13213
# Shear Modulus (GPa) = 25.98558 35.52637 30.75597
#
# Velocity S-wave (km/s) = 3.41344 3.99118 3.71357
# Velocity P-wave (km/s) = 5.57189 6.79722 6.21483
#
# Compressibility (1/GPa) = 0.02890851
#
# Stress axis : x y z
#
# Youngs Moduli (GPa) = 78.04187 31.37372 73.49812
#
# Poissons Ratio (x) = 0.06958 0.30453
# Poissons Ratio (y) = 0.17307 0.61234
# Poissons Ratio (z) = 0.32336 0.26138
#
# Static dielectric constant tensor:
#      x y z
#    x 1.852360 0.009440 0.025940 
#    y 0.009440 1.864450 0.028170 
#    z 0.025940 0.028170 1.833190 
# 
# From -- ./inp_files/314774.got.cif
#   From: 2010.05.17/outbox.cif.g08.bks.cpg/sg2_158_cif.got.tgz:314774.got - 2010.06.03 11:33:40.
