data_PCOD9010223
_publ_section_title
;
Structure prediction by ZEFSAII (Michael W. Deem and Ramdas Pophale) SiO2 
 PCOD9010223
Probable space group: P -1
;
_chemical_formula_sum "Si O2"
_cell_formula_units_Z 16
_cell_length_a 9.358704
_cell_length_b 12.685137
_cell_length_c 14.190625
_cell_angle_alpha 140.692046
_cell_angle_beta 72.148418
_cell_angle_gamma 131.477108
_cell_volume 720.403470
_symmetry_space_group_name_H-M "P -1"
_symmetry_group_IT_number 2
_symmetry_cell_setting 'triclinic'
loop_
_space_group_symop_operation_xyz
x,y,z
-x,-y,-z
loop_
_atom_site_type_symbol
_atom_site_label
_atom_site_fract_x
_atom_site_fract_y
_atom_site_fract_z
Si Si1 0.696326 0.373705 0.744912
Si Si2 0.751843 0.951859 0.289954
Si Si3 0.343399 0.749076 0.808774
Si Si4 0.989339 0.891913 0.330193
Si Si5 0.937184 0.441508 0.581198
Si Si6 0.727827 0.966178 0.780997
Si Si7 0.075040 0.098224 0.946015
Si Si8 0.903956 0.473964 0.128861
O O1 0.476616 0.182043 0.712542
O O2 0.726708 0.348592 0.610348
O O3 0.870733 0.401663 0.786012
O O4 0.773908 0.623748 0.900721
O O5 0.825712 0.852561 0.266717
O O6 0.789628 0.936646 0.161716
O O7 0.913847 0.229528 0.465017
O O8 0.245786 0.569368 0.788768
O O9 0.139551 0.678299 0.756574
O O10 0.481934 0.763672 0.714858
O O11 0.500000 0.000000 0.000000
O O12 0.929900 0.650822 0.179549
O O13 0.212854 0.068309 0.353447
O O14 0.000000 0.000000 0.500000
O O15 0.000000 0.500000 0.500000
O O16 0.868175 0.985505 0.846903
O O17 0.796574 0.216759 0.939885
O O18 0.000000 0.000000 0.000000
#
# Coordination Sequence:
#
# PCOD9010223 Si02
#       8
#     2   2   2   2   2   2   2   2
#     4  10  21  40  63  89 124 168 211 252 307 383
#     4  11  24  40  60  92 127 161 206 265 321 372
#     4   9  19  38  62  88 116 157 211 259 302 367
#     4  11  22  37  55  84 123 157 192 247 310 367
#     4  11  23  40  63  94 127 163 211 267 317 374
#     4   9  20  37  60  86 116 157 209 253 299 367
#     4  10  21  40  62  92 128 163 208 265 317 373
#     4   9  19  38  61  85 115 156 206 252 295 363
#
# _framework density 22.209779000000001
#
# number of rings (size 3 to 8) (size 9 to 14) (size 15 to 20)
#    0.000    2.000    0.000    4.125    0.000    3.000 
#    0.000   10.625    0.000    0.000    0.000    0.000 
#    0.000    0.000    0.000    0.000    0.000    0.000 
#
# Total GULP energy -89165.520706 kJ/mol
# GULP energy per Si atom -5572.845044 kJ/mol
# Density = 2.215923 g / cm^3
# Si number density = 22.209779 Si / 1000 Ang^3
#
#
#
# Elastic Constant Matrix: (Units=GPa)
#
#
# Indices 1 2 3 4 5 6 
#
# 1 56.8448 57.2874 15.6692 7.3278 -12.3796 13.4002
# 2 57.2874 183.5406 45.0501 -25.1176 -6.5758 32.5527
# 3 15.6692 45.0501 58.3695 -14.3299 -5.5783 0.4946
# 4 7.3278 -25.1176 -14.3299 44.3625 5.7086 -12.3202
# 5 -12.3796 -6.5758 -5.5783 5.7086 20.3101 -2.8655
# 6 13.4002 32.5527 0.4946 -12.3202 -2.8655 44.9723
#
#
#
# Elastic Compliance Matrix: (Units=1/GPa)
#
#
# Indices 1 2 3 4 5 6 
#
# 1 0.040699 -0.012357 -0.003932 -0.020095 0.024374 -0.007091
# 2 -0.012357 0.011752 -0.004664 0.007247 -0.007506 -0.003266
# 3 -0.003932 -0.004664 0.023646 0.007226 0.001454 0.006360
# 4 -0.020095 0.007247 0.007226 0.037199 -0.016995 0.009770
# 5 0.024374 -0.007506 0.001454 -0.016995 0.066520 -0.002263
# 6 -0.007091 -0.003266 0.006360 0.009770 -0.002263 0.029175
#
#
# Mechanical properties :
#
#
# Convention : Reuss Voigt Hill
#
# Bulk Modulus (GPa) = 29.24660 59.41872 44.33266
# Shear Modulus (GPa) = 19.06246 33.97885 26.52066
#
# Velocity S-wave (km/s) = 2.93284 3.91564 3.45932
# Velocity P-wave (km/s) = 4.96645 6.87419 5.99667
#
# Compressibility (1/GPa) = 0.03419201
#
# Stress axis : x y z
#
# Youngs Moduli (GPa) = 24.57040 85.09021 42.28971
#
# Poissons Ratio (x) = 1.05147 0.16629
# Poissons Ratio (y) = 0.30362 0.19722
# Poissons Ratio (z) = 0.09662 0.39683
#
# Static dielectric constant tensor:
#      x y z
#    x 1.843130 0.009750 -0.010180 
#    y 0.009750 1.775930 -0.114980 
#    z -0.010180 -0.114980 1.856680 
# 
# From -- ./inp_files/500975.got.cif
#   From: 2010.05.17/outbox.cif.g08.bks.cpg/sg2_251_cif.got.tgz:500975.got - 2010.06.03 11:33:40.
