data_PCOD9010284
_publ_section_title
;
Structure prediction by ZEFSAII (Michael W. Deem and Ramdas Pophale) SiO2 
 PCOD9010284
Probable space group: P -1
;
_chemical_formula_sum "Si O2"
_cell_formula_units_Z 16
_cell_length_a 5.196425
_cell_length_b 9.459437
_cell_length_c 19.618551
_cell_angle_alpha 44.936992
_cell_angle_beta 87.539995
_cell_angle_gamma 75.786116
_cell_volume 648.121094
_symmetry_space_group_name_H-M "P -1"
_symmetry_group_IT_number 2
_symmetry_cell_setting 'triclinic'
loop_
_space_group_symop_operation_xyz
x,y,z
-x,-y,-z
loop_
_atom_site_type_symbol
_atom_site_label
_atom_site_fract_x
_atom_site_fract_y
_atom_site_fract_z
Si Si1 0.033327 0.748213 0.715900
Si Si2 0.888957 0.608047 0.252083
Si Si3 0.443011 0.378316 0.157881
Si Si4 0.214178 0.264277 0.074817
Si Si5 0.267462 0.517656 0.406253
Si Si6 0.510702 0.133701 0.732363
Si Si7 0.157137 0.159430 0.602619
Si Si8 0.992171 0.779919 0.048812
O O1 0.133349 0.623656 0.686354
O O2 0.268871 0.657015 0.799950
O O3 0.757448 0.713865 0.760648
O O4 0.031954 0.989731 0.629658
O O5 0.665190 0.808798 0.217297
O O6 0.926020 0.673677 0.153175
O O7 0.134884 0.566792 0.316424
O O8 0.453924 0.297253 0.107580
O O9 0.280699 0.626110 0.073687
O O10 0.210384 0.045885 0.189307
O O11 0.210285 0.205924 0.016325
O O12 0.000000 0.500000 0.000000
O O13 0.504167 0.623936 0.368083
O O14 0.295572 0.281423 0.507190
O O15 0.074275 0.667194 0.413329
O O16 0.368741 0.065498 0.692935
O O17 0.000000 0.000000 0.000000
#
# Coordination Sequence:
#
# PCOD9010284 Si02
#       8
#     2   2   2   2   2   2   2   2
#     4  11  23  43  69  98 139 179 221 276 344 400
#     4  10  25  40  63  96 133 181 213 281 339 408
#     4  10  23  44  65  97 136 178 225 278 338 397
#     4  10  21  40  62  96 127 178 225 276 332 395
#     4  10  22  42  67  96 133 169 231 269 349 398
#     4  11  21  41  68  93 136 171 223 281 338 398
#     4  10  22  40  69 100 124 178 222 285 328 411
#     4  10  22  42  64  93 130 177 228 278 335 401
#
# _framework density 24.686744000000001
#
# number of rings (size 3 to 8) (size 9 to 14) (size 15 to 20)
#    0.000    1.750    1.250    1.875    5.250    2.000 
#    4.500    6.875    0.000    0.000    0.000    0.000 
#    0.000    0.000    0.000    0.000    0.000    0.000 
#
# Total GULP energy -89210.161298 kJ/mol
# GULP energy per Si atom -5575.635081 kJ/mol
# Density = 2.463056 g / cm^3
# Si number density = 24.686744 Si / 1000 Ang^3
#
#
#
# Elastic Constant Matrix: (Units=GPa)
#
#
# Indices 1 2 3 4 5 6 
#
# 1 38.9286 23.3306 0.1726 -3.9334 5.3985 0.8260
# 2 23.3306 137.6808 13.2029 -13.7911 4.1787 22.2958
# 3 0.1726 13.2029 84.6338 -17.4305 -2.7839 1.3658
# 4 -3.9334 -13.7911 -17.4305 41.3143 9.0528 -1.0243
# 5 5.3985 4.1787 -2.7839 9.0528 23.9189 -7.9815
# 6 0.8260 22.2958 1.3658 -1.0243 -7.9815 30.6811
#
#
#
# Elastic Compliance Matrix: (Units=1/GPa)
#
#
# Indices 1 2 3 4 5 6 
#
# 1 0.029775 -0.004798 0.001108 0.003175 -0.006614 0.001022
# 2 -0.004798 0.009968 -0.000882 0.003339 -0.004762 -0.008203
# 3 0.001108 -0.000882 0.013053 0.005457 -0.000625 0.000049
# 4 0.003175 0.003339 0.005457 0.030892 -0.014161 -0.005407
# 5 -0.006614 -0.004762 -0.000625 -0.014161 0.055284 0.017575
# 6 0.001022 -0.008203 0.000049 -0.005407 0.017575 0.042916
#
#
# Mechanical properties :
#
#
# Convention : Reuss Voigt Hill
#
# Bulk Modulus (GPa) = 22.90877 37.18393 30.04635
# Shear Modulus (GPa) = 24.32082 34.15200 29.23641
#
# Velocity S-wave (km/s) = 3.14216 3.72346 3.44509
# Velocity P-wave (km/s) = 4.73964 5.79487 5.29361
#
# Compressibility (1/GPa) = 0.04365140
#
# Stress axis : x y z
#
# Youngs Moduli (GPa) = 33.58492 100.31984 76.60867
#
# Poissons Ratio (x) = 0.48138 -0.08486
# Poissons Ratio (y) = 0.16115 0.06756
# Poissons Ratio (z) = -0.03720 0.08847
#
# Static dielectric constant tensor:
#      x y z
#    x 2.097110 -0.221390 0.046080 
#    y -0.221390 2.684910 -0.574060 
#    z 0.046080 -0.574060 2.409950 
# 
# From -- ./inp_files/90515.got.cif
#   From: 2010.05.17/outbox.cif.g08.bks.cpg/sg2_46_cif.got.tgz:90515.got - 2010.06.03 11:33:40.
