data_PCOD9010842
_publ_section_title
;
Structure prediction by ZEFSAII (Michael W. Deem and Ramdas Pophale) SiO2 
 PCOD9010842
Probable space group: P -1
;
_chemical_formula_sum "Si O2"
_cell_formula_units_Z 16
_cell_length_a 5.918972
_cell_length_b 8.730204
_cell_length_c 14.950369
_cell_angle_alpha 91.128768
_cell_angle_beta 98.656154
_cell_angle_gamma 114.169412
_cell_volume 693.954532
_symmetry_space_group_name_H-M "P -1"
_symmetry_group_IT_number 2
_symmetry_cell_setting 'triclinic'
loop_
_space_group_symop_operation_xyz
x,y,z
-x,-y,-z
loop_
_atom_site_type_symbol
_atom_site_label
_atom_site_fract_x
_atom_site_fract_y
_atom_site_fract_z
Si Si1 0.296819 0.580999 0.429778
Si Si2 0.594344 0.024725 0.904146
Si Si3 0.845454 0.432314 0.899649
Si Si4 0.858010 0.089803 0.263575
Si Si5 0.848759 0.491851 0.263093
Si Si6 0.211741 0.213099 0.638466
Si Si7 0.036917 0.747276 0.538877
Si Si8 0.315967 0.276379 0.167383
O O1 0.519012 0.729342 0.392577
O O2 0.252173 0.395194 0.462929
O O3 0.072578 0.505015 0.342087
O O4 0.210103 0.661628 0.508291
O O5 0.716984 0.228003 0.898372
O O6 0.369604 0.959277 0.818602
O O7 0.728452 0.894102 0.894543
O O8 0.500000 0.000000 0.000000
O O9 0.697045 0.555517 0.876883
O O10 0.027820 0.463773 0.826107
O O11 0.000000 0.500000 0.000000
O O12 0.842668 0.153278 0.363687
O O13 0.101722 0.218057 0.228920
O O14 0.874254 0.917607 0.288185
O O15 0.761993 0.618121 0.310272
O O16 0.587898 0.332782 0.229701
O O17 0.003129 0.154981 0.547666
#
# Coordination Sequence:
#
# PCOD9010842 Si02
#       8
#     2   2   2   2   2   2   2   2
#     4  10  21  40  64  93 134 181 237 289 338 413
#     4  12  28  48  73 107 141 179 232 289 347 417
#     4  12  27  48  74 105 140 179 232 290 347 418
#     4  12  25  43  66 100 140 180 233 292 347 414
#     4  11  22  42  68  99 135 184 235 283 344 410
#     4  11  23  39  66  98 138 187 233 287 350 410
#     4  10  22  38  60  95 135 181 234 284 346 415
#     4  12  26  46  74 101 140 188 229 283 353 411
#
# _framework density 23.056266000000001
#
# number of rings (size 3 to 8) (size 9 to 14) (size 15 to 20)
#    0.000    0.750    0.000    8.250    0.000    9.500 
#    0.000    0.000    0.000    0.000    0.000    0.000 
#    0.000    0.000    0.000    0.000    0.000    0.000 
#
# Total GULP energy -89180.665199 kJ/mol
# GULP energy per Si atom -5573.791575 kJ/mol
# Density = 2.300379 g / cm^3
# Si number density = 23.056266 Si / 1000 Ang^3
#
#
#
# Elastic Constant Matrix: (Units=GPa)
#
#
# Indices 1 2 3 4 5 6 
#
# 1 31.3138 31.3828 30.6542 8.6260 -12.5322 -0.1321
# 2 31.3828 134.4566 31.7380 9.6774 -0.6757 -4.2851
# 3 30.6542 31.7380 157.7673 18.3732 -7.0457 -8.2841
# 4 8.6260 9.6774 18.3732 41.9125 -7.4880 -4.2214
# 5 -12.5322 -0.6757 -7.0457 -7.4880 39.4164 3.5359
# 6 -0.1321 -4.2851 -8.2841 -4.2214 3.5359 22.7319
#
#
#
# Elastic Compliance Matrix: (Units=1/GPa)
#
#
# Indices 1 2 3 4 5 6 
#
# 1 0.060247 -0.011966 -0.008538 -0.003616 0.017491 -0.008409
# 2 -0.011966 0.010259 0.000273 -0.000471 -0.003892 0.002482
# 3 -0.008538 0.000273 0.008241 -0.001957 -0.001872 0.002933
# 4 -0.003616 -0.000471 -0.001957 0.026505 0.003205 0.003601
# 5 0.017491 -0.003892 -0.001872 0.003205 0.031645 -0.005641
# 6 -0.008409 0.002482 0.002933 0.003601 -0.005641 0.047025
#
#
# Mechanical properties :
#
#
# Convention : Reuss Voigt Hill
#
# Bulk Modulus (GPa) = 26.12110 56.78750 41.45430
# Shear Modulus (GPa) = 21.08397 36.12966 28.60681
#
# Velocity S-wave (km/s) = 3.02728 3.96286 3.52623
# Velocity P-wave (km/s) = 4.85521 6.75444 5.88199
#
# Compressibility (1/GPa) = 0.03828323
#
# Stress axis : x y z
#
# Youngs Moduli (GPa) = 16.59846 97.47104 121.34592
#
# Poissons Ratio (x) = 1.16637 1.03605
# Poissons Ratio (y) = 0.19862 -0.03307
# Poissons Ratio (z) = 0.14172 -0.02656
#
# Static dielectric constant tensor:
#      x y z
#    x 1.916540 -0.076570 0.055350 
#    y -0.076570 1.990380 -0.049040 
#    z 0.055350 -0.049040 1.830260 
# 
# From -- ./inp_files/480666.got.cif
#   From: 2010.05.17/outbox.cif.g08.bks.cpg/sg2_241_cif.got.tgz:480666.got - 2010.06.03 11:33:40.
