data_PCOD9010576
_publ_section_title
;
Structure prediction by ZEFSAII (Michael W. Deem and Ramdas Pophale) SiO2 
 PCOD9010576
Probable space group: P -1
;
_chemical_formula_sum "Si O2"
_cell_formula_units_Z 14
_cell_length_a 9.410614
_cell_length_b 8.261045
_cell_length_c 10.112996
_cell_angle_alpha 101.839086
_cell_angle_beta 123.928497
_cell_angle_gamma 93.210248
_cell_volume 624.227609
_symmetry_space_group_name_H-M "P -1"
_symmetry_group_IT_number 2
_symmetry_cell_setting 'triclinic'
loop_
_space_group_symop_operation_xyz
x,y,z
-x,-y,-z
loop_
_atom_site_type_symbol
_atom_site_label
_atom_site_fract_x
_atom_site_fract_y
_atom_site_fract_z
Si Si1 0.173236 0.728445 0.850422
Si Si2 0.498215 0.393031 0.113282
Si Si3 0.633721 0.626986 0.445215
Si Si4 0.050624 0.177651 0.484267
Si Si5 0.573843 0.159062 0.473451
Si Si6 0.408828 0.050722 0.092601
Si Si7 0.091995 0.590373 0.345245
O O1 0.318143 0.667818 0.822910
O O2 0.057583 0.814528 0.704635
O O3 0.053420 0.558415 0.821675
O O4 0.266812 0.879487 0.020324
O O5 0.499376 0.515576 0.257423
O O6 0.354800 0.223037 0.042435
O O7 0.500000 0.500000 0.000000
O O8 0.457132 0.296420 0.470620
O O9 0.771484 0.514630 0.540504
O O10 0.746593 0.778572 0.442583
O O11 0.008789 0.324623 0.581655
O O12 0.000000 0.000000 0.500000
O O13 0.774690 0.250348 0.623233
O O14 0.500000 0.000000 0.500000
O O15 0.535972 0.104249 0.292392
O O16 0.500000 0.000000 0.000000
#
# Coordination Sequence:
#
# PCOD9010576 Si02
#       7
#     2   2   2   2   2   2   2
#     4  10  21  40  63  95 133 173 226 278 327 395
#     4  11  22  37  69 101 133 175 228 276 335 399
#     4  11  22  40  65  98 134 174 228 277 335 398
#     4  11  21  37  69  98 133 175 229 278 331 404
#     4  12  26  42  68 100 138 179 229 282 343 401
#     4  10  23  42  63  96 136 175 223 277 329 403
#     4  11  20  43  65  94 133 179 222 277 333 407
#
# _framework density 22.427716
#
# number of rings (size 3 to 8) (size 9 to 14) (size 15 to 20)
#    0.000    1.143    4.286    3.000    6.000    0.000 
#    0.000    3.571    0.000    0.000    0.000    0.000 
#    0.000    0.000    0.000    0.000    0.000    0.000 
#
# Total GULP energy -78125.105275 kJ/mol
# GULP energy per Si atom -5580.364663 kJ/mol
# Density = 2.237667 g / cm^3
# Si number density = 22.427716 Si / 1000 Ang^3
#
#
#
# Elastic Constant Matrix: (Units=GPa)
#
#
# Indices 1 2 3 4 5 6 
#
# 1 76.6520 18.8156 21.8344 12.9329 -10.2616 5.9570
# 2 18.8156 157.9576 52.5461 30.7446 -0.4369 29.0917
# 3 21.8344 52.5461 63.2159 22.8857 -15.5462 -5.3015
# 4 12.9329 30.7446 22.8857 43.8309 5.8011 6.5278
# 5 -10.2616 -0.4369 -15.5462 5.8011 19.1182 4.8078
# 6 5.9570 29.0917 -5.3015 6.5278 4.8078 39.6611
#
#
#
# Elastic Compliance Matrix: (Units=1/GPa)
#
#
# Indices 1 2 3 4 5 6 
#
# 1 0.015778 0.000360 -0.002270 -0.004398 0.008790 -0.003279
# 2 0.000360 0.012594 -0.013914 0.000987 -0.008548 -0.010278
# 3 -0.002270 -0.013914 0.046967 -0.021620 0.039287 0.015621
# 4 -0.004398 0.000987 -0.021620 0.039603 -0.030483 -0.005777
# 5 0.008790 -0.008548 0.039287 -0.030483 0.097160 0.003441
# 6 -0.003279 -0.010278 0.015621 -0.005777 0.003441 0.035867
#
#
# Mechanical properties :
#
#
# Convention : Reuss Voigt Hill
#
# Bulk Modulus (GPa) = 22.88831 53.80197 38.34514
# Shear Modulus (GPa) = 16.99644 34.16400 25.58022
#
# Velocity S-wave (km/s) = 2.75586 3.90717 3.38089
# Velocity P-wave (km/s) = 4.51153 6.66302 5.68989
#
# Compressibility (1/GPa) = 0.04369043
#
# Stress axis : x y z
#
# Youngs Moduli (GPa) = 63.38033 79.40543 21.29167
#
# Poissons Ratio (x) = -0.02857 0.04833
# Poissons Ratio (y) = -0.02281 0.29625
# Poissons Ratio (z) = 0.14387 1.10483
#
# Static dielectric constant tensor:
#      x y z
#    x 1.843460 0.023710 0.046680 
#    y 0.023710 1.966650 0.042420 
#    z 0.046680 0.042420 1.858940 
# 
# From -- ./inp_files/444384.got.cif
#   From: 2010.05.17/outbox.cif.g08.bks.cpg/sg2_223_cif.got.tgz:444384.got - 2010.06.03 11:33:40.
