data_PCOD9010643
_publ_section_title
;
Structure prediction by ZEFSAII (Michael W. Deem and Ramdas Pophale) SiO2 
 PCOD9010643
Probable space group: P -1
;
_chemical_formula_sum "Si O2"
_cell_formula_units_Z 16
_cell_length_a 13.570725
_cell_length_b 12.165185
_cell_length_c 9.407339
_cell_angle_alpha 131.973176
_cell_angle_beta 108.652201
_cell_angle_gamma 41.416069
_cell_volume 709.769061
_symmetry_space_group_name_H-M "P -1"
_symmetry_group_IT_number 2
_symmetry_cell_setting 'triclinic'
loop_
_space_group_symop_operation_xyz
x,y,z
-x,-y,-z
loop_
_atom_site_type_symbol
_atom_site_label
_atom_site_fract_x
_atom_site_fract_y
_atom_site_fract_z
Si Si1 0.495590 0.947867 0.291419
Si Si2 0.978367 0.671109 0.048690
Si Si3 0.452134 0.913006 0.809220
Si Si4 0.279174 0.568205 0.079354
Si Si5 0.639103 0.433615 0.420130
Si Si6 0.224681 0.117291 0.131356
Si Si7 0.835848 0.112513 0.464788
Si Si8 0.177642 0.856611 0.006959
O O1 0.500000 0.000000 0.500000
O O2 0.598490 0.950330 0.242212
O O3 0.320822 0.126024 0.286468
O O4 0.567657 0.703180 0.106189
O O5 0.137120 0.600323 0.058474
O O6 0.852614 0.918626 0.286342
O O7 0.000000 0.500000 0.000000
O O8 0.923563 0.687714 0.876148
O O9 0.594466 0.651476 0.606923
O O10 0.500000 0.000000 0.000000
O O11 0.347282 0.943102 0.907879
O O12 0.293033 0.665879 0.302975
O O13 0.221897 0.737648 0.074252
O O14 0.500000 0.500000 0.500000
O O15 0.803158 0.211417 0.380376
O O16 0.676795 0.357181 0.210450
O O17 0.179826 0.029976 0.135614
O O18 0.000000 0.000000 0.500000
O O19 0.000000 0.000000 0.000000
#
# Coordination Sequence:
#
# PCOD9010643 Si02
#       8
#     2   2   2   2   2   2   2   2
#     4  11  25  46  67 104 148 179 235 299 365 416
#     4  11  22  43  72 104 140 182 241 291 351 437
#     4  10  21  40  70  98 134 177 237 292 343 415
#     4  11  24  42  68  98 143 189 226 300 356 410
#     4  12  22  40  72  99 129 185 243 282 344 426
#     4  11  22  45  70 102 136 192 236 289 354 428
#     4  10  21  40  64 101 135 176 232 282 351 420
#     4  12  23  44  69 101 150 181 239 297 352 422
#
# _framework density 22.542542999999998
#
# number of rings (size 3 to 8) (size 9 to 14) (size 15 to 20)
#    0.000    1.000    3.750    3.750    0.000    3.500 
#    6.750    1.875    0.000    0.000    0.000    0.000 
#    0.000    0.000    0.000    0.000    0.000    0.000 
#
# Total GULP energy -89148.274587 kJ/mol
# GULP energy per Si atom -5571.767162 kJ/mol
# Density = 2.249123 g / cm^3
# Si number density = 22.542543 Si / 1000 Ang^3
#
#
#
# Elastic Constant Matrix: (Units=GPa)
#
#
# Indices 1 2 3 4 5 6 
#
# 1 106.6264 41.5624 13.2252 -16.3346 7.2376 19.1866
# 2 41.5624 117.5107 35.4212 -14.5603 17.7038 31.7836
# 3 13.2252 35.4212 108.4678 -13.4517 9.7560 10.2209
# 4 -16.3346 -14.5603 -13.4517 42.6650 4.7035 3.8484
# 5 7.2376 17.7038 9.7560 4.7035 30.7557 0.4741
# 6 19.1866 31.7836 10.2209 3.8484 0.4741 52.9065
#
#
#
# Elastic Compliance Matrix: (Units=1/GPa)
#
#
# Indices 1 2 3 4 5 6 
#
# 1 0.011668 -0.002617 0.000414 0.004194 -0.001965 -0.003026
# 2 -0.002617 0.013637 -0.002296 0.004342 -0.007061 -0.007052
# 3 0.000414 -0.002296 0.010636 0.003109 -0.002609 -0.001028
# 4 0.004194 0.004342 0.003109 0.029089 -0.008817 -0.006767
# 5 -0.001965 -0.007061 -0.002609 -0.008817 0.039129 0.005749
# 6 -0.003026 -0.007052 -0.001028 -0.006767 0.005749 0.024875
#
#
# Mechanical properties :
#
#
# Convention : Reuss Voigt Hill
#
# Bulk Modulus (GPa) = 37.11642 57.00252 47.05947
# Shear Modulus (GPa) = 34.01091 41.42520 37.71805
#
# Velocity S-wave (km/s) = 3.88847 4.29143 4.09491
# Velocity P-wave (km/s) = 6.05484 7.06376 6.57867
#
# Compressibility (1/GPa) = 0.02694225
#
# Stress axis : x y z
#
# Youngs Moduli (GPa) = 85.70527 73.33020 94.02291
#
# Poissons Ratio (x) = 0.19193 -0.03894
# Poissons Ratio (y) = 0.22432 0.21588
# Poissons Ratio (z) = -0.03550 0.16837
#
# Static dielectric constant tensor:
#      x y z
#    x 1.914320 -0.198230 -0.017030 
#    y -0.198230 1.656940 0.121680 
#    z -0.017030 0.121680 1.837030 
# 
# From -- ./inp_files/308562.got.cif
#   From: 2010.05.17/outbox.cif.g08.bks.cpg/sg2_155_cif.got.tgz:308562.got - 2010.06.03 11:33:40.
