data_PCOD9010965
_publ_section_title
;
Structure prediction by ZEFSAII (Michael W. Deem and Ramdas Pophale) SiO2 
 PCOD9010965
Probable space group: P -1
;
_chemical_formula_sum "Si O2"
_cell_formula_units_Z 14
_cell_length_a 16.330460
_cell_length_b 5.246439
_cell_length_c 17.345420
_cell_angle_alpha 108.549683
_cell_angle_beta 154.337235
_cell_angle_gamma 80.740603
_cell_volume 580.787687
_symmetry_space_group_name_H-M "P -1"
_symmetry_group_IT_number 2
_symmetry_cell_setting 'triclinic'
loop_
_space_group_symop_operation_xyz
x,y,z
-x,-y,-z
loop_
_atom_site_type_symbol
_atom_site_label
_atom_site_fract_x
_atom_site_fract_y
_atom_site_fract_z
Si Si1 0.573705 0.096544 0.390092
Si Si2 0.527769 0.819169 0.079092
Si Si3 0.897470 0.278601 0.230222
Si Si4 0.111646 0.851160 0.964755
Si Si5 0.119445 0.933498 0.484384
Si Si6 0.442556 0.285579 0.524291
Si Si7 0.826367 0.636927 0.827306
O O1 0.719568 0.070337 0.444680
O O2 0.576350 0.420689 0.429143
O O3 0.346689 0.902546 0.167043
O O4 0.633449 0.967772 0.505945
O O5 0.742836 0.943361 0.313310
O O6 0.500000 0.500000 0.000000
O O7 0.341364 0.815791 0.975124
O O8 0.500000 0.000000 0.000000
O O9 0.989474 0.118690 0.356590
O O10 0.983361 0.613017 0.349774
O O11 0.956670 0.212717 0.187322
O O12 0.089963 0.135842 0.012874
O O13 0.986212 0.619973 0.897314
O O14 0.675277 0.359655 0.708929
O O15 0.322108 0.244762 0.338950
#
# Coordination Sequence:
#
# PCOD9010965 Si02
#       7
#     2   2   2   2   2   2   2
#     4  11  22  41  65  94 141 186 240 299 352 416
#     4  12  28  52  81 115 150 182 236 297 360 442
#     4  12  27  48  77 110 148 197 238 292 365 430
#     4  10  21  40  64  97 142 187 245 293 355 418
#     4  12  26  47  77 111 148 191 237 295 359 436
#     4  10  22  38  61  91 133 192 244 297 356 409
#     4   9  20  38  61  94 135 189 240 304 348 412
#
# _framework density 24.105194000000001
#
# number of rings (size 3 to 8) (size 9 to 14) (size 15 to 20)
#    0.000    1.143    1.429    4.286    0.000   11.429 
#    0.000    5.714    0.000    0.000    0.000    0.000 
#    0.000    0.000    0.000    0.000    0.000    0.000 
#
# Total GULP energy -78392.118615 kJ/mol
# GULP energy per Si atom -5599.437044 kJ/mol
# Density = 2.405033 g / cm^3
# Si number density = 24.105194 Si / 1000 Ang^3
#
#
#
# Elastic Constant Matrix: (Units=GPa)
#
#
# Indices 1 2 3 4 5 6 
#
# 1 95.8877 18.0892 14.8498 -2.2043 -0.9978 4.2174
# 2 18.0892 142.6141 36.3683 -10.9635 -15.5327 0.5967
# 3 14.8498 36.3683 137.0337 -9.8715 -10.4827 -1.6188
# 4 -2.2043 -10.9635 -9.8715 35.7611 3.4769 4.0775
# 5 -0.9978 -15.5327 -10.4827 3.4769 56.6884 -1.6257
# 6 4.2174 0.5967 -1.6188 4.0775 -1.6257 15.2044
#
#
#
# Elastic Compliance Matrix: (Units=1/GPa)
#
#
# Indices 1 2 3 4 5 6 
#
# 1 0.010937 -0.001148 -0.000916 0.000481 -0.000414 -0.003260
# 2 -0.001148 0.007922 -0.001725 0.001769 0.001709 -0.000468
# 3 -0.000916 -0.001725 0.008041 0.001442 0.000935 0.000891
# 4 0.000481 0.001769 0.001442 0.030000 -0.001317 -0.008236
# 5 -0.000414 0.001709 0.000935 -0.001317 0.018426 0.002471
# 6 -0.003260 -0.000468 0.000891 -0.008236 0.002471 0.069261
#
#
# Mechanical properties :
#
#
# Convention : Reuss Voigt Hill
#
# Bulk Modulus (GPa) = 51.75846 57.12777 54.44312
# Shear Modulus (GPa) = 31.52467 41.94600 36.73534
#
# Velocity S-wave (km/s) = 3.62027 4.17600 3.90803
# Velocity P-wave (km/s) = 6.24449 6.85586 6.55730
#
# Compressibility (1/GPa) = 0.01932051
#
# Stress axis : x y z
#
# Youngs Moduli (GPa) = 91.42882 126.23646 124.36975
#
# Poissons Ratio (x) = 0.14495 0.11393
# Poissons Ratio (y) = 0.10498 0.21458
# Poissons Ratio (z) = 0.08375 0.21780
#
# Static dielectric constant tensor:
#      x y z
#    x 1.942500 -0.009490 0.026300 
#    y -0.009490 1.894390 -0.007870 
#    z 0.026300 -0.007870 1.952570 
# 
# From -- ./inp_files/525874.got.cif
#   From: 2010.05.17/outbox.cif.g08.bks.cpg/sg2_263_cif.got.tgz:525874.got - 2010.06.03 11:33:40.
