data_PCOD9010859
_publ_section_title
;
Structure prediction by ZEFSAII (Michael W. Deem and Ramdas Pophale) SiO2 
 PCOD9010859
Probable space group: P -1
;
_chemical_formula_sum "Si O2"
_cell_formula_units_Z 14
_cell_length_a 9.650749
_cell_length_b 12.426467
_cell_length_c 23.907283
_cell_angle_alpha 152.222897
_cell_angle_beta 137.666751
_cell_angle_gamma 63.468006
_cell_volume 675.449513
_symmetry_space_group_name_H-M "P -1"
_symmetry_group_IT_number 2
_symmetry_cell_setting 'triclinic'
loop_
_space_group_symop_operation_xyz
x,y,z
-x,-y,-z
loop_
_atom_site_type_symbol
_atom_site_label
_atom_site_fract_x
_atom_site_fract_y
_atom_site_fract_z
Si Si1 0.155203 0.146256 0.171723
Si Si2 0.731968 0.649737 0.092181
Si Si3 0.132054 0.275647 0.950416
Si Si4 0.185792 0.843102 0.832918
Si Si5 0.916619 0.520133 0.854214
Si Si6 0.557149 0.692032 0.468543
Si Si7 0.052350 0.350725 0.494414
O O1 0.434671 0.478697 0.389649
O O2 0.964699 0.164432 0.161856
O O3 0.149750 0.886218 0.077015
O O4 0.000000 0.000000 0.000000
O O5 0.957795 0.639861 0.178557
O O6 0.679478 0.526685 0.955966
O O7 0.500000 0.500000 0.000000
O O8 0.842863 0.988566 0.271218
O O9 0.816522 0.038247 0.724334
O O10 0.178130 0.467673 0.106690
O O11 0.170219 0.040227 0.874259
O O12 0.044941 0.500509 0.615884
O O13 0.500000 0.000000 0.000000
O O14 0.678255 0.360448 0.662812
O O15 0.669318 0.573349 0.406119
O O16 0.000000 0.500000 0.500000
#
# Coordination Sequence:
#
# PCOD9010859 Si02
#       7
#     2   2   2   2   2   2   2
#     4   9  20  36  62  95 122 164 211 271 313 367
#     4  11  25  40  64  95 131 171 206 269 328 376
#     4  10  22  40  62  91 120 173 212 261 322 379
#     4  11  21  38  66  95 127 168 218 262 323 387
#     4  10  22  40  63  91 126 169 216 253 327 387
#     4  10  21  40  64  94 127 165 217 273 311 379
#     4  11  22  41  63  91 128 169 210 260 325 379
#
# _framework density 20.726938000000001
#
# number of rings (size 3 to 8) (size 9 to 14) (size 15 to 20)
#    0.000    1.714    2.857    3.000    2.000    8.000 
#    0.000    1.429    0.000   12.000    0.000    0.000 
#    0.000    0.000    0.000    0.000    0.000    0.000 
#
# Total GULP energy -78078.176022 kJ/mol
# GULP energy per Si atom -5577.012573 kJ/mol
# Density = 2.067976 g / cm^3
# Si number density = 20.726938 Si / 1000 Ang^3
#
#
#
# Elastic Constant Matrix: (Units=GPa)
#
#
# Indices 1 2 3 4 5 6 
#
# 1 113.6112 45.0820 22.1426 6.4354 11.4767 22.7016
# 2 45.0820 122.1864 23.2736 1.8521 8.1034 -0.2724
# 3 22.1426 23.2736 41.5856 0.9805 4.6244 6.5278
# 4 6.4354 1.8521 0.9805 27.7898 4.5547 2.9612
# 5 11.4767 8.1034 4.6244 4.5547 33.7551 9.1208
# 6 22.7016 -0.2724 6.5278 2.9612 9.1208 37.2751
#
#
#
# Elastic Compliance Matrix: (Units=1/GPa)
#
#
# Indices 1 2 3 4 5 6 
#
# 1 0.012528 -0.003933 -0.003279 -0.001670 -0.000816 -0.006752
# 2 -0.003933 0.010547 -0.004196 0.000240 -0.001621 0.003585
# 3 -0.003279 -0.004196 0.028697 0.000510 -0.001114 -0.002827
# 4 -0.001670 0.000240 0.000510 0.037147 -0.004311 -0.000967
# 5 -0.000816 -0.001621 -0.001114 -0.004311 0.032927 -0.007034
# 6 -0.006752 0.003585 -0.002827 -0.000967 -0.007034 0.033259
#
#
# Mechanical properties :
#
#
# Convention : Reuss Voigt Hill
#
# Bulk Modulus (GPa) = 34.53782 50.93104 42.73443
# Shear Modulus (GPa) = 26.65623 32.22299 29.43961
#
# Velocity S-wave (km/s) = 3.59007 3.94717 3.77285
# Velocity P-wave (km/s) = 5.82101 6.73790 6.29617
#
# Compressibility (1/GPa) = 0.02895377
#
# Stress axis : x y z
#
# Youngs Moduli (GPa) = 79.82052 94.81717 34.84682
#
# Poissons Ratio (x) = 0.37295 0.11427
# Poissons Ratio (y) = 0.31396 0.14623
# Poissons Ratio (z) = 0.26176 0.39788
#
# Static dielectric constant tensor:
#      x y z
#    x 1.530160 0.059580 0.170050 
#    y 0.059580 1.762510 -0.027780 
#    z 0.170050 -0.027780 1.702670 
# 
# From -- ./inp_files/607711.got.cif
#   From: 2010.05.17/outbox.cif.g08.bks.cpg/sg2_304_cif.got.tgz:607711.got - 2010.06.03 11:33:40.
