data_PCOD9010369
_publ_section_title
;
Structure prediction by ZEFSAII (Michael W. Deem and Ramdas Pophale) SiO2 
 PCOD9010369
Probable space group: P -1
;
_chemical_formula_sum "Si O2"
_cell_formula_units_Z 16
_cell_length_a 15.581714
_cell_length_b 11.912309
_cell_length_c 12.975946
_cell_angle_alpha 134.088746
_cell_angle_beta 55.322810
_cell_angle_gamma 154.221501
_cell_volume 739.452335
_symmetry_space_group_name_H-M "P -1"
_symmetry_group_IT_number 2
_symmetry_cell_setting 'triclinic'
loop_
_space_group_symop_operation_xyz
x,y,z
-x,-y,-z
loop_
_atom_site_type_symbol
_atom_site_label
_atom_site_fract_x
_atom_site_fract_y
_atom_site_fract_z
Si Si1 0.026300 0.845250 0.384465
Si Si2 0.604624 0.757501 0.019459
Si Si3 0.594097 0.334519 0.075404
Si Si4 0.433204 0.390871 0.360182
Si Si5 0.276258 0.926847 0.669337
Si Si6 0.995616 0.724047 0.563046
Si Si7 0.320305 0.434313 0.285302
Si Si8 0.182107 0.616651 0.926689
O O1 0.062992 0.833863 0.468718
O O2 0.846797 0.521145 0.246162
O O3 0.000000 0.000000 0.500000
O O4 0.209740 0.039965 0.306893
O O5 0.432147 0.635863 0.002887
O O6 0.702094 0.769361 0.875039
O O7 0.500000 0.500000 0.000000
O O8 0.745968 0.038886 0.176508
O O9 0.580174 0.463634 0.245075
O O10 0.776124 0.455472 0.057352
O O11 0.385841 0.975600 0.005861
O O12 0.500000 0.500000 0.500000
O O13 0.404914 0.512719 0.392345
O O14 0.177636 0.630782 0.542475
O O15 0.161751 0.884309 0.634431
O O16 0.511658 0.249904 0.688053
O O17 0.889165 0.746826 0.684697
O O18 0.000000 0.500000 0.000000
#
# Coordination Sequence:
#
# PCOD9010369 Si02
#       8
#     2   2   2   2   2   2   2   2
#     4  12  23  39  61  95 130 164 209 260 312 373
#     4   9  20  41  63  88 120 160 207 255 302 363
#     4  10  22  41  64  91 126 165 208 254 315 372
#     4  11  21  38  61  94 130 165 205 254 314 376
#     4  10  22  42  62  87 127 157 210 259 306 369
#     4  11  23  39  62  93 122 164 204 257 312 364
#     4  10  21  40  63  88 120 163 209 252 306 367
#     4  11  23  42  64  91 128 167 205 256 309 379
#
# _framework density 21.637633999999998
#
# number of rings (size 3 to 8) (size 9 to 14) (size 15 to 20)
#    0.000    1.500    2.500    2.625    0.000    2.500 
#    0.000    7.500    0.000    0.000    0.000    0.000 
#    0.000    0.000    0.000    0.000    0.000    0.000 
#
# Total GULP energy -89339.592452 kJ/mol
# GULP energy per Si atom -5583.724528 kJ/mol
# Density = 2.158839 g / cm^3
# Si number density = 21.637634 Si / 1000 Ang^3
#
#
#
# Elastic Constant Matrix: (Units=GPa)
#
#
# Indices 1 2 3 4 5 6 
#
# 1 154.7916 10.5826 38.1445 -20.8866 12.8439 -0.5904
# 2 10.5826 45.9989 -5.4746 -11.4027 -1.1653 -0.1695
# 3 38.1445 -5.4746 102.5364 2.6908 15.5602 6.1204
# 4 -20.8866 -11.4027 2.6908 24.2958 -3.1845 1.5127
# 5 12.8439 -1.1653 15.5602 -3.1845 32.1327 -9.3236
# 6 -0.5904 -0.1695 6.1204 1.5127 -9.3236 29.5866
#
#
#
# Elastic Compliance Matrix: (Units=1/GPa)
#
#
# Indices 1 2 3 4 5 6 
#
# 1 0.008323 -0.000559 -0.003154 0.007093 -0.001085 0.000111
# 2 -0.000559 0.024829 0.000979 0.011298 0.001740 -0.000101
# 3 -0.003154 0.000979 0.012315 -0.004176 -0.006356 -0.004394
# 4 0.007093 0.011298 -0.004176 0.053670 0.004875 -0.000137
# 5 -0.001085 0.001740 -0.006356 0.004875 0.039056 0.013361
# 6 0.000111 -0.000101 -0.004394 -0.000137 0.013361 0.038927
#
#
# Mechanical properties :
#
#
# Convention : Reuss Voigt Hill
#
# Bulk Modulus (GPa) = 25.00082 43.31466 34.15774
# Shear Modulus (GPa) = 25.52034 34.54131 30.03082
#
# Velocity S-wave (km/s) = 3.43803 3.99977 3.72949
# Velocity P-wave (km/s) = 5.22871 6.43371 5.86225
#
# Compressibility (1/GPa) = 0.03999869
#
# Stress axis : x y z
#
# Youngs Moduli (GPa) = 120.14322 40.27506 81.20326
#
# Poissons Ratio (x) = 0.02251 0.25615
# Poissons Ratio (y) = 0.06716 -0.07950
# Poissons Ratio (z) = 0.37898 -0.03943
#
# Static dielectric constant tensor:
#      x y z
#    x 1.785470 0.005830 0.010420 
#    y 0.005830 1.853430 0.029850 
#    z 0.010420 0.029850 1.849140 
# 
# From -- ./inp_files/433076.got.cif
#   From: 2010.05.17/outbox.cif.g08.bks.cpg/sg2_217_cif.got.tgz:433076.got - 2010.06.03 11:33:40.
