data_PCOD9010239
_publ_section_title
;
Structure prediction by ZEFSAII (Michael W. Deem and Ramdas Pophale) SiO2 
 PCOD9010239
Probable space group: P -1
;
_chemical_formula_sum "Si O2"
_cell_formula_units_Z 16
_cell_length_a 19.881292
_cell_length_b 7.577672
_cell_length_c 16.750341
_cell_angle_alpha 62.747892
_cell_angle_beta 159.961418
_cell_angle_gamma 123.588506
_cell_volume 703.211224
_symmetry_space_group_name_H-M "P -1"
_symmetry_group_IT_number 2
_symmetry_cell_setting 'triclinic'
loop_
_space_group_symop_operation_xyz
x,y,z
-x,-y,-z
loop_
_atom_site_type_symbol
_atom_site_label
_atom_site_fract_x
_atom_site_fract_y
_atom_site_fract_z
Si Si1 0.257633 0.601044 0.436458
Si Si2 0.174081 0.195788 0.839149
Si Si3 0.075848 0.814397 0.916622
Si Si4 0.948370 0.443230 0.361169
Si Si5 0.165610 0.034519 0.250324
Si Si6 0.423339 0.762817 0.423239
Si Si7 0.187102 0.002545 0.650429
Si Si8 0.397529 0.490298 0.776818
O O1 0.367978 0.615567 0.470051
O O2 0.394407 0.565759 0.667051
O O3 0.046218 0.381064 0.238860
O O4 0.206133 0.813312 0.349924
O O5 0.141428 0.390036 0.808686
O O6 0.214108 0.023267 0.974699
O O7 0.375273 0.328461 0.977159
O O8 0.945500 0.067435 0.566187
O O9 0.926594 0.894210 0.789241
O O10 0.214371 0.733219 0.146165
O O11 0.000000 0.500000 0.500000
O O12 0.176167 0.483185 0.567893
O O13 0.776036 0.195415 0.226439
O O14 0.387481 0.222316 0.427945
O O15 0.000000 0.000000 0.000000
O O16 0.500000 0.000000 0.500000
O O17 0.368990 0.242080 0.800215
O O18 0.000000 0.000000 0.500000
#
# Coordination Sequence:
#
# PCOD9010239 Si02
#       8
#     2   2   2   2   2   2   2   2
#     4  11  23  42  64  94 132 168 219 266 319 383
#     4  11  22  39  66  93 124 171 204 260 327 369
#     4  12  23  42  65  93 133 168 218 268 317 382
#     4   9  21  40  65  93 124 158 212 258 314 393
#     4  11  23  40  64  88 126 175 215 269 321 367
#     4  10  21  40  62  93 123 172 221 257 317 387
#     4   9  20  40  63  92 123 158 206 256 316 390
#     4  11  22  41  65  92 131 165 205 270 317 374
#
# _framework density 22.752765
#
# number of rings (size 3 to 8) (size 9 to 14) (size 15 to 20)
#    0.000    1.500    3.750    2.625    0.000    5.500 
#    0.000    3.750    0.000    0.000    0.000    0.000 
#    0.000    0.000    0.000    0.000    0.000    0.000 
#
# Total GULP energy -89289.001628 kJ/mol
# GULP energy per Si atom -5580.562602 kJ/mol
# Density = 2.270098 g / cm^3
# Si number density = 22.752765 Si / 1000 Ang^3
#
#
#
# Elastic Constant Matrix: (Units=GPa)
#
#
# Indices 1 2 3 4 5 6 
#
# 1 54.1469 32.0077 26.8839 1.1324 17.0411 5.8309
# 2 32.0077 109.1010 22.6934 18.8077 13.1472 19.7528
# 3 26.8839 22.6934 75.4940 3.9366 18.4311 0.3570
# 4 1.1324 18.8077 3.9366 31.4330 1.9016 5.7098
# 5 17.0411 13.1472 18.4311 1.9016 42.4461 1.6981
# 6 5.8309 19.7528 0.3570 5.7098 1.6981 30.3544
#
#
#
# Elastic Compliance Matrix: (Units=1/GPa)
#
#
# Indices 1 2 3 4 5 6 
#
# 1 0.027611 -0.006446 -0.006557 0.004340 -0.006376 -0.001492
# 2 -0.006446 0.013688 -0.001315 -0.006602 -0.000529 -0.006382
# 3 -0.006557 -0.001315 0.017114 -0.001289 -0.004430 0.002405
# 4 0.004340 -0.006602 -0.001289 0.036413 -0.000636 -0.003336
# 5 -0.006376 -0.000529 -0.004430 -0.000636 0.028229 0.000162
# 6 -0.001492 -0.006382 0.002405 -0.003336 0.000162 0.037974
#
#
# Mechanical properties :
#
#
# Convention : Reuss Voigt Hill
#
# Bulk Modulus (GPa) = 33.58536 44.65688 39.12112
# Shear Modulus (GPa) = 25.05110 31.32383 28.18746
#
# Velocity S-wave (km/s) = 3.32175 3.71442 3.52356
# Velocity P-wave (km/s) = 5.43186 6.16973 5.81251
#
# Compressibility (1/GPa) = 0.02977488
#
# Stress axis : x y z
#
# Youngs Moduli (GPa) = 36.21728 73.05685 58.43202
#
# Poissons Ratio (x) = 0.47095 0.38316
# Poissons Ratio (y) = 0.23347 0.07686
# Poissons Ratio (z) = 0.23749 0.09609
#
# Static dielectric constant tensor:
#      x y z
#    x 1.866980 -0.013970 -0.013750 
#    y -0.013970 1.875870 0.021120 
#    z -0.013750 0.021120 1.985370 
# 
# From -- ./inp_files/577316.got.cif
#   From: 2010.05.17/outbox.cif.g08.bks.cpg/sg2_289_cif.got.tgz:577316.got - 2010.06.03 11:33:40.
