data_PCOD9010877
_publ_section_title
;
Structure prediction by ZEFSAII (Michael W. Deem and Ramdas Pophale) SiO2 
 PCOD9010877
Probable space group: P -1
;
_chemical_formula_sum "Si O2"
_cell_formula_units_Z 16
_cell_length_a 11.696195
_cell_length_b 14.514921
_cell_length_c 12.463124
_cell_angle_alpha 148.467569
_cell_angle_beta 90.807831
_cell_angle_gamma 110.006776
_cell_volume 814.079200
_symmetry_space_group_name_H-M "P -1"
_symmetry_group_IT_number 2
_symmetry_cell_setting 'triclinic'
loop_
_space_group_symop_operation_xyz
x,y,z
-x,-y,-z
loop_
_atom_site_type_symbol
_atom_site_label
_atom_site_fract_x
_atom_site_fract_y
_atom_site_fract_z
Si Si1 0.931629 0.605914 0.376091
Si Si2 0.064084 0.770712 0.764282
Si Si3 0.567641 0.260586 0.490622
Si Si4 0.438332 0.759711 0.985570
Si Si5 0.935218 0.650190 0.869208
Si Si6 0.563119 0.573650 0.194813
Si Si7 0.066068 0.068392 0.450115
Si Si8 0.566089 0.769359 0.769581
O O1 0.745659 0.395407 0.170097
O O2 0.969331 0.780705 0.455709
O O3 0.990597 0.754458 0.635375
O O4 0.007492 0.491716 0.252823
O O5 0.000000 0.500000 0.500000
O O6 0.002161 0.782805 0.886938
O O7 0.248561 0.000480 0.990658
O O8 0.750480 0.466475 0.680566
O O9 0.504171 0.331331 0.646737
O O10 0.486328 0.206205 0.320514
O O11 0.526749 0.022108 0.289071
O O12 0.476746 0.636394 0.940396
O O13 0.490057 0.775752 0.880275
O O14 0.993657 0.838042 0.149479
O O15 0.749416 0.769952 0.387115
O O16 0.500000 0.500000 0.000000
O O17 0.000000 0.000000 0.500000
O O18 0.500000 0.500000 0.500000
#
# Coordination Sequence:
#
# PCOD9010877 Si02
#       8
#     2   2   2   2   2   2   2   2
#     4  10  23  42  66  94 128 169 213 264 320 385
#     4  10  21  40  64  94 134 170 211 264 323 391
#     4  12  24  42  68  96 132 173 215 267 328 394
#     4  11  23  43  68  95 131 172 216 266 328 392
#     4  11  24  41  66  95 129 169 212 263 321 385
#     4  11  25  45  67  95 129 166 222 275 325 386
#     4  11  25  43  66  92 125 169 215 269 321 381
#     4  12  24  39  67 100 137 174 217 272 329 394
#
# _framework density 19.654108000000001
#
# number of rings (size 3 to 8) (size 9 to 14) (size 15 to 20)
#    0.000    1.000    1.250    6.375    3.500    4.500 
#    0.000    0.000    0.000    0.000    0.000    0.000 
#    0.000    0.000    0.000    0.000    0.000    0.000 
#
# Total GULP energy -89453.782051 kJ/mol
# GULP energy per Si atom -5590.861378 kJ/mol
# Density = 1.960937 g / cm^3
# Si number density = 19.654108 Si / 1000 Ang^3
#
#
#
# Elastic Constant Matrix: (Units=GPa)
#
#
# Indices 1 2 3 4 5 6 
#
# 1 127.7649 70.9285 55.9483 -24.1222 -21.1143 -1.0904
# 2 70.9285 165.6001 62.7504 -25.1908 -10.4996 10.9917
# 3 55.9483 62.7504 114.7582 -5.7813 -4.1441 -8.1720
# 4 -24.1222 -25.1908 -5.7813 42.4929 3.2213 8.7871
# 5 -21.1143 -10.4996 -4.1441 3.2213 39.0921 -6.9867
# 6 -1.0904 10.9917 -8.1720 8.7871 -6.9867 19.4066
#
#
#
# Elastic Compliance Matrix: (Units=1/GPa)
#
#
# Indices 1 2 3 4 5 6 
#
# 1 0.013166 -0.002993 -0.004311 0.004576 0.005572 0.000553
# 2 -0.002993 0.011021 -0.005178 0.006846 -0.001987 -0.012406
# 3 -0.004311 -0.005178 0.014175 -0.005989 0.000331 0.011491
# 4 0.004576 0.006846 -0.005989 0.034348 -0.003241 -0.022862
# 5 0.005572 -0.001987 0.000331 -0.003241 0.030891 0.014166
# 6 0.000553 -0.012406 0.011491 -0.022862 0.014166 0.078877
#
#
# Mechanical properties :
#
#
# Convention : Reuss Voigt Hill
#
# Bulk Modulus (GPa) = 74.63044 87.48639 81.05842
# Shear Modulus (GPa) = 23.59512 34.76471 29.17992
#
# Velocity S-wave (km/s) = 3.46861 4.21031 3.85733
# Velocity P-wave (km/s) = 7.35500 8.26107 7.82117
#
# Compressibility (1/GPa) = 0.01339936
#
# Stress axis : x y z
#
# Youngs Moduli (GPa) = 75.95512 90.73215 70.54432
#
# Poissons Ratio (x) = 0.27154 0.30412
# Poissons Ratio (y) = 0.22731 0.36526
# Poissons Ratio (z) = 0.32745 0.46979
#
# Static dielectric constant tensor:
#      x y z
#    x 1.676540 -0.024390 -0.030040 
#    y -0.024390 1.672580 0.018360 
#    z -0.030040 0.018360 1.682260 
# 
# From -- ./inp_files/416112.got.cif
#   From: 2010.05.17/outbox.cif.g08.bks.cpg/sg2_209_cif.got.tgz:416112.got - 2010.06.03 11:33:40.
