data_PCOD9010950
_publ_section_title
;
Structure prediction by ZEFSAII (Michael W. Deem and Ramdas Pophale) SiO2 
 PCOD9010950
Probable space group: P -1
;
_chemical_formula_sum "Si O2"
_cell_formula_units_Z 12
_cell_length_a 7.304557
_cell_length_b 7.343861
_cell_length_c 12.055753
_cell_angle_alpha 51.373730
_cell_angle_beta 71.689382
_cell_angle_gamma 88.210614
_cell_volume 467.650217
_symmetry_space_group_name_H-M "P -1"
_symmetry_group_IT_number 2
_symmetry_cell_setting 'triclinic'
loop_
_space_group_symop_operation_xyz
x,y,z
-x,-y,-z
loop_
_atom_site_type_symbol
_atom_site_label
_atom_site_fract_x
_atom_site_fract_y
_atom_site_fract_z
Si Si1 0.890950 0.496952 0.306831
Si Si2 0.417453 0.224042 0.734119
Si Si3 0.309446 0.754283 0.836831
Si Si4 0.119012 0.313832 0.156872
Si Si5 0.225302 0.377208 0.498504
Si Si6 0.718120 0.939855 0.589903
O O1 0.745418 0.654012 0.225275
O O2 0.933416 0.592531 0.388050
O O3 0.067491 0.493982 0.192038
O O4 0.778155 0.220251 0.448079
O O5 0.372607 0.270207 0.594113
O O6 0.635556 0.371497 0.660948
O O7 0.375708 0.940817 0.853826
O O8 0.725296 0.520144 0.015492
O O9 0.484579 0.826540 0.686622
O O10 0.092082 0.779510 0.827313
O O11 0.200078 0.119032 0.283626
O O12 0.187976 0.202230 0.467912
#
# Coordination Sequence:
#
# PCOD9010950 Si02
#       6
#     2   2   2   2   2   2
#     4  10  21  40  64  97 127 154 218 261 308 372
#     4   9  18  38  63  96 122 166 206 254 320 362
#     4  11  23  44  65  87 137 167 208 257 308 389
#     4  11  26  40  63 100 122 173 210 252 323 368
#     4   9  19  35  65 100 115 162 213 256 314 360
#     4  12  22  43  71  89 128 167 209 264 311 371
#
# _framework density 25.660205000000001
#
# number of rings (size 3 to 8) (size 9 to 14) (size 15 to 20)
#    1.000    0.667    1.667    3.000    0.000    3.333 
#    3.000    0.833    0.000    0.000    0.000    0.000 
#    0.000    0.000    0.000    0.000    0.000    0.000 
#
# Total GULP energy -67067.844879 kJ/mol
# GULP energy per Si atom -5588.987073 kJ/mol
# Density = 2.560180 g / cm^3
# Si number density = 25.660205 Si / 1000 Ang^3
#
#
#
# Elastic Constant Matrix: (Units=GPa)
#
#
# Indices 1 2 3 4 5 6 
#
# 1 81.8659 6.7817 13.9443 -9.3451 -10.8755 11.0690
# 2 6.7817 114.6538 23.3721 0.8463 -6.0635 -3.3822
# 3 13.9443 23.3721 96.0952 -15.0296 -19.4572 4.4335
# 4 -9.3451 0.8463 -15.0296 36.2917 2.9604 -10.7989
# 5 -10.8755 -6.0635 -19.4572 2.9604 30.4725 6.8021
# 6 11.0690 -3.3822 4.4335 -10.7989 6.8021 16.0228
#
#
#
# Elastic Compliance Matrix: (Units=1/GPa)
#
#
# Indices 1 2 3 4 5 6 
#
# 1 0.015433 -0.000959 0.000382 -0.001278 0.009198 -0.015736
# 2 -0.000959 0.009353 -0.002523 -0.000438 -0.000804 0.003381
# 3 0.000382 -0.002523 0.013680 0.003100 0.009527 -0.006537
# 4 -0.001278 -0.000438 0.003100 0.037929 -0.008771 0.029219
# 5 0.009198 -0.000804 0.009527 -0.008771 0.051079 -0.036756
# 6 -0.015736 0.003381 -0.006537 0.029219 -0.036756 0.111101
#
#
# Mechanical properties :
#
#
# Convention : Reuss Voigt Hill
#
# Bulk Modulus (GPa) = 30.99168 42.31237 36.65203
# Shear Modulus (GPa) = 19.56697 33.12520 26.34609
#
# Velocity S-wave (km/s) = 2.76441 3.59683 3.20774
# Velocity P-wave (km/s) = 4.72157 5.81162 5.29472
#
# Compressibility (1/GPa) = 0.03226672
#
# Stress axis : x y z
#
# Youngs Moduli (GPa) = 64.79585 106.91271 73.09858
#
# Poissons Ratio (x) = 0.10254 -0.02795
# Poissons Ratio (y) = 0.06215 0.18444
# Poissons Ratio (z) = -0.02477 0.26976
#
# Static dielectric constant tensor:
#      x y z
#    x 2.147810 -0.041060 0.046400 
#    y -0.041060 2.060070 -0.005320 
#    z 0.046400 -0.005320 2.004370 
# 
# From -- ./inp_files/235692.got.cif
#   From: 2010.05.17/outbox.cif.g08.bks.cpg/sg2_118_cif.got.tgz:235692.got - 2010.06.03 11:33:40.
