data_PCOD9010484
_publ_section_title
;
Structure prediction by ZEFSAII (Michael W. Deem and Ramdas Pophale) SiO2 
 PCOD9010484
Probable space group: P -1
;
_chemical_formula_sum "Si O2"
_cell_formula_units_Z 16
_cell_length_a 9.377886
_cell_length_b 15.575323
_cell_length_c 7.860156
_cell_angle_alpha 143.956990
_cell_angle_beta 89.859038
_cell_angle_gamma 89.843608
_cell_volume 675.499358
_symmetry_space_group_name_H-M "P -1"
_symmetry_group_IT_number 2
_symmetry_cell_setting 'triclinic'
loop_
_space_group_symop_operation_xyz
x,y,z
-x,-y,-z
loop_
_atom_site_type_symbol
_atom_site_label
_atom_site_fract_x
_atom_site_fract_y
_atom_site_fract_z
Si Si1 0.149439 0.033167 0.466871
Si Si2 0.719405 0.137024 0.327054
Si Si3 0.166507 0.507679 0.467581
Si Si4 0.338889 0.783647 0.938726
Si Si5 0.350841 0.251238 0.996176
Si Si6 0.541552 0.670590 0.247789
Si Si7 0.200527 0.172042 0.317903
Si Si8 0.940909 0.370658 0.675526
O O1 0.238855 0.134127 0.750806
O O2 0.147185 0.100273 0.383461
O O3 0.000000 0.000000 0.500000
O O4 0.249189 0.893722 0.227096
O O5 0.690613 0.179670 0.198637
O O6 0.581983 0.203827 0.531165
O O7 0.847270 0.242853 0.556174
O O8 0.759174 0.963685 0.026708
O O9 0.266134 0.631994 0.741429
O O10 0.156240 0.545490 0.327441
O O11 0.000000 0.500000 0.500000
O O12 0.255592 0.364967 0.279977
O O13 0.506274 0.795907 0.986372
O O14 0.404596 0.321136 0.931766
O O15 0.665095 0.728727 0.467918
O O16 0.500000 0.500000 0.000000
O O17 0.069418 0.278619 0.439865
O O18 0.000000 0.500000 0.000000
#
# Coordination Sequence:
#
# PCOD9010484 Si02
#       8
#     2   2   2   2   2   2   2   2
#     4  10  21  40  63  92 126 161 205 258 310 370
#     4  10  22  40  60  88 124 160 203 256 312 370
#     4  11  24  41  61  90 125 163 208 259 311 368
#     4  10  22  40  61  89 124 161 204 255 308 369
#     4  11  23  41  63  91 123 161 208 256 307 371
#     4  11  22  39  62  90 123 162 205 254 307 370
#     4  10  22  39  61  90 125 162 206 258 311 372
#     4  11  22  40  63  90 122 162 211 260 309 370
#
# _framework density 23.686183
#
# number of rings (size 3 to 8) (size 9 to 14) (size 15 to 20)
#    0.000    1.500    0.000    6.000    0.000    4.000 
#    0.000    2.500    0.000    0.000    0.000    0.000 
#    0.000    0.000    0.000    0.000    0.000    0.000 
#
# Total GULP energy -89422.642096 kJ/mol
# GULP energy per Si atom -5588.915131 kJ/mol
# Density = 2.363227 g / cm^3
# Si number density = 23.686183 Si / 1000 Ang^3
#
#
#
# Elastic Constant Matrix: (Units=GPa)
#
#
# Indices 1 2 3 4 5 6 
#
# 1 159.8559 17.5690 39.8029 7.6739 -18.4657 11.9945
# 2 17.5690 54.3730 26.7747 3.6561 -0.5171 10.1561
# 3 39.8029 26.7747 118.0359 16.4304 -10.5431 10.7646
# 4 7.6739 3.6561 16.4304 29.2727 -1.5340 -3.4460
# 5 -18.4657 -0.5171 -10.5431 -1.5340 53.5072 7.4656
# 6 11.9945 10.1561 10.7646 -3.4460 7.4656 35.6776
#
#
#
# Elastic Compliance Matrix: (Units=1/GPa)
#
#
# Indices 1 2 3 4 5 6 
#
# 1 0.007284 -0.001023 -0.001660 -0.000988 0.002465 -0.002268
# 2 -0.001023 0.021629 -0.004075 -0.000703 -0.000328 -0.004583
# 3 -0.001660 -0.004075 0.011111 -0.005498 0.001774 -0.002537
# 4 -0.000988 -0.000703 -0.005498 0.038254 -0.001190 0.006135
# 5 0.002465 -0.000328 0.001774 -0.001190 0.020648 -0.005706
# 6 -0.002268 -0.004583 -0.002537 0.006135 -0.005706 0.032648
#
#
# Mechanical properties :
#
#
# Convention : Reuss Voigt Hill
#
# Bulk Modulus (GPa) = 37.72281 55.61754 46.67017
# Shear Modulus (GPa) = 32.48360 40.23272 36.35816
#
# Velocity S-wave (km/s) = 3.70728 4.12585 3.92215
# Velocity P-wave (km/s) = 5.85542 6.79918 6.34487
#
# Compressibility (1/GPa) = 0.02650916
#
# Stress axis : x y z
#
# Youngs Moduli (GPa) = 137.29478 46.23498 90.00082
#
# Poissons Ratio (x) = 0.04729 0.14936
# Poissons Ratio (y) = 0.14042 0.36673
# Poissons Ratio (z) = 0.22785 0.18839
#
# Static dielectric constant tensor:
#      x y z
#    x 1.875460 0.029960 0.015050 
#    y 0.029960 1.949850 0.014770 
#    z 0.015050 0.014770 1.895780 
# 
# From -- ./inp_files/219047.got.cif
#   From: 2010.05.17/outbox.cif.g08.bks.cpg/sg2_110_cif.got.tgz:219047.got - 2010.06.03 11:33:40.
