data_PCOD9010193
_publ_section_title
;
Structure prediction by ZEFSAII (Michael W. Deem and Ramdas Pophale) SiO2 
 PCOD9010193
Probable space group: P -1
;
_chemical_formula_sum "Si O2"
_cell_formula_units_Z 14
_cell_length_a 14.825813
_cell_length_b 12.054464
_cell_length_c 8.209468
_cell_angle_alpha 117.282344
_cell_angle_beta 152.670495
_cell_angle_gamma 67.577983
_cell_volume 597.461919
_symmetry_space_group_name_H-M "P -1"
_symmetry_group_IT_number 2
_symmetry_cell_setting 'triclinic'
loop_
_space_group_symop_operation_xyz
x,y,z
-x,-y,-z
loop_
_atom_site_type_symbol
_atom_site_label
_atom_site_fract_x
_atom_site_fract_y
_atom_site_fract_z
Si Si1 0.247371 0.334243 0.311933
Si Si2 0.932793 0.153621 0.169200
Si Si3 0.252531 0.761969 0.755740
Si Si4 0.748129 0.642591 0.039694
Si Si5 0.970429 0.132218 0.841190
Si Si6 0.941151 0.510620 0.664134
Si Si7 0.469571 0.414201 0.070581
O O1 0.052236 0.399870 0.110023
O O2 0.407224 0.454140 0.674778
O O3 0.272085 0.312331 0.146993
O O4 0.188783 0.200395 0.208388
O O5 0.111008 0.252608 0.572925
O O6 0.764480 0.171859 0.050357
O O7 0.006029 0.015308 0.214110
O O8 0.891485 0.170649 0.920539
O O9 0.159362 0.834364 0.503686
O O10 0.129502 0.630884 0.503212
O O11 0.454567 0.704758 0.982761
O O12 0.855654 0.510826 0.110651
O O13 0.539566 0.620697 0.778391
O O14 0.759953 0.565256 0.314748
#
# Coordination Sequence:
#
# PCOD9010193 Si02
#       7
#     2   2   2   2   2   2   2
#     4  11  21  38  64  95 133 163 211 263 323 373
#     4  10  23  42  70  94 120 173 223 255 319 377
#     4  10  21  41  64  93 130 165 210 266 314 370
#     4  11  22  41  64  94 128 175 215 256 316 384
#     4  11  22  41  71  94 125 171 216 266 309 390
#     4  10  21  40  62  90 133 173 211 253 317 384
#     4  11  24  40  62  98 136 167 207 266 319 382
#
# _framework density 23.432458
#
# number of rings (size 3 to 8) (size 9 to 14) (size 15 to 20)
#    0.000    1.429    2.857    4.286    2.000    1.143 
#    7.714    2.857    0.000    9.429    0.000    0.000 
#    0.000    0.000    0.000    0.000    0.000    0.000 
#
# Total GULP energy -77940.970449 kJ/mol
# GULP energy per Si atom -5567.212175 kJ/mol
# Density = 2.337912 g / cm^3
# Si number density = 23.432458 Si / 1000 Ang^3
#
#
#
# Elastic Constant Matrix: (Units=GPa)
#
#
# Indices 1 2 3 4 5 6 
#
# 1 201.8833 57.6233 31.2324 -3.9581 -12.5875 -8.2726
# 2 57.6233 107.1276 33.0020 6.8539 -3.7579 7.2662
# 3 31.2324 33.0020 63.2179 7.4783 -0.9107 1.8562
# 4 -3.9581 6.8539 7.4783 25.3842 0.5955 -7.4789
# 5 -12.5875 -3.7579 -0.9107 0.5955 28.7211 3.2909
# 6 -8.2726 7.2662 1.8562 -7.4789 3.2909 37.3754
#
#
#
# Elastic Compliance Matrix: (Units=1/GPa)
#
#
# Indices 1 2 3 4 5 6 
#
# 1 0.006455 -0.003180 -0.001951 0.003160 0.001988 0.002601
# 2 -0.003180 0.013001 -0.004647 -0.003777 0.000676 -0.003816
# 3 -0.001951 -0.004647 0.019878 -0.005345 -0.000546 -0.001537
# 4 0.003160 -0.003777 -0.005345 0.045754 -0.001486 0.010985
# 5 0.001988 0.000676 -0.000546 -0.001486 0.036151 -0.003145
# 6 0.002601 -0.003816 -0.001537 0.010985 -0.003145 0.030625
#
#
# Mechanical properties :
#
#
# Convention : Reuss Voigt Hill
#
# Bulk Modulus (GPa) = 50.56124 68.43824 59.49974
# Shear Modulus (GPa) = 28.08802 34.98755 31.53778
#
# Velocity S-wave (km/s) = 3.46595 3.86829 3.67263
# Velocity P-wave (km/s) = 6.13526 7.01581 6.59025
#
# Compressibility (1/GPa) = 0.01977800
#
# Stress axis : x y z
#
# Youngs Moduli (GPa) = 154.91109 76.91632 50.30793
#
# Poissons Ratio (x) = 0.24461 0.09813
# Poissons Ratio (y) = 0.49266 0.23379
# Poissons Ratio (z) = 0.30216 0.35745
#
# Static dielectric constant tensor:
#      x y z
#    x 2.137550 0.013980 -0.090590 
#    y 0.013980 1.885720 -0.069260 
#    z -0.090590 -0.069260 2.107810 
# 
# From -- ./inp_files/305850.got.cif
#   From: 2010.05.17/outbox.cif.g08.bks.cpg/sg2_153_cif.got.tgz:305850.got - 2010.06.03 11:33:40.
