data_PCOD9010873
_publ_section_title
;
Structure prediction by ZEFSAII (Michael W. Deem and Ramdas Pophale) SiO2 
 PCOD9010873
Probable space group: P -1
;
_chemical_formula_sum "Si O2"
_cell_formula_units_Z 11
_cell_length_a 5.098858
_cell_length_b 5.447845
_cell_length_c 15.735084
_cell_angle_alpha 119.622127
_cell_angle_beta 81.220740
_cell_angle_gamma 94.021215
_cell_volume 375.501588
_symmetry_space_group_name_H-M "P -1"
_symmetry_group_IT_number 2
_symmetry_cell_setting 'triclinic'
loop_
_space_group_symop_operation_xyz
x,y,z
-x,-y,-z
loop_
_atom_site_type_symbol
_atom_site_label
_atom_site_fract_x
_atom_site_fract_y
_atom_site_fract_z
Si Si1 0.841812 0.256988 0.205420
Si Si2 0.206044 0.710382 0.981426
Si Si3 0.448550 0.784926 0.322959
Si Si4 0.500000 0.000000 0.500000
Si Si5 0.000283 0.566431 0.412516
Si Si6 0.420934 0.788465 0.151937
O O1 0.901122 0.209887 0.092746
O O2 0.641139 0.524339 0.254201
O O3 0.016100 0.344008 0.293964
O O4 0.676538 0.978829 0.189553
O O5 0.476827 0.530275 0.921271
O O6 0.288219 0.899403 0.091447
O O7 0.000000 0.500000 0.000000
O O8 0.268441 0.799206 0.250295
O O9 0.276460 0.739768 0.410896
O O10 0.560647 0.075158 0.400987
O O11 0.248582 0.234122 0.557787
O O12 0.000000 0.500000 0.500000
#
# Coordination Sequence:
#
# PCOD9010873 Si02
#       6
#     2   2   2   1   2   2
#     4  10  23  41  63  98 132 171 230 275 328 412
#     4  10  21  40  64  94 131 173 217 276 342 397
#     4  10  23  41  63  95 132 174 223 276 335 396
#     4  10  24  44  66  94 138 172 232 282 326 400
#     4  11  25  43  69  99 135 182 227 277 342 398
#     4  10  22  39  65  93 132 173 218 279 335 399
#
# _framework density 29.294150999999999
#
# number of rings (size 3 to 8) (size 9 to 14) (size 15 to 20)
#    0.000    1.818    0.000    2.182    5.091    3.636 
#    3.273    0.000    0.000    0.000    0.000    0.000 
#    0.000    0.000    0.000    0.000    0.000    0.000 
#
# Total GULP energy -61343.956186 kJ/mol
# GULP energy per Si atom -5576.723290 kJ/mol
# Density = 2.922748 g / cm^3
# Si number density = 29.294151 Si / 1000 Ang^3
#
#
#
# Elastic Constant Matrix: (Units=GPa)
#
#
# Indices 1 2 3 4 5 6 
#
# 1 127.5552 23.2917 44.4965 -16.3705 24.3540 -9.3906
# 2 23.2917 48.0534 42.9816 -36.5456 15.7553 0.4323
# 3 44.4965 42.9816 335.6288 -52.1844 49.0979 -2.9211
# 4 -16.3705 -36.5456 -52.1844 55.2659 0.7600 7.7730
# 5 24.3540 15.7553 49.0979 0.7600 58.8123 -0.0565
# 6 -9.3906 0.4323 -2.9211 7.7730 -0.0565 60.7913
#
#
#
# Elastic Compliance Matrix: (Units=1/GPa)
#
#
# Indices 1 2 3 4 5 6 
#
# 1 0.009173 -0.003202 -0.000405 0.000055 -0.002603 0.001411
# 2 -0.003202 0.054512 0.001396 0.037411 -0.014931 -0.005612
# 3 -0.000405 0.001396 0.004149 0.004842 -0.003733 -0.000496
# 4 0.000055 0.037411 0.004842 0.048502 -0.014720 -0.006240
# 5 -0.002603 -0.014931 -0.003733 -0.014720 0.025389 0.001430
# 6 0.001411 -0.005612 -0.000496 -0.006240 0.001430 0.017483
#
#
# Mechanical properties :
#
#
# Convention : Reuss Voigt Hill
#
# Bulk Modulus (GPa) = 15.76963 81.41968 48.59465
# Shear Modulus (GPa) = 27.06120 61.67173 44.36647
#
# Velocity S-wave (km/s) = 3.04266 4.59329 3.89590
# Velocity P-wave (km/s) = 4.21172 7.48233 6.07140
#
# Compressibility (1/GPa) = 0.06341302
#
# Stress axis : x y z
#
# Youngs Moduli (GPa) = 109.01079 18.34469 241.02318
#
# Poissons Ratio (x) = 0.05874 0.09750
# Poissons Ratio (y) = 0.34903 -0.33641
# Poissons Ratio (z) = 0.04410 -0.02560
#
# Static dielectric constant tensor:
#      x y z
#    x 2.551900 0.053240 0.176760 
#    y 0.053240 2.526830 -0.197420 
#    z 0.176760 -0.197420 2.542390 
# 
# From -- ./inp_files/2209.got.cif
#   From: 2010.05.17/outbox.cif.g08.bks.cpg/sg2_2_cif.got.tgz:2209.got - 2010.06.03 11:33:40.
