data_PCOD9010424
_publ_section_title
;
Structure prediction by ZEFSAII (Michael W. Deem and Ramdas Pophale) SiO2 
 PCOD9010424
Probable space group: P -1
;
_chemical_formula_sum "Si O2"
_cell_formula_units_Z 14
_cell_length_a 6.961737
_cell_length_b 9.394586
_cell_length_c 13.648262
_cell_angle_alpha 86.905888
_cell_angle_beta 38.663829
_cell_angle_gamma 86.997694
_cell_volume 556.784064
_symmetry_space_group_name_H-M "P -1"
_symmetry_group_IT_number 2
_symmetry_cell_setting 'triclinic'
loop_
_space_group_symop_operation_xyz
x,y,z
-x,-y,-z
loop_
_atom_site_type_symbol
_atom_site_label
_atom_site_fract_x
_atom_site_fract_y
_atom_site_fract_z
Si Si1 0.469564 0.519386 0.316839
Si Si2 0.993521 0.665340 0.884415
Si Si3 0.868421 0.145536 0.337210
Si Si4 0.226288 0.836771 0.416600
Si Si5 0.791491 0.042957 0.172254
Si Si6 0.357312 0.577552 0.148833
Si Si7 0.790469 0.725044 0.430498
O O1 0.832657 0.483562 0.165882
O O2 0.383139 0.679728 0.374616
O O3 0.326672 0.492553 0.266684
O O4 0.344290 0.409616 0.451129
O O5 0.987950 0.711501 0.770783
O O6 0.218832 0.784161 0.835587
O O7 0.646596 0.678473 0.058669
O O8 0.959562 0.124041 0.412325
O O9 0.500836 0.177880 0.486046
O O10 0.929409 0.032077 0.229585
O O11 0.488385 0.951789 0.293086
O O12 0.997975 0.812948 0.419225
O O13 0.000000 0.000000 0.000000
O O14 0.037520 0.661473 0.257401
O O15 0.500000 0.500000 0.000000
#
# Coordination Sequence:
#
# PCOD9010424 Si02
#       7
#     2   2   2   2   2   2   2
#     4  10  22  40  61  90 121 160 205 248 306 364
#     4   9  22  39  59  90 123 155 203 250 306 357
#     4   9  23  40  64  88 121 162 207 242 306 362
#     4  11  21  38  71  84 123 166 203 248 303 362
#     4  10  21  40  63  90 122 161 203 252 306 357
#     4  11  22  34  61  91 128 155 198 258 306 351
#     4  10  23  41  58  95 124 155 209 251 299 363
#
# _framework density 25.144399
#
# number of rings (size 3 to 8) (size 9 to 14) (size 15 to 20)
#    0.857    1.143    0.000    4.286    6.000    1.714 
#    0.000    0.000    0.000    2.571    0.000    0.000 
#    0.000    0.000    0.000    0.000    0.000    0.000 
#
# Total GULP energy -78200.593664 kJ/mol
# GULP energy per Si atom -5585.756690 kJ/mol
# Density = 2.508717 g / cm^3
# Si number density = 25.144399 Si / 1000 Ang^3
#
#
#
# Elastic Constant Matrix: (Units=GPa)
#
#
# Indices 1 2 3 4 5 6 
#
# 1 38.8374 27.7565 19.1401 12.8792 11.2762 19.7179
# 2 27.7565 114.2170 29.5869 13.1212 4.7240 3.4482
# 3 19.1401 29.5869 139.3002 22.6748 12.4756 2.2769
# 4 12.8792 13.1212 22.6748 44.6204 14.0561 4.1162
# 5 11.2762 4.7240 12.4756 14.0561 38.2514 13.9971
# 6 19.7179 3.4482 2.2769 4.1162 13.9971 36.4239
#
#
#
# Elastic Compliance Matrix: (Units=1/GPa)
#
#
# Indices 1 2 3 4 5 6 
#
# 1 0.049079 -0.009525 -0.003066 -0.007347 -0.000668 -0.024388
# 2 -0.009525 0.011276 -0.001110 -0.000531 0.000499 0.004026
# 3 -0.003066 -0.001110 0.008385 -0.002790 -0.001440 0.002110
# 4 -0.007347 -0.000531 -0.002790 0.028519 -0.008956 0.004421
# 5 -0.000668 0.000499 -0.001440 -0.008956 0.034351 -0.011784
# 6 -0.024388 0.004026 0.002110 0.004421 -0.011784 0.044173
#
#
# Mechanical properties :
#
#
# Convention : Reuss Voigt Hill
#
# Bulk Modulus (GPa) = 24.19124 49.48015 36.83570
# Shear Modulus (GPa) = 23.04521 38.25056 30.64789
#
# Velocity S-wave (km/s) = 3.03068 3.90453 3.49503
# Velocity P-wave (km/s) = 4.67852 6.32837 5.56493
#
# Compressibility (1/GPa) = 0.04133727
#
# Stress axis : x y z
#
# Youngs Moduli (GPa) = 20.37532 88.68088 119.26678
#
# Poissons Ratio (x) = 0.84466 0.36569
# Poissons Ratio (y) = 0.19407 0.13243
# Poissons Ratio (z) = 0.06247 0.09847
#
# Static dielectric constant tensor:
#      x y z
#    x 2.055300 -0.000620 0.032950 
#    y -0.000620 2.107710 0.011930 
#    z 0.032950 0.011930 2.002300 
# 
# From -- ./inp_files/500502.got.cif
#   From: 2010.05.17/outbox.cif.g08.bks.cpg/sg2_251_cif.got.tgz:500502.got - 2010.06.03 11:33:40.
