data_PCOD9010741
_publ_section_title
;
Structure prediction by ZEFSAII (Michael W. Deem and Ramdas Pophale) SiO2 
 PCOD9010741
Probable space group: P -1
;
_chemical_formula_sum "Si O2"
_cell_formula_units_Z 16
_cell_length_a 11.039939
_cell_length_b 10.436933
_cell_length_c 11.836269
_cell_angle_alpha 117.680741
_cell_angle_beta 106.388715
_cell_angle_gamma 39.195951
_cell_volume 755.826826
_symmetry_space_group_name_H-M "P -1"
_symmetry_group_IT_number 2
_symmetry_cell_setting 'triclinic'
loop_
_space_group_symop_operation_xyz
x,y,z
-x,-y,-z
loop_
_atom_site_type_symbol
_atom_site_label
_atom_site_fract_x
_atom_site_fract_y
_atom_site_fract_z
Si Si1 0.042084 0.485888 0.371393
Si Si2 0.701090 0.647485 0.201569
Si Si3 0.691676 0.396155 0.947361
Si Si4 0.477728 0.785222 0.880625
Si Si5 0.351901 0.805509 0.301317
Si Si6 0.014456 0.839149 0.514516
Si Si7 0.385963 0.062572 0.152827
Si Si8 0.387277 0.611656 0.634702
O O1 0.859759 0.583179 0.293991
O O2 0.075049 0.626112 0.401058
O O3 0.000000 0.500000 0.500000
O O4 0.229122 0.231999 0.276532
O O5 0.506227 0.772996 0.268665
O O6 0.603032 0.839345 0.163137
O O7 0.781373 0.430148 0.074600
O O8 0.625121 0.555753 0.892893
O O9 0.767654 0.187035 0.819059
O O10 0.500000 0.500000 0.000000
O O11 0.595092 0.812336 0.866812
O O12 0.378885 0.778842 0.753436
O O13 0.338844 0.971499 0.017680
O O14 0.489862 0.586514 0.325164
O O15 0.194734 0.008811 0.425212
O O16 0.174756 0.736832 0.608193
O O17 0.000000 0.000000 0.500000
O O18 0.500000 0.500000 0.500000
#
# Coordination Sequence:
#
# PCOD9010741 Si02
#       8
#     2   2   2   2   2   2   2   2
#     4  12  27  43  64  95 131 172 222 268 319 390
#     4  10  22  41  66  91 122 172 212 255 331 378
#     4   8  17  37  64  93 122 160 209 259 313 385
#     4   9  20  38  64  94 126 170 208 260 328 378
#     4  10  21  40  64  90 126 162 210 266 315 383
#     4  12  26  39  59  95 123 164 215 259 318 381
#     4  10  22  42  63  91 131 163 213 271 317 383
#     4  11  21  38  62  88 128 167 203 260 323 377
#
# _framework density 21.168869999999998
#
# number of rings (size 3 to 8) (size 9 to 14) (size 15 to 20)
#    0.000    1.750    1.250    2.250    3.500    4.000 
#    0.000    5.625    0.000   10.500    0.000    0.000 
#    0.000    0.000    0.000    0.000    0.000    0.000 
#
# Total GULP energy -89154.310582 kJ/mol
# GULP energy per Si atom -5572.144411 kJ/mol
# Density = 2.112069 g / cm^3
# Si number density = 21.168870 Si / 1000 Ang^3
#
#
#
# Elastic Constant Matrix: (Units=GPa)
#
#
# Indices 1 2 3 4 5 6 
#
# 1 34.5817 6.9928 15.1080 -14.2113 14.5262 5.5717
# 2 6.9928 56.1249 28.9267 -2.9560 10.0629 -8.0881
# 3 15.1080 28.9267 128.8641 -7.0432 26.3077 -10.0342
# 4 -14.2113 -2.9560 -7.0432 32.1722 -3.1549 -1.7981
# 5 14.5262 10.0629 26.3077 -3.1549 42.9668 -6.2975
# 6 5.5717 -8.0881 -10.0342 -1.7981 -6.2975 30.5246
#
#
#
# Elastic Compliance Matrix: (Units=1/GPa)
#
#
# Indices 1 2 3 4 5 6 
#
# 1 0.045025 -0.002970 -0.001726 0.017239 -0.013878 -0.011420
# 2 -0.002970 0.020985 -0.003820 -0.000047 -0.000892 0.004660
# 3 -0.001726 -0.003820 0.009862 0.000724 -0.004256 0.001709
# 4 0.017239 -0.000047 0.000724 0.038415 -0.003646 -0.001411
# 5 -0.013878 -0.000892 -0.004256 -0.003646 0.031567 0.007195
# 6 -0.011420 0.004660 0.001709 -0.001411 0.007195 0.038043
#
#
# Mechanical properties :
#
#
# Convention : Reuss Voigt Hill
#
# Bulk Modulus (GPa) = 16.99513 35.73617 26.36565
# Shear Modulus (GPa) = 22.67130 32.36894 27.52012
#
# Velocity S-wave (km/s) = 3.27612 3.91459 3.60950
# Velocity P-wave (km/s) = 4.72826 6.11148 5.46382
#
# Compressibility (1/GPa) = 0.05884038
#
# Stress axis : x y z
#
# Youngs Moduli (GPa) = 22.20972 47.65238 101.40438
#
# Poissons Ratio (x) = 0.14152 0.17502
# Poissons Ratio (y) = 0.06596 0.38737
# Poissons Ratio (z) = 0.03833 0.18203
#
# Static dielectric constant tensor:
#      x y z
#    x 1.733290 0.094630 0.034460 
#    y 0.094630 1.722100 -0.012260 
#    z 0.034460 -0.012260 1.931020 
# 
# From -- ./inp_files/428354.got.cif
#   From: 2010.05.17/outbox.cif.g08.bks.cpg/sg2_215_cif.got.tgz:428354.got - 2010.06.03 11:33:40.
