data_PCOD9010948
_publ_section_title
;
Structure prediction by ZEFSAII (Michael W. Deem and Ramdas Pophale) SiO2 
 PCOD9010948
Probable space group: P -1
;
_chemical_formula_sum "Si O2"
_cell_formula_units_Z 16
_cell_length_a 26.326514
_cell_length_b 5.413713
_cell_length_c 15.255866
_cell_angle_alpha 68.491900
_cell_angle_beta 157.024964
_cell_angle_gamma 100.379386
_cell_volume 711.600289
_symmetry_space_group_name_H-M "P -1"
_symmetry_group_IT_number 2
_symmetry_cell_setting 'triclinic'
loop_
_space_group_symop_operation_xyz
x,y,z
-x,-y,-z
loop_
_atom_site_type_symbol
_atom_site_label
_atom_site_fract_x
_atom_site_fract_y
_atom_site_fract_z
Si Si1 0.386591 0.336225 0.211153
Si Si2 0.387323 0.246980 0.412179
Si Si3 0.134374 0.191428 0.768800
Si Si4 0.862284 0.435684 0.894369
Si Si5 0.891704 0.343575 0.766678
Si Si6 0.210865 0.361752 0.611306
Si Si7 0.636828 0.123547 0.967608
Si Si8 0.037754 0.966225 0.352438
O O1 0.375876 0.441408 0.281754
O O2 0.363404 0.558984 0.064327
O O3 0.546194 0.078293 0.482378
O O4 0.259117 0.233569 0.014970
O O5 0.241918 0.367453 0.220844
O O6 0.507032 0.206030 0.681453
O O7 0.000000 0.500000 0.500000
O O8 0.065701 0.007745 0.734706
O O9 0.213301 0.048079 0.823795
O O10 0.799067 0.453864 0.694475
O O11 0.994712 0.517928 0.080943
O O12 0.932589 0.103183 0.084552
O O13 0.793179 0.462759 0.508043
O O14 0.000000 0.000000 0.000000
O O15 0.139526 0.628848 0.532722
O O16 0.120271 0.169320 0.474832
O O17 0.356784 0.098946 0.916670
#
# Coordination Sequence:
#
# PCOD9010948 Si02
#       8
#     2   2   2   2   2   2   2   2
#     4  10  23  39  60  90 128 176 223 260 310 381
#     4  10  23  41  60  91 125 174 222 259 314 380
#     4  11  22  34  57  92 130 165 212 261 319 381
#     4  10  22  39  65  92 126 159 215 267 329 381
#     4  10  21  40  64  97 121 159 207 275 331 387
#     4  11  24  40  65  94 133 164 212 266 333 385
#     4  11  23  39  59  86 132 174 214 264 316 382
#     4  11  23  38  63  97 127 170 206 270 327 384
#
# _framework density 22.484535000000001
#
# number of rings (size 3 to 8) (size 9 to 14) (size 15 to 20)
#    0.000    1.500    2.500    1.875    7.000    4.000 
#    0.000    0.625    0.000    1.500    0.000    0.000 
#    0.000    0.000    0.000    0.000    0.000    0.000 
#
# Total GULP energy -89173.371601 kJ/mol
# GULP energy per Si atom -5573.335725 kJ/mol
# Density = 2.243336 g / cm^3
# Si number density = 22.484535 Si / 1000 Ang^3
#
#
#
# Elastic Constant Matrix: (Units=GPa)
#
#
# Indices 1 2 3 4 5 6 
#
# 1 102.6562 4.3019 30.0710 -7.6864 -19.8326 -6.2136
# 2 4.3019 49.8364 14.5453 -11.4664 -6.8363 -0.9811
# 3 30.0710 14.5453 92.5559 -17.3342 -21.5019 2.3401
# 4 -7.6864 -11.4664 -17.3342 31.5443 -1.8396 -10.5858
# 5 -19.8326 -6.8363 -21.5019 -1.8396 44.3786 -8.7104
# 6 -6.2136 -0.9811 2.3401 -10.5858 -8.7104 24.3142
#
#
#
# Elastic Compliance Matrix: (Units=1/GPa)
#
#
# Indices 1 2 3 4 5 6 
#
# 1 0.012507 0.001964 -0.001853 0.006017 0.006922 0.008553
# 2 0.001964 0.024021 -0.000858 0.012198 0.006470 0.009182
# 3 -0.001853 -0.000858 0.014997 0.009596 0.007680 0.004978
# 4 0.006017 0.012198 0.009596 0.054318 0.017563 0.031047
# 5 0.006922 0.006470 0.007680 0.017563 0.035310 0.021587
# 6 0.008553 0.009182 0.004978 0.031047 0.021587 0.064456
#
#
# Mechanical properties :
#
#
# Convention : Reuss Voigt Hill
#
# Bulk Modulus (GPa) = 19.98768 38.09834 29.04301
# Shear Modulus (GPa) = 22.34333 33.12276 27.73305
#
# Velocity S-wave (km/s) = 3.15575 3.84231 3.51583
# Velocity P-wave (km/s) = 4.71033 6.05520 5.42460
#
# Compressibility (1/GPa) = 0.05003081
#
# Stress axis : x y z
#
# Youngs Moduli (GPa) = 79.95208 41.62986 66.68079
#
# Poissons Ratio (x) = -0.08175 0.12359
# Poissons Ratio (y) = -0.15700 0.05718
# Poissons Ratio (z) = 0.14819 0.03570
#
# Static dielectric constant tensor:
#      x y z
#    x 1.907380 0.001710 -0.129650 
#    y 0.001710 1.968380 -0.047060 
#    z -0.129650 -0.047060 1.919000 
# 
# From -- ./inp_files/80100.got.cif
#   From: 2010.05.17/outbox.cif.g08.bks.cpg/sg2_41_cif.got.tgz:80100.got - 2010.06.03 11:33:40.
