data_PCOD9010451
_publ_section_title
;
Structure prediction by ZEFSAII (Michael W. Deem and Ramdas Pophale) SiO2 
 PCOD9010451
Probable space group: P -1
;
_chemical_formula_sum "Si O2"
_cell_formula_units_Z 15
_cell_length_a 6.976655
_cell_length_b 13.055389
_cell_length_c 17.095754
_cell_angle_alpha 132.789917
_cell_angle_beta 53.446300
_cell_angle_gamma 148.295508
_cell_volume 599.904418
_symmetry_space_group_name_H-M "P -1"
_symmetry_group_IT_number 2
_symmetry_cell_setting 'triclinic'
loop_
_space_group_symop_operation_xyz
x,y,z
-x,-y,-z
loop_
_atom_site_type_symbol
_atom_site_label
_atom_site_fract_x
_atom_site_fract_y
_atom_site_fract_z
Si Si1 0.370584 0.971498 0.104080
Si Si2 0.327173 0.950066 0.599524
Si Si3 0.563586 0.678946 0.699210
Si Si4 0.566610 0.287240 0.493270
Si Si5 0.549178 0.688833 0.173926
Si Si6 0.219032 0.687479 0.106708
Si Si7 0.453922 0.441058 0.738283
Si Si8 0.500000 0.500000 0.500000
O O1 0.487818 0.904368 0.102645
O O2 0.929436 0.781465 0.110782
O O3 0.465101 0.170316 0.210763
O O4 0.500000 0.000000 0.000000
O O5 0.491787 0.903788 0.590972
O O6 0.877050 0.733194 0.597912
O O7 0.500000 0.000000 0.500000
O O8 0.362035 0.120538 0.711499
O O9 0.634912 0.644515 0.748706
O O10 0.244728 0.467660 0.618264
O O11 0.430851 0.298314 0.612498
O O12 0.442646 0.318312 0.465757
O O13 0.000000 0.500000 0.500000
O O14 0.357587 0.643641 0.116574
O O15 0.372906 0.522163 0.201071
O O16 0.944283 0.673747 0.207373
O O17 0.000000 0.500000 0.000000
#
# Coordination Sequence:
#
# PCOD9010451 Si02
#       8
#     2   2   2   2   2   2   2   1
#     4  10  23  45  67  96 130 163 214 271 321 390
#     4  11  21  38  63  91 133 169 207 266 318 385
#     4  10  22  41  62  94 132 167 216 264 315 392
#     4  11  21  39  59  92 132 169 213 258 311 387
#     4  10  24  42  67  95 127 171 212 266 333 373
#     4  11  25  45  65  94 126 166 221 273 324 386
#     4  10  21  40  63  91 126 165 217 261 315 388
#     4  10  22  36  62  92 126 170 212 250 318 376
#
# _framework density 25.003983999999999
#
# number of rings (size 3 to 8) (size 9 to 14) (size 15 to 20)
#    0.000    1.600    4.000    0.800    1.867    6.933 
#    0.000    5.333    0.000    0.000    0.000    0.000 
#    0.000    0.000    0.000    0.000    0.000    0.000 
#
# Total GULP energy -83699.782037 kJ/mol
# GULP energy per Si atom -5579.985469 kJ/mol
# Density = 2.494707 g / cm^3
# Si number density = 25.003984 Si / 1000 Ang^3
#
#
#
# Elastic Constant Matrix: (Units=GPa)
#
#
# Indices 1 2 3 4 5 6 
#
# 1 154.8421 46.9001 35.2002 -11.6645 33.3885 -50.3131
# 2 46.9001 76.4030 43.6355 -5.3859 5.2628 -36.1054
# 3 35.2002 43.6355 134.7036 -8.9300 0.5111 -10.5895
# 4 -11.6645 -5.3859 -8.9300 48.9473 -10.3200 -4.4184
# 5 33.3885 5.2628 0.5111 -10.3200 43.5634 -10.0806
# 6 -50.3131 -36.1054 -10.5895 -4.4184 -10.0806 59.0689
#
#
#
# Elastic Compliance Matrix: (Units=1/GPa)
#
#
# Indices 1 2 3 4 5 6 
#
# 1 0.011213 -0.002153 -0.001565 0.001438 -0.006360 0.006976
# 2 -0.002153 0.023534 -0.005951 0.002559 0.002275 0.012064
# 3 -0.001565 -0.005951 0.009569 0.000720 0.001287 -0.002982
# 4 0.001438 0.002559 0.000720 0.022793 0.005257 0.005521
# 5 -0.006360 0.002275 0.001287 0.005257 0.029149 0.001571
# 6 0.006976 0.012064 -0.002982 0.005521 0.001571 0.030392
#
#
# Mechanical properties :
#
#
# Convention : Reuss Voigt Hill
#
# Bulk Modulus (GPa) = 40.03686 68.60225 54.31955
# Shear Modulus (GPa) = 32.40178 46.33011 39.36595
#
# Velocity S-wave (km/s) = 3.60372 4.30921 3.97216
# Velocity P-wave (km/s) = 5.77604 7.22877 6.54285
#
# Compressibility (1/GPa) = 0.02497698
#
# Stress axis : x y z
#
# Youngs Moduli (GPa) = 89.18510 42.49228 104.50495
#
# Poissons Ratio (x) = 0.09149 0.16352
# Poissons Ratio (y) = 0.19202 0.62195
# Poissons Ratio (z) = 0.13954 0.25289
#
# Static dielectric constant tensor:
#      x y z
#    x 2.044360 0.052650 0.081780 
#    y 0.052650 2.153980 -0.020200 
#    z 0.081780 -0.020200 1.997910 
# 
# From -- ./inp_files/482274.got.cif
#   From: 2010.05.17/outbox.cif.g08.bks.cpg/sg2_242_cif.got.tgz:482274.got - 2010.06.03 11:33:40.
