data_PCOD9010259
_publ_section_title
;
Structure prediction by ZEFSAII (Michael W. Deem and Ramdas Pophale) SiO2 
 PCOD9010259
Probable space group: P -1
;
_chemical_formula_sum "Si O2"
_cell_formula_units_Z 14
_cell_length_a 17.455967
_cell_length_b 9.228364
_cell_length_c 5.785632
_cell_angle_alpha 124.909788
_cell_angle_beta 111.884980
_cell_angle_gamma 50.847838
_cell_volume 592.595117
_symmetry_space_group_name_H-M "P -1"
_symmetry_group_IT_number 2
_symmetry_cell_setting 'triclinic'
loop_
_space_group_symop_operation_xyz
x,y,z
-x,-y,-z
loop_
_atom_site_type_symbol
_atom_site_label
_atom_site_fract_x
_atom_site_fract_y
_atom_site_fract_z
Si Si1 0.323563 0.247212 0.174670
Si Si2 0.626083 0.163941 0.850939
Si Si3 0.932243 0.180416 0.908403
Si Si4 0.941642 0.826250 0.322203
Si Si5 0.556554 0.548118 0.414249
Si Si6 0.769850 0.864343 0.397757
Si Si7 0.139487 0.508246 0.519812
O O1 0.394649 0.331505 0.325565
O O2 0.220538 0.434117 0.344129
O O3 0.360376 0.038823 0.185369
O O4 0.304498 0.188205 0.847071
O O5 0.520313 0.300547 0.732019
O O6 0.706160 0.082668 0.661116
O O7 0.632586 0.320571 0.175514
O O8 0.003793 0.237109 0.918121
O O9 0.909163 0.063103 0.579100
O O10 0.849218 0.366238 0.140591
O O11 0.000000 0.000000 0.000000
O O12 0.842243 0.835192 0.247049
O O13 0.029600 0.657221 0.433962
O O14 0.500000 0.500000 0.500000
O O15 0.839181 0.700232 0.521523
#
# Coordination Sequence:
#
# PCOD9010259 Si02
#       7
#     2   2   2   2   2   2   2
#     4  11  25  44  68 104 140 173 227 284 342 405
#     4  10  25  47  69 104 131 183 219 281 348 416
#     4   9  20  38  59  90 126 180 227 276 319 385
#     4  10  21  40  62  93 136 180 228 271 327 387
#     4  11  25  48  75 100 133 176 225 283 350 416
#     4  11  24  41  67 101 135 174 225 280 330 401
#     4  10  22  40  62  95 133 184 222 275 331 393
#
# _framework density 23.624901000000001
#
# number of rings (size 3 to 8) (size 9 to 14) (size 15 to 20)
#    0.000    1.714    0.000    2.571    2.000   13.714 
#   15.429    0.000    0.000    0.000    0.000    0.000 
#    0.000    0.000    0.000    0.000    0.000    0.000 
#
# Total GULP energy -78269.242624 kJ/mol
# GULP energy per Si atom -5590.660187 kJ/mol
# Density = 2.357113 g / cm^3
# Si number density = 23.624901 Si / 1000 Ang^3
#
#
#
# Elastic Constant Matrix: (Units=GPa)
#
#
# Indices 1 2 3 4 5 6 
#
# 1 73.3533 38.7830 20.8796 -5.5147 9.9097 11.7935
# 2 38.7830 80.5629 42.0879 16.0563 4.6537 -5.4499
# 3 20.8796 42.0879 96.9576 5.3911 -8.6542 1.1489
# 4 -5.5147 16.0563 5.3911 31.5629 -2.5660 -10.0433
# 5 9.9097 4.6537 -8.6542 -2.5660 40.5279 4.5877
# 6 11.7935 -5.4499 1.1489 -10.0433 4.5877 19.6501
#
#
#
# Elastic Compliance Matrix: (Units=1/GPa)
#
#
# Indices 1 2 3 4 5 6 
#
# 1 0.023951 -0.013938 0.000522 0.006398 -0.002097 -0.014511
# 2 -0.013938 0.026733 -0.008418 -0.011277 -0.003454 0.011314
# 3 0.000522 -0.008418 0.014238 0.001033 0.004395 -0.003978
# 4 0.006398 -0.011277 0.001033 0.043149 0.001009 0.014790
# 5 -0.002097 -0.003454 0.004395 0.001009 0.027243 -0.005801
# 6 -0.014511 0.011314 -0.003978 0.014790 -0.005801 0.071884
#
#
# Mechanical properties :
#
#
# Convention : Reuss Voigt Hill
#
# Bulk Modulus (GPa) = 47.05433 50.48610 48.77022
# Shear Modulus (GPa) = 19.38358 28.28974 23.83666
#
# Velocity S-wave (km/s) = 2.86750 3.46418 3.17986
# Velocity P-wave (km/s) = 5.56092 6.11694 5.84555
#
# Compressibility (1/GPa) = 0.02125203
#
# Stress axis : x y z
#
# Youngs Moduli (GPa) = 41.75220 37.40733 70.23659
#
# Poissons Ratio (x) = 0.52139 -0.03664
# Poissons Ratio (y) = 0.58195 0.59125
# Poissons Ratio (z) = -0.02178 0.31490
#
# Static dielectric constant tensor:
#      x y z
#    x 1.894800 0.021850 0.005800 
#    y 0.021850 1.903680 0.039640 
#    z 0.005800 0.039640 1.943800 
# 
# From -- ./inp_files/107647.got.cif
#   From: 2010.05.17/outbox.cif.g08.bks.cpg/sg2_54_cif.got.tgz:107647.got - 2010.06.03 11:33:40.
