data_PCOD9010800
_publ_section_title
;
Structure prediction by ZEFSAII (Michael W. Deem and Ramdas Pophale) SiO2 
 PCOD9010800
Probable space group: P -1
;
_chemical_formula_sum "Si O2"
_cell_formula_units_Z 14
_cell_length_a 21.681006
_cell_length_b 8.583586
_cell_length_c 10.075767
_cell_angle_alpha 63.845082
_cell_angle_beta 25.073650
_cell_angle_gamma 51.601467
_cell_volume 579.379145
_symmetry_space_group_name_H-M "P -1"
_symmetry_group_IT_number 2
_symmetry_cell_setting 'triclinic'
loop_
_space_group_symop_operation_xyz
x,y,z
-x,-y,-z
loop_
_atom_site_type_symbol
_atom_site_label
_atom_site_fract_x
_atom_site_fract_y
_atom_site_fract_z
Si Si1 0.675403 0.399052 0.787505
Si Si2 0.776280 0.866762 0.655667
Si Si3 0.064507 0.496722 0.723912
Si Si4 0.175216 0.821018 0.653587
Si Si5 0.442952 0.448080 0.435379
Si Si6 0.994086 0.806237 0.524548
Si Si7 0.376997 0.362315 0.863248
O O1 0.736316 0.551079 0.642190
O O2 0.849496 0.220501 0.433290
O O3 0.500000 0.500000 0.000000
O O4 0.618224 0.318007 0.051302
O O5 0.908218 0.686532 0.357885
O O6 0.873000 0.849898 0.613496
O O7 0.707984 0.086791 0.633276
O O8 0.633252 0.820629 0.988662
O O9 0.952507 0.709951 0.769131
O O10 0.000000 0.500000 0.000000
O O11 0.272648 0.596817 0.620093
O O12 0.000000 0.000000 0.000000
O O13 0.410401 0.330558 0.653198
O O14 0.468649 0.618765 0.390623
O O15 0.189582 0.595547 0.170817
O O16 0.000000 0.000000 0.500000
#
# Coordination Sequence:
#
# PCOD9010800 Si02
#       7
#     2   2   2   2   2   2   2
#     4  10  21  40  64  92 131 176 213 272 333 399
#     4  11  23  39  65  99 133 170 223 283 326 392
#     4  11  22  40  65  98 135 172 224 277 336 396
#     4  11  23  39  65  97 130 171 226 265 331 398
#     4  10  21  41  66  88 129 180 214 265 337 400
#     4  11  23  41  68  96 134 173 222 276 334 400
#     4  10  21  40  65  90 129 173 222 264 339 392
#
# _framework density 24.163798
#
# number of rings (size 3 to 8) (size 9 to 14) (size 15 to 20)
#    0.000    1.429    2.857    4.286    0.000    5.143 
#    0.000    0.714    0.000    0.000    0.000    0.000 
#    0.000    0.000    0.000    0.000    0.000    0.000 
#
# Total GULP energy -77977.892990 kJ/mol
# GULP energy per Si atom -5569.849499 kJ/mol
# Density = 2.410880 g / cm^3
# Si number density = 24.163798 Si / 1000 Ang^3
#
#
#
# Elastic Constant Matrix: (Units=GPa)
#
#
# Indices 1 2 3 4 5 6 
#
# 1 110.6802 9.7214 33.3398 0.8409 29.0232 8.7856
# 2 9.7214 71.6580 18.2577 -13.1150 20.9678 17.4312
# 3 33.3398 18.2577 143.1000 -10.2401 44.3774 -1.2838
# 4 0.8409 -13.1150 -10.2401 42.7512 0.8832 5.8327
# 5 29.0232 20.9678 44.3774 0.8832 57.3119 -5.5604
# 6 8.7856 17.4312 -1.2838 5.8327 -5.5604 32.6660
#
#
#
# Elastic Compliance Matrix: (Units=1/GPa)
#
#
# Indices 1 2 3 4 5 6 
#
# 1 0.011187 0.002047 -0.000900 0.001057 -0.006256 -0.005390
# 2 0.002047 0.022576 0.000785 0.009530 -0.011627 -0.016248
# 3 -0.000900 0.000785 0.009611 0.002932 -0.007473 -0.001595
# 4 0.001057 0.009530 0.002932 0.028759 -0.007874 -0.011730
# 5 -0.006256 -0.011627 -0.007473 -0.007874 0.032183 0.014477
# 6 -0.005390 -0.016248 -0.001595 -0.011730 0.014477 0.045229
#
#
# Mechanical properties :
#
#
# Convention : Reuss Voigt Hill
#
# Bulk Modulus (GPa) = 21.17001 49.78621 35.47811
# Shear Modulus (GPa) = 30.97370 44.15379 37.56374
#
# Velocity S-wave (km/s) = 3.58414 4.27930 3.94705
# Velocity P-wave (km/s) = 5.09000 6.71304 5.95705
#
# Compressibility (1/GPa) = 0.04723663
#
# Stress axis : x y z
#
# Youngs Moduli (GPa) = 89.39161 44.29411 104.05104
#
# Poissons Ratio (x) = -0.09067 0.09365
# Poissons Ratio (y) = -0.18298 -0.08164
# Poissons Ratio (z) = 0.08046 -0.03475
#
# Static dielectric constant tensor:
#      x y z
#    x 2.113960 0.058250 0.033010 
#    y 0.058250 1.996490 0.007070 
#    z 0.033010 0.007070 1.997670 
# 
# From -- ./inp_files/342598.got.cif
#   From: 2010.05.17/outbox.cif.g08.bks.cpg/sg2_172_cif.got.tgz:342598.got - 2010.06.03 11:33:40.
