data_PCOD9010798
_publ_section_title
;
Structure prediction by ZEFSAII (Michael W. Deem and Ramdas Pophale) SiO2 
 PCOD9010798
Probable space group: P -1
;
_chemical_formula_sum "Si O2"
_cell_formula_units_Z 14
_cell_length_a 8.406020
_cell_length_b 7.844658
_cell_length_c 20.022768
_cell_angle_alpha 148.932964
_cell_angle_beta 59.478203
_cell_angle_gamma 124.240044
_cell_volume 562.226461
_symmetry_space_group_name_H-M "P -1"
_symmetry_group_IT_number 2
_symmetry_cell_setting 'triclinic'
loop_
_space_group_symop_operation_xyz
x,y,z
-x,-y,-z
loop_
_atom_site_type_symbol
_atom_site_label
_atom_site_fract_x
_atom_site_fract_y
_atom_site_fract_z
Si Si1 0.768119 0.066729 0.560631
Si Si2 0.009464 0.240502 0.178039
Si Si3 0.508708 0.474064 0.688961
Si Si4 0.691448 0.107315 0.952389
Si Si5 0.926544 0.769327 0.298207
Si Si6 0.393423 0.270438 0.883978
Si Si7 0.331410 0.167374 0.353051
O O1 0.599262 0.188438 0.602408
O O2 0.706682 0.813625 0.552970
O O3 0.902038 0.440878 0.683651
O O4 0.872765 0.914585 0.429497
O O5 0.015979 0.447145 0.177121
O O6 0.783787 0.057294 0.171327
O O7 0.134598 0.979003 0.075024
O O8 0.289987 0.373763 0.730612
O O9 0.631300 0.846853 0.815573
O O10 0.539881 0.538484 0.624121
O O11 0.708783 0.493493 0.057083
O O12 0.500000 0.000000 0.000000
O O13 0.114267 0.063397 0.332544
O O14 0.558104 0.129628 0.768904
O O15 0.500000 0.500000 0.000000
#
# Coordination Sequence:
#
# PCOD9010798 Si02
#       7
#     2   2   2   2   2   2   2
#     4  10  24  45  67  98 136 171 228 277 333 401
#     4  10  21  40  64  92 131 170 217 276 322 396
#     4  11  23  45  65 101 136 167 231 279 322 413
#     4  11  23  42  65  95 134 174 225 275 334 397
#     4  11  22  45  68  97 135 175 221 282 334 392
#     4  12  22  41  64  94 132 174 221 273 329 395
#     4  11  23  43  67  95 136 175 222 271 340 395
#
# _framework density 24.901
#
# number of rings (size 3 to 8) (size 9 to 14) (size 15 to 20)
#    0.000    1.143    2.857    5.143    0.000    2.286 
#   12.857    5.000    0.000    0.000    0.000    0.000 
#    0.000    0.000    0.000    0.000    0.000    0.000 
#
# Total GULP energy -78140.788165 kJ/mol
# GULP energy per Si atom -5581.484869 kJ/mol
# Density = 2.484432 g / cm^3
# Si number density = 24.901000 Si / 1000 Ang^3
#
#
#
# Elastic Constant Matrix: (Units=GPa)
#
#
# Indices 1 2 3 4 5 6 
#
# 1 141.5228 24.3913 28.9213 -2.5428 -27.8009 25.9236
# 2 24.3913 87.9689 18.2616 -4.3892 0.5592 17.1268
# 3 28.9213 18.2616 59.4308 -1.8753 -10.4756 -8.5665
# 4 -2.5428 -4.3892 -1.8753 37.8975 -3.1453 -8.4069
# 5 -27.8009 0.5592 -10.4756 -3.1453 62.0767 -2.4489
# 6 25.9236 17.1268 -8.5665 -8.4069 -2.4489 45.4941
#
#
#
# Elastic Compliance Matrix: (Units=1/GPa)
#
#
# Indices 1 2 3 4 5 6 
#
# 1 0.010013 -0.000533 -0.005072 -0.000789 0.003340 -0.006426
# 2 -0.000533 0.013724 -0.005072 -0.000132 -0.001459 -0.005921
# 3 -0.005072 -0.005072 0.022696 0.002511 0.002112 0.009651
# 4 -0.000789 -0.000132 0.002511 0.027970 0.001735 0.006234
# 5 0.003340 -0.001459 0.002112 0.001735 0.018076 0.000337
# 6 -0.006426 -0.005921 0.009651 0.006234 0.000337 0.030859
#
#
# Mechanical properties :
#
#
# Convention : Reuss Voigt Hill
#
# Bulk Modulus (GPa) = 39.87409 48.00786 43.94098
# Shear Modulus (GPa) = 32.66893 43.58354 38.12624
#
# Velocity S-wave (km/s) = 3.62602 4.18816 3.91719
# Velocity P-wave (km/s) = 5.79469 6.53521 6.17606
#
# Compressibility (1/GPa) = 0.02507894
#
# Stress axis : x y z
#
# Youngs Moduli (GPa) = 99.86698 72.86599 44.06157
#
# Poissons Ratio (x) = 0.03884 0.22346
# Poissons Ratio (y) = 0.05324 0.22349
# Poissons Ratio (z) = 0.50648 0.36959
#
# Static dielectric constant tensor:
#      x y z
#    x 2.152540 -0.023110 0.080750 
#    y -0.023110 2.129790 0.140010 
#    z 0.080750 0.140010 2.073830 
# 
# From -- ./inp_files/382645.got.cif
#   From: 2010.05.17/outbox.cif.g08.bks.cpg/sg2_192_cif.got.tgz:382645.got - 2010.06.03 11:33:40.
