data_PCOD9010221
_publ_section_title
;
Structure prediction by ZEFSAII (Michael W. Deem and Ramdas Pophale) SiO2 
 PCOD9010221
Probable space group: P -1
;
_chemical_formula_sum "Si O2"
_cell_formula_units_Z 14
_cell_length_a 9.814231
_cell_length_b 9.054481
_cell_length_c 10.438329
_cell_angle_alpha 76.991086
_cell_angle_beta 116.605761
_cell_angle_gamma 136.137461
_cell_volume 567.481632
_symmetry_space_group_name_H-M "P -1"
_symmetry_group_IT_number 2
_symmetry_cell_setting 'triclinic'
loop_
_space_group_symop_operation_xyz
x,y,z
-x,-y,-z
loop_
_atom_site_type_symbol
_atom_site_label
_atom_site_fract_x
_atom_site_fract_y
_atom_site_fract_z
Si Si1 0.294961 0.560092 0.675936
Si Si2 0.731113 0.950548 0.452647
Si Si3 0.393381 0.789446 0.912200
Si Si4 0.079869 0.497815 0.169806
Si Si5 0.208354 0.744059 0.403626
Si Si6 0.593687 0.709190 0.195833
Si Si7 0.045912 0.161998 0.314437
O O1 0.441459 0.767975 0.792668
O O2 0.267823 0.625474 0.516906
O O3 0.387726 0.455918 0.740223
O O4 0.044606 0.383815 0.655210
O O5 0.673397 0.047892 0.499840
O O6 0.951019 0.134524 0.423206
O O7 0.573116 0.786130 0.305374
O O8 0.779586 0.843169 0.584500
O O9 0.149535 0.674674 0.818290
O O10 0.422866 0.657861 0.035061
O O11 0.500000 0.000000 0.000000
O O12 0.218040 0.719402 0.261512
O O13 0.143375 0.367681 0.234269
O O14 0.000000 0.500000 0.000000
O O15 0.832682 0.936090 0.203764
#
# Coordination Sequence:
#
# PCOD9010221 Si02
#       7
#     2   2   2   2   2   2   2
#     4  10  18  28  52  84 105 128 171 228 261 300
#     4   9  15  29  56  84 100 127 175 230 254 293
#     4  11  20  33  53  79 107 138 174 218 263 303
#     4  11  23  36  51  74 110 146 173 209 260 320
#     4  10  17  30  51  76 104 133 180 214 258 302
#     4  10  17  29  50  84 109 127 160 224 276 299
#     4   9  16  30  52  79 104 131 169 216 263 294
#
# _framework density 24.670400999999998
#
# number of rings (size 3 to 8) (size 9 to 14) (size 15 to 20)
#    0.857    1.143    2.857    4.714    0.000    0.000 
#    0.000    0.714    0.000    6.857    0.000    0.000 
#    0.000    0.000    0.000    0.000    0.000    0.000 
#
# Total GULP energy -78093.668407 kJ/mol
# GULP energy per Si atom -5578.119172 kJ/mol
# Density = 2.461425 g / cm^3
# Si number density = 24.670401 Si / 1000 Ang^3
#
#
#
# Elastic Constant Matrix: (Units=GPa)
#
#
# Indices 1 2 3 4 5 6 
#
# 1 61.1654 32.3948 20.1632 -3.1764 3.0771 -24.9869
# 2 32.3948 115.5921 52.7554 -4.2496 -13.6751 -27.4348
# 3 20.1632 52.7554 147.3648 -15.3770 -3.3264 -40.6473
# 4 -3.1764 -4.2496 -15.3770 58.4066 -16.8644 9.6851
# 5 3.0771 -13.6751 -3.3264 -16.8644 33.6432 10.7402
# 6 -24.9869 -27.4348 -40.6473 9.6851 10.7402 37.1515
#
#
#
# Elastic Compliance Matrix: (Units=1/GPa)
#
#
# Indices 1 2 3 4 5 6 
#
# 1 0.029697 -0.006227 0.004509 -0.007033 -0.016960 0.027044
# 2 -0.006227 0.012624 -0.003685 0.001724 0.006601 -0.001254
# 3 0.004509 -0.003685 0.011292 -0.001276 -0.006151 0.014777
# 4 -0.007033 0.001724 -0.001276 0.024811 0.019025 -0.016821
# 5 -0.016960 0.006601 -0.006151 0.019025 0.053655 -0.033733
# 6 0.027044 -0.001254 0.014777 -0.016821 -0.033733 0.074484
#
#
# Mechanical properties :
#
#
# Convention : Reuss Voigt Hill
#
# Bulk Modulus (GPa) = 23.36009 59.41656 41.38832
# Shear Modulus (GPa) = 21.58551 40.42752 31.00651
#
# Velocity S-wave (km/s) = 2.96117 4.05248 3.54903
# Velocity P-wave (km/s) = 4.60226 6.78478 5.79716
#
# Compressibility (1/GPa) = 0.04280806
#
# Stress axis : x y z
#
# Youngs Moduli (GPa) = 33.67396 79.21200 88.55960
#
# Poissons Ratio (x) = 0.49321 -0.39929
# Poissons Ratio (y) = 0.20967 0.32630
# Poissons Ratio (z) = -0.15183 0.29186
#
# Static dielectric constant tensor:
#      x y z
#    x 2.064390 0.058750 -0.051100 
#    y 0.058750 2.060200 0.047730 
#    z -0.051100 0.047730 1.938990 
# 
# From -- ./inp_files/417207.got.cif
#   From: 2010.05.17/outbox.cif.g08.bks.cpg/sg2_209_cif.got.tgz:417207.got - 2010.06.03 11:33:40.
