data_PCOD9010180
_publ_section_title
;
Structure prediction by ZEFSAII (Michael W. Deem and Ramdas Pophale) SiO2 
 PCOD9010180
Probable space group: P -1
;
_chemical_formula_sum "Si O2"
_cell_formula_units_Z 15
_cell_length_a 11.700416
_cell_length_b 8.173784
_cell_length_c 9.770167
_cell_angle_alpha 91.727250
_cell_angle_beta 145.307112
_cell_angle_gamma 94.405486
_cell_volume 523.044891
_symmetry_space_group_name_H-M "P -1"
_symmetry_group_IT_number 2
_symmetry_cell_setting 'triclinic'
loop_
_space_group_symop_operation_xyz
x,y,z
-x,-y,-z
loop_
_atom_site_type_symbol
_atom_site_label
_atom_site_fract_x
_atom_site_fract_y
_atom_site_fract_z
Si Si1 0.567190 0.640743 0.359954
Si Si2 0.191212 0.815916 0.011350
Si Si3 0.824110 0.610145 0.091741
Si Si4 0.695394 0.109138 0.360256
Si Si5 0.285877 0.051340 0.336575
Si Si6 0.000000 0.500000 0.000000
Si Si7 0.272293 0.523231 0.722001
Si Si8 0.212617 0.038928 0.822773
O O1 0.408293 0.764205 0.179154
O O2 0.732872 0.604631 0.413444
O O3 0.686992 0.748340 0.605657
O O4 0.402967 0.465422 0.200865
O O5 0.166115 0.976100 0.083167
O O6 0.105681 0.665329 0.021999
O O7 0.108728 0.870540 0.789955
O O8 0.845393 0.504405 0.249082
O O9 0.848252 0.792357 0.182752
O O10 0.981936 0.605244 0.126285
O O11 0.756716 0.050423 0.567371
O O12 0.737663 0.298759 0.350019
O O13 0.782950 0.995020 0.333090
O O14 0.449680 0.068383 0.105429
O O15 0.500000 0.000000 0.500000
O O16 0.500000 0.500000 0.000000
#
# Coordination Sequence:
#
# PCOD9010180 Si02
#       8
#     2   2   2   2   2   1   2   2
#     4   9  16  29  49  75 107 135 163 214 273 317
#     4  10  21  37  54  77 108 149 181 222 263 324
#     4  10  20  32  53  81 108 142 181 224 260 315
#     4  11  19  29  53  86 117 139 166 226 274 331
#     4  10  19  32  50  78 117 145 166 217 284 328
#     4  10  22  40  56  70 106 150 190 222 258 308
#     4  10  17  29  50  81 113 138 176 221 271 315
#     4  11  19  31  56  84 106 141 184 217 268 319
#
# _framework density 28.678225999999999
#
# number of rings (size 3 to 8) (size 9 to 14) (size 15 to 20)
#    0.000    1.867    5.333    3.200    1.867    0.533 
#    0.000    7.333    0.000    6.400    0.000    0.000 
#    0.000    0.000    0.000    0.000    0.000    0.000 
#
# Total GULP energy -83591.250553 kJ/mol
# GULP energy per Si atom -5572.750037 kJ/mol
# Density = 2.861295 g / cm^3
# Si number density = 28.678226 Si / 1000 Ang^3
#
#
#
# Elastic Constant Matrix: (Units=GPa)
#
#
# Indices 1 2 3 4 5 6 
#
# 1 179.9687 81.3099 48.5921 -19.0253 -50.9160 -16.9026
# 2 81.3099 172.2801 69.3527 11.0497 -36.3217 12.7364
# 3 48.5921 69.3527 101.7215 -9.6053 -26.2770 -2.1812
# 4 -19.0253 11.0497 -9.6053 66.1164 -0.0577 -19.1531
# 5 -50.9160 -36.3217 -26.2770 -0.0577 61.6417 8.2878
# 6 -16.9026 12.7364 -2.1812 -19.1531 8.2878 68.6774
#
#
#
# Elastic Compliance Matrix: (Units=1/GPa)
#
#
# Indices 1 2 3 4 5 6 
#
# 1 0.009672 -0.004052 -0.000033 0.004557 0.005082 0.003789
# 2 -0.004052 0.011051 -0.005861 -0.005272 0.001315 -0.004862
# 3 -0.000033 -0.005861 0.014916 0.003807 0.002571 0.002304
# 4 0.004557 -0.005272 0.003807 0.020094 0.001268 0.007671
# 5 0.005082 0.001315 0.002571 0.001268 0.022463 -0.001269
# 6 0.003789 -0.004862 0.002304 0.007671 -0.001269 0.018761
#
#
# Mechanical properties :
#
#
# Convention : Reuss Voigt Hill
#
# Bulk Modulus (GPa) = 63.51023 94.71999 79.11511
# Shear Modulus (GPa) = 40.95087 56.26814 48.60951
#
# Velocity S-wave (km/s) = 3.78291 4.43431 4.12150
# Velocity P-wave (km/s) = 6.42452 7.70180 7.09197
#
# Compressibility (1/GPa) = 0.01574549
#
# Stress axis : x y z
#
# Youngs Moduli (GPa) = 103.39533 90.48655 67.04329
#
# Poissons Ratio (x) = 0.36669 0.00220
# Poissons Ratio (y) = 0.41900 0.39296
# Poissons Ratio (z) = 0.00340 0.53037
#
# Static dielectric constant tensor:
#      x y z
#    x 2.384600 0.109980 0.281770 
#    y 0.109980 2.251720 0.209760 
#    z 0.281770 0.209760 2.388420 
# 
# From -- ./inp_files/239268.got.cif
#   From: 2010.05.17/outbox.cif.g08.bks.cpg/sg2_120_cif.got.tgz:239268.got - 2010.06.03 11:33:40.
