data_PCOD9010416
_publ_section_title
;
Structure prediction by ZEFSAII (Michael W. Deem and Ramdas Pophale) SiO2 
 PCOD9010416
Probable space group: P -1
;
_chemical_formula_sum "Si O2"
_cell_formula_units_Z 16
_cell_length_a 29.318580
_cell_length_b 11.566423
_cell_length_c 5.310152
_cell_angle_alpha 96.622806
_cell_angle_beta 81.547137
_cell_angle_gamma 156.558883
_cell_volume 707.687525
_symmetry_space_group_name_H-M "P -1"
_symmetry_group_IT_number 2
_symmetry_cell_setting 'triclinic'
loop_
_space_group_symop_operation_xyz
x,y,z
-x,-y,-z
loop_
_atom_site_type_symbol
_atom_site_label
_atom_site_fract_x
_atom_site_fract_y
_atom_site_fract_z
Si Si1 0.149271 0.796768 0.724727
Si Si2 0.083280 0.301197 0.004174
Si Si3 0.407591 0.236618 0.315081
Si Si4 0.369022 0.340203 0.993018
Si Si5 0.769406 0.367707 0.535497
Si Si6 0.570167 0.042096 0.472366
Si Si7 0.479147 0.810356 0.990066
Si Si8 0.028936 0.423871 0.237436
O O1 0.101360 0.607018 0.484806
O O2 0.091817 0.787601 0.696255
O O3 0.283468 0.116500 0.773069
O O4 0.094697 0.631612 0.995812
O O5 0.145078 0.455482 0.722318
O O6 0.173916 0.494514 0.203949
O O7 0.015505 0.259949 0.129593
O O8 0.000000 0.000000 0.000000
O O9 0.500000 0.500000 0.500000
O O10 0.495330 0.373405 0.089183
O O11 0.321095 0.948011 0.449140
O O12 0.342746 0.188458 0.200068
O O13 0.367557 0.476757 0.082733
O O14 0.699738 0.327132 0.532758
O O15 0.498421 0.813093 0.690893
O O16 0.500000 0.000000 0.500000
O O17 0.568337 0.986673 0.182182
O O18 0.500000 0.000000 0.000000
#
# Coordination Sequence:
#
# PCOD9010416 Si02
#       8
#     2   2   2   2   2   2   2   2
#     4  10  23  43  73  97 133 184 228 308 350 413
#     4  12  28  48  74 103 141 185 250 298 357 434
#     4  11  26  39  67 107 146 182 231 282 346 448
#     4  11  24  40  64 107 144 177 241 277 356 428
#     4  12  25  46  73 100 143 193 228 296 370 410
#     4  10  21  41  63  96 132 187 229 267 339 425
#     4  10  21  40  63  89 145 184 223 275 330 418
#     4  10  23  47  69  99 133 176 245 293 367 402
#
# _framework density 22.608848999999999
#
# number of rings (size 3 to 8) (size 9 to 14) (size 15 to 20)
#    0.000    1.250    1.250    3.375    8.750    0.000 
#    9.000    0.000    0.000    0.000    0.000    0.000 
#    0.000    0.000    0.000    0.000    0.000    0.000 
#
# Total GULP energy -89144.843968 kJ/mol
# GULP energy per Si atom -5571.552748 kJ/mol
# Density = 2.255739 g / cm^3
# Si number density = 22.608849 Si / 1000 Ang^3
#
#
#
# Elastic Constant Matrix: (Units=GPa)
#
#
# Indices 1 2 3 4 5 6 
#
# 1 130.3491 47.3662 17.8024 0.9004 3.7085 -15.1485
# 2 47.3662 109.9915 34.4020 3.3673 4.6161 -19.2684
# 3 17.8024 34.4020 123.7540 -2.6519 24.9523 -6.0222
# 4 0.9004 3.3673 -2.6519 34.5401 5.2898 2.2016
# 5 3.7085 4.6161 24.9523 5.2898 35.2597 2.9406
# 6 -15.1485 -19.2684 -6.0222 2.2016 2.9406 29.0291
#
#
#
# Elastic Compliance Matrix: (Units=1/GPa)
#
#
# Indices 1 2 3 4 5 6 
#
# 1 0.009268 -0.003481 -0.000107 0.000027 -0.000662 0.002569
# 2 -0.003481 0.012569 -0.002840 -0.001813 0.000500 0.006024
# 3 -0.000107 -0.002840 0.010467 0.002167 -0.007418 0.000818
# 4 0.000027 -0.001813 0.002167 0.030316 -0.005641 -0.002467
# 5 -0.000662 0.000500 -0.007418 -0.005641 0.034849 -0.004655
# 6 0.002569 0.006024 0.000818 -0.002467 -0.004655 0.040616
#
#
# Mechanical properties :
#
#
# Convention : Reuss Voigt Hill
#
# Bulk Modulus (GPa) = 51.41459 62.58177 56.99818
# Shear Modulus (GPa) = 31.76182 37.40071 34.58126
#
# Velocity S-wave (km/s) = 3.75219 4.07166 3.91518
# Velocity P-wave (km/s) = 6.44687 7.06009 6.76044
#
# Compressibility (1/GPa) = 0.01944973
#
# Stress axis : x y z
#
# Youngs Moduli (GPa) = 107.89381 79.56339 95.53723
#
# Poissons Ratio (x) = 0.27696 0.01018
# Poissons Ratio (y) = 0.37558 0.27129
# Poissons Ratio (z) = 0.01149 0.22593
#
# Static dielectric constant tensor:
#      x y z
#    x 1.770060 0.066860 0.027380 
#    y 0.066860 1.820410 -0.051610 
#    z 0.027380 -0.051610 1.872190 
# 
# From -- ./inp_files/128480.got.cif
#   From: 2010.05.17/outbox.cif.g08.bks.cpg/sg2_65_cif.got.tgz:128480.got - 2010.06.03 11:33:40.
