data_PCOD9010109
_publ_section_title
;
Structure prediction by ZEFSAII (Michael W. Deem and Ramdas Pophale) SiO2 
 PCOD9010109
Probable space group: P -1
;
_chemical_formula_sum "Si O2"
_cell_formula_units_Z 13
_cell_length_a 9.096039
_cell_length_b 7.828079
_cell_length_c 12.857840
_cell_angle_alpha 99.950219
_cell_angle_beta 130.223327
_cell_angle_gamma 51.653688
_cell_volume 507.003335
_symmetry_space_group_name_H-M "P -1"
_symmetry_group_IT_number 2
_symmetry_cell_setting 'triclinic'
loop_
_space_group_symop_operation_xyz
x,y,z
-x,-y,-z
loop_
_atom_site_type_symbol
_atom_site_label
_atom_site_fract_x
_atom_site_fract_y
_atom_site_fract_z
Si Si1 0.116122 0.430777 0.798074
Si Si2 0.703107 0.982621 0.273625
Si Si3 0.591152 0.490578 0.809662
Si Si4 0.500000 0.500000 0.000000
Si Si5 0.857729 0.782849 0.886718
Si Si6 0.162451 0.189971 0.461287
Si Si7 0.663011 0.136808 0.672586
O O1 0.884199 0.620273 0.791417
O O2 0.041043 0.566691 0.668021
O O3 0.166426 0.198552 0.780711
O O4 0.358059 0.396276 0.947045
O O5 0.628997 0.227581 0.261245
O O6 0.415905 0.069040 0.165387
O O7 0.871425 0.840607 0.438668
O O8 0.573634 0.380678 0.688780
O O9 0.545644 0.419050 0.889833
O O10 0.890049 0.375823 0.942328
O O11 0.860325 0.954884 0.834859
O O12 0.422034 0.150807 0.572859
O O13 0.204309 0.992155 0.389383
#
# Coordination Sequence:
#
# PCOD9010109 Si02
#       7
#     2   2   2   1   2   2   2
#     4  10  21  40  62  86 119 156 196 240 290 350
#     4  11  22  37  61  90 122 156 192 242 296 347
#     4  11  22  37  59  89 121 154 196 247 295 343
#     4  10  22  38  58  84 114 152 198 240 286 348
#     4   9  20  38  60  85 114 158 199 237 292 347
#     4   9  19  37  60  84 115 159 197 234 288 350
#     4   9  18  36  61  84 113 155 201 238 285 353
#
# _framework density 25.640854999999998
#
# number of rings (size 3 to 8) (size 9 to 14) (size 15 to 20)
#    0.000    2.154    0.000    4.154    0.000    5.538 
#    0.000    9.231    0.000    0.000    0.000    0.000 
#    0.000    0.000    0.000    0.000    0.000    0.000 
#
# Total GULP energy -72463.806320 kJ/mol
# GULP energy per Si atom -5574.138948 kJ/mol
# Density = 2.558250 g / cm^3
# Si number density = 25.640855 Si / 1000 Ang^3
#
#
#
# Elastic Constant Matrix: (Units=GPa)
#
#
# Indices 1 2 3 4 5 6 
#
# 1 21.6691 -12.9366 8.8580 -1.8125 -3.8863 -3.6238
# 2 -12.9366 177.6811 39.5251 33.1838 0.9701 0.9768
# 3 8.8580 39.5251 94.4236 4.9861 4.7240 6.6280
# 4 -1.8125 33.1838 4.9861 39.8039 -0.9299 -6.0975
# 5 -3.8863 0.9701 4.7240 -0.9299 20.3264 3.4693
# 6 -3.6238 0.9768 6.6280 -6.0975 3.4693 15.3894
#
#
#
# Elastic Compliance Matrix: (Units=1/GPa)
#
#
# Indices 1 2 3 4 5 6 
#
# 1 0.058318 0.005965 -0.009682 0.001557 0.010494 0.015775
# 2 0.005965 0.007970 -0.003639 -0.005913 0.001367 -0.000185
# 3 -0.009682 -0.003639 0.013732 -0.000326 -0.003643 -0.007271
# 4 0.001557 -0.005913 -0.000326 0.032260 -0.000209 0.013712
# 5 0.010494 0.001367 -0.003643 -0.000209 0.053368 -0.008160
# 6 0.015775 -0.000185 -0.007271 0.013712 -0.008160 0.079110
#
#
# Mechanical properties :
#
#
# Convention : Reuss Voigt Hill
#
# Bulk Modulus (GPa) = 15.31212 40.51852 27.91532
# Shear Modulus (GPa) = 17.77838 32.32575 25.05207
#
# Velocity S-wave (km/s) = 2.63603 3.55450 3.12915
# Velocity P-wave (km/s) = 3.90508 5.71687 4.89552
#
# Compressibility (1/GPa) = 0.06530774
#
# Stress axis : x y z
#
# Youngs Moduli (GPa) = 17.14723 125.47507 72.82282
#
# Poissons Ratio (x) = -0.74846 0.70510
# Poissons Ratio (y) = -0.10228 0.26499
# Poissons Ratio (z) = 0.16603 0.45658
#
# Static dielectric constant tensor:
#      x y z
#    x 2.064780 0.042040 0.029720 
#    y 0.042040 2.026520 -0.032930 
#    z 0.029720 -0.032930 2.065210 
# 
# From -- ./inp_files/261173.got.cif
#   From: 2010.05.17/outbox.cif.g08.bks.cpg/sg2_131_cif.got.tgz:261173.got - 2010.06.03 11:33:40.
