data_PCOD9010621
_publ_section_title
;
Structure prediction by ZEFSAII (Michael W. Deem and Ramdas Pophale) SiO2 
 PCOD9010621
Probable space group: P -1
;
_chemical_formula_sum "Si O2"
_cell_formula_units_Z 10
_cell_length_a 5.297238
_cell_length_b 20.094728
_cell_length_c 6.777751
_cell_angle_alpha 52.528352
_cell_angle_beta 69.463146
_cell_angle_gamma 52.922080
_cell_volume 456.681415
_symmetry_space_group_name_H-M "P -1"
_symmetry_group_IT_number 2
_symmetry_cell_setting 'triclinic'
loop_
_space_group_symop_operation_xyz
x,y,z
-x,-y,-z
loop_
_atom_site_type_symbol
_atom_site_label
_atom_site_fract_x
_atom_site_fract_y
_atom_site_fract_z
Si Si1 0.165298 0.731727 0.507448
Si Si2 0.301252 0.919962 0.683496
Si Si3 0.571586 0.712566 0.811842
Si Si4 0.655494 0.564637 0.381488
Si Si5 0.269801 0.048594 0.789141
O O1 0.423220 0.652017 0.434240
O O2 0.878463 0.712006 0.646938
O O3 0.018219 0.843581 0.272175
O O4 0.339314 0.722497 0.682797
O O5 0.380874 0.810213 0.824533
O O6 0.582589 0.921397 0.487612
O O7 0.241962 0.963738 0.840660
O O8 0.000000 0.000000 0.500000
O O9 0.674902 0.616232 0.084661
O O10 0.500000 0.500000 0.500000
O O11 0.000000 0.500000 0.500000
O O12 0.500000 0.000000 0.000000
#
# Coordination Sequence:
#
# PCOD9010621 Si02
#       5
#     2   2   2   2   2
#     4  11  25  45  69 103 136 184 231 274 354 412
#     4  10  21  40  63  97 137 178 218 266 344 406
#     4  11  25  45  72  99 144 178 224 289 338 416
#     4  12  28  47  72 101 131 179 238 294 348 398
#     4  10  23  38  64  99 139 181 223 273 331 415
#
# _framework density 21.897105
#
# number of rings (size 3 to 8) (size 9 to 14) (size 15 to 20)
#    0.000    1.200    2.000    2.400    2.800   10.400 
#    0.000    0.000    0.000    0.000    0.000    0.000 
#    0.000    0.000    0.000    0.000    0.000    0.000 
#
# Total GULP energy -55927.793480 kJ/mol
# GULP energy per Si atom -5592.779348 kJ/mol
# Density = 2.184727 g / cm^3
# Si number density = 21.897105 Si / 1000 Ang^3
#
#
#
# Elastic Constant Matrix: (Units=GPa)
#
#
# Indices 1 2 3 4 5 6 
#
# 1 107.7064 40.3102 33.0950 -18.4102 23.0771 -1.6013
# 2 40.3102 152.4352 44.1350 1.3106 13.2911 -10.1550
# 3 33.0950 44.1350 106.6160 -25.7664 20.6511 6.1314
# 4 -18.4102 1.3106 -25.7664 50.8253 3.1107 -0.8319
# 5 23.0771 13.2911 20.6511 3.1107 55.4118 0.5017
# 6 -1.6013 -10.1550 6.1314 -0.8319 0.5017 45.3484
#
#
#
# Elastic Compliance Matrix: (Units=1/GPa)
#
#
# Indices 1 2 3 4 5 6 
#
# 1 0.012208 -0.002648 -0.000792 0.004359 -0.004399 0.000074
# 2 -0.002648 0.008439 -0.003644 -0.003023 0.000586 0.002227
# 3 -0.000792 -0.003644 0.013815 0.007034 -0.004317 -0.002535
# 4 0.004359 -0.003023 0.007034 0.025196 -0.005117 -0.000955
# 5 -0.004399 0.000586 -0.004317 -0.005117 0.021632 0.000226
# 6 0.000074 0.002227 -0.002535 -0.000955 0.000226 0.022876
#
#
# Mechanical properties :
#
#
# Convention : Reuss Voigt Hill
#
# Bulk Modulus (GPa) = 49.27367 66.87091 58.07229
# Shear Modulus (GPa) = 39.96911 46.93157 43.45034
#
# Velocity S-wave (km/s) = 4.27701 4.63458 4.45938
# Velocity P-wave (km/s) = 6.85139 7.69702 7.28648
#
# Compressibility (1/GPa) = 0.02029481
#
# Stress axis : x y z
#
# Youngs Moduli (GPa) = 81.91613 118.50380 72.38304
#
# Poissons Ratio (x) = 0.31379 0.05732
# Poissons Ratio (y) = 0.21691 0.26373
# Poissons Ratio (z) = 0.06487 0.43177
#
# Static dielectric constant tensor:
#      x y z
#    x 1.706840 0.034370 0.026250 
#    y 0.034370 1.815630 -0.000440 
#    z 0.026250 -0.000440 1.713030 
# 
# From -- ./inp_files/5972.got.cif
#   From: 2010.05.17/outbox.cif.g08.bks.cpg/sg2_3_cif.got.tgz:5972.got - 2010.06.03 11:33:40.
