data_PCOD9010571
_publ_section_title
;
Structure prediction by ZEFSAII (Michael W. Deem and Ramdas Pophale) SiO2 
 PCOD9010571
Probable space group: P -1
;
_chemical_formula_sum "Si O2"
_cell_formula_units_Z 14
_cell_length_a 15.038012
_cell_length_b 6.246935
_cell_length_c 22.566540
_cell_angle_alpha 115.780552
_cell_angle_beta 23.668310
_cell_angle_gamma 129.849895
_cell_volume 568.424403
_symmetry_space_group_name_H-M "P -1"
_symmetry_group_IT_number 2
_symmetry_cell_setting 'triclinic'
loop_
_space_group_symop_operation_xyz
x,y,z
-x,-y,-z
loop_
_atom_site_type_symbol
_atom_site_label
_atom_site_fract_x
_atom_site_fract_y
_atom_site_fract_z
Si Si1 0.093401 0.304090 0.902605
Si Si2 0.428148 0.393284 0.829328
Si Si3 0.658748 0.678824 0.529119
Si Si4 0.425722 0.701208 0.972464
Si Si5 0.940809 0.690314 0.478327
Si Si6 0.828404 0.340685 0.336446
Si Si7 0.876569 0.627579 0.719032
O O1 0.271378 0.348906 0.858058
O O2 0.312833 0.461013 0.730581
O O3 0.000000 0.500000 0.000000
O O4 0.804914 0.928533 0.029228
O O5 0.524074 0.696281 0.844897
O O6 0.707999 0.442732 0.641259
O O7 0.781936 0.622663 0.503980
O O8 0.759130 0.570854 0.403468
O O9 0.845220 0.047987 0.445882
O O10 0.605904 0.618442 0.884980
O O11 0.066550 0.444628 0.154026
O O12 0.500000 0.000000 0.000000
O O13 0.180991 0.659889 0.315070
O O14 0.000000 0.000000 0.500000
O O15 0.010426 0.367586 0.284874
O O16 0.500000 0.000000 0.500000
#
# Coordination Sequence:
#
# PCOD9010571 Si02
#       7
#     2   2   2   2   2   2   2
#     4  10  21  41  67 101 132 179 232 287 354 414
#     4  10  23  41  65  98 141 176 225 295 345 407
#     4  10  21  40  63  95 130 172 227 280 338 409
#     4  12  25  46  69 102 147 187 233 285 346 423
#     4  10  22  39  66  97 131 169 225 287 346 406
#     4  11  25  46  67  97 138 185 240 283 335 417
#     4  11  24  44  72  97 137 184 232 288 355 408
#
# _framework density 24.629483
#
# number of rings (size 3 to 8) (size 9 to 14) (size 15 to 20)
#    0.000    1.429    1.429    3.000    2.000    8.571 
#    5.143    0.000    0.000    0.000    0.000    0.000 
#    0.000    0.000    0.000    0.000    0.000    0.000 
#
# Total GULP energy -78082.560265 kJ/mol
# GULP energy per Si atom -5577.325733 kJ/mol
# Density = 2.457342 g / cm^3
# Si number density = 24.629483 Si / 1000 Ang^3
#
#
#
# Elastic Constant Matrix: (Units=GPa)
#
#
# Indices 1 2 3 4 5 6 
#
# 1 34.6189 -9.7176 -11.2439 4.5412 -3.3873 -2.3039
# 2 -9.7176 149.3459 60.2340 32.0116 -0.9552 1.3135
# 3 -11.2439 60.2340 153.9955 26.5279 3.2354 -6.5095
# 4 4.5412 32.0116 26.5279 53.9677 -3.7652 7.4942
# 5 -3.3873 -0.9552 3.2354 -3.7652 36.7256 -1.7141
# 6 -2.3039 1.3135 -6.5095 7.4942 -1.7141 28.4630
#
#
#
# Elastic Compliance Matrix: (Units=1/GPa)
#
#
# Indices 1 2 3 4 5 6 
#
# 1 0.031645 0.002223 0.002578 -0.005735 0.002381 0.004702
# 2 0.002223 0.008754 -0.002538 -0.004157 0.000244 0.000305
# 3 0.002578 -0.002538 0.008392 -0.003317 -0.000764 0.003072
# 4 -0.005735 -0.004157 -0.003317 0.024249 0.001800 -0.007307
# 5 0.002381 0.000244 -0.000764 0.001800 0.027763 0.001205
# 6 0.004702 0.000305 0.003072 -0.007307 0.001205 0.038199
#
#
# Mechanical properties :
#
#
# Convention : Reuss Voigt Hill
#
# Bulk Modulus (GPa) = 18.75592 46.27835 32.51714
# Shear Modulus (GPa) = 32.84098 43.74378 38.29238
#
# Velocity S-wave (km/s) = 3.65554 4.21892 3.94729
# Velocity P-wave (km/s) = 5.04470 6.52403 5.83147
#
# Compressibility (1/GPa) = 0.05331649
#
# Stress axis : x y z
#
# Youngs Moduli (GPa) = 31.60020 114.23284 119.16368
#
# Poissons Ratio (x) = -0.25389 -0.30720
# Poissons Ratio (y) = -0.07023 0.30242
# Poissons Ratio (z) = -0.08146 0.28991
#
# Static dielectric constant tensor:
#      x y z
#    x 2.002180 0.102880 0.055000 
#    y 0.102880 2.181640 -0.007090 
#    z 0.055000 -0.007090 2.044810 
# 
# From -- ./inp_files/620114.got.cif
#   From: 2010.05.17/outbox.cif.g08.bks.cpg/sg2_311_cif.got.tgz:620114.got - 2010.06.03 11:33:40.
