data_PCOD9010113
_publ_section_title
;
Structure prediction by ZEFSAII (Michael W. Deem and Ramdas Pophale) SiO2 
 PCOD9010113
Probable space group: P -1
;
_chemical_formula_sum "Si O2"
_cell_formula_units_Z 16
_cell_length_a 15.035894
_cell_length_b 9.360545
_cell_length_c 12.172148
_cell_angle_alpha 36.354356
_cell_angle_beta 133.518834
_cell_angle_gamma 119.265519
_cell_volume 727.748145
_symmetry_space_group_name_H-M "P -1"
_symmetry_group_IT_number 2
_symmetry_cell_setting 'triclinic'
loop_
_space_group_symop_operation_xyz
x,y,z
-x,-y,-z
loop_
_atom_site_type_symbol
_atom_site_label
_atom_site_fract_x
_atom_site_fract_y
_atom_site_fract_z
Si Si1 0.815687 0.734071 0.178318
Si Si2 0.464533 0.352003 0.740964
Si Si3 0.288797 0.014648 0.844837
Si Si4 0.836907 0.223317 0.297442
Si Si5 0.790971 0.750525 0.903136
Si Si6 0.461726 0.152334 0.484400
Si Si7 0.553644 0.282396 0.100946
Si Si8 0.909082 0.172575 0.624859
O O1 0.760289 0.880187 0.146018
O O2 0.828766 0.444116 0.393568
O O3 0.954389 0.794712 0.241064
O O4 0.749028 0.797388 0.965549
O O5 0.349057 0.215860 0.699329
O O6 0.459306 0.638670 0.543223
O O7 0.474786 0.316799 0.902709
O O8 0.594636 0.201456 0.903218
O O9 0.181047 0.926933 0.733901
O O10 0.695079 0.282850 0.185604
O O11 0.911195 0.104189 0.539312
O O12 0.876774 0.486245 0.143693
O O13 0.676369 0.720425 0.745205
O O14 0.852247 0.973358 0.770231
O O15 0.500000 0.000000 0.500000
O O16 0.454704 0.966833 0.690856
O O17 0.500000 0.500000 0.000000
#
# Coordination Sequence:
#
# PCOD9010113 Si02
#       8
#     2   2   2   2   2   2   2   2
#     4  10  24  41  65  91 122 158 204 258 313 359
#     4  10  23  40  57  87 130 164 200 249 299 368
#     4  10  22  42  60  85 132 169 195 249 312 360
#     4  10  21  40  62  86 123 163 201 253 300 368
#     4  11  21  39  64  90 122 154 206 261 298 358
#     4  12  22  33  63  95 117 159 208 243 304 363
#     4  11  20  35  58  89 121 156 199 249 298 353
#     4  10  22  42  66  93 116 156 210 263 304 356
#
# _framework density 21.985628999999999
#
# number of rings (size 3 to 8) (size 9 to 14) (size 15 to 20)
#    0.000    1.500    5.000    0.375    7.000    0.500 
#    0.000   11.250    0.000    0.000    0.000    0.000 
#    0.000    0.000    0.000    0.000    0.000    0.000 
#
# Total GULP energy -89436.950310 kJ/mol
# GULP energy per Si atom -5589.809394 kJ/mol
# Density = 2.193559 g / cm^3
# Si number density = 21.985629 Si / 1000 Ang^3
#
#
#
# Elastic Constant Matrix: (Units=GPa)
#
#
# Indices 1 2 3 4 5 6 
#
# 1 62.3026 34.4917 28.4435 -17.7407 -18.4557 -12.2008
# 2 34.4917 123.4552 31.8473 -16.1768 -18.8357 -8.2050
# 3 28.4435 31.8473 91.6942 -17.5207 -39.1475 4.2311
# 4 -17.7407 -16.1768 -17.5207 44.9381 11.8377 -8.8048
# 5 -18.4557 -18.8357 -39.1475 11.8377 31.7558 -6.0969
# 6 -12.2008 -8.2050 4.2311 -8.8048 -6.0969 40.4271
#
#
#
# Elastic Compliance Matrix: (Units=1/GPa)
#
#
# Indices 1 2 3 4 5 6 
#
# 1 0.026039 -0.003613 -0.001375 0.007760 0.010424 0.010531
# 2 -0.003613 0.010066 -0.001295 0.001490 0.002049 0.001722
# 3 -0.001375 -0.001295 0.023639 0.001247 0.027348 0.001244
# 4 0.007760 0.001490 0.001247 0.028539 -0.002092 0.008414
# 5 0.010424 0.002049 0.027348 -0.002092 0.075490 0.011629
# 6 0.010531 0.001722 0.001244 0.008414 0.011629 0.031720
#
#
# Mechanical properties :
#
#
# Convention : Reuss Voigt Hill
#
# Bulk Modulus (GPa) = 21.19686 51.89079 36.54382
# Shear Modulus (GPa) = 22.34302 35.60217 28.97259
#
# Velocity S-wave (km/s) = 3.19133 4.02847 3.63409
# Velocity P-wave (km/s) = 4.82096 6.72989 5.85376
#
# Compressibility (1/GPa) = 0.04717680
#
# Stress axis : x y z
#
# Youngs Moduli (GPa) = 38.40440 99.34506 42.30338
#
# Poissons Ratio (x) = 0.35893 0.05817
# Poissons Ratio (y) = 0.13875 0.05479
# Poissons Ratio (z) = 0.05281 0.12868
#
# Static dielectric constant tensor:
#      x y z
#    x 1.819490 0.021620 0.031600 
#    y 0.021620 1.895440 -0.008780 
#    z 0.031600 -0.008780 1.796580 
# 
# From -- ./inp_files/460959.got.cif
#   From: 2010.05.17/outbox.cif.g08.bks.cpg/sg2_231_cif.got.tgz:460959.got - 2010.06.03 11:33:40.
