data_PCOD9010517
_publ_section_title
;
Structure prediction by ZEFSAII (Michael W. Deem and Ramdas Pophale) SiO2 
 PCOD9010517
Probable space group: P -1
;
_chemical_formula_sum "Si O2"
_cell_formula_units_Z 16
_cell_length_a 11.322993
_cell_length_b 11.412118
_cell_length_c 6.509586
_cell_angle_alpha 90.623961
_cell_angle_beta 98.605809
_cell_angle_gamma 53.081069
_cell_volume 661.599425
_symmetry_space_group_name_H-M "P -1"
_symmetry_group_IT_number 2
_symmetry_cell_setting 'triclinic'
loop_
_space_group_symop_operation_xyz
x,y,z
-x,-y,-z
loop_
_atom_site_type_symbol
_atom_site_label
_atom_site_fract_x
_atom_site_fract_y
_atom_site_fract_z
Si Si1 0.192297 0.314282 0.378640
Si Si2 0.905540 0.388435 0.550984
Si Si3 0.448334 0.452627 0.175012
Si Si4 0.396358 0.076355 0.714792
Si Si5 0.877589 0.756934 0.031585
Si Si6 0.156534 0.964275 0.110267
Si Si7 0.457847 0.824258 0.965416
Si Si8 0.274634 0.715889 0.451278
O O1 0.213088 0.434214 0.468051
O O2 0.329899 0.150798 0.480774
O O3 0.155663 0.328449 0.131324
O O4 0.041536 0.352671 0.445587
O O5 0.843006 0.299877 0.466410
O O6 0.973452 0.336172 0.796657
O O7 0.418464 0.346492 0.056120
O O8 0.330931 0.597249 0.278305
O O9 0.584768 0.345246 0.366564
O O10 0.500000 0.500000 0.000000
O O11 0.451299 0.913379 0.769423
O O12 0.254271 0.164453 0.834545
O O13 0.503229 0.113543 0.832968
O O14 0.869717 0.880722 0.899466
O O15 0.205959 0.872424 0.333214
O O16 0.296602 0.864296 0.985368
O O17 0.000000 0.000000 0.000000
#
# Coordination Sequence:
#
# PCOD9010517 Si02
#       8
#     2   2   2   2   2   2   2   2
#     4  10  22  38  63  92 123 166 211 260 318 369
#     4  10  22  40  59  91 132 158 210 266 307 385
#     4  11  25  43  65  92 127 171 215 262 316 374
#     4   9  22  41  62  94 123 162 213 266 308 374
#     4  10  21  40  63  93 125 166 210 255 325 370
#     4  11  22  42  66  94 133 167 209 266 312 388
#     4  10  22  44  64  89 133 164 209 266 316 368
#     4  11  25  42  64  97 127 168 218 259 316 386
#
# _framework density 24.183817000000001
#
# number of rings (size 3 to 8) (size 9 to 14) (size 15 to 20)
#    0.000    1.750    2.500    0.375    5.250    2.000 
#    0.000    3.125    0.000    0.000    0.000    0.000 
#    0.000    0.000    0.000    0.000    0.000    0.000 
#
# Total GULP energy -89462.869591 kJ/mol
# GULP energy per Si atom -5591.429349 kJ/mol
# Density = 2.412877 g / cm^3
# Si number density = 24.183817 Si / 1000 Ang^3
#
#
#
# Elastic Constant Matrix: (Units=GPa)
#
#
# Indices 1 2 3 4 5 6 
#
# 1 105.0866 1.3616 13.6341 -2.5811 -5.9506 10.9193
# 2 1.3616 67.1974 2.0417 -7.5237 -8.8280 19.0838
# 3 13.6341 2.0417 54.8134 -11.3291 -6.4569 0.3685
# 4 -2.5811 -7.5237 -11.3291 32.5925 -2.2905 5.7565
# 5 -5.9506 -8.8280 -6.4569 -2.2905 28.5043 -6.7590
# 6 10.9193 19.0838 0.3685 5.7565 -6.7590 20.8355
#
#
#
# Elastic Compliance Matrix: (Units=1/GPa)
#
#
# Indices 1 2 3 4 5 6 
#
# 1 0.010720 0.002542 -0.002163 0.002198 0.000750 -0.008272
# 2 0.002542 0.023405 0.001213 0.010608 0.003041 -0.024736
# 3 -0.002163 0.001213 0.020980 0.007915 0.005104 -0.000880
# 4 0.002198 0.010608 0.007915 0.040002 0.003814 -0.020823
# 5 0.000750 0.003041 0.005104 0.003814 0.039670 0.008546
# 6 -0.008272 -0.024736 -0.000880 -0.020823 0.008546 0.083527
#
#
# Mechanical properties :
#
#
# Convention : Reuss Voigt Hill
#
# Bulk Modulus (GPa) = 17.15573 29.01912 23.08742
# Shear Modulus (GPa) = 21.31757 30.39047 25.85402
#
# Velocity S-wave (km/s) = 2.97220 3.54876 3.27320
# Velocity P-wave (km/s) = 4.34602 5.36815 4.88390
#
# Compressibility (1/GPa) = 0.05828958
#
# Stress axis : x y z
#
# Youngs Moduli (GPa) = 93.28681 42.72537 47.66531
#
# Poissons Ratio (x) = -0.10862 0.10309
# Poissons Ratio (y) = -0.23717 -0.05782
# Poissons Ratio (z) = 0.20176 -0.05182
#
# Static dielectric constant tensor:
#      x y z
#    x 1.964410 -0.009160 -0.019260 
#    y -0.009160 1.931530 0.001930 
#    z -0.019260 0.001930 1.928970 
# 
# From -- ./inp_files/69927.got.cif
#   From: 2010.05.17/outbox.cif.g08.bks.cpg/sg2_35_cif.got.tgz:69927.got - 2010.06.03 11:33:40.
