data_PCOD9010044
_publ_section_title
;
Structure prediction by ZEFSAII (Michael W. Deem and Ramdas Pophale) SiO2 
 PCOD9010044
Probable space group: P -1
;
_chemical_formula_sum "Si O2"
_cell_formula_units_Z 16
_cell_length_a 8.826768
_cell_length_b 15.542136
_cell_length_c 7.328301
_cell_angle_alpha 61.563192
_cell_angle_beta 52.150064
_cell_angle_gamma 89.782150
_cell_volume 635.003279
_symmetry_space_group_name_H-M "P -1"
_symmetry_group_IT_number 2
_symmetry_cell_setting 'triclinic'
loop_
_space_group_symop_operation_xyz
x,y,z
-x,-y,-z
loop_
_atom_site_type_symbol
_atom_site_label
_atom_site_fract_x
_atom_site_fract_y
_atom_site_fract_z
Si Si1 0.604108 0.226878 0.400931
Si Si2 0.802088 0.075399 0.587908
Si Si3 0.703138 0.586228 0.361311
Si Si4 0.928797 0.471421 0.875900
Si Si5 0.056211 0.147391 0.672882
Si Si6 0.411665 0.078052 0.389536
Si Si7 0.286716 0.390442 0.270233
Si Si8 0.162686 0.188290 0.954231
O O1 0.726966 0.165121 0.473618
O O2 0.565471 0.190740 0.252519
O O3 0.387230 0.193137 0.712836
O O4 0.739945 0.354136 0.152640
O O5 0.855448 0.094265 0.743215
O O6 0.632436 0.962023 0.746324
O O7 0.022853 0.101228 0.292569
O O8 0.500000 0.500000 0.500000
O O9 0.678873 0.633756 0.522827
O O10 0.800917 0.700475 0.076249
O O11 0.865739 0.536942 0.347991
O O12 0.875287 0.562037 0.730167
O O13 0.000000 0.500000 0.000000
O O14 0.192019 0.077426 0.625594
O O15 0.203690 0.270152 0.371611
O O16 0.021046 0.162125 0.898565
O O17 0.500000 0.000000 0.500000
O O18 0.500000 0.500000 0.000000
#
# Coordination Sequence:
#
# PCOD9010044 Si02
#       8
#     2   2   2   2   2   2   2   2
#     4  10  21  40  61  93 130 163 214 261 310 382
#     4  11  21  40  69  91 125 171 211 261 324 366
#     4  11  23  39  60  91 126 167 218 256 316 384
#     4  12  22  39  63  91 129 171 207 261 318 376
#     4  10  22  39  61  94 127 158 215 265 304 383
#     4   9  20  39  65  92 123 167 208 262 324 373
#     4  11  23  38  60  92 126 169 209 262 317 376
#     4  10  22  41  62  92 129 169 207 263 318 369
#
# _framework density 25.196722999999999
#
# number of rings (size 3 to 8) (size 9 to 14) (size 15 to 20)
#    0.000    1.500    1.250    5.250    1.750    2.000 
#    0.000    3.750    0.000    8.250    0.000    0.000 
#    0.000    0.000    0.000    0.000    0.000    0.000 
#
# Total GULP energy -89155.028383 kJ/mol
# GULP energy per Si atom -5572.189274 kJ/mol
# Density = 2.513937 g / cm^3
# Si number density = 25.196723 Si / 1000 Ang^3
#
#
#
# Elastic Constant Matrix: (Units=GPa)
#
#
# Indices 1 2 3 4 5 6 
#
# 1 176.4059 70.7295 37.2886 -1.5269 -9.8524 8.6256
# 2 70.7295 138.6311 27.4386 -35.6911 -10.7564 10.5336
# 3 37.2886 27.4386 60.2244 -11.9403 -10.7038 -0.7926
# 4 -1.5269 -35.6911 -11.9403 33.5727 0.3250 -7.5669
# 5 -9.8524 -10.7564 -10.7038 0.3250 40.8467 8.8971
# 6 8.6256 10.5336 -0.7926 -7.5669 8.8971 65.4629
#
#
#
# Elastic Compliance Matrix: (Units=1/GPa)
#
#
# Indices 1 2 3 4 5 6 
#
# 1 0.008727 -0.005329 -0.004425 -0.007099 -0.000152 -0.001146
# 2 -0.005329 0.013792 0.000299 0.014467 0.002345 -0.000160
# 3 -0.004425 0.000299 0.021585 0.008006 0.004358 0.001129
# 4 -0.007099 0.014467 0.008006 0.048544 0.002957 0.003914
# 5 -0.000152 0.002345 0.004358 0.002957 0.026971 -0.003628
# 6 -0.001146 -0.000160 0.001129 0.003914 -0.003628 0.016412
#
#
# Mechanical properties :
#
#
# Convention : Reuss Voigt Hill
#
# Bulk Modulus (GPa) = 39.69325 71.79720 55.74522
# Shear Modulus (GPa) = 30.61127 43.96342 37.28734
#
# Velocity S-wave (km/s) = 3.48931 4.18162 3.85105
# Velocity P-wave (km/s) = 5.65873 7.20216 6.47659
#
# Compressibility (1/GPa) = 0.02519320
#
# Stress axis : x y z
#
# Youngs Moduli (GPa) = 114.58916 72.50698 46.32888
#
# Poissons Ratio (x) = 0.38639 0.20500
# Poissons Ratio (y) = 0.61064 -0.01384
# Poissons Ratio (z) = 0.50705 -0.02166
#
# Static dielectric constant tensor:
#      x y z
#    x 1.892650 0.173200 -0.277160 
#    y 0.173200 1.509800 0.719540 
#    z -0.277160 0.719540 1.290630 
# 
# From -- ./inp_files/200644.got.cif
#   From: 2010.05.17/outbox.cif.g08.bks.cpg/sg2_101_cif.got.tgz:200644.got - 2010.06.03 11:33:40.
