data_PCOD9010327
_publ_section_title
;
Structure prediction by ZEFSAII (Michael W. Deem and Ramdas Pophale) SiO2 
 PCOD9010327
Probable space group: P -1
;
_chemical_formula_sum "Si O2"
_cell_formula_units_Z 16
_cell_length_a 14.047632
_cell_length_b 6.530117
_cell_length_c 13.436352
_cell_angle_alpha 68.282065
_cell_angle_beta 130.342064
_cell_angle_gamma 138.224062
_cell_volume 610.258124
_symmetry_space_group_name_H-M "P -1"
_symmetry_group_IT_number 2
_symmetry_cell_setting 'triclinic'
loop_
_space_group_symop_operation_xyz
x,y,z
-x,-y,-z
loop_
_atom_site_type_symbol
_atom_site_label
_atom_site_fract_x
_atom_site_fract_y
_atom_site_fract_z
Si Si1 0.653675 0.516500 0.078447
Si Si2 0.884460 0.578846 0.067270
Si Si3 0.230088 0.113246 0.328693
Si Si4 0.486789 0.180485 0.379408
Si Si5 0.374903 0.968463 0.751548
Si Si6 0.275818 0.618940 0.213962
Si Si7 0.168561 0.587011 0.504830
Si Si8 0.839368 0.057538 0.244653
O O1 0.739037 0.562843 0.021317
O O2 0.581576 0.193988 0.127479
O O3 0.813538 0.813208 0.202653
O O4 0.500000 0.500000 0.000000
O O5 0.855216 0.296381 0.143378
O O6 0.861979 0.542587 0.940474
O O7 0.073493 0.894965 0.180422
O O8 0.229081 0.370872 0.307215
O O9 0.422274 0.307042 0.373815
O O10 0.198822 0.869012 0.425267
O O11 0.321879 0.905166 0.246173
O O12 0.500000 0.000000 0.500000
O O13 0.670533 0.386196 0.409113
O O14 0.192742 0.675029 0.621428
O O15 0.331635 0.112503 0.769749
O O16 0.535141 0.201784 0.742274
O O17 0.004796 0.270964 0.393516
#
# Coordination Sequence:
#
# PCOD9010327 Si02
#       8
#     2   2   2   2   2   2   2   2
#     4  11  23  40  62  88 119 154 195 242 296 352
#     4  10  23  39  59  91 118 149 202 241 286 358
#     4  10  22  40  60  85 120 158 194 241 293 344
#     4   9  21  38  56  84 116 150 199 237 279 349
#     4  10  22  38  59  91 118 151 203 239 286 360
#     4  11  22  38  61  86 120 158 192 242 294 342
#     4   9  20  39  60  88 119 151 199 244 287 352
#     4  10  21  40  63  84 121 158 185 249 303 332
#
# _framework density 26.218411
#
# number of rings (size 3 to 8) (size 9 to 14) (size 15 to 20)
#    0.000    2.000    0.000    2.250    0.000   15.500 
#    0.000    6.250    0.000    0.000    0.000    0.000 
#    0.000    0.000    0.000    0.000    0.000    0.000 
#
# Total GULP energy -89502.040113 kJ/mol
# GULP energy per Si atom -5593.877507 kJ/mol
# Density = 2.615874 g / cm^3
# Si number density = 26.218411 Si / 1000 Ang^3
#
#
#
# Elastic Constant Matrix: (Units=GPa)
#
#
# Indices 1 2 3 4 5 6 
#
# 1 74.5433 15.1764 12.9107 -3.7535 -0.5058 -13.3271
# 2 15.1764 71.1841 6.3909 -5.8898 6.2980 -11.9014
# 3 12.9107 6.3909 114.0938 9.2496 3.7219 -14.4001
# 4 -3.7535 -5.8898 9.2496 33.0602 -5.2315 -1.2529
# 5 -0.5058 6.2980 3.7219 -5.2315 36.9966 7.8762
# 6 -13.3271 -11.9014 -14.4001 -1.2529 7.8762 23.1725
#
#
#
# Elastic Compliance Matrix: (Units=1/GPa)
#
#
# Indices 1 2 3 4 5 6 
#
# 1 0.015387 -0.001663 -0.000771 0.001831 -0.000853 0.007905
# 2 -0.001663 0.016543 0.000423 0.002275 -0.004579 0.009483
# 3 -0.000771 0.000423 0.010037 -0.003032 -0.002982 0.006861
# 4 0.001831 0.002275 -0.003032 0.032428 0.004402 0.000594
# 5 -0.000853 -0.004579 -0.002982 0.004402 0.031983 -0.015328
# 6 0.007905 0.009483 0.006861 0.000594 -0.015328 0.062077
#
#
# Mechanical properties :
#
#
# Convention : Reuss Voigt Hill
#
# Bulk Modulus (GPa) = 26.35256 36.53081 31.44168
# Shear Modulus (GPa) = 27.00879 33.66875 30.33877
#
# Velocity S-wave (km/s) = 3.21307 3.58741 3.40539
# Velocity P-wave (km/s) = 4.88243 5.57879 5.24218
#
# Compressibility (1/GPa) = 0.03794698
#
# Stress axis : x y z
#
# Youngs Moduli (GPa) = 64.99091 60.44748 99.62860
#
# Poissons Ratio (x) = 0.10050 0.07680
# Poissons Ratio (y) = 0.10805 -0.04217
# Poissons Ratio (z) = 0.05010 -0.02558
#
# Static dielectric constant tensor:
#      x y z
#    x 2.068830 0.025140 0.028520 
#    y 0.025140 2.041740 0.049340 
#    z 0.028520 0.049340 2.092040 
# 
# From -- ./inp_files/99562.got.cif
#   From: 2010.05.17/outbox.cif.g08.bks.cpg/sg2_50_cif.got.tgz:99562.got - 2010.06.03 11:33:40.
