data_PCOD9010834
_publ_section_title
;
Structure prediction by ZEFSAII (Michael W. Deem and Ramdas Pophale) SiO2 
 PCOD9010834
Probable space group: P -1
;
_chemical_formula_sum "Si O2"
_cell_formula_units_Z 14
_cell_length_a 13.896068
_cell_length_b 7.716215
_cell_length_c 8.735920
_cell_angle_alpha 73.776616
_cell_angle_beta 85.017510
_cell_angle_gamma 43.477562
_cell_volume 609.263151
_symmetry_space_group_name_H-M "P -1"
_symmetry_group_IT_number 2
_symmetry_cell_setting 'triclinic'
loop_
_space_group_symop_operation_xyz
x,y,z
-x,-y,-z
loop_
_atom_site_type_symbol
_atom_site_label
_atom_site_fract_x
_atom_site_fract_y
_atom_site_fract_z
Si Si1 0.297944 0.390540 0.345381
Si Si2 0.420600 0.832198 0.572754
Si Si3 0.795402 0.025088 0.654993
Si Si4 0.779468 0.673324 0.919665
Si Si5 0.932772 0.911205 0.965602
Si Si6 0.741568 0.893492 0.169809
Si Si7 0.942184 0.389964 0.469251
O O1 0.410182 0.381710 0.393290
O O2 0.289631 0.383471 0.164728
O O3 0.143377 0.599594 0.392626
O O4 0.363553 0.107012 0.460082
O O5 0.344630 0.798496 0.475142
O O6 0.365716 0.886865 0.741404
O O7 0.813661 0.793965 0.772916
O O8 0.924982 0.890100 0.556152
O O9 0.825670 0.086015 0.795244
O O10 0.929729 0.393702 0.027823
O O11 0.688500 0.880639 0.020044
O O12 0.848058 0.907993 0.102276
O O13 0.000000 0.000000 0.000000
O O14 0.827386 0.612720 0.306374
O O15 0.000000 0.500000 0.500000
#
# Coordination Sequence:
#
# PCOD9010834 Si02
#       7
#     2   2   2   2   2   2   2
#     4   9  18  28  48  81 107 122 161 204 245 296
#     4   9  18  30  49  79 106 125 159 205 249 290
#     4  10  17  31  54  75 100 129 158 203 258 292
#     4  10  17  30  51  75 100 131 161 198 254 289
#     4  11  21  32  49  76 100 127 171 212 241 286
#     4  10  17  29  52  72 102 131 157 200 255 291
#     4  11  14  27  52  78  99 129 156 202 250 294
#
# _framework density 22.978577999999999
#
# number of rings (size 3 to 8) (size 9 to 14) (size 15 to 20)
#    0.000    2.000    7.143    0.857    0.000    0.571 
#    0.000    2.143    0.000    1.714    0.000    0.000 
#    0.000    0.000    0.000    0.000    0.000    0.000 
#
# Total GULP energy -78127.322260 kJ/mol
# GULP energy per Si atom -5580.523019 kJ/mol
# Density = 2.292628 g / cm^3
# Si number density = 22.978578 Si / 1000 Ang^3
#
#
#
# Elastic Constant Matrix: (Units=GPa)
#
#
# Indices 1 2 3 4 5 6 
#
# 1 133.4310 36.5178 66.5143 18.5002 35.0595 -7.3342
# 2 36.5178 37.9407 32.6187 0.8678 11.9851 -4.9649
# 3 66.5143 32.6187 124.5154 21.2100 28.4742 -8.6788
# 4 18.5002 0.8678 21.2100 28.6005 7.1128 6.7090
# 5 35.0595 11.9851 28.4742 7.1128 35.5598 -3.1796
# 6 -7.3342 -4.9649 -8.6788 6.7090 -3.1796 30.0065
#
#
#
# Elastic Compliance Matrix: (Units=1/GPa)
#
#
# Indices 1 2 3 4 5 6 
#
# 1 0.013881 -0.008551 -0.002377 -0.005450 -0.007658 0.001698
# 2 -0.008551 0.041446 -0.007721 0.010334 -0.001416 0.000074
# 3 -0.002377 -0.007721 0.013973 -0.008381 -0.004244 0.003607
# 4 -0.005450 0.010334 -0.008381 0.047979 -0.002158 -0.013002
# 5 -0.007658 -0.001416 -0.004244 -0.002158 0.040105 0.001398
# 6 0.001698 0.000074 0.003607 -0.013002 0.001398 0.037852
#
#
# Mechanical properties :
#
#
# Convention : Reuss Voigt Hill
#
# Bulk Modulus (GPa) = 31.24763 63.02096 47.13429
# Shear Modulus (GPa) = 20.55927 29.51576 25.03751
#
# Velocity S-wave (km/s) = 2.99442 3.58787 3.30449
# Velocity P-wave (km/s) = 5.05802 6.68201 5.92591
#
# Compressibility (1/GPa) = 0.03200242
#
# Stress axis : x y z
#
# Youngs Moduli (GPa) = 72.04188 24.12803 71.56613
#
# Poissons Ratio (x) = 0.20631 0.17010
# Poissons Ratio (y) = 0.61601 0.55255
# Poissons Ratio (z) = 0.17124 0.18629
#
# Static dielectric constant tensor:
#      x y z
#    x 1.871550 0.041010 0.045710 
#    y 0.041010 1.920550 0.007170 
#    z 0.045710 0.007170 1.886050 
# 
# From -- ./inp_files/170496.got.cif
#   From: 2010.05.17/outbox.cif.g08.bks.cpg/sg2_86_cif.got.tgz:170496.got - 2010.06.03 11:33:40.
