data_PCOD9010513
_publ_section_title
;
Structure prediction by ZEFSAII (Michael W. Deem and Ramdas Pophale) SiO2 
 PCOD9010513
Probable space group: P -1
;
_chemical_formula_sum "Si O2"
_cell_formula_units_Z 14
_cell_length_a 9.966055
_cell_length_b 18.588838
_cell_length_c 4.921067
_cell_angle_alpha 108.106143
_cell_angle_beta 89.968487
_cell_angle_gamma 41.916337
_cell_volume 538.920615
_symmetry_space_group_name_H-M "P -1"
_symmetry_group_IT_number 2
_symmetry_cell_setting 'triclinic'
loop_
_space_group_symop_operation_xyz
x,y,z
-x,-y,-z
loop_
_atom_site_type_symbol
_atom_site_label
_atom_site_fract_x
_atom_site_fract_y
_atom_site_fract_z
Si Si1 0.833747 0.731072 0.141341
Si Si2 0.511416 0.562432 0.857823
Si Si3 0.576087 0.134507 0.915475
Si Si4 0.226547 0.817446 0.337500
Si Si5 0.041315 0.112155 0.084578
Si Si6 0.886026 0.335577 0.273628
Si Si7 0.843249 0.632141 0.537058
O O1 0.580919 0.852950 0.243635
O O2 0.903772 0.682138 0.764777
O O3 0.034176 0.697591 0.096830
O O4 0.857513 0.649764 0.245632
O O5 0.740177 0.463194 0.591019
O O6 0.325052 0.628266 0.717848
O O7 0.500000 0.500000 0.000000
O O8 0.439313 0.671364 0.133151
O O9 0.403243 0.263346 0.235402
O O10 0.704694 0.131040 0.708603
O O11 0.728784 0.023403 0.989226
O O12 0.130128 0.854029 0.679051
O O13 0.038157 0.871096 0.198606
O O14 0.046944 0.199855 0.239505
O O15 0.000000 0.500000 0.500000
#
# Coordination Sequence:
#
# PCOD9010513 Si02
#       7
#     2   2   2   2   2   2   2
#     4  10  25  40  67  92 126 166 205 268 308 381
#     4  10  21  40  63  93 123 168 207 261 314 371
#     4  10  26  40  68  91 132 164 219 251 326 370
#     4  11  24  39  67  92 129 166 214 264 314 371
#     4  11  24  42  63  95 126 173 208 266 308 377
#     4  10  23  41  63  94 131 160 217 255 320 372
#     4  10  24  44  59  95 125 167 205 256 316 376
#
# _framework density 25.977851000000001
#
# number of rings (size 3 to 8) (size 9 to 14) (size 15 to 20)
#    0.857    0.857    1.429    1.286    8.000    0.571 
#    0.000    0.714    0.000    0.000    0.000    0.000 
#    0.000    0.000    0.000    0.000    0.000    0.000 
#
# Total GULP energy -78061.761234 kJ/mol
# GULP energy per Si atom -5575.840088 kJ/mol
# Density = 2.591872 g / cm^3
# Si number density = 25.977851 Si / 1000 Ang^3
#
#
#
# Elastic Constant Matrix: (Units=GPa)
#
#
# Indices 1 2 3 4 5 6 
#
# 1 75.0907 36.6889 22.5619 4.8457 -22.8645 3.2762
# 2 36.6889 176.5674 32.6695 23.6257 -18.1807 16.5552
# 3 22.5619 32.6695 67.9709 15.2204 -14.9739 12.3266
# 4 4.8457 23.6257 15.2204 37.6230 1.4312 2.7662
# 5 -22.8645 -18.1807 -14.9739 1.4312 36.6989 -4.6564
# 6 3.2762 16.5552 12.3266 2.7662 -4.6564 36.3891
#
#
#
# Elastic Compliance Matrix: (Units=1/GPa)
#
#
# Indices 1 2 3 4 5 6 
#
# 1 0.018119 -0.002407 -0.003178 -0.000004 0.009015 0.001694
# 2 -0.002407 0.007223 -0.001123 -0.003664 0.001481 -0.002221
# 3 -0.003178 -0.001123 0.019828 -0.006757 0.005217 -0.004739
# 4 -0.000004 -0.003664 -0.006757 0.031772 -0.005711 0.000810
# 5 0.009015 0.001481 0.005217 -0.005711 0.036180 0.001811
# 6 0.001694 -0.002221 -0.004739 0.000810 0.001811 0.030114
#
#
# Mechanical properties :
#
#
# Convention : Reuss Voigt Hill
#
# Bulk Modulus (GPa) = 31.49134 55.94106 43.71620
# Shear Modulus (GPa) = 29.89762 37.32278 33.61020
#
# Velocity S-wave (km/s) = 3.39616 3.79452 3.60085
# Velocity P-wave (km/s) = 5.24664 6.38582 5.84405
#
# Compressibility (1/GPa) = 0.03175476
#
# Stress axis : x y z
#
# Youngs Moduli (GPa) = 55.18918 138.45558 50.43280
#
# Poissons Ratio (x) = 0.33328 0.16027
# Poissons Ratio (y) = 0.13285 0.05663
# Poissons Ratio (z) = 0.17538 0.15546
#
# Static dielectric constant tensor:
#      x y z
#    x 2.113500 0.004120 0.135590 
#    y 0.004120 2.126030 0.022840 
#    z 0.135590 0.022840 2.109940 
# 
# From -- ./inp_files/82171.got.cif
#   From: 2010.05.17/outbox.cif.g08.bks.cpg/sg2_42_cif.got.tgz:82171.got - 2010.06.03 11:33:40.
