data_PCOD9010722
_publ_section_title
;
Structure prediction by ZEFSAII (Michael W. Deem and Ramdas Pophale) SiO2 
 PCOD9010722
Probable space group: P -1
;
_chemical_formula_sum "Si O2"
_cell_formula_units_Z 16
_cell_length_a 9.113334
_cell_length_b 14.549197
_cell_length_c 8.849986
_cell_angle_alpha 42.676088
_cell_angle_beta 108.086129
_cell_angle_gamma 111.453557
_cell_volume 738.697849
_symmetry_space_group_name_H-M "P -1"
_symmetry_group_IT_number 2
_symmetry_cell_setting 'triclinic'
loop_
_space_group_symop_operation_xyz
x,y,z
-x,-y,-z
loop_
_atom_site_type_symbol
_atom_site_label
_atom_site_fract_x
_atom_site_fract_y
_atom_site_fract_z
Si Si1 0.397335 0.013427 0.593587
Si Si2 0.732039 0.202200 0.962094
Si Si3 0.516524 0.783547 0.376299
Si Si4 0.875205 0.757218 0.558012
Si Si5 0.427755 0.472329 0.744469
Si Si6 0.217256 0.242693 0.146803
Si Si7 0.019642 0.955173 0.889786
Si Si8 0.241289 0.495896 0.352945
O O1 0.499521 0.091603 0.670762
O O2 0.288666 0.118192 0.387016
O O3 0.500000 0.000000 0.500000
O O4 0.301333 0.868392 0.800829
O O5 0.567810 0.204669 0.822617
O O6 0.817565 0.363027 0.804699
O O7 0.821858 0.102319 0.018732
O O8 0.700570 0.780740 0.425474
O O9 0.438669 0.632380 0.600770
O O10 0.873139 0.718228 0.781361
O O11 0.983131 0.907091 0.376721
O O12 0.887202 0.627152 0.614028
O O13 0.315986 0.449292 0.587429
O O14 0.604984 0.464814 0.757302
O O15 0.351871 0.366203 0.977133
O O16 0.110632 0.173256 0.058355
O O17 0.000000 0.000000 0.000000
#
# Coordination Sequence:
#
# PCOD9010722 Si02
#       8
#     2   2   2   2   2   2   2   2
#     4  11  23  34  62  94 124 153 189 261 313 356
#     4  11  22  40  61  92 125 156 204 255 294 357
#     4   9  20  38  63  91 121 154 203 253 305 347
#     4  10  21  40  64  90 120 162 194 256 308 361
#     4   9  18  36  62  89 121 158 194 252 300 365
#     4  11  23  40  59  88 127 159 205 240 302 374
#     4  12  26  41  63  83 118 178 210 243 290 359
#     4   9  19  37  64  92 118 151 205 251 309 350
#
# _framework density 21.659735999999999
#
# number of rings (size 3 to 8) (size 9 to 14) (size 15 to 20)
#    0.000    1.750    2.500    3.000    1.750    5.500 
#    0.000    6.250    0.000    0.000    0.000    0.000 
#    0.000    0.000    0.000    0.000    0.000    0.000 
#
# Total GULP energy -89337.904634 kJ/mol
# GULP energy per Si atom -5583.619040 kJ/mol
# Density = 2.161044 g / cm^3
# Si number density = 21.659736 Si / 1000 Ang^3
#
#
#
# Elastic Constant Matrix: (Units=GPa)
#
#
# Indices 1 2 3 4 5 6 
#
# 1 22.4107 1.9589 12.9997 0.2100 -8.7875 -7.8131
# 2 1.9589 78.8342 4.4955 -28.4366 4.4655 -15.4084
# 3 12.9997 4.4955 95.4756 -12.4697 -10.8334 1.2545
# 4 0.2100 -28.4366 -12.4697 22.0383 2.1381 -5.3942
# 5 -8.7875 4.4655 -10.8334 2.1381 22.9031 -1.2034
# 6 -7.8131 -15.4084 1.2545 -5.3942 -1.2034 32.4215
#
#
#
# Elastic Compliance Matrix: (Units=1/GPa)
#
#
# Indices 1 2 3 4 5 6 
#
# 1 0.062566 -0.001001 -0.006692 -0.004160 0.022211 0.014993
# 2 -0.001001 0.043758 0.005311 0.068214 -0.011128 0.031285
# 3 -0.006692 0.005311 0.013211 0.014977 0.001403 0.002944
# 4 -0.004160 0.068214 0.014977 0.157593 -0.019564 0.056331
# 5 0.022211 -0.011128 0.001403 -0.019564 0.056784 -0.001138
# 6 0.014993 0.031285 0.002944 0.056331 -0.001138 0.058541
#
#
# Mechanical properties :
#
#
# Convention : Reuss Voigt Hill
#
# Bulk Modulus (GPa) = 8.71294 26.18097 17.44695
# Shear Modulus (GPa) = 11.48173 27.29034 19.38604
#
# Velocity S-wave (km/s) = 2.30488 3.55344 2.99494
# Velocity P-wave (km/s) = 3.33387 5.38048 4.47572
#
# Compressibility (1/GPa) = 0.11477188
#
# Stress axis : x y z
#
# Youngs Moduli (GPa) = 15.98310 22.85316 75.69175
#
# Poissons Ratio (x) = 0.02288 0.50651
# Poissons Ratio (y) = 0.01600 -0.40203
# Poissons Ratio (z) = 0.10695 -0.12138
#
# Static dielectric constant tensor:
#      x y z
#    x 1.634290 0.144810 -0.048600 
#    y 0.144810 1.749040 0.041200 
#    z -0.048600 0.041200 1.757100 
# 
# From -- ./inp_files/205425.got.cif
#   From: 2010.05.17/outbox.cif.g08.bks.cpg/sg2_103_cif.got.tgz:205425.got - 2010.06.03 11:33:40.
