data_PCOD9010431
_publ_section_title
;
Structure prediction by ZEFSAII (Michael W. Deem and Ramdas Pophale) SiO2 
 PCOD9010431
Probable space group: P -1
;
_chemical_formula_sum "Si O2"
_cell_formula_units_Z 14
_cell_length_a 7.081838
_cell_length_b 18.025421
_cell_length_c 5.104157
_cell_angle_alpha 86.007493
_cell_angle_beta 65.502898
_cell_angle_gamma 60.055344
_cell_volume 505.906319
_symmetry_space_group_name_H-M "P -1"
_symmetry_group_IT_number 2
_symmetry_cell_setting 'triclinic'
loop_
_space_group_symop_operation_xyz
x,y,z
-x,-y,-z
loop_
_atom_site_type_symbol
_atom_site_label
_atom_site_fract_x
_atom_site_fract_y
_atom_site_fract_z
Si Si1 0.757254 0.870885 0.431564
Si Si2 0.844419 0.942946 0.854030
Si Si3 0.341445 0.873043 0.332640
Si Si4 0.826342 0.423120 0.587419
Si Si5 0.135835 0.701397 0.023030
Si Si6 0.560245 0.611446 0.482646
Si Si7 0.269426 0.299672 0.048606
O O1 0.708343 0.913878 0.733177
O O2 0.534858 0.867358 0.435334
O O3 0.000272 0.775007 0.302628
O O4 0.804793 0.927784 0.179365
O O5 0.121831 0.880164 0.623193
O O6 0.770407 0.039506 0.794965
O O7 0.478262 0.790594 0.083661
O O8 0.803208 0.394472 0.897481
O O9 0.738784 0.521083 0.544797
O O10 0.639783 0.402467 0.549586
O O11 0.108660 0.360087 0.364161
O O12 0.918591 0.728637 0.939864
O O13 0.385827 0.685963 0.771043
O O14 0.689419 0.640954 0.195104
#
# Coordination Sequence:
#
# PCOD9010431 Si02
#       7
#     2   2   2   2   2   2   2
#     4  11  25  43  71  98 141 178 229 280 346 396
#     4  11  25  46  68 102 135 186 224 286 338 409
#     4  10  24  43  68 100 137 175 235 276 340 410
#     4  10  22  39  63  92 124 167 214 270 328 408
#     4  10  23  38  61  93 128 167 220 270 329 406
#     4  10  21  40  63  90 127 166 214 266 336 395
#     4  10  22  40  60  94 127 166 216 276 331 397
#
# _framework density 27.673110999999999
#
# number of rings (size 3 to 8) (size 9 to 14) (size 15 to 20)
#    0.000    1.714    0.000    2.571    8.000    5.143 
#    5.143    0.000    0.000    0.000    0.000    0.000 
#    0.000    0.000    0.000    0.000    0.000    0.000 
#
# Total GULP energy -78529.238745 kJ/mol
# GULP energy per Si atom -5609.231339 kJ/mol
# Density = 2.761013 g / cm^3
# Si number density = 27.673111 Si / 1000 Ang^3
#
#
#
# Elastic Constant Matrix: (Units=GPa)
#
#
# Indices 1 2 3 4 5 6 
#
# 1 108.1643 13.0929 25.4006 14.3111 -18.6240 -0.7457
# 2 13.0929 111.1992 8.5030 -2.6705 10.0301 -18.7695
# 3 25.4006 8.5030 116.6879 -8.7473 -15.4069 -10.5347
# 4 14.3111 -2.6705 -8.7473 48.7022 -4.7399 -3.1585
# 5 -18.6240 10.0301 -15.4069 -4.7399 45.8588 19.4726
# 6 -0.7457 -18.7695 -10.5347 -3.1585 19.4726 28.9395
#
#
#
# Elastic Compliance Matrix: (Units=1/GPa)
#
#
# Indices 1 2 3 4 5 6 
#
# 1 0.012125 -0.003584 -0.002385 -0.003959 0.008265 -0.008874
# 2 -0.003584 0.013144 -0.000052 0.001735 -0.010950 0.015971
# 3 -0.002385 -0.000052 0.009739 0.002766 0.001410 0.002803
# 4 -0.003959 0.001735 0.002766 0.022532 -0.000889 0.005087
# 5 0.008265 -0.010950 0.001410 -0.000889 0.042963 -0.035381
# 6 -0.008874 0.015971 0.002803 0.005087 -0.035381 0.070067
#
#
# Mechanical properties :
#
#
# Convention : Reuss Voigt Hill
#
# Bulk Modulus (GPa) = 43.53859 47.78272 45.66066
# Shear Modulus (GPa) = 26.27895 43.97040 35.12468
#
# Velocity S-wave (km/s) = 3.08493 3.99045 3.56655
# Velocity P-wave (km/s) = 5.33446 6.20773 5.78759
#
# Compressibility (1/GPa) = 0.02296813
#
# Stress axis : x y z
#
# Youngs Moduli (GPa) = 82.47580 76.08140 102.67552
#
# Poissons Ratio (x) = 0.27265 0.24485
# Poissons Ratio (y) = 0.29557 0.00529
# Poissons Ratio (z) = 0.19668 0.00392
#
# Static dielectric constant tensor:
#      x y z
#    x 2.191200 -0.004030 0.052030 
#    y -0.004030 2.144470 0.018390 
#    z 0.052030 0.018390 2.109780 
# 
# From -- ./inp_files/52862.got.cif
#   From: 2010.05.17/outbox.cif.g08.bks.cpg/sg2_27_cif.got.tgz:52862.got - 2010.06.03 11:33:40.
