data_PCOD9010117
_publ_section_title
;
Structure prediction by ZEFSAII (Michael W. Deem and Ramdas Pophale) SiO2 
 PCOD9010117
Probable space group: P -1
;
_chemical_formula_sum "Si O2"
_cell_formula_units_Z 16
_cell_length_a 10.784875
_cell_length_b 26.674015
_cell_length_c 19.112791
_cell_angle_alpha 166.697467
_cell_angle_beta 150.174506
_cell_angle_gamma 36.524810
_cell_volume 588.147684
_symmetry_space_group_name_H-M "P -1"
_symmetry_group_IT_number 2
_symmetry_cell_setting 'triclinic'
loop_
_space_group_symop_operation_xyz
x,y,z
-x,-y,-z
loop_
_atom_site_type_symbol
_atom_site_label
_atom_site_fract_x
_atom_site_fract_y
_atom_site_fract_z
Si Si1 0.259167 0.702322 0.930573
Si Si2 0.054161 0.180892 0.947867
Si Si3 0.741074 0.375887 0.959706
Si Si4 0.410432 0.883377 0.722235
Si Si5 0.513932 0.298065 0.102033
Si Si6 0.756649 0.189031 0.209647
Si Si7 0.617846 0.552361 0.008504
Si Si8 0.826570 0.451601 0.743471
O O1 0.416875 0.802840 0.073120
O O2 0.000000 0.500000 0.500000
O O3 0.158228 0.865109 0.153908
O O4 0.419997 0.579239 0.889420
O O5 0.283181 0.428202 0.419553
O O6 0.918901 0.238944 0.891555
O O7 0.186485 0.989882 0.737834
O O8 0.652285 0.345547 0.794555
O O9 0.939721 0.650460 0.442813
O O10 0.482394 0.322592 0.808211
O O11 0.303625 0.622975 0.344938
O O12 0.642968 0.938757 0.853371
O O13 0.500000 0.000000 0.000000
O O14 0.581781 0.187610 0.054863
O O15 0.219855 0.308138 0.966255
O O16 0.715145 0.332451 0.451578
O O17 0.920118 0.630828 0.237646
#
# Coordination Sequence:
#
# PCOD9010117 Si02
#       8
#     2   2   2   2   2   2   2   2
#     4   9  19  32  49  73  98 133 170 210 242 297
#     4   9  16  30  50  76 100 130 168 206 245 292
#     4   8  16  28  49  74 101 128 162 216 250 280
#     4  10  18  29  49  80 106 130 159 207 256 296
#     4  10  17  29  50  78  98 131 170 205 247 288
#     4   9  17  28  51  77  99 128 168 210 244 288
#     4   9  17  31  47  75 104 128 164 210 253 293
#     4  10  19  29  49  78 106 131 158 208 256 296
#
# _framework density 27.204052999999998
#
# number of rings (size 3 to 8) (size 9 to 14) (size 15 to 20)
#    0.000    2.750    2.500    1.125    3.500    0.500 
#    0.000    2.500    0.000    3.750    9.750    0.000 
#    0.000    0.000    0.000    0.000    0.000    0.000 
#
# Total GULP energy -89075.233660 kJ/mol
# GULP energy per Si atom -5567.202104 kJ/mol
# Density = 2.714214 g / cm^3
# Si number density = 27.204053 Si / 1000 Ang^3
#
#
#
# Elastic Constant Matrix: (Units=GPa)
#
#
# Indices 1 2 3 4 5 6 
#
# 1 61.9070 29.3791 38.4497 2.5471 13.4311 13.9053
# 2 29.3791 204.0400 58.5262 -29.6363 3.7435 23.1809
# 3 38.4497 58.5262 56.4128 -12.8418 -8.3624 16.0573
# 4 2.5471 -29.6363 -12.8418 27.2755 5.7732 5.5295
# 5 13.4311 3.7435 -8.3624 5.7732 28.7097 -5.0264
# 6 13.9053 23.1809 16.0573 5.5295 -5.0264 50.0341
#
#
#
# Elastic Compliance Matrix: (Units=1/GPa)
#
#
# Indices 1 2 3 4 5 6 
#
# 1 0.056268 0.006225 -0.052819 -0.013974 -0.040426 -0.004088
# 2 0.006225 0.009121 -0.012756 0.006077 -0.009653 -0.003504
# 3 -0.052819 -0.012756 0.078589 0.018982 0.045062 -0.002203
# 4 -0.013974 0.006077 0.018982 0.056261 -0.002044 -0.011447
# 5 -0.040426 -0.009653 0.045062 -0.002044 0.070028 0.008506
# 6 -0.004088 -0.003504 -0.002203 -0.011447 0.008506 0.025572
#
#
# Mechanical properties :
#
#
# Convention : Reuss Voigt Hill
#
# Bulk Modulus (GPa) = 39.56108 63.89665 51.72887
# Shear Modulus (GPa) = 11.82126 34.27083 23.04605
#
# Velocity S-wave (km/s) = 2.08682 3.55317 2.91375
# Velocity P-wave (km/s) = 4.51446 6.35392 5.51147
#
# Compressibility (1/GPa) = 0.02527737
#
# Stress axis : x y z
#
# Youngs Moduli (GPa) = 17.77202 109.63168 12.72442
#
# Poissons Ratio (x) = -0.68247 0.67210
# Poissons Ratio (y) = -0.11063 0.16232
# Poissons Ratio (z) = 0.93871 1.39850
#
# Static dielectric constant tensor:
#      x y z
#    x 2.070670 0.009930 0.095770 
#    y 0.009930 2.058500 -0.044740 
#    z 0.095770 -0.044740 2.835650 
# 
# From -- ./inp_files/406416.got.cif
#   From: 2010.05.17/outbox.cif.g08.bks.cpg/sg2_204_cif.got.tgz:406416.got - 2010.06.03 11:33:40.
