data_PCOD9010845
_publ_section_title
;
Structure prediction by ZEFSAII (Michael W. Deem and Ramdas Pophale) SiO2 
 PCOD9010845
Probable space group: P -1
;
_chemical_formula_sum "Si O2"
_cell_formula_units_Z 16
_cell_length_a 16.151865
_cell_length_b 5.158548
_cell_length_c 8.272386
_cell_angle_alpha 82.518102
_cell_angle_beta 89.671513
_cell_angle_gamma 84.041463
_cell_volume 679.674987
_symmetry_space_group_name_H-M "P -1"
_symmetry_group_IT_number 2
_symmetry_cell_setting 'triclinic'
loop_
_space_group_symop_operation_xyz
x,y,z
-x,-y,-z
loop_
_atom_site_type_symbol
_atom_site_label
_atom_site_fract_x
_atom_site_fract_y
_atom_site_fract_z
Si Si1 0.314813 0.506246 0.320129
Si Si2 0.229661 0.268172 0.777735
Si Si3 0.059909 0.628812 0.109027
Si Si4 0.505430 0.725985 0.613867
Si Si5 0.676430 0.245856 0.346035
Si Si6 0.785743 0.130927 0.920443
Si Si7 0.053893 0.278115 0.625796
Si Si8 0.158856 0.174286 0.353871
O O1 0.403409 0.336524 0.307313
O O2 0.322151 0.690561 0.465312
O O3 0.291348 0.662119 0.141201
O O4 0.241277 0.322175 0.374256
O O5 0.279969 0.518214 0.751823
O O6 0.136056 0.360003 0.710187
O O7 0.274552 0.029757 0.686147
O O8 0.230034 0.128303 0.963213
O O9 0.134130 0.758413 0.010560
O O10 0.103946 0.392034 0.233144
O O11 0.004564 0.810589 0.223927
O O12 0.000000 0.500000 0.000000
O O13 0.500000 0.500000 0.500000
O O14 0.419371 0.738408 0.711544
O O15 0.500000 0.000000 0.500000
O O16 0.816971 0.064318 0.744348
O O17 0.101884 0.088510 0.507741
O O18 0.000000 0.500000 0.500000
#
# Coordination Sequence:
#
# PCOD9010845 Si02
#       8
#     2   2   2   2   2   2   2   2
#     4  10  22  41  71 100 134 178 228 285 337 417
#     4  12  26  44  70  97 146 181 231 283 350 412
#     4  10  23  41  63  94 133 177 232 284 345 411
#     4  10  22  40  71 107 138 175 229 285 341 404
#     4  11  24  45  71 105 136 183 231 287 342 410
#     4  11  26  41  67  99 135 192 220 289 349 418
#     4  10  22  42  65  97 130 180 229 294 338 403
#     4  10  21  40  64  93 136 171 236 274 348 401
#
# _framework density 23.540662000000001
#
# number of rings (size 3 to 8) (size 9 to 14) (size 15 to 20)
#    0.000    1.500    1.250    3.000    8.750    2.500 
#    2.250    1.250    0.000    0.000    0.000    0.000 
#    0.000    0.000    0.000    0.000    0.000    0.000 
#
# Total GULP energy -89404.359564 kJ/mol
# GULP energy per Si atom -5587.772473 kJ/mol
# Density = 2.348708 g / cm^3
# Si number density = 23.540662 Si / 1000 Ang^3
#
#
#
# Elastic Constant Matrix: (Units=GPa)
#
#
# Indices 1 2 3 4 5 6 
#
# 1 182.0285 37.3259 54.8992 -20.9611 18.9027 -21.4051
# 2 37.3259 78.0405 19.3254 -9.6987 9.2018 -3.7925
# 3 54.8992 19.3254 90.7690 -17.8703 5.4449 -7.1041
# 4 -20.9611 -9.6987 -17.8703 43.9103 -0.2801 -1.9286
# 5 18.9027 9.2018 5.4449 -0.2801 29.3961 -6.7228
# 6 -21.4051 -3.7925 -7.1041 -1.9286 -6.7228 35.1990
#
#
#
# Elastic Compliance Matrix: (Units=1/GPa)
#
#
# Indices 1 2 3 4 5 6 
#
# 1 0.007936 -0.002162 -0.003495 0.002020 -0.002975 0.003430
# 2 -0.002162 0.014724 -0.001363 0.001624 -0.003065 -0.000500
# 3 -0.003495 -0.001363 0.014233 0.003863 0.000272 0.000864
# 4 0.002020 0.001624 0.003863 0.025804 -0.001521 0.003306
# 5 -0.002975 -0.003065 0.000272 -0.001521 0.037990 0.005088
# 6 0.003430 -0.000500 0.000864 0.003306 0.005088 0.031769
#
#
# Mechanical properties :
#
#
# Convention : Reuss Voigt Hill
#
# Bulk Modulus (GPa) = 43.75619 63.77097 53.76358
# Shear Modulus (GPa) = 32.44370 37.65357 35.04864
#
# Velocity S-wave (km/s) = 3.71644 4.00373 3.86275
# Velocity P-wave (km/s) = 6.08635 6.96575 6.54085
#
# Compressibility (1/GPa) = 0.02285391
#
# Stress axis : x y z
#
# Youngs Moduli (GPa) = 126.00940 67.91507 70.26053
#
# Poissons Ratio (x) = 0.14681 0.24556
# Poissons Ratio (y) = 0.27238 0.09576
# Poissons Ratio (z) = 0.44039 0.09257
#
# Static dielectric constant tensor:
#      x y z
#    x 1.959300 -0.037690 0.010590 
#    y -0.037690 1.915400 0.061670 
#    z 0.010590 0.061670 1.955600 
# 
# From -- ./inp_files/288490.got.cif
#   From: 2010.05.17/outbox.cif.g08.bks.cpg/sg2_145_cif.got.tgz:288490.got - 2010.06.03 11:33:40.
