data_PCOD9010688
_publ_section_title
;
Structure prediction by ZEFSAII (Michael W. Deem and Ramdas Pophale) SiO2 
 PCOD9010688
Probable space group: P -1
;
_chemical_formula_sum "Si O2"
_cell_formula_units_Z 10
_cell_length_a 9.151091
_cell_length_b 15.986544
_cell_length_c 12.682523
_cell_angle_alpha 26.284767
_cell_angle_beta 139.086707
_cell_angle_gamma 122.906983
_cell_volume 476.935019
_symmetry_space_group_name_H-M "P -1"
_symmetry_group_IT_number 2
_symmetry_cell_setting 'triclinic'
loop_
_space_group_symop_operation_xyz
x,y,z
-x,-y,-z
loop_
_atom_site_type_symbol
_atom_site_label
_atom_site_fract_x
_atom_site_fract_y
_atom_site_fract_z
Si Si1 0.701362 0.089578 0.738638
Si Si2 0.706894 0.645051 0.205013
Si Si3 0.584851 0.754522 0.795017
Si Si4 0.534060 0.204669 0.754352
Si Si5 0.168864 0.585971 0.254082
O O1 0.580894 0.238079 0.403496
O O2 0.593189 0.190613 0.678289
O O3 0.656385 0.883237 0.934091
O O4 0.000000 0.000000 0.000000
O O5 0.679269 0.544211 0.411816
O O6 0.000000 0.500000 0.500000
O O7 0.563788 0.653527 0.008957
O O8 0.500000 0.000000 0.500000
O O9 0.876875 0.654509 0.032949
O O10 0.288954 0.420089 0.412357
O O11 0.763875 0.218324 0.927258
O O12 0.500000 0.000000 0.000000
#
# Coordination Sequence:
#
# PCOD9010688 Si02
#       5
#     2   2   2   2   2
#     4  11  21  37  63  91 122 162 209 255 299 362
#     4   9  17  35  59  86 121 157 197 249 303 356
#     4   9  19  36  63  91 125 160 205 251 306 362
#     4  11  22  39  65  90 124 164 203 251 308 365
#     4  10  21  40  64  88 126 166 198 250 312 361
#
# _framework density 20.967217999999999
#
# number of rings (size 3 to 8) (size 9 to 14) (size 15 to 20)
#    0.000    2.000    2.000    3.600    0.000    0.800 
#    0.000   10.000   17.600    0.000    0.000    0.000 
#    0.000    0.000    0.000    0.000    0.000    0.000 
#
# Total GULP energy -55779.608820 kJ/mol
# GULP energy per Si atom -5577.960882 kJ/mol
# Density = 2.091950 g / cm^3
# Si number density = 20.967218 Si / 1000 Ang^3
#
#
#
# Elastic Constant Matrix: (Units=GPa)
#
#
# Indices 1 2 3 4 5 6 
#
# 1 115.8191 50.2262 45.9069 13.4130 9.0310 -40.3520
# 2 50.2262 134.4931 51.4871 -7.2523 -0.8683 -24.8783
# 3 45.9069 51.4871 85.3435 21.6449 -0.4798 -24.7438
# 4 13.4130 -7.2523 21.6449 42.1372 -5.6054 1.4736
# 5 9.0310 -0.8683 -0.4798 -5.6054 34.5627 -8.4076
# 6 -40.3520 -24.8783 -24.7438 1.4736 -8.4076 48.6725
#
#
#
# Elastic Compliance Matrix: (Units=1/GPa)
#
#
# Indices 1 2 3 4 5 6 
#
# 1 0.014917 -0.003333 -0.002079 -0.004918 -0.002542 0.009316
# 2 -0.003333 0.011770 -0.007149 0.007054 0.002157 -0.000223
# 3 -0.002079 -0.007149 0.022012 -0.012063 0.000225 0.006216
# 4 -0.004918 0.007054 -0.012063 0.033623 0.005108 -0.006740
# 5 -0.002542 0.002157 0.000225 0.005108 0.031555 0.004406
# 6 0.009316 -0.000223 0.006216 -0.006740 0.004406 0.032281
#
#
# Mechanical properties :
#
#
# Convention : Reuss Voigt Hill
#
# Bulk Modulus (GPa) = 42.41587 70.09956 56.25771
# Shear Modulus (GPa) = 27.91110 37.61020 32.76065
#
# Velocity S-wave (km/s) = 3.65249 4.23988 3.95710
# Velocity P-wave (km/s) = 6.16937 7.58118 6.91142
#
# Compressibility (1/GPa) = 0.02357608
#
# Stress axis : x y z
#
# Youngs Moduli (GPa) = 67.03605 84.96058 45.42988
#
# Poissons Ratio (x) = 0.28319 0.09445
# Poissons Ratio (y) = 0.22345 0.32480
# Poissons Ratio (z) = 0.13937 0.60742
#
# Static dielectric constant tensor:
#      x y z
#    x 1.771540 0.017790 -0.049490 
#    y 0.017790 1.818590 -0.012260 
#    z -0.049490 -0.012260 1.762180 
# 
# From -- ./inp_files/58061.got.cif
#   From: 2010.05.17/outbox.cif.g08.bks.cpg/sg2_30_cif.got.tgz:58061.got - 2010.06.03 11:33:40.
