data_PCOD9010261
_publ_section_title
;
Structure prediction by ZEFSAII (Michael W. Deem and Ramdas Pophale) SiO2 
 PCOD9010261
Probable space group: P -1
;
_chemical_formula_sum "Si O2"
_cell_formula_units_Z 16
_cell_length_a 15.180268
_cell_length_b 11.184814
_cell_length_c 5.525152
_cell_angle_alpha 110.852294
_cell_angle_beta 122.160136
_cell_angle_gamma 59.594840
_cell_volume 680.113262
_symmetry_space_group_name_H-M "P -1"
_symmetry_group_IT_number 2
_symmetry_cell_setting 'triclinic'
loop_
_space_group_symop_operation_xyz
x,y,z
-x,-y,-z
loop_
_atom_site_type_symbol
_atom_site_label
_atom_site_fract_x
_atom_site_fract_y
_atom_site_fract_z
Si Si1 0.051950 0.377109 0.678733
Si Si2 0.938539 0.120114 0.800577
Si Si3 0.593863 0.404682 0.882666
Si Si4 0.623295 0.586547 0.688916
Si Si5 0.851572 0.428434 0.781052
Si Si6 0.854801 0.928443 0.299700
Si Si7 0.513537 0.134359 0.212602
Si Si8 0.359661 0.879592 0.105661
O O1 0.120387 0.211896 0.610271
O O2 0.000000 0.500000 0.500000
O O3 0.940559 0.384175 0.663269
O O4 0.128890 0.439608 0.985044
O O5 0.885514 0.286771 0.889789
O O6 0.036914 0.100882 0.734955
O O7 0.843760 0.067274 0.528880
O O8 0.000000 0.000000 0.000000
O O9 0.653310 0.493089 0.904669
O O10 0.507042 0.381644 0.545330
O O11 0.673602 0.251242 0.976466
O O12 0.500000 0.500000 0.000000
O O13 0.717991 0.493515 0.573279
O O14 0.609156 0.742207 0.827808
O O15 0.743745 0.977319 0.008161
O O16 0.579259 0.102042 0.544968
O O17 0.567934 0.170870 0.074182
O O18 0.500000 0.000000 0.000000
#
# Coordination Sequence:
#
# PCOD9010261 Si02
#       8
#     2   2   2   2   2   2   2   2
#     4  10  22  46  64  94 133 174 234 291 345 426
#     4  10  22  40  63  96 136 171 229 287 341 424
#     4  10  21  40  62  93 138 170 229 281 336 413
#     4  10  23  40  65  97 130 181 225 284 348 414
#     4  10  23  40  66  94 130 175 230 282 351 416
#     4  10  24  40  65 100 131 181 230 284 359 414
#     4  11  25  47  67 101 143 180 237 287 341 427
#     4  11  25  44  72  99 137 186 227 290 353 414
#
# _framework density 23.525494999999999
#
# number of rings (size 3 to 8) (size 9 to 14) (size 15 to 20)
#    0.000    1.750    1.250    1.125    7.000    1.000 
#    0.000    0.000    0.000    0.000    0.000    0.000 
#    0.000    0.000    0.000    0.000    0.000    0.000 
#
# Total GULP energy -89105.365716 kJ/mol
# GULP energy per Si atom -5569.085357 kJ/mol
# Density = 2.347195 g / cm^3
# Si number density = 23.525495 Si / 1000 Ang^3
#
#
#
# Elastic Constant Matrix: (Units=GPa)
#
#
# Indices 1 2 3 4 5 6 
#
# 1 29.7718 53.5226 30.6612 -4.2359 9.4479 16.9346
# 2 53.5226 186.4294 32.9315 -17.9827 2.4590 15.3823
# 3 30.6612 32.9315 81.5037 -16.9173 -19.3754 -3.4938
# 4 -4.2359 -17.9827 -16.9173 33.2693 -7.6191 -10.9676
# 5 9.4479 2.4590 -19.3754 -7.6191 6.9370 -17.0457
# 6 16.9346 15.3823 -3.4938 -10.9676 -17.0457 29.9199
#
#
#
# Elastic Compliance Matrix: (Units=1/GPa)
#
#
# Indices 1 2 3 4 5 6 
#
# 1 0.026570 -0.008909 0.005392 0.014165 0.034509 0.015025
# 2 -0.008909 0.008675 -0.002145 -0.000498 -0.007225 -0.003967
# 3 0.005392 -0.002145 0.007138 -0.002792 -0.012580 -0.009306
# 4 0.014165 -0.000498 -0.002792 0.025743 -0.011693 -0.005312
# 5 0.034509 -0.007225 -0.012580 -0.011693 0.003184 -0.019759
# 6 0.015025 -0.003967 -0.009306 -0.005312 -0.019759 0.012667
#
#
# Mechanical properties :
#
#
# Convention : Reuss Voigt Hill
#
# Bulk Modulus (GPa) = 32.19506 59.10393 45.64949
# Shear Modulus (GPa) = 47.32457 26.06456 36.69457
#
# Velocity S-wave (km/s) = 4.48998 3.33217 3.95369
# Velocity P-wave (km/s) = 6.37141 6.32316 6.34733
#
# Compressibility (1/GPa) = 0.03106066
#
# Stress axis : x y z
#
# Youngs Moduli (GPa) = 37.63703 115.27367 140.08892
#
# Poissons Ratio (x) = 1.02696 -0.75541
# Poissons Ratio (y) = 0.33531 0.30042
# Poissons Ratio (z) = -0.20295 0.24721
#
# Static dielectric constant tensor:
#      x y z
#    x 1.960520 0.037440 0.056180 
#    y 0.037440 2.019560 0.029480 
#    z 0.056180 0.029480 2.077620 
# 
# From -- ./inp_files/109819.got.cif
#   From: 2010.05.17/outbox.cif.g08.bks.cpg/sg2_55_cif.got.tgz:109819.got - 2010.06.03 11:33:40.
