data_PCOD9010497
_publ_section_title
;
Structure prediction by ZEFSAII (Michael W. Deem and Ramdas Pophale) SiO2 
 PCOD9010497
Probable space group: P -1
;
_chemical_formula_sum "Si O2"
_cell_formula_units_Z 16
_cell_length_a 25.464858
_cell_length_b 27.538454
_cell_length_c 5.847863
_cell_angle_alpha 62.113236
_cell_angle_beta 59.810273
_cell_angle_gamma 9.744668
_cell_volume 588.964247
_symmetry_space_group_name_H-M "P -1"
_symmetry_group_IT_number 2
_symmetry_cell_setting 'triclinic'
loop_
_space_group_symop_operation_xyz
x,y,z
-x,-y,-z
loop_
_atom_site_type_symbol
_atom_site_label
_atom_site_fract_x
_atom_site_fract_y
_atom_site_fract_z
Si Si1 0.384522 0.259381 0.510848
Si Si2 0.238331 0.159493 0.704892
Si Si3 0.161171 0.068441 0.979143
Si Si4 0.802173 0.299613 0.016387
Si Si5 0.761189 0.506454 0.169614
Si Si6 0.355101 0.183607 0.025865
Si Si7 0.824027 0.157966 0.291963
Si Si8 0.586744 0.271424 0.326264
O O1 0.429855 0.181386 0.805439
O O2 0.022516 0.588127 0.472273
O O3 0.564187 0.062431 0.366133
O O4 0.603841 0.119287 0.328337
O O5 0.001753 0.343940 0.011125
O O6 0.530114 0.927349 0.722114
O O7 0.012812 0.140487 0.102365
O O8 0.894801 0.349767 0.014272
O O9 0.413385 0.839195 0.137059
O O10 0.525228 0.589414 0.938423
O O11 0.064153 0.063554 0.756327
O O12 0.668460 0.356968 0.202136
O O13 0.693143 0.524623 0.479542
O O14 0.000000 0.500000 0.000000
O O15 0.500000 0.000000 0.000000
O O16 0.610286 0.292930 0.439281
O O17 0.000000 0.000000 0.500000
O O18 0.000000 0.000000 0.000000
#
# Coordination Sequence:
#
# PCOD9010497 Si02
#       8
#     2   2   2   2   2   2   2   2
#     4  10  23  43  65  94 132 170 215 276 334 393
#     4  10  23  43  65  94 132 170 215 276 334 393
#     4  10  21  40  63  92 128 173 222 272 336 401
#     4  11  23  40  63  99 132 176 222 278 340 398
#     4  10  21  40  63  92 128 173 222 272 336 401
#     4  12  26  42  66  98 126 171 222 261 330 412
#     4  10  23  44  68  96 140 182 234 290 350 418
#     4  11  23  40  63  99 132 176 222 278 340 398
#
# _framework density 27.166333000000002
#
# number of rings (size 3 to 8) (size 9 to 14) (size 15 to 20)
#    0.000    1.500    0.000    4.125    1.750    5.000 
#    2.250    5.625    0.000    0.000    0.000    0.000 
#    0.000    0.000    0.000    0.000    0.000    0.000 
#
# Total GULP energy -89273.591367 kJ/mol
# GULP energy per Si atom -5579.599460 kJ/mol
# Density = 2.710450 g / cm^3
# Si number density = 27.166333 Si / 1000 Ang^3
#
#
#
# Elastic Constant Matrix: (Units=GPa)
#
#
# Indices 1 2 3 4 5 6 
#
# 1 60.8675 34.9312 14.7684 -23.8368 19.3929 27.5754
# 2 34.9312 128.1878 29.3665 -21.6776 3.8517 1.0325
# 3 14.7684 29.3665 115.8873 -15.7816 -10.9360 1.7891
# 4 -23.8368 -21.6776 -15.7816 37.8220 4.3419 5.4216
# 5 19.3929 3.8517 -10.9360 4.3419 22.3528 -21.6743
# 6 27.5754 1.0325 1.7891 5.4216 -21.6743 28.5175
#
#
#
# Elastic Compliance Matrix: (Units=1/GPa)
#
#
# Indices 1 2 3 4 5 6 
#
# 1 -0.001264 -0.001951 0.001558 -0.006592 0.022241 0.019352
# 2 -0.001951 0.009532 -0.001880 0.003967 -0.002895 -0.001295
# 3 0.001558 -0.001880 0.009548 0.004244 0.000233 -0.002667
# 4 -0.006592 0.003967 0.004244 0.022291 0.016945 0.014605
# 5 0.022241 -0.002895 0.000233 0.016945 -0.004281 -0.027891
# 6 0.019352 -0.001295 -0.002667 0.014605 -0.027891 -0.007408
#
#
# Mechanical properties :
#
#
# Convention : Reuss Voigt Hill
#
# Bulk Modulus (GPa) = 75.36311 51.45276 63.40794
# Shear Modulus (GPa) = 133.73894 32.79687 83.26791
#
# Velocity S-wave (km/s) = 7.02400 3.47834 5.54235
# Velocity P-wave (km/s) = 9.67386 5.92560 8.02173
#
# Compressibility (1/GPa) = 0.01326909
#
# Stress axis : x y z
#
# Youngs Moduli (GPa) = -791.02611 104.91309 104.73375
#
# Poissons Ratio (x) = 0.20472 -0.16316
# Poissons Ratio (y) = -1.54359 0.19687
# Poissons Ratio (z) = 1.23232 0.19721
#
# Static dielectric constant tensor:
#      x y z
#    x 2.158250 -0.132510 -0.123570 
#    y -0.132510 2.135270 0.119940 
#    z -0.123570 0.119940 2.311340 
# 
# From -- ./inp_files/127839.got.cif
#   From: 2010.05.17/outbox.cif.g08.bks.cpg/sg2_64_cif.got.tgz:127839.got - 2010.06.03 11:33:40.
