data_PCOD9010738
_publ_section_title
;
Structure prediction by ZEFSAII (Michael W. Deem and Ramdas Pophale) SiO2 
 PCOD9010738
Probable space group: P -1
;
_chemical_formula_sum "Si O2"
_cell_formula_units_Z 14
_cell_length_a 11.892263
_cell_length_b 14.942622
_cell_length_c 8.307154
_cell_angle_alpha 74.205145
_cell_angle_beta 88.227308
_cell_angle_gamma 25.804667
_cell_volume 531.439365
_symmetry_space_group_name_H-M "P -1"
_symmetry_group_IT_number 2
_symmetry_cell_setting 'triclinic'
loop_
_space_group_symop_operation_xyz
x,y,z
-x,-y,-z
loop_
_atom_site_type_symbol
_atom_site_label
_atom_site_fract_x
_atom_site_fract_y
_atom_site_fract_z
Si Si1 0.757252 0.066583 0.988752
Si Si2 0.828362 0.930599 0.744304
Si Si3 0.351588 0.537683 0.371546
Si Si4 0.104899 0.218232 0.507004
Si Si5 0.340325 0.214780 0.070955
Si Si6 0.536307 0.578983 0.914108
Si Si7 0.783659 0.650051 0.289382
O O1 0.535850 0.149245 0.005470
O O2 0.647360 0.227913 0.036017
O O3 0.093875 0.788950 0.161960
O O4 0.772023 0.066127 0.793179
O O5 0.865367 0.888084 0.573594
O O6 0.530252 0.107317 0.720234
O O7 0.117626 0.661673 0.944972
O O8 0.500000 0.500000 0.500000
O O9 0.542718 0.347963 0.307048
O O10 0.155729 0.613085 0.440410
O O11 0.953262 0.424444 0.330616
O O12 0.425850 0.987075 0.696603
O O13 0.234231 0.252008 0.885553
O O14 0.000000 0.500000 0.000000
O O15 0.500000 0.500000 0.000000
O O16 0.000000 0.500000 0.500000
#
# Coordination Sequence:
#
# PCOD9010738 Si02
#       7
#     2   2   2   2   2   2   2
#     4   9  22  41  62  93 128 169 220 267 323 391
#     4  10  21  40  64  90 125 167 214 265 321 380
#     4  10  23  40  62  95 129 170 219 269 328 385
#     4  11  24  43  67  97 133 170 217 273 325 387
#     4  10  22  41  65  95 128 168 219 270 322 380
#     4  11  23  40  65  94 131 174 215 267 327 390
#     4  11  25  42  65  97 132 177 219 262 328 392
#
# _framework density 26.343548999999999
#
# number of rings (size 3 to 8) (size 9 to 14) (size 15 to 20)
#    0.000    1.714    0.000    4.286    0.000   11.429 
#    0.000    4.286    0.000    0.000    0.000    0.000 
#    0.000    0.000    0.000    0.000    0.000    0.000 
#
# Total GULP energy -77947.250495 kJ/mol
# GULP energy per Si atom -5567.660750 kJ/mol
# Density = 2.628359 g / cm^3
# Si number density = 26.343549 Si / 1000 Ang^3
#
#
#
# Elastic Constant Matrix: (Units=GPa)
#
#
# Indices 1 2 3 4 5 6 
#
# 1 60.7515 29.2764 17.8954 12.3551 4.2606 1.1096
# 2 29.2764 124.8618 58.1042 23.9014 -8.2987 17.6971
# 3 17.8954 58.1042 187.3991 3.7596 12.0551 3.1130
# 4 12.3551 23.9014 3.7596 68.4622 -0.5179 18.2725
# 5 4.2606 -8.2987 12.0551 -0.5179 32.8838 5.4983
# 6 1.1096 17.6971 3.1130 18.2725 5.4983 46.4791
#
#
#
# Elastic Compliance Matrix: (Units=1/GPa)
#
#
# Indices 1 2 3 4 5 6 
#
# 1 0.019549 -0.004694 -0.000136 -0.002682 -0.004191 0.002880
# 2 -0.004694 0.012117 -0.003561 -0.002044 0.005629 -0.004125
# 3 -0.000136 -0.003561 0.006648 0.000583 -0.003493 0.001098
# 4 -0.002682 -0.002044 0.000583 0.017422 0.000921 -0.006155
# 5 -0.004191 0.005629 -0.003493 0.000921 0.034718 -0.006279
# 6 0.002880 -0.004125 0.001098 -0.006155 -0.006279 0.026106
#
#
# Mechanical properties :
#
#
# Convention : Reuss Voigt Hill
#
# Bulk Modulus (GPa) = 46.44191 64.84051 55.64121
# Shear Modulus (GPa) = 35.58221 47.41409 41.49815
#
# Velocity S-wave (km/s) = 3.67917 4.24705 3.97327
# Velocity P-wave (km/s) = 5.97629 6.97974 6.49741
#
# Compressibility (1/GPa) = 0.02153228
#
# Stress axis : x y z
#
# Youngs Moduli (GPa) = 51.15262 82.53078 150.41905
#
# Poissons Ratio (x) = 0.38739 0.02044
# Poissons Ratio (y) = 0.24010 0.53567
# Poissons Ratio (z) = 0.00695 0.29391
#
# Static dielectric constant tensor:
#      x y z
#    x 2.409270 0.385380 -0.012220 
#    y 0.385380 2.676340 -0.345600 
#    z -0.012220 -0.345600 3.177800 
# 
# From -- ./inp_files/317703.got.cif
#   From: 2010.05.17/outbox.cif.g08.bks.cpg/sg2_159_cif.got.tgz:317703.got - 2010.06.03 11:33:40.
