data_PCOD9010850
_publ_section_title
;
Structure prediction by ZEFSAII (Michael W. Deem and Ramdas Pophale) SiO2 
 PCOD9010850
Probable space group: P -1
;
_chemical_formula_sum "Si O2"
_cell_formula_units_Z 16
_cell_length_a 18.977815
_cell_length_b 9.029510
_cell_length_c 14.800450
_cell_angle_alpha 120.766690
_cell_angle_beta 158.430298
_cell_angle_gamma 68.717730
_cell_volume 748.388414
_symmetry_space_group_name_H-M "P -1"
_symmetry_group_IT_number 2
_symmetry_cell_setting 'triclinic'
loop_
_space_group_symop_operation_xyz
x,y,z
-x,-y,-z
loop_
_atom_site_type_symbol
_atom_site_label
_atom_site_fract_x
_atom_site_fract_y
_atom_site_fract_z
Si Si1 0.117736 0.652595 0.406195
Si Si2 0.488785 0.288243 0.705145
Si Si3 0.876834 0.694651 0.595390
Si Si4 0.820553 0.076267 0.835454
Si Si5 0.105581 0.711232 0.714811
Si Si6 0.178187 0.563843 0.156146
Si Si7 0.211845 0.971570 0.752991
Si Si8 0.466216 0.630954 0.681962
O O1 0.116699 0.507187 0.438030
O O2 0.215097 0.855422 0.629403
O O3 0.270167 0.622211 0.505083
O O4 0.901838 0.581713 0.069312
O O5 0.322826 0.290928 0.587399
O O6 0.529758 0.466239 0.746450
O O7 0.380867 0.102458 0.461756
O O8 0.693710 0.278685 0.987427
O O9 0.921864 0.749609 0.562169
O O10 0.088092 0.827100 0.933075
O O11 0.808897 0.237475 0.806011
O O12 0.000000 0.000000 0.000000
O O13 0.187280 0.837057 0.765722
O O14 0.000000 0.500000 0.500000
O O15 0.385241 0.593128 0.469991
O O16 0.000000 0.500000 0.000000
O O17 0.000000 0.000000 0.500000
O O18 0.375182 0.168471 0.038945
#
# Coordination Sequence:
#
# PCOD9010850 Si02
#       8
#     2   2   2   2   2   2   2   2
#     4   9  19  40  65  88 124 162 201 256 307 367
#     4  10  22  41  67  93 125 161 206 258 307 373
#     4   9  20  40  65  94 120 161 206 253 313 363
#     4   9  17  35  62  93 126 157 205 253 306 374
#     4  12  24  42  64  86 126 164 209 260 302 368
#     4   9  17  34  63  93 123 157 199 258 312 363
#     4  12  25  43  58  89 128 163 205 254 313 365
#     4  10  21  40  64  94 121 160 210 251 311 373
#
# _framework density 21.379273000000001
#
# number of rings (size 3 to 8) (size 9 to 14) (size 15 to 20)
#    0.000    2.000    1.250    4.125    0.000    1.000 
#   15.750    0.625    0.000    0.000    0.000    0.000 
#    0.000    0.000    0.000    0.000    0.000    0.000 
#
# Total GULP energy -89128.572456 kJ/mol
# GULP energy per Si atom -5570.535778 kJ/mol
# Density = 2.133061 g / cm^3
# Si number density = 21.379273 Si / 1000 Ang^3
#
#
#
# Elastic Constant Matrix: (Units=GPa)
#
#
# Indices 1 2 3 4 5 6 
#
# 1 73.2056 18.7848 12.3710 -1.3236 -8.5388 3.4930
# 2 18.7848 94.0858 42.9546 14.6505 -10.3058 13.2354
# 3 12.3710 42.9546 116.9445 15.0875 0.4002 5.9290
# 4 -1.3236 14.6505 15.0875 47.6881 0.0433 4.6581
# 5 -8.5388 -10.3058 0.4002 0.0433 14.8121 -2.0098
# 6 3.4930 13.2354 5.9290 4.6581 -2.0098 19.2831
#
#
#
# Elastic Compliance Matrix: (Units=1/GPa)
#
#
# Indices 1 2 3 4 5 6 
#
# 1 0.015247 -0.001841 -0.001106 0.001403 0.007436 -0.000722
# 2 -0.001841 0.015641 -0.004873 -0.002606 0.008964 -0.007340
# 3 -0.001106 -0.004873 0.010709 -0.001945 -0.004274 0.000276
# 4 0.001403 -0.002606 -0.001945 0.022770 -0.001497 -0.003524
# 5 0.007436 0.008964 -0.004274 -0.001497 0.078476 0.002355
# 6 -0.000722 -0.007340 0.000276 -0.003524 0.002355 0.058039
#
#
# Mechanical properties :
#
#
# Convention : Reuss Voigt Hill
#
# Bulk Modulus (GPa) = 38.52596 48.05074 43.28835
# Shear Modulus (GPa) = 22.20492 30.36501 26.28497
#
# Velocity S-wave (km/s) = 3.22626 3.77278 3.51017
# Velocity P-wave (km/s) = 5.65134 6.44225 6.05972
#
# Compressibility (1/GPa) = 0.02595652
#
# Stress axis : x y z
#
# Youngs Moduli (GPa) = 65.58764 63.93420 93.37581
#
# Poissons Ratio (x) = 0.11773 0.10331
# Poissons Ratio (y) = 0.12077 0.45499
# Poissons Ratio (z) = 0.07256 0.31153
#
# Static dielectric constant tensor:
#      x y z
#    x 1.924280 -0.109980 -0.195730 
#    y -0.109980 1.761260 0.102370 
#    z -0.195730 0.102370 1.984610 
# 
# From -- ./inp_files/203675.got.cif
#   From: 2010.05.17/outbox.cif.g08.bks.cpg/sg2_102_cif.got.tgz:203675.got - 2010.06.03 11:33:40.
