data_PCOD9010583
_publ_section_title
;
Structure prediction by ZEFSAII (Michael W. Deem and Ramdas Pophale) SiO2 
 PCOD9010583
Probable space group: P -1
;
_chemical_formula_sum "Si O2"
_cell_formula_units_Z 16
_cell_length_a 11.587650
_cell_length_b 13.404208
_cell_length_c 5.249797
_cell_angle_alpha 106.458158
_cell_angle_beta 117.953953
_cell_angle_gamma 66.316448
_cell_volume 655.047061
_symmetry_space_group_name_H-M "P -1"
_symmetry_group_IT_number 2
_symmetry_cell_setting 'triclinic'
loop_
_space_group_symop_operation_xyz
x,y,z
-x,-y,-z
loop_
_atom_site_type_symbol
_atom_site_label
_atom_site_fract_x
_atom_site_fract_y
_atom_site_fract_z
Si Si1 0.653554 0.293280 0.075351
Si Si2 0.931152 0.736904 0.339108
Si Si3 0.650836 0.766942 0.777222
Si Si4 0.647068 0.151803 0.466206
Si Si5 0.169617 0.392659 0.500371
Si Si6 0.811927 0.411673 0.630554
Si Si7 0.379046 0.437243 0.114944
Si Si8 0.069322 0.030602 0.342896
O O1 0.664782 0.205876 0.252576
O O2 0.766185 0.351901 0.300929
O O3 0.509340 0.391905 0.032954
O O4 0.660260 0.230679 0.771371
O O5 0.945039 0.640655 0.490865
O O6 0.952179 0.841327 0.566729
O O7 0.047644 0.680842 0.207563
O O8 0.778477 0.772953 0.083932
O O9 0.505471 0.861126 0.687433
O O10 0.721552 0.724322 0.551714
O O11 0.603478 0.664951 0.752389
O O12 0.770052 0.039367 0.541254
O O13 0.149728 0.477382 0.309182
O O14 0.245610 0.444679 0.819125
O O15 0.673331 0.452565 0.691298
O O16 0.000000 0.000000 0.500000
O O17 0.000000 0.000000 0.000000
#
# Coordination Sequence:
#
# PCOD9010583 Si02
#       8
#     2   2   2   2   2   2   2   2
#     4  11  23  42  71 103 140 180 230 285 341 405
#     4  11  25  43  66  97 139 180 230 284 340 408
#     4   9  21  41  66  94 136 176 230 281 333 403
#     4  11  23  46  74  99 137 183 228 286 345 394
#     4  10  21  40  63  95 135 180 231 279 331 406
#     4  11  23  37  62 100 138 189 226 277 345 403
#     4   9  20  38  61  97 136 179 229 282 331 404
#     4  12  28  51  75 107 137 173 227 287 348 416
#
# _framework density 24.425726999999998
#
# number of rings (size 3 to 8) (size 9 to 14) (size 15 to 20)
#    0.000    1.500    1.250    3.000    3.500    6.500 
#    0.000    0.625    0.000    0.000    0.000    0.000 
#    0.000    0.000    0.000    0.000    0.000    0.000 
#
# Total GULP energy -89390.458291 kJ/mol
# GULP energy per Si atom -5586.903643 kJ/mol
# Density = 2.437013 g / cm^3
# Si number density = 24.425727 Si / 1000 Ang^3
#
#
#
# Elastic Constant Matrix: (Units=GPa)
#
#
# Indices 1 2 3 4 5 6 
#
# 1 66.5225 31.2952 -0.3393 -3.0283 7.7248 -37.2211
# 2 31.2952 106.6102 12.6807 6.4987 5.2351 -37.8403
# 3 -0.3393 12.6807 100.9519 2.2908 -4.9296 -3.0957
# 4 -3.0283 6.4987 2.2908 25.7510 0.9976 1.0867
# 5 7.7248 5.2351 -4.9296 0.9976 38.9078 -1.5562
# 6 -37.2211 -37.8403 -3.0957 1.0867 -1.5562 49.6615
#
#
#
# Elastic Compliance Matrix: (Units=1/GPa)
#
#
# Indices 1 2 3 4 5 6 
#
# 1 0.026922 -0.001117 0.000539 0.002763 -0.004431 0.019162
# 2 -0.001117 0.013506 -0.001390 -0.003763 -0.001299 0.009409
# 3 0.000539 -0.001390 0.010163 -0.000545 0.001383 0.000034
# 4 0.002763 -0.003763 -0.000545 0.040277 -0.001214 -0.001750
# 5 -0.004431 -0.001299 0.001383 -0.001214 0.026828 -0.003357
# 6 0.019162 0.009409 0.000034 -0.001750 -0.003357 0.041602
#
#
# Mechanical properties :
#
#
# Convention : Reuss Voigt Hill
#
# Bulk Modulus (GPa) = 21.43310 40.15086 30.79198
# Shear Modulus (GPa) = 27.96640 38.22725 33.09683
#
# Velocity S-wave (km/s) = 3.38739 3.96035 3.68502
# Velocity P-wave (km/s) = 4.90847 6.11442 5.54433
#
# Compressibility (1/GPa) = 0.04665680
#
# Stress axis : x y z
#
# Youngs Moduli (GPa) = 37.14387 74.04177 98.39588
#
# Poissons Ratio (x) = 0.08269 -0.05307
# Poissons Ratio (y) = 0.04148 0.13675
# Poissons Ratio (z) = -0.02003 0.10290
#
# Static dielectric constant tensor:
#      x y z
#    x 2.065810 -0.012820 -0.022310 
#    y -0.012820 1.971240 -0.066330 
#    z -0.022310 -0.066330 1.930940 
# 
# From -- ./inp_files/78666.got.cif
#   From: 2010.05.17/outbox.cif.g08.bks.cpg/sg2_40_cif.got.tgz:78666.got - 2010.06.03 11:33:40.
