data_PCOD9010305
_publ_section_title
;
Structure prediction by ZEFSAII (Michael W. Deem and Ramdas Pophale) SiO2 
 PCOD9010305
Probable space group: P -1
;
_chemical_formula_sum "Si O2"
_cell_formula_units_Z 12
_cell_length_a 5.212883
_cell_length_b 7.232280
_cell_length_c 21.849971
_cell_angle_alpha 133.189780
_cell_angle_beta 82.435420
_cell_angle_gamma 72.756797
_cell_volume 503.076278
_symmetry_space_group_name_H-M "P -1"
_symmetry_group_IT_number 2
_symmetry_cell_setting 'triclinic'
loop_
_space_group_symop_operation_xyz
x,y,z
-x,-y,-z
loop_
_atom_site_type_symbol
_atom_site_label
_atom_site_fract_x
_atom_site_fract_y
_atom_site_fract_z
Si Si1 0.201874 0.624747 0.277568
Si Si2 0.136647 0.705625 0.052891
Si Si3 0.322590 0.327760 0.413767
Si Si4 0.097498 0.677945 0.838148
Si Si5 0.838713 0.851894 0.221259
Si Si6 0.673077 0.080007 0.464515
O O1 0.560144 0.472739 0.231850
O O2 0.108982 0.380249 0.215252
O O3 0.051682 0.832710 0.267930
O O4 0.029837 0.827530 0.387973
O O5 0.982159 0.874707 0.159876
O O6 0.500000 0.500000 0.000000
O O7 0.044582 0.973195 0.068908
O O8 0.000000 0.500000 0.000000
O O9 0.527864 0.089698 0.405753
O O10 0.379574 0.592774 0.456734
O O11 0.000000 0.500000 0.500000
O O12 0.481471 0.109984 0.301034
O O13 0.123470 0.472801 0.848219
O O14 0.500000 0.000000 0.500000
#
# Coordination Sequence:
#
# PCOD9010305 Si02
#       6
#     2   2   2   2   2   2
#     4   9  21  42  64  94 130 175 209 255 328 381
#     4  12  28  45  67 100 124 164 224 272 331 394
#     4  10  21  40  62  98 131 174 220 259 316 393
#     4  10  22  44  66  91 126 166 216 264 329 384
#     4   9  24  41  69  91 134 174 209 272 323 380
#     4  10  22  36  59  95 135 171 216 263 313 381
#
# _framework density 23.853244
#
# number of rings (size 3 to 8) (size 9 to 14) (size 15 to 20)
#    1.000    1.000    0.000    2.000    4.667    3.333 
#    0.000    0.000    0.000    0.000    0.000    0.000 
#    0.000    0.000    0.000    0.000    0.000    0.000 
#
# Total GULP energy -66923.082111 kJ/mol
# GULP energy per Si atom -5576.923509 kJ/mol
# Density = 2.379895 g / cm^3
# Si number density = 23.853244 Si / 1000 Ang^3
#
#
#
# Elastic Constant Matrix: (Units=GPa)
#
#
# Indices 1 2 3 4 5 6 
#
# 1 95.4947 26.7083 19.9585 -0.4946 -24.2532 27.6674
# 2 26.7083 99.7573 28.1736 -3.9989 -3.4167 25.3705
# 3 19.9585 28.1736 80.8128 -1.4088 -13.6908 5.0579
# 4 -0.4946 -3.9989 -1.4088 41.2080 8.6173 3.0855
# 5 -24.2532 -3.4167 -13.6908 8.6173 38.4974 6.2706
# 6 27.6674 25.3705 5.0579 3.0855 6.2706 30.1926
#
#
#
# Elastic Compliance Matrix: (Units=1/GPa)
#
#
# Indices 1 2 3 4 5 6 
#
# 1 0.022071 0.001291 -0.001353 -0.001554 0.017899 -0.024641
# 2 0.001291 0.014342 -0.004052 0.001756 0.002408 -0.013235
# 3 -0.001353 -0.004052 0.014687 -0.000845 0.003964 0.001447
# 4 -0.001554 0.001756 -0.000845 0.025884 -0.006729 -0.001158
# 5 0.017899 0.002408 0.003964 -0.006729 0.044898 -0.027727
# 6 -0.024641 -0.013235 0.001447 -0.001158 -0.027727 0.072456
#
#
# Mechanical properties :
#
#
# Convention : Reuss Voigt Hill
#
# Bulk Modulus (GPa) = 23.32571 47.30505 35.31538
# Shear Modulus (GPa) = 23.05656 35.39458 29.22557
#
# Velocity S-wave (km/s) = 3.11239 3.85625 3.50412
# Velocity P-wave (km/s) = 4.76614 6.30098 5.58652
#
# Compressibility (1/GPa) = 0.04287116
#
# Stress axis : x y z
#
# Youngs Moduli (GPa) = 45.30867 69.72596 68.08546
#
# Poissons Ratio (x) = -0.09000 0.09214
# Poissons Ratio (y) = -0.05848 0.27588
# Poissons Ratio (z) = 0.06132 0.28252
#
# Static dielectric constant tensor:
#      x y z
#    x 1.974950 -0.025160 0.026340 
#    y -0.025160 1.900210 -0.019700 
#    z 0.026340 -0.019700 2.000640 
# 
# From -- ./inp_files/548261.got.cif
#   From: 2010.05.17/outbox.cif.g08.bks.cpg/sg2_275_cif.got.tgz:548261.got - 2010.06.03 11:33:40.
