data_PCOD9010457
_publ_section_title
;
Structure prediction by ZEFSAII (Michael W. Deem and Ramdas Pophale) SiO2 
 PCOD9010457
Probable space group: P -1
;
_chemical_formula_sum "Si O2"
_cell_formula_units_Z 16
_cell_length_a 9.270979
_cell_length_b 19.003676
_cell_length_c 8.970830
_cell_angle_alpha 57.542199
_cell_angle_beta 132.284513
_cell_angle_gamma 139.926414
_cell_volume 751.956080
_symmetry_space_group_name_H-M "P -1"
_symmetry_group_IT_number 2
_symmetry_cell_setting 'triclinic'
loop_
_space_group_symop_operation_xyz
x,y,z
-x,-y,-z
loop_
_atom_site_type_symbol
_atom_site_label
_atom_site_fract_x
_atom_site_fract_y
_atom_site_fract_z
Si Si1 0.445127 0.482949 0.808499
Si Si2 0.890923 0.158625 0.167157
Si Si3 0.093393 0.724908 0.229642
Si Si4 0.800577 0.431116 0.573368
Si Si5 0.815081 0.798180 0.375913
Si Si6 0.736990 0.084099 0.676156
Si Si7 0.693041 0.955977 0.060704
Si Si8 0.634390 0.453137 0.708387
O O1 0.431136 0.573515 0.634829
O O2 0.644078 0.481507 0.856010
O O3 0.153825 0.365351 0.736990
O O4 0.500000 0.500000 0.000000
O O5 0.069124 0.194763 0.391829
O O6 0.821707 0.051498 0.164250
O O7 0.995085 0.248388 0.008202
O O8 0.613994 0.118641 0.065595
O O9 0.226134 0.675892 0.324155
O O10 0.283200 0.839561 0.319630
O O11 0.860423 0.487816 0.713808
O O12 0.000000 0.500000 0.500000
O O13 0.765427 0.882274 0.230165
O O14 0.560846 0.676796 0.300153
O O15 0.024201 0.834793 0.355804
O O16 0.500000 0.000000 0.500000
O O17 0.778071 0.017510 0.891042
O O18 0.500000 0.500000 0.500000
#
# Coordination Sequence:
#
# PCOD9010457 Si02
#       8
#     2   2   2   2   2   2   2   2
#     4  10  21  40  63  91 127 169 214 270 329 389
#     4  10  22  38  63  91 128 167 211 270 328 384
#     4  10  21  41  61  90 128 169 212 271 330 386
#     4   9  20  41  65  89 124 168 212 272 326 389
#     4  12  22  40  67  93 126 174 217 265 335 389
#     4  11  22  42  63  89 133 174 215 273 330 384
#     4  10  22  41  61  92 129 165 220 270 317 396
#     4  10  22  40  66  91 129 164 214 270 326 395
#
# _framework density 21.277836000000001
#
# number of rings (size 3 to 8) (size 9 to 14) (size 15 to 20)
#    0.000    1.750    2.500    1.500    3.500    0.000 
#    4.500    2.500    0.000    0.000    0.000    0.000 
#    0.000    0.000    0.000    0.000    0.000    0.000 
#
# Total GULP energy -89266.867108 kJ/mol
# GULP energy per Si atom -5579.179194 kJ/mol
# Density = 2.122941 g / cm^3
# Si number density = 21.277836 Si / 1000 Ang^3
#
#
#
# Elastic Constant Matrix: (Units=GPa)
#
#
# Indices 1 2 3 4 5 6 
#
# 1 132.4462 38.5333 49.6070 -4.2243 -19.8988 -31.3765
# 2 38.5333 72.5709 36.7755 -22.2099 7.6617 -20.5780
# 3 49.6070 36.7755 97.1226 -15.0003 -7.2970 -32.1775
# 4 -4.2243 -22.2099 -15.0003 35.1523 -4.7591 1.9835
# 5 -19.8988 7.6617 -7.2970 -4.7591 32.3141 -9.5629
# 6 -31.3765 -20.5780 -32.1775 1.9835 -9.5629 45.7551
#
#
#
# Elastic Compliance Matrix: (Units=1/GPa)
#
#
# Indices 1 2 3 4 5 6 
#
# 1 0.013300 -0.005788 -0.001313 -0.001526 0.011422 0.008047
# 2 -0.005788 0.023827 -0.004469 0.011269 -0.008145 0.001414
# 3 -0.001313 -0.004469 0.017735 0.005083 0.008281 0.011072
# 4 -0.001526 0.011269 0.005083 0.037860 0.005195 0.007041
# 5 0.011422 -0.008145 0.008281 0.005195 0.048433 0.019891
# 6 0.008047 0.001414 0.011072 0.007041 0.019891 0.039648
#
#
# Mechanical properties :
#
#
# Convention : Reuss Voigt Hill
#
# Bulk Modulus (GPa) = 31.52384 61.33013 46.42698
# Shear Modulus (GPa) = 23.30839 34.45920 28.88380
#
# Velocity S-wave (km/s) = 3.31332 4.02865 3.68837
# Velocity P-wave (km/s) = 5.43000 7.10817 6.32499
#
# Compressibility (1/GPa) = 0.03172203
#
# Stress axis : x y z
#
# Youngs Moduli (GPa) = 75.18987 41.96904 56.38720
#
# Poissons Ratio (x) = 0.24290 0.07403
# Poissons Ratio (y) = 0.43517 0.25200
# Poissons Ratio (z) = 0.09872 0.18756
#
# Static dielectric constant tensor:
#      x y z
#    x 1.845650 0.031660 -0.039460 
#    y 0.031660 1.791640 0.012510 
#    z -0.039460 0.012510 1.784600 
# 
# From -- ./inp_files/207556.got.cif
#   From: 2010.05.17/outbox.cif.g08.bks.cpg/sg2_104_cif.got.tgz:207556.got - 2010.06.03 11:33:40.
