data_PCOD9010243
_publ_section_title
;
Structure prediction by ZEFSAII (Michael W. Deem and Ramdas Pophale) SiO2 
 PCOD9010243
Probable space group: P -1
;
_chemical_formula_sum "Si O2"
_cell_formula_units_Z 16
_cell_length_a 11.369563
_cell_length_b 15.897007
_cell_length_c 17.767976
_cell_angle_alpha 47.065032
_cell_angle_beta 19.728434
_cell_angle_gamma 45.720478
_cell_volume 772.287977
_symmetry_space_group_name_H-M "P -1"
_symmetry_group_IT_number 2
_symmetry_cell_setting 'triclinic'
loop_
_space_group_symop_operation_xyz
x,y,z
-x,-y,-z
loop_
_atom_site_type_symbol
_atom_site_label
_atom_site_fract_x
_atom_site_fract_y
_atom_site_fract_z
Si Si1 0.800448 0.429546 0.915950
Si Si2 0.401393 0.874882 0.137226
Si Si3 0.897635 0.206220 0.784984
Si Si4 0.289882 0.193044 0.702435
Si Si5 0.341531 0.390620 0.357765
Si Si6 0.129878 0.692063 0.784727
Si Si7 0.095874 0.349759 0.208262
Si Si8 0.225360 0.872814 0.416141
O O1 0.999536 0.529608 0.762007
O O2 0.053325 0.322263 0.786337
O O3 0.500000 0.500000 0.000000
O O4 0.580763 0.386401 0.142069
O O5 0.201940 0.863792 0.184821
O O6 0.224483 0.871435 0.327165
O O7 0.752137 0.767584 0.994735
O O8 0.500000 0.000000 0.000000
O O9 0.072619 0.145049 0.795184
O O10 0.176373 0.277756 0.540600
O O11 0.525167 0.297237 0.977131
O O12 0.652967 0.212032 0.433636
O O13 0.411772 0.138507 0.744710
O O14 0.618565 0.390637 0.258077
O O15 0.000000 0.500000 0.500000
O O16 0.047562 0.620128 0.807185
O O17 0.933119 0.240488 0.398663
O O18 0.000000 0.000000 0.500000
#
# Coordination Sequence:
#
# PCOD9010243 Si02
#       8
#     2   2   2   2   2   2   2   2
#     4  12  22  36  63  93 134 162 207 257 312 370
#     4  11  23  44  67  92 122 164 208 262 313 368
#     4  10  21  41  64  93 127 164 209 252 309 379
#     4  10  21  41  63  94 128 167 206 260 311 371
#     4  11  21  39  59  90 127 169 200 252 309 366
#     4   9  21  40  60  88 126 158 213 251 304 375
#     4  10  21  40  62  93 124 167 205 261 312 367
#     4  11  24  44  67  91 127 163 212 263 313 369
#
# _framework density 20.717659000000001
#
# number of rings (size 3 to 8) (size 9 to 14) (size 15 to 20)
#    0.000    1.500    2.500    3.750    1.750    2.500 
#    2.250    8.125    0.000    0.000    0.000    0.000 
#    0.000    0.000    0.000    0.000    0.000    0.000 
#
# Total GULP energy -89209.633403 kJ/mol
# GULP energy per Si atom -5575.602088 kJ/mol
# Density = 2.067050 g / cm^3
# Si number density = 20.717659 Si / 1000 Ang^3
#
#
#
# Elastic Constant Matrix: (Units=GPa)
#
#
# Indices 1 2 3 4 5 6 
#
# 1 156.0972 48.0603 18.4124 1.9209 -19.3225 16.4130
# 2 48.0603 88.3495 13.6601 1.4852 -5.2482 19.9088
# 3 18.4124 13.6601 56.8757 -6.6520 6.7908 12.4574
# 4 1.9209 1.4852 -6.6520 25.9414 -1.3165 2.8830
# 5 -19.3225 -5.2482 6.7908 -1.3165 37.4574 3.2184
# 6 16.4130 19.9088 12.4574 2.8830 3.2184 33.3333
#
#
#
# Elastic Compliance Matrix: (Units=1/GPa)
#
#
# Indices 1 2 3 4 5 6 
#
# 1 0.008500 -0.003673 -0.002112 -0.000564 0.004368 -0.001575
# 2 -0.003673 0.015096 -0.001048 -0.000042 0.001002 -0.006909
# 3 -0.002112 -0.001048 0.021139 0.006124 -0.004308 -0.006348
# 4 -0.000564 -0.000042 0.006124 0.040807 0.000505 -0.005564
# 5 0.004368 0.001002 -0.004308 0.000505 0.030242 -0.004103
# 6 -0.001575 -0.006909 -0.006348 -0.005564 -0.004103 0.038152
#
#
# Mechanical properties :
#
#
# Convention : Reuss Voigt Hill
#
# Bulk Modulus (GPa) = 32.18733 51.28753 41.73743
# Shear Modulus (GPa) = 28.09670 34.09240 31.09455
#
# Velocity S-wave (km/s) = 3.68662 4.06097 3.87831
# Velocity P-wave (km/s) = 5.80443 6.84089 6.34387
#
# Compressibility (1/GPa) = 0.03106813
#
# Stress axis : x y z
#
# Youngs Moduli (GPa) = 117.65316 66.24266 47.30703
#
# Poissons Ratio (x) = 0.24332 0.09991
# Poissons Ratio (y) = 0.43216 0.04957
# Poissons Ratio (z) = 0.24847 0.06941
#
# Static dielectric constant tensor:
#      x y z
#    x 1.503240 -0.082600 -0.159030 
#    y -0.082600 1.698040 -0.071400 
#    z -0.159030 -0.071400 1.685200 
# 
# From -- ./inp_files/569949.got.cif
#   From: 2010.05.17/outbox.cif.g08.bks.cpg/sg2_285_cif.got.tgz:569949.got - 2010.06.03 11:33:40.
