data_PCOD9010790
_publ_section_title
;
Structure prediction by ZEFSAII (Michael W. Deem and Ramdas Pophale) SiO2 
 PCOD9010790
Probable space group: P -1
;
_chemical_formula_sum "Si O2"
_cell_formula_units_Z 16
_cell_length_a 9.060347
_cell_length_b 19.550996
_cell_length_c 11.557865
_cell_angle_alpha 151.213335
_cell_angle_beta 39.401065
_cell_angle_gamma 132.657423
_cell_volume 625.793891
_symmetry_space_group_name_H-M "P -1"
_symmetry_group_IT_number 2
_symmetry_cell_setting 'triclinic'
loop_
_space_group_symop_operation_xyz
x,y,z
-x,-y,-z
loop_
_atom_site_type_symbol
_atom_site_label
_atom_site_fract_x
_atom_site_fract_y
_atom_site_fract_z
Si Si1 0.461158 0.564251 0.379226
Si Si2 0.405685 0.927531 0.065926
Si Si3 0.286860 0.869999 0.539235
Si Si4 0.662159 0.677176 0.656112
Si Si5 0.017887 0.700470 0.890081
Si Si6 0.271302 0.173704 0.942913
Si Si7 0.115097 0.604910 0.180053
Si Si8 0.418595 0.229409 0.594394
O O1 0.539633 0.579726 0.488928
O O2 0.185483 0.568307 0.564428
O O3 0.529695 0.698640 0.454250
O O4 0.621085 0.447637 0.046944
O O5 0.340754 0.064881 0.384897
O O6 0.607044 0.830697 0.857421
O O7 0.190411 0.819742 0.018137
O O8 0.500000 0.000000 0.000000
O O9 0.543472 0.873087 0.334201
O O10 0.138344 0.774150 0.398007
O O11 0.341902 0.785612 0.499210
O O12 0.198480 0.029334 0.837260
O O13 0.920939 0.611960 0.406804
O O14 0.609252 0.716998 0.878723
O O15 0.932426 0.759304 0.907031
O O16 0.790920 0.686376 0.089004
O O17 0.000000 0.500000 0.000000
#
# Coordination Sequence:
#
# PCOD9010790 Si02
#       8
#     2   2   2   2   2   2   2   2
#     4  10  23  45  61  90 130 169 225 260 305 385
#     4  11  20  37  62  96 131 164 209 269 326 387
#     4  10  23  40  64  94 135 162 208 274 321 388
#     4  10  21  40  64  92 126 166 212 261 326 378
#     4  10  23  38  63  94 129 171 210 263 327 380
#     4  10  22  41  64 101 126 162 210 268 340 378
#     4  10  24  44  62  90 128 176 220 255 317 384
#     4  11  21  40  64  94 126 169 214 266 325 379
#
# _framework density 25.567525
#
# number of rings (size 3 to 8) (size 9 to 14) (size 15 to 20)
#    0.000    1.750    3.750    0.375    3.500    1.000 
#   11.250    2.500    0.000    0.000    0.000    0.000 
#    0.000    0.000    0.000    0.000    0.000    0.000 
#
# Total GULP energy -89224.160183 kJ/mol
# GULP energy per Si atom -5576.510011 kJ/mol
# Density = 2.550933 g / cm^3
# Si number density = 25.567525 Si / 1000 Ang^3
#
#
#
# Elastic Constant Matrix: (Units=GPa)
#
#
# Indices 1 2 3 4 5 6 
#
# 1 123.3084 38.0373 55.5722 1.1783 3.7195 -3.9215
# 2 38.0373 74.5445 33.0815 -1.7062 5.2999 0.1103
# 3 55.5722 33.0815 110.6335 -2.0905 -19.1084 -5.3659
# 4 1.1783 -1.7062 -2.0905 56.1454 9.9771 13.7354
# 5 3.7195 5.2999 -19.1084 9.9771 39.2397 1.0532
# 6 -3.9215 0.1103 -5.3659 13.7354 1.0532 34.2626
#
#
#
# Elastic Compliance Matrix: (Units=1/GPa)
#
#
# Indices 1 2 3 4 5 6 
#
# 1 0.011702 -0.003337 -0.005418 -0.000125 -0.003282 0.000653
# 2 -0.003337 0.017416 -0.004363 0.001644 -0.004535 -0.001641
# 3 -0.005418 -0.004363 0.014610 -0.001486 0.008541 0.002015
# 4 -0.000125 0.001644 -0.001486 0.020951 -0.006034 -0.008466
# 5 -0.003282 -0.004535 0.008541 -0.006034 0.032037 0.002410
# 6 0.000653 -0.001641 0.002015 -0.008466 0.002410 0.032902
#
#
# Mechanical properties :
#
#
# Convention : Reuss Voigt Hill
#
# Bulk Modulus (GPa) = 57.17009 62.42980 59.79994
# Shear Modulus (GPa) = 30.92443 38.04923 34.48683
#
# Velocity S-wave (km/s) = 3.48159 3.86189 3.67666
# Velocity P-wave (km/s) = 6.21055 6.66004 6.43922
#
# Compressibility (1/GPa) = 0.01749166
#
# Stress axis : x y z
#
# Youngs Moduli (GPa) = 85.45735 57.41688 68.44743
#
# Poissons Ratio (x) = 0.19161 0.37082
# Poissons Ratio (y) = 0.28519 0.29866
# Poissons Ratio (z) = 0.46298 0.25053
#
# Static dielectric constant tensor:
#      x y z
#    x 2.041030 0.024610 0.007430 
#    y 0.024610 2.087280 0.041660 
#    z 0.007430 0.041660 2.004830 
# 
# From -- ./inp_files/346470.got.cif
#   From: 2010.05.17/outbox.cif.g08.bks.cpg/sg2_174_cif.got.tgz:346470.got - 2010.06.03 11:33:40.
