data_PCOD9010839
_publ_section_title
;
Structure prediction by ZEFSAII (Michael W. Deem and Ramdas Pophale) SiO2 
 PCOD9010839
Probable space group: P -1
;
_chemical_formula_sum "Si O2"
_cell_formula_units_Z 14
_cell_length_a 13.510995
_cell_length_b 4.997389
_cell_length_c 12.634732
_cell_angle_alpha 112.589759
_cell_angle_beta 125.718544
_cell_angle_gamma 89.472429
_cell_volume 612.602831
_symmetry_space_group_name_H-M "P -1"
_symmetry_group_IT_number 2
_symmetry_cell_setting 'triclinic'
loop_
_space_group_symop_operation_xyz
x,y,z
-x,-y,-z
loop_
_atom_site_type_symbol
_atom_site_label
_atom_site_fract_x
_atom_site_fract_y
_atom_site_fract_z
Si Si1 0.206883 0.899729 0.289417
Si Si2 0.579558 0.263697 0.513989
Si Si3 0.913388 0.655974 0.132559
Si Si4 0.673390 0.823410 0.394157
Si Si5 0.861135 0.983394 0.959169
Si Si6 0.772945 0.884326 0.247088
Si Si7 0.387613 0.701654 0.861957
O O1 0.399748 0.919296 0.605603
O O2 0.266150 0.170001 0.451144
O O3 0.281181 0.658127 0.332558
O O4 0.223106 0.003404 0.194514
O O5 0.500000 0.500000 0.500000
O O6 0.500000 0.000000 0.500000
O O7 0.875116 0.300670 0.074775
O O8 0.888107 0.837200 0.245454
O O9 0.059594 0.760876 0.203376
O O10 0.834283 0.730697 0.994630
O O11 0.780662 0.913443 0.383519
O O12 0.587844 0.500833 0.251459
O O13 0.000000 0.000000 0.000000
O O14 0.660346 0.559579 0.118528
O O15 0.728242 0.163039 0.219009
O O16 0.500000 0.000000 0.000000
#
# Coordination Sequence:
#
# PCOD9010839 Si02
#       7
#     2   2   2   2   2   2   2
#     4   9  21  43  66 101 136 183 218 287 345 392
#     4  10  23  41  64  97 135 172 228 275 338 410
#     4  11  22  41  67  99 140 178 227 274 338 422
#     4   8  23  40  69  98 136 173 226 282 349 399
#     4  10  21  40  64  93 133 184 227 273 327 403
#     4  10  22  41  65 102 133 173 228 276 342 417
#     4  10  21  43  66  91 136 179 223 279 339 392
#
# _framework density 22.853304999999999
#
# number of rings (size 3 to 8) (size 9 to 14) (size 15 to 20)
#    1.714    0.571    0.000    3.000    2.000    4.000 
#   10.286    2.143    0.000    0.000    0.000    1.000 
#    0.000    0.000    0.000    0.000    0.000    0.000 
#
# Total GULP energy -77989.952739 kJ/mol
# GULP energy per Si atom -5570.710910 kJ/mol
# Density = 2.280129 g / cm^3
# Si number density = 22.853305 Si / 1000 Ang^3
#
#
#
# Elastic Constant Matrix: (Units=GPa)
#
#
# Indices 1 2 3 4 5 6 
#
# 1 91.3408 33.3486 31.9666 -8.9879 -18.4593 -26.5398
# 2 33.3486 147.2707 29.0157 3.1160 -1.1394 -33.1795
# 3 31.9666 29.0157 91.5287 3.1832 -6.7399 -22.4352
# 4 -8.9879 3.1160 3.1832 32.1094 0.7678 -3.4623
# 5 -18.4593 -1.1394 -6.7399 0.7678 26.2697 3.2344
# 6 -26.5398 -33.1795 -22.4352 -3.4623 3.2344 41.6682
#
#
#
# Elastic Compliance Matrix: (Units=1/GPa)
#
#
# Indices 1 2 3 4 5 6 
#
# 1 0.017636 -0.001634 -0.003142 0.006015 0.010363 0.007935
# 2 -0.001634 0.008547 -0.000931 -0.000579 -0.001657 0.005345
# 3 -0.003142 -0.000931 0.013490 -0.001678 0.000729 0.004325
# 4 0.006015 -0.000579 -0.001678 0.033546 0.002164 0.005086
# 5 0.010363 -0.001657 0.000729 0.002164 0.045111 0.002351
# 6 0.007935 0.005345 0.004325 0.005086 0.002351 0.035878
#
#
# Mechanical properties :
#
#
# Convention : Reuss Voigt Hill
#
# Bulk Modulus (GPa) = 35.38649 57.64466 46.51558
# Shear Modulus (GPa) = 28.56455 35.73007 32.14731
#
# Velocity S-wave (km/s) = 3.53924 3.95834 3.75464
# Velocity P-wave (km/s) = 5.67622 6.79484 6.26056
#
# Compressibility (1/GPa) = 0.02825937
#
# Stress axis : x y z
#
# Youngs Moduli (GPa) = 56.70225 116.99857 74.12770
#
# Poissons Ratio (x) = 0.19114 0.23295
# Poissons Ratio (y) = 0.09263 0.06900
# Poissons Ratio (z) = 0.17819 0.10890
#
# Static dielectric constant tensor:
#      x y z
#    x 1.889380 0.021490 0.017490 
#    y 0.021490 1.884440 0.016240 
#    z 0.017490 0.016240 1.955900 
# 
# From -- ./inp_files/441342.got.cif
#   From: 2010.05.17/outbox.cif.g08.bks.cpg/sg2_221_cif.got.tgz:441342.got - 2010.06.03 11:33:40.
