data_PCOD9010371
_publ_section_title
;
Structure prediction by ZEFSAII (Michael W. Deem and Ramdas Pophale) SiO2 
 PCOD9010371
Probable space group: P -1
;
_chemical_formula_sum "Si O2"
_cell_formula_units_Z 16
_cell_length_a 15.100218
_cell_length_b 8.657213
_cell_length_c 20.172016
_cell_angle_alpha 38.947114
_cell_angle_beta 151.251128
_cell_angle_gamma 141.473983
_cell_volume 751.968585
_symmetry_space_group_name_H-M "P -1"
_symmetry_group_IT_number 2
_symmetry_cell_setting 'triclinic'
loop_
_space_group_symop_operation_xyz
x,y,z
-x,-y,-z
loop_
_atom_site_type_symbol
_atom_site_label
_atom_site_fract_x
_atom_site_fract_y
_atom_site_fract_z
Si Si1 0.828103 0.001615 0.935657
Si Si2 0.271575 0.409995 0.613443
Si Si3 0.297461 0.289800 0.911606
Si Si4 0.197023 0.548329 0.154357
Si Si5 0.522362 0.757160 0.554198
Si Si6 0.477130 0.045886 0.855843
Si Si7 0.432259 0.900467 0.647769
Si Si8 0.828628 0.248930 0.352893
O O1 0.833749 0.299180 0.851675
O O2 0.623960 0.849796 0.817268
O O3 0.817076 0.870214 0.045620
O O4 0.000000 0.000000 0.000000
O O5 0.362186 0.517741 0.564794
O O6 0.393908 0.233335 0.781046
O O7 0.308811 0.659532 0.601637
O O8 0.046549 0.257528 0.503972
O O9 0.176444 0.455209 0.744393
O O10 0.500000 0.500000 0.000000
O O11 0.382936 0.116496 0.976948
O O12 0.272352 0.301173 0.289373
O O13 0.375363 0.762566 0.163288
O O14 0.000000 0.500000 0.000000
O O15 0.500000 0.000000 0.500000
O O16 0.499348 0.837026 0.437774
O O17 0.284609 0.863709 0.751718
O O18 0.304989 0.916757 0.621419
#
# Coordination Sequence:
#
# PCOD9010371 Si02
#       8
#     2   2   2   2   2   2   2   2
#     4  11  24  37  62  93 120 157 200 254 295 352
#     4  10  22  37  62  85 115 159 194 240 302 356
#     4   9  18  39  62  79 117 157 198 236 302 345
#     4  10  21  40  63  88 121 160 198 243 306 357
#     4   9  22  39  62  90 121 158 196 251 299 354
#     4   9  19  38  57  87 114 150 196 249 285 351
#     4  11  22  40  58  87 128 149 200 248 299 348
#     4  11  20  39  63  84 114 160 198 241 294 359
#
# _framework density 21.277486
#
# number of rings (size 3 to 8) (size 9 to 14) (size 15 to 20)
#    0.000    2.000    3.750    0.750    7.000    3.500 
#    0.000    3.125    0.000    0.000    0.000    0.000 
#    0.000    0.000    0.000    0.000    0.000    0.000 
#
# Total GULP energy -89097.091984 kJ/mol
# GULP energy per Si atom -5568.568249 kJ/mol
# Density = 2.122906 g / cm^3
# Si number density = 21.277486 Si / 1000 Ang^3
#
#
#
# Elastic Constant Matrix: (Units=GPa)
#
#
# Indices 1 2 3 4 5 6 
#
# 1 79.0811 15.1095 42.0672 1.1458 12.6596 19.0821
# 2 15.1095 48.4195 15.3417 6.2508 11.2773 -3.0024
# 3 42.0672 15.3417 83.3133 -5.0839 23.7685 -0.8572
# 4 1.1458 6.2508 -5.0839 40.5133 1.1655 7.4214
# 5 12.6596 11.2773 23.7685 1.1655 41.7819 -2.5562
# 6 19.0821 -3.0024 -0.8572 7.4214 -2.5562 27.5694
#
#
#
# Elastic Compliance Matrix: (Units=1/GPa)
#
#
# Indices 1 2 3 4 5 6 
#
# 1 0.023937 -0.005208 -0.010965 0.002090 -0.000776 -0.018111
# 2 -0.005208 0.024602 -0.001018 -0.004989 -0.003902 0.007233
# 3 -0.010965 -0.001018 0.020036 0.001933 -0.007433 0.006892
# 4 0.002090 -0.004989 0.001933 0.027421 -0.001731 -0.009472
# 5 -0.000776 -0.003902 -0.007433 -0.001731 0.029688 0.003100
# 6 -0.018111 0.007233 0.006892 -0.009472 0.003100 0.052647
#
#
# Mechanical properties :
#
#
# Convention : Reuss Voigt Hill
#
# Bulk Modulus (GPa) = 29.24445 39.53896 34.39170
# Shear Modulus (GPa) = 22.31046 31.19261 26.75154
#
# Velocity S-wave (km/s) = 3.24164 3.83298 3.54965
# Velocity P-wave (km/s) = 5.27116 6.18157 5.74443
#
# Compressibility (1/GPa) = 0.03419453
#
# Stress axis : x y z
#
# Youngs Moduli (GPa) = 41.77632 40.64765 49.90934
#
# Poissons Ratio (x) = 0.21167 0.54725
# Poissons Ratio (y) = 0.21755 0.05080
# Poissons Ratio (z) = 0.45808 0.04137
#
# Static dielectric constant tensor:
#      x y z
#    x 1.801810 -0.038000 0.006480 
#    y -0.038000 1.818650 -0.070350 
#    z 0.006480 -0.070350 1.811050 
# 
# From -- ./inp_files/590308.got.cif
#   From: 2010.05.17/outbox.cif.g08.bks.cpg/sg2_296_cif.got.tgz:590308.got - 2010.06.03 11:33:40.
