data_PCOD9010819
_publ_section_title
;
Structure prediction by ZEFSAII (Michael W. Deem and Ramdas Pophale) SiO2 
 PCOD9010819
Probable space group: P -1
;
_chemical_formula_sum "Si O2"
_cell_formula_units_Z 16
_cell_length_a 14.092301
_cell_length_b 9.563560
_cell_length_c 8.398475
_cell_angle_alpha 71.130905
_cell_angle_beta 131.701601
_cell_angle_gamma 111.104837
_cell_volume 782.665346
_symmetry_space_group_name_H-M "P -1"
_symmetry_group_IT_number 2
_symmetry_cell_setting 'triclinic'
loop_
_space_group_symop_operation_xyz
x,y,z
-x,-y,-z
loop_
_atom_site_type_symbol
_atom_site_label
_atom_site_fract_x
_atom_site_fract_y
_atom_site_fract_z
Si Si1 0.331256 0.215528 0.124706
Si Si2 0.370915 0.906906 0.304434
Si Si3 0.630000 0.625297 0.552883
Si Si4 0.810099 0.389941 0.767358
Si Si5 0.419029 0.629535 0.830113
Si Si6 0.482546 0.832863 0.121769
Si Si7 0.830735 0.593066 0.317272
Si Si8 0.046601 0.561997 0.775956
O O1 0.326104 0.284819 0.268523
O O2 0.481320 0.264461 0.215073
O O3 0.289650 0.036439 0.144740
O O4 0.244411 0.284882 0.878812
O O5 0.285541 0.760674 0.344426
O O6 0.413605 0.849018 0.205412
O O7 0.500000 0.000000 0.500000
O O8 0.500000 0.500000 0.500000
O O9 0.735294 0.528594 0.654000
O O10 0.596548 0.744345 0.340226
O O11 0.941448 0.435409 0.796831
O O12 0.857250 0.357990 0.011166
O O13 0.275676 0.536421 0.666591
O O14 0.500000 0.500000 0.000000
O O15 0.409027 0.721814 0.946160
O O16 0.500000 0.000000 0.000000
O O17 0.880481 0.513915 0.248982
O O18 0.953226 0.653229 0.544363
#
# Coordination Sequence:
#
# PCOD9010819 Si02
#       8
#     2   2   2   2   2   2   2   2
#     4  11  22  39  63  98 134 164 207 275 340 388
#     4  12  24  41  62  98 137 168 207 271 342 391
#     4  12  22  39  66  94 128 171 216 271 326 389
#     4  11  24  42  67  93 127 170 233 262 314 393
#     4  10  22  36  64  99 130 163 207 272 331 385
#     4  12  24  37  57  98 142 163 200 259 345 400
#     4  10  21  40  64  93 125 168 227 265 323 377
#     4  10  23  41  65  91 123 176 226 273 300 376
#
# _framework density 20.442964
#
# number of rings (size 3 to 8) (size 9 to 14) (size 15 to 20)
#    0.000    1.000    5.000    2.250    7.000    0.000 
#    0.000    1.250    0.000    0.000    0.000    0.000 
#    0.000    0.000    0.000    0.000    0.000    0.000 
#
# Total GULP energy -89280.269277 kJ/mol
# GULP energy per Si atom -5580.016830 kJ/mol
# Density = 2.039644 g / cm^3
# Si number density = 20.442964 Si / 1000 Ang^3
#
#
#
# Elastic Constant Matrix: (Units=GPa)
#
#
# Indices 1 2 3 4 5 6 
#
# 1 98.2937 30.0519 9.5508 1.2057 0.3920 -2.0711
# 2 30.0519 114.3802 38.7567 -16.9897 7.4371 -8.6450
# 3 9.5508 38.7567 121.4291 -12.3677 13.8938 -0.8226
# 4 1.2057 -16.9897 -12.3677 40.7479 -3.4649 -9.3311
# 5 0.3920 7.4371 13.8938 -3.4649 29.9389 2.5574
# 6 -2.0711 -8.6450 -0.8226 -9.3311 2.5574 28.2611
#
#
#
# Elastic Compliance Matrix: (Units=1/GPa)
#
#
# Indices 1 2 3 4 5 6 
#
# 1 0.011191 -0.003290 -0.000093 -0.001880 0.000570 -0.000861
# 2 -0.003290 0.011809 -0.002778 0.005235 -0.001435 0.005148
# 3 -0.000093 -0.002778 0.009706 0.001540 -0.003658 0.000266
# 4 -0.001880 0.005235 0.001540 0.029884 0.000500 0.011330
# 5 0.000570 -0.001435 -0.003658 0.000500 0.035811 -0.003579
# 6 -0.000861 0.005148 0.000266 0.011330 -0.003579 0.040969
#
#
# Mechanical properties :
#
#
# Convention : Reuss Voigt Hill
#
# Bulk Modulus (GPa) = 49.05702 54.53575 51.79638
# Shear Modulus (GPa) = 31.54846 36.83915 34.19380
#
# Velocity S-wave (km/s) = 3.93267 4.24966 4.09423
# Velocity P-wave (km/s) = 6.68359 7.12842 6.90958
#
# Compressibility (1/GPa) = 0.02038444
#
# Stress axis : x y z
#
# Youngs Moduli (GPa) = 89.35582 84.68462 103.02532
#
# Poissons Ratio (x) = 0.27864 0.00953
# Poissons Ratio (y) = 0.29401 0.28619
# Poissons Ratio (z) = 0.00827 0.23525
#
# Static dielectric constant tensor:
#      x y z
#    x 1.544210 -0.088230 0.101150 
#    y -0.088230 1.661080 0.036480 
#    z 0.101150 0.036480 1.738240 
# 
# From -- ./inp_files/298013.got.cif
#   From: 2010.05.17/outbox.cif.g08.bks.cpg/sg2_150_cif.got.tgz:298013.got - 2010.06.03 11:33:40.
