data_PCOD9010293
_publ_section_title
;
Structure prediction by ZEFSAII (Michael W. Deem and Ramdas Pophale) SiO2 
 PCOD9010293
Probable space group: P -1
;
_chemical_formula_sum "Si O2"
_cell_formula_units_Z 14
_cell_length_a 7.121305
_cell_length_b 15.153675
_cell_length_c 11.486166
_cell_angle_alpha 47.387139
_cell_angle_beta 138.485434
_cell_angle_gamma 133.169361
_cell_volume 563.322465
_symmetry_space_group_name_H-M "P -1"
_symmetry_group_IT_number 2
_symmetry_cell_setting 'triclinic'
loop_
_space_group_symop_operation_xyz
x,y,z
-x,-y,-z
loop_
_atom_site_type_symbol
_atom_site_label
_atom_site_fract_x
_atom_site_fract_y
_atom_site_fract_z
Si Si1 0.896721 0.370993 0.492043
Si Si2 0.049669 0.808916 0.694590
Si Si3 0.276192 0.332963 0.108867
Si Si4 0.324715 0.041622 0.053198
Si Si5 0.667385 0.393218 0.035413
Si Si6 0.433368 0.798895 0.304954
Si Si7 0.542131 0.683277 0.245997
O O1 0.612505 0.362799 0.290021
O O2 0.768907 0.254269 0.628105
O O3 0.000000 0.500000 0.500000
O O4 0.170582 0.355758 0.562015
O O5 0.386780 0.915851 0.761549
O O6 0.940431 0.775226 0.809084
O O7 0.785517 0.834334 0.477471
O O8 0.108289 0.684750 0.782852
O O9 0.217757 0.464130 0.987454
O O10 0.344719 0.316756 0.019954
O O11 0.358294 0.918828 0.116470
O O12 0.359438 0.167871 0.882143
O O13 0.000000 0.000000 0.000000
O O14 0.605285 0.396509 0.866097
O O15 0.362837 0.685821 0.277763
#
# Coordination Sequence:
#
# PCOD9010293 Si02
#       7
#     2   2   2   2   2   2   2
#     4  11  22  41  64  98 133 173 220 267 332 391
#     4  10  23  42  66  96 131 168 227 267 335 388
#     4  10  21  40  64  91 136 178 218 269 322 393
#     4  11  23  46  70  95 132 173 227 276 329 395
#     4  10  21  40  62  96 133 177 220 266 325 393
#     4  11  24  44  68  97 135 175 216 279 328 395
#     4  11  23  41  67  98 132 173 224 268 332 390
#
# _framework density 24.852550000000001
#
# number of rings (size 3 to 8) (size 9 to 14) (size 15 to 20)
#    0.000    1.429    2.857    2.143    0.000    2.857 
#    7.714    0.714    0.000    0.000    0.000    0.000 
#    0.000    0.000    0.000    0.000    0.000    0.000 
#
# Total GULP energy -78355.696988 kJ/mol
# GULP energy per Si atom -5596.835499 kJ/mol
# Density = 2.479598 g / cm^3
# Si number density = 24.852550 Si / 1000 Ang^3
#
#
#
# Elastic Constant Matrix: (Units=GPa)
#
#
# Indices 1 2 3 4 5 6 
#
# 1 132.1892 23.2745 29.4167 8.2501 17.6652 -12.5733
# 2 23.2745 67.8044 32.9248 11.6448 15.7391 -3.2974
# 3 29.4167 32.9248 88.8090 4.5078 28.3085 -5.9198
# 4 8.2501 11.6448 4.5078 40.3548 -6.1266 4.1306
# 5 17.6652 15.7391 28.3085 -6.1266 49.1063 -5.0692
# 6 -12.5733 -3.2974 -5.9198 4.1306 -5.0692 38.1012
#
#
#
# Elastic Compliance Matrix: (Units=1/GPa)
#
#
# Indices 1 2 3 4 5 6 
#
# 1 0.008738 -0.001421 -0.001558 -0.001721 -0.001749 0.002472
# 2 -0.001421 0.019565 -0.005452 -0.005289 -0.003222 0.000522
# 3 -0.001558 -0.005452 0.016148 -0.001055 -0.007061 0.000698
# 4 -0.001721 -0.005289 -0.001055 0.028048 0.006069 -0.003423
# 5 -0.001749 -0.003222 -0.007061 0.006069 0.026954 0.000975
# 6 0.002472 0.000522 0.000698 -0.003423 0.000975 0.027716
#
#
# Mechanical properties :
#
#
# Convention : Reuss Voigt Hill
#
# Bulk Modulus (GPa) = 36.24610 51.11498 43.68054
# Shear Modulus (GPa) = 32.63083 39.05822 35.84452
#
# Velocity S-wave (km/s) = 3.62743 3.96864 3.80187
# Velocity P-wave (km/s) = 5.67102 6.45074 6.07341
#
# Compressibility (1/GPa) = 0.02758917
#
# Stress axis : x y z
#
# Youngs Moduli (GPa) = 114.44081 51.11044 61.92597
#
# Poissons Ratio (x) = 0.07264 0.09646
# Poissons Ratio (y) = 0.16264 0.33765
# Poissons Ratio (z) = 0.17827 0.27868
#
# Static dielectric constant tensor:
#      x y z
#    x 2.020680 0.047240 -0.039760 
#    y 0.047240 2.030430 0.043160 
#    z -0.039760 0.043160 1.963100 
# 
# From -- ./inp_files/367559.got.cif
#   From: 2010.05.17/outbox.cif.g08.bks.cpg/sg2_184_cif.got.tgz:367559.got - 2010.06.03 11:33:40.
