data_PCOD9010636
_publ_section_title
;
Structure prediction by ZEFSAII (Michael W. Deem and Ramdas Pophale) SiO2 
 PCOD9010636
Probable space group: P -1
;
_chemical_formula_sum "Si O2"
_cell_formula_units_Z 16
_cell_length_a 5.376496
_cell_length_b 17.396309
_cell_length_c 16.857826
_cell_angle_alpha 148.559788
_cell_angle_beta 123.465030
_cell_angle_gamma 67.745253
_cell_volume 670.672468
_symmetry_space_group_name_H-M "P -1"
_symmetry_group_IT_number 2
_symmetry_cell_setting 'triclinic'
loop_
_space_group_symop_operation_xyz
x,y,z
-x,-y,-z
loop_
_atom_site_type_symbol
_atom_site_label
_atom_site_fract_x
_atom_site_fract_y
_atom_site_fract_z
Si Si1 0.214257 0.060656 0.209325
Si Si2 0.729593 0.906773 0.422487
Si Si3 0.097236 0.723022 0.596348
Si Si4 0.734210 0.839709 0.865559
Si Si5 0.737414 0.676224 0.961906
Si Si6 0.825530 0.033613 0.315139
Si Si7 0.596914 0.387467 0.983937
Si Si8 0.119713 0.586186 0.680387
O O1 0.273348 0.056030 0.121694
O O2 0.475394 0.015260 0.266567
O O3 0.191249 0.230986 0.371695
O O4 0.888876 0.946041 0.056924
O O5 0.547022 0.772953 0.221364
O O6 0.920017 0.872890 0.501170
O O7 0.500000 0.000000 0.500000
O O8 0.000000 0.000000 0.500000
O O9 0.384437 0.756408 0.736270
O O10 0.156354 0.846212 0.646525
O O11 0.022485 0.551906 0.406721
O O12 0.947691 0.721454 0.783890
O O13 0.567218 0.613460 0.959659
O O14 0.038498 0.606808 0.940458
O O15 0.847688 0.860206 0.151204
O O16 0.475935 0.637472 0.813035
O O17 0.500000 0.500000 0.000000
O O18 0.000000 0.500000 0.500000
#
# Coordination Sequence:
#
# PCOD9010636 Si02
#       8
#     2   2   2   2   2   2   2   2
#     4  10  21  40  64 100 134 190 245 295 359 435
#     4  12  25  47  78 111 147 189 245 307 381 446
#     4  11  25  39  70 100 141 189 251 306 369 427
#     4  10  21  41  64  93 141 190 245 295 362 432
#     4  12  28  51  79 112 151 207 247 306 391 454
#     4  11  25  43  71 105 143 187 249 302 366 453
#     4  12  28  53  80 115 154 195 249 317 384 455
#     4  12  26  47  69 108 152 199 252 314 375 447
#
# _framework density 23.856653000000001
#
# number of rings (size 3 to 8) (size 9 to 14) (size 15 to 20)
#    0.000    0.750    5.000    1.125    5.250    4.000 
#    0.000    0.000    0.000    0.000    0.000    0.000 
#    0.000    0.000    0.000    0.000    0.000    0.000 
#
# Total GULP energy -89287.421524 kJ/mol
# GULP energy per Si atom -5580.463845 kJ/mol
# Density = 2.380235 g / cm^3
# Si number density = 23.856653 Si / 1000 Ang^3
#
#
#
# Elastic Constant Matrix: (Units=GPa)
#
#
# Indices 1 2 3 4 5 6 
#
# 1 111.1489 51.1945 28.7921 -9.3478 4.8285 -17.7675
# 2 51.1945 134.8170 38.1532 -13.5777 1.6917 -14.6462
# 3 28.7921 38.1532 93.4095 -13.7397 6.4429 -8.8731
# 4 -9.3478 -13.5777 -13.7397 54.2361 -4.3247 7.9573
# 5 4.8285 1.6917 6.4429 -4.3247 27.0679 -3.4891
# 6 -17.7675 -14.6462 -8.8731 7.9573 -3.4891 50.3381
#
#
#
# Elastic Compliance Matrix: (Units=1/GPa)
#
#
# Indices 1 2 3 4 5 6 
#
# 1 0.011585 -0.003584 -0.001757 0.000184 -0.001055 0.002634
# 2 -0.003584 0.009743 -0.002690 0.001072 0.000970 0.000994
# 3 -0.001757 -0.002690 0.012834 0.002044 -0.002197 0.000384
# 4 0.000184 0.001072 0.002044 0.019765 0.002284 -0.002229
# 5 -0.001055 0.000970 -0.002197 0.002284 0.038193 0.001809
# 6 0.002634 0.000994 0.000384 -0.002229 0.001809 0.021630
#
#
# Mechanical properties :
#
#
# Convention : Reuss Voigt Hill
#
# Bulk Modulus (GPa) = 55.24490 63.96166 59.60328
# Shear Modulus (GPa) = 36.80621 41.07745 38.94183
#
# Velocity S-wave (km/s) = 3.93212 4.15401 4.04459
# Velocity P-wave (km/s) = 6.61987 7.06235 6.84469
#
# Compressibility (1/GPa) = 0.01810122
#
# Stress axis : x y z
#
# Youngs Moduli (GPa) = 86.31596 102.63350 77.91538
#
# Poissons Ratio (x) = 0.36786 0.13690
# Poissons Ratio (y) = 0.30937 0.20958
# Poissons Ratio (z) = 0.15166 0.27607
#
# Static dielectric constant tensor:
#      x y z
#    x 2.121970 0.038240 0.084060 
#    y 0.038240 1.797620 0.142660 
#    z 0.084060 0.142660 1.799210 
# 
# From -- ./inp_files/90197.got.cif
#   From: 2010.05.17/outbox.cif.g08.bks.cpg/sg2_46_cif.got.tgz:90197.got - 2010.06.03 11:33:40.
