data_PCOD9010407
_publ_section_title
;
Structure prediction by ZEFSAII (Michael W. Deem and Ramdas Pophale) SiO2 
 PCOD9010407
Probable space group: P -1
;
_chemical_formula_sum "Si O2"
_cell_formula_units_Z 10
_cell_length_a 11.233193
_cell_length_b 25.965788
_cell_length_c 11.081123
_cell_angle_alpha 154.392190
_cell_angle_beta 144.497341
_cell_angle_gamma 19.316400
_cell_volume 446.416159
_symmetry_space_group_name_H-M "P -1"
_symmetry_group_IT_number 2
_symmetry_cell_setting 'triclinic'
loop_
_space_group_symop_operation_xyz
x,y,z
-x,-y,-z
loop_
_atom_site_type_symbol
_atom_site_label
_atom_site_fract_x
_atom_site_fract_y
_atom_site_fract_z
Si Si1 0.317690 0.219888 0.810584
Si Si2 0.686914 0.472209 0.209045
Si Si3 0.746253 0.497207 0.712527
Si Si4 0.862810 0.822168 0.836413
Si Si5 0.440575 0.212476 0.171684
O O1 0.954863 0.387654 0.780953
O O2 0.500000 0.000000 0.500000
O O3 0.469182 0.272907 0.993907
O O4 0.308117 0.253977 0.015199
O O5 0.457838 0.698737 0.540006
O O6 0.792364 0.336725 0.121906
O O7 0.080735 0.341005 0.220531
O O8 0.500000 0.500000 0.000000
O O9 0.500000 0.500000 0.500000
O O10 0.050204 0.333960 0.507987
O O11 0.500000 0.000000 0.000000
O O12 0.777389 0.968496 0.981445
#
# Coordination Sequence:
#
# PCOD9010407 Si02
#       5
#     2   2   2   2   2
#     4  11  23  43  68  92 133 179 213 264 334 385
#     4  10  22  39  63  91 125 167 215 268 321 379
#     4  11  25  43  66  99 133 170 220 273 318 390
#     4  10  21  42  65  91 131 168 210 266 325 381
#     4  10  21  40  63  89 128 168 213 264 323 388
#
# _framework density 22.400623
#
# number of rings (size 3 to 8) (size 9 to 14) (size 15 to 20)
#    0.000    1.600    4.000    0.000    2.800    1.600 
#    3.600    0.000    0.000    0.000    0.000    0.000 
#    0.000    0.000    0.000    0.000    0.000    0.000 
#
# Total GULP energy -55675.734517 kJ/mol
# GULP energy per Si atom -5567.573452 kJ/mol
# Density = 2.234964 g / cm^3
# Si number density = 22.400623 Si / 1000 Ang^3
#
#
#
# Elastic Constant Matrix: (Units=GPa)
#
#
# Indices 1 2 3 4 5 6 
#
# 1 77.7678 55.4068 35.2933 6.8389 2.8992 26.7582
# 2 55.4068 88.2098 54.2417 5.8305 11.7310 47.2551
# 3 35.2933 54.2417 154.0195 11.4148 13.4930 17.9076
# 4 6.8389 5.8305 11.4148 46.2241 17.2874 6.3961
# 5 2.8992 11.7310 13.4930 17.2874 43.2950 -3.1684
# 6 26.7582 47.2551 17.9076 6.3961 -3.1684 58.7792
#
#
#
# Elastic Compliance Matrix: (Units=1/GPa)
#
#
# Indices 1 2 3 4 5 6 
#
# 1 0.024337 -0.017871 0.000103 -0.003778 0.004977 0.003936
# 2 -0.017871 0.040906 -0.006961 0.007146 -0.012333 -0.024072
# 3 0.000103 -0.006961 0.008681 -0.001747 0.000098 0.003100
# 4 -0.003778 0.007146 -0.001747 0.027431 -0.012616 -0.007158
# 5 0.004977 -0.012333 0.000098 -0.012616 0.031896 0.010711
# 6 0.003936 -0.024072 0.003100 -0.007158 0.010711 0.034985
#
#
# Mechanical properties :
#
#
# Convention : Reuss Voigt Hill
#
# Bulk Modulus (GPa) = 40.87333 67.76455 54.31894
# Shear Modulus (GPa) = 22.13865 41.33001 31.73433
#
# Velocity S-wave (km/s) = 3.14714 4.30005 3.76795
# Velocity P-wave (km/s) = 5.61179 7.41423 6.57506
#
# Compressibility (1/GPa) = 0.02446583
#
# Stress axis : x y z
#
# Youngs Moduli (GPa) = 41.09053 24.44643 115.19356
#
# Poissons Ratio (x) = 0.43687 -0.01190
# Poissons Ratio (y) = 0.73431 0.80190
# Poissons Ratio (z) = -0.00424 0.17018
#
# Static dielectric constant tensor:
#      x y z
#    x 2.231970 -0.196310 -0.155990 
#    y -0.196310 1.883330 0.137400 
#    z -0.155990 0.137400 1.943900 
# 
# From -- ./inp_files/18232.got.cif
#   From: 2010.05.17/outbox.cif.g08.bks.cpg/sg2_10_cif.got.tgz:18232.got - 2010.06.03 11:33:40.
