data_PCOD9010598
_publ_section_title
;
Structure prediction by ZEFSAII (Michael W. Deem and Ramdas Pophale) SiO2 
 PCOD9010598
Probable space group: P -1
;
_chemical_formula_sum "Si O2"
_cell_formula_units_Z 16
_cell_length_a 18.621155
_cell_length_b 5.327771
_cell_length_c 7.997341
_cell_angle_alpha 124.657825
_cell_angle_beta 83.372779
_cell_angle_gamma 99.242893
_cell_volume 643.873093
_symmetry_space_group_name_H-M "P -1"
_symmetry_group_IT_number 2
_symmetry_cell_setting 'triclinic'
loop_
_space_group_symop_operation_xyz
x,y,z
-x,-y,-z
loop_
_atom_site_type_symbol
_atom_site_label
_atom_site_fract_x
_atom_site_fract_y
_atom_site_fract_z
Si Si1 0.031359 0.342752 0.178910
Si Si2 0.712356 0.594584 0.024720
Si Si3 0.227884 0.758292 0.613219
Si Si4 0.355751 0.507590 0.337047
Si Si5 0.449663 0.116690 0.377710
Si Si6 0.447602 0.325289 0.811862
Si Si7 0.908983 0.662222 0.460111
Si Si8 0.170217 0.734252 0.242384
O O1 0.056513 0.354698 0.370553
O O2 0.105891 0.466776 0.113307
O O3 0.972156 0.590715 0.286834
O O4 0.000000 0.000000 0.000000
O O5 0.631943 0.574344 0.113319
O O6 0.756397 0.891496 0.206516
O O7 0.694375 0.651608 0.856866
O O8 0.760825 0.311771 0.910054
O O9 0.303355 0.606485 0.536226
O O10 0.158803 0.589143 0.661890
O O11 0.203021 0.716575 0.412224
O O12 0.406449 0.264772 0.300999
O O13 0.398097 0.815615 0.354087
O O14 0.461831 0.342803 0.617518
O O15 0.528937 0.012438 0.279730
O O16 0.500000 0.500000 0.000000
O O17 0.870980 0.968606 0.610650
#
# Coordination Sequence:
#
# PCOD9010598 Si02
#       8
#     2   2   2   2   2   2   2   2
#     4  10  21  40  63  96 135 172 226 275 340 410
#     4  11  23  45  66 101 134 181 235 289 352 430
#     4  10  23  41  63  95 134 180 225 287 348 415
#     4  11  25  46  71  99 142 181 236 295 360 422
#     4  11  26  47  69 100 139 183 232 302 359 423
#     4  11  24  44  70  99 136 181 237 292 359 428
#     4  10  22  39  64  93 132 179 222 281 339 413
#     4  10  23  40  66  96 136 174 229 281 347 410
#
# _framework density 24.849619000000001
#
# number of rings (size 3 to 8) (size 9 to 14) (size 15 to 20)
#    0.000    1.500    2.500    1.125    3.500    5.000 
#    2.250    0.000    0.000    0.000    0.000    0.000 
#    0.000    0.000    0.000    0.000    0.000    0.000 
#
# Total GULP energy -89275.938489 kJ/mol
# GULP energy per Si atom -5579.746156 kJ/mol
# Density = 2.479306 g / cm^3
# Si number density = 24.849619 Si / 1000 Ang^3
#
#
#
# Elastic Constant Matrix: (Units=GPa)
#
#
# Indices 1 2 3 4 5 6 
#
# 1 176.2479 36.8062 52.8772 21.9166 -29.4638 -2.5899
# 2 36.8062 52.5650 5.2609 10.9314 0.0849 -13.1754
# 3 52.8772 5.2609 109.0601 19.8653 -7.9043 9.0310
# 4 21.9166 10.9314 19.8653 24.3692 -4.0646 4.2877
# 5 -29.4638 0.0849 -7.9043 -4.0646 63.2225 19.1183
# 6 -2.5899 -13.1754 9.0310 4.2877 19.1183 35.3422
#
#
#
# Elastic Compliance Matrix: (Units=1/GPa)
#
#
# Indices 1 2 3 4 5 6 
#
# 1 0.008850 -0.006508 -0.003160 -0.001089 0.004689 -0.003374
# 2 -0.006508 0.030501 0.002218 -0.014053 -0.008773 0.016777
# 3 -0.003160 0.002218 0.012141 -0.007771 0.000019 -0.001575
# 4 -0.001089 -0.014053 -0.007771 0.058180 0.006483 -0.013898
# 5 0.004689 -0.008773 0.000019 0.006483 0.023383 -0.016367
# 6 -0.003374 0.016777 -0.001575 -0.013898 -0.016367 0.045244
#
#
# Mechanical properties :
#
#
# Convention : Reuss Voigt Hill
#
# Bulk Modulus (GPa) = 27.32632 58.64017 42.98324
# Shear Modulus (GPa) = 24.34339 40.78205 32.56272
#
# Velocity S-wave (km/s) = 3.13330 4.05551 3.62386
# Velocity P-wave (km/s) = 4.91026 6.75121 5.90294
#
# Compressibility (1/GPa) = 0.03659475
#
# Stress axis : x y z
#
# Youngs Moduli (GPa) = 112.98890 32.78632 82.36331
#
# Poissons Ratio (x) = 0.21336 0.26023
# Poissons Ratio (y) = 0.73530 -0.18272
# Poissons Ratio (z) = 0.35699 -0.07274
#
# Static dielectric constant tensor:
#      x y z
#    x 2.101100 0.046250 -0.064240 
#    y 0.046250 2.074350 0.049680 
#    z -0.064240 0.049680 2.003500 
# 
# From -- ./inp_files/324248.got.cif
#   From: 2010.05.17/outbox.cif.g08.bks.cpg/sg2_163_cif.got.tgz:324248.got - 2010.06.03 11:33:40.
