data_PCOD9010726
_publ_section_title
;
Structure prediction by ZEFSAII (Michael W. Deem and Ramdas Pophale) SiO2 
 PCOD9010726
Probable space group: P -1
;
_chemical_formula_sum "Si O2"
_cell_formula_units_Z 12
_cell_length_a 18.803186
_cell_length_b 8.079852
_cell_length_c 11.230193
_cell_angle_alpha 40.454975
_cell_angle_beta 146.176425
_cell_angle_gamma 149.194329
_cell_volume 479.614132
_symmetry_space_group_name_H-M "P -1"
_symmetry_group_IT_number 2
_symmetry_cell_setting 'triclinic'
loop_
_space_group_symop_operation_xyz
x,y,z
-x,-y,-z
loop_
_atom_site_type_symbol
_atom_site_label
_atom_site_fract_x
_atom_site_fract_y
_atom_site_fract_z
Si Si1 0.839606 0.274339 0.288578
Si Si2 0.986650 0.056323 0.298746
Si Si3 0.527724 0.624826 0.217578
Si Si4 0.164302 0.178312 0.022936
Si Si5 0.281172 0.509578 0.604691
Si Si6 0.303509 0.008396 0.515793
O O1 0.824868 0.267587 0.415473
O O2 0.649330 0.996289 0.134844
O O3 0.891565 0.611231 0.128843
O O4 0.929180 0.119798 0.475581
O O5 0.125720 0.404904 0.363450
O O6 0.814705 0.807589 0.266156
O O7 0.957340 0.074903 0.109491
O O8 0.337113 0.433719 0.053246
O O9 0.586852 0.455153 0.317896
O O10 0.579828 0.692435 0.393392
O O11 0.218135 0.081454 0.262183
O O12 0.359871 0.836289 0.611176
#
# Coordination Sequence:
#
# PCOD9010726 Si02
#       6
#     2   2   2   2   2   2
#     4   9  21  41  60  91 121 158 203 247 301 356
#     4  10  21  40  64  90 122 165 200 255 302 356
#     4   9  22  42  63  91 124 161 201 255 300 360
#     4  12  21  38  69  93 118 164 208 241 316 362
#     4  10  21  43  62  85 133 156 203 256 297 359
#     4  10  23  40  65  90 125 161 199 257 300 359
#
# _framework density 25.020114
#
# number of rings (size 3 to 8) (size 9 to 14) (size 15 to 20)
#    1.000    1.000    1.667    1.500    0.000    2.667 
#    0.000    6.667    0.000    0.000    0.000    0.000 
#    0.000    0.000    0.000    0.000    0.000    0.000 
#
# Total GULP energy -66946.393056 kJ/mol
# GULP energy per Si atom -5578.866088 kJ/mol
# Density = 2.496317 g / cm^3
# Si number density = 25.020114 Si / 1000 Ang^3
#
#
#
# Elastic Constant Matrix: (Units=GPa)
#
#
# Indices 1 2 3 4 5 6 
#
# 1 136.1006 45.8931 33.0649 9.5923 14.5854 -37.1310
# 2 45.8931 42.2844 16.6028 18.5561 5.4379 -19.5879
# 3 33.0649 16.6028 92.0090 8.2917 -15.9886 -23.6770
# 4 9.5923 18.5561 8.2917 34.7601 -5.8241 4.6560
# 5 14.5854 5.4379 -15.9886 -5.8241 41.1247 15.4427
# 6 -37.1310 -19.5879 -23.6770 4.6560 15.4427 48.8226
#
#
#
# Elastic Compliance Matrix: (Units=1/GPa)
#
#
# Indices 1 2 3 4 5 6 
#
# 1 0.014401 -0.008773 -0.002650 -0.001288 -0.008527 0.008967
# 2 -0.008773 0.073229 -0.001689 -0.045377 -0.026666 0.034650
# 3 -0.002650 -0.001689 0.013780 -0.001050 0.005488 0.002354
# 4 -0.001288 -0.045377 -0.001050 0.062901 0.027921 -0.034525
# 5 -0.008527 -0.026666 0.005488 0.027921 0.049258 -0.032766
# 6 0.008967 0.034650 0.002354 -0.034525 -0.032766 0.056002
#
#
# Mechanical properties :
#
#
# Convention : Reuss Voigt Hill
#
# Bulk Modulus (GPa) = 13.30067 51.27952 32.29010
# Shear Modulus (GPa) = 15.58329 36.59703 26.09016
#
# Velocity S-wave (km/s) = 2.49836 3.82868 3.23269
# Velocity P-wave (km/s) = 3.69459 6.33126 5.18338
#
# Compressibility (1/GPa) = 0.07518421
#
# Stress axis : x y z
#
# Youngs Moduli (GPa) = 69.44077 13.65586 72.57100
#
# Poissons Ratio (x) = 0.11981 0.19233
# Poissons Ratio (y) = 0.60922 0.12257
# Poissons Ratio (z) = 0.18403 0.02306
#
# Static dielectric constant tensor:
#      x y z
#    x 2.041410 0.012090 0.026760 
#    y 0.012090 2.108530 0.022000 
#    z 0.026760 0.022000 1.950010 
# 
# From -- ./inp_files/391520.got.cif
#   From: 2010.05.17/outbox.cif.g08.bks.cpg/sg2_196_cif.got.tgz:391520.got - 2010.06.03 11:33:40.
