data_PCOD9010999
_publ_section_title
;
Structure prediction by ZEFSAII (Michael W. Deem and Ramdas Pophale) SiO2 
 PCOD9010999
Probable space group: P -1
;
_chemical_formula_sum "Si O2"
_cell_formula_units_Z 13
_cell_length_a 9.974842
_cell_length_b 5.170457
_cell_length_c 13.839016
_cell_angle_alpha 95.717727
_cell_angle_beta 130.539198
_cell_angle_gamma 107.330942
_cell_volume 473.601684
_symmetry_space_group_name_H-M "P -1"
_symmetry_group_IT_number 2
_symmetry_cell_setting 'triclinic'
loop_
_space_group_symop_operation_xyz
x,y,z
-x,-y,-z
loop_
_atom_site_type_symbol
_atom_site_label
_atom_site_fract_x
_atom_site_fract_y
_atom_site_fract_z
Si Si1 0.302693 0.190819 0.575170
Si Si2 0.644546 0.238439 0.264625
Si Si3 0.290495 0.145794 0.961828
Si Si4 0.123620 0.477772 0.263453
Si Si5 0.500000 0.500000 0.500000
Si Si6 0.138421 0.347602 0.064450
Si Si7 0.916940 0.737505 0.284727
O O1 0.369913 0.511331 0.666854
O O2 0.415349 0.224713 0.527764
O O3 0.346942 0.998004 0.668456
O O4 0.065647 0.007646 0.429921
O O5 0.841989 0.439884 0.301127
O O6 0.464903 0.106292 0.095314
O O7 0.267212 0.372887 0.033003
O O8 0.278377 0.258671 0.852525
O O9 0.084564 0.831833 0.850224
O O10 0.287058 0.510365 0.418533
O O11 0.048117 0.714546 0.256297
O O12 0.235717 0.468184 0.217327
O O13 0.000000 0.500000 0.000000
O O14 0.000000 0.000000 0.000000
#
# Coordination Sequence:
#
# PCOD9010999 Si02
#       7
#     2   2   2   2   1   2   2
#     4  12  29  53  78 115 156 209 261 323 396 463
#     4  12  30  50  80 116 161 208 261 320 390 471
#     4  11  25  48  77 116 156 207 263 321 390 459
#     4  11  25  44  77 113 154 201 260 325 389 457
#     4  12  26  50  78 110 152 200 262 322 390 468
#     4  10  21  40  65 100 145 185 238 305 372 434
#     4  12  26  49  81 113 161 208 263 319 387 472
#
# _framework density 27.449225999999999
#
# number of rings (size 3 to 8) (size 9 to 14) (size 15 to 20)
#    0.000    0.615    3.077    3.231    4.308    5.538 
#    0.000    0.000    0.000    0.000    0.000    0.000 
#    0.000    0.000    0.000    0.000    0.000    0.000 
#
# Total GULP energy -72445.950084 kJ/mol
# GULP energy per Si atom -5572.765391 kJ/mol
# Density = 2.738675 g / cm^3
# Si number density = 27.449226 Si / 1000 Ang^3
#
#
#
# Elastic Constant Matrix: (Units=GPa)
#
#
# Indices 1 2 3 4 5 6 
#
# 1 98.0030 28.7994 32.7240 5.9550 -19.0313 2.5517
# 2 28.7994 151.3228 65.9852 -26.8594 -10.1242 5.1218
# 3 32.7240 65.9852 150.7022 -0.1954 12.7489 2.7922
# 4 5.9550 -26.8594 -0.1954 37.4693 0.6497 -7.6593
# 5 -19.0313 -10.1242 12.7489 0.6497 45.9621 -4.6827
# 6 2.5517 5.1218 2.7922 -7.6593 -4.6827 54.0011
#
#
#
# Elastic Compliance Matrix: (Units=1/GPa)
#
#
# Indices 1 2 3 4 5 6 
#
# 1 0.012836 -0.001491 -0.002618 -0.003282 0.005729 -0.000299
# 2 -0.001491 0.010384 -0.004468 0.007743 0.002868 0.000663
# 3 -0.002618 -0.004468 0.009574 -0.002809 -0.004761 -0.000759
# 4 -0.003282 0.007743 -0.002809 0.033633 0.001102 0.004432
# 5 0.005729 0.002868 -0.004761 0.001102 0.026284 0.002139
# 6 -0.000299 0.000663 -0.000759 0.004432 0.002139 0.019323
#
#
# Mechanical properties :
#
#
# Convention : Reuss Voigt Hill
#
# Bulk Modulus (GPa) = 63.93611 72.78282 68.35946
# Shear Modulus (GPa) = 37.20274 45.65446 41.42860
#
# Velocity S-wave (km/s) = 3.68547 4.08270 3.88916
# Velocity P-wave (km/s) = 6.43843 6.98553 6.71755
#
# Compressibility (1/GPa) = 0.01564061
#
# Stress axis : x y z
#
# Youngs Moduli (GPa) = 77.90853 96.30095 104.45483
#
# Poissons Ratio (x) = 0.14354 0.27345
# Poissons Ratio (y) = 0.11613 0.46669
# Poissons Ratio (z) = 0.20395 0.43026
#
# Static dielectric constant tensor:
#      x y z
#    x 2.198580 0.034230 0.019900 
#    y 0.034230 2.159850 -0.044380 
#    z 0.019900 -0.044380 2.132980 
# 
# From -- ./inp_files/510405.got.cif
#   From: 2010.05.17/outbox.cif.g08.bks.cpg/sg2_256_cif.got.tgz:510405.got - 2010.06.03 11:33:40.
