data_PCOD9010667
_publ_section_title
;
Structure prediction by ZEFSAII (Michael W. Deem and Ramdas Pophale) SiO2 
 PCOD9010667
Probable space group: P -1
;
_chemical_formula_sum "Si O2"
_cell_formula_units_Z 16
_cell_length_a 8.406666
_cell_length_b 24.423751
_cell_length_c 19.812635
_cell_angle_alpha 160.475202
_cell_angle_beta 136.934636
_cell_angle_gamma 34.057093
_cell_volume 733.418833
_symmetry_space_group_name_H-M "P -1"
_symmetry_group_IT_number 2
_symmetry_cell_setting 'triclinic'
loop_
_space_group_symop_operation_xyz
x,y,z
-x,-y,-z
loop_
_atom_site_type_symbol
_atom_site_label
_atom_site_fract_x
_atom_site_fract_y
_atom_site_fract_z
Si Si1 0.217414 0.977339 0.598833
Si Si2 0.300857 0.382227 0.749351
Si Si3 0.666823 0.702287 0.960164
Si Si4 0.787118 0.191960 0.954368
Si Si5 0.294206 0.777382 0.188007
Si Si6 0.311600 0.761501 0.670544
Si Si7 0.256071 0.730378 0.775808
Si Si8 0.869827 0.719437 0.749209
O O1 0.532451 0.765583 0.434447
O O2 0.250988 0.158115 0.820343
O O3 0.000000 0.000000 0.500000
O O4 0.034161 0.020036 0.659013
O O5 0.473069 0.254828 0.722984
O O6 0.314268 0.572729 0.967293
O O7 0.960438 0.492771 0.780283
O O8 0.499117 0.675834 0.934354
O O9 0.423972 0.815630 0.957710
O O10 0.670683 0.213502 0.868761
O O11 0.006809 0.947480 0.757261
O O12 0.967450 0.278701 0.131328
O O13 0.231062 0.764995 0.728384
O O14 0.504322 0.519071 0.429319
O O15 0.542751 0.807707 0.775152
O O16 0.972520 0.805637 0.822147
O O17 0.000000 0.500000 0.500000
#
# Coordination Sequence:
#
# PCOD9010667 Si02
#       8
#     2   2   2   2   2   2   2   2
#     4   9  19  40  64  90 118 161 212 253 312 382
#     4   9  19  40  64  84 124 164 200 258 316 372
#     4  10  22  37  63  93 125 158 214 253 313 381
#     4  11  23  39  58  96 126 158 217 263 309 378
#     4   9  20  40  61  92 122 157 209 258 309 378
#     4  10  21  40  64  86 129 169 205 265 317 369
#     4   9  21  41  61  91 124 168 213 253 318 380
#     4   9  20  40  59  87 129 166 209 255 318 378
#
# _framework density 21.815636999999999
#
# number of rings (size 3 to 8) (size 9 to 14) (size 15 to 20)
#    0.000    2.500    0.000    1.125    5.250    2.500 
#   11.250    2.500    0.000    0.000    0.000    0.000 
#    0.000    0.000    0.000    0.000    0.000    0.000 
#
# Total GULP energy -89089.815522 kJ/mol
# GULP energy per Si atom -5568.113470 kJ/mol
# Density = 2.176598 g / cm^3
# Si number density = 21.815637 Si / 1000 Ang^3
#
#
#
# Elastic Constant Matrix: (Units=GPa)
#
#
# Indices 1 2 3 4 5 6 
#
# 1 78.1758 32.5613 -16.9549 8.7353 -14.4064 -12.8288
# 2 32.5613 40.8989 -9.1530 6.6222 18.3582 -1.1898
# 3 -16.9549 -9.1530 69.3821 10.6237 11.0741 -5.6174
# 4 8.7353 6.6222 10.6237 30.3512 -6.1149 -8.9996
# 5 -14.4064 18.3582 11.0741 -6.1149 21.9810 -1.3372
# 6 -12.8288 -1.1898 -5.6174 -8.9996 -1.3372 40.8514
#
#
#
# Elastic Compliance Matrix: (Units=1/GPa)
#
#
# Indices 1 2 3 4 5 6 
#
# 1 -0.011914 0.044645 0.016173 -0.026698 -0.061163 -0.008101
# 2 0.044645 -0.070729 -0.020170 0.038176 0.110404 0.021211
# 3 0.016173 -0.020170 0.012445 0.002050 0.022195 0.007381
# 4 -0.026698 0.038176 0.002050 0.021483 -0.044664 -0.003720
# 5 -0.061163 0.110404 0.022195 -0.044664 -0.112016 -0.026446
# 6 -0.008101 0.021211 0.007381 -0.003720 -0.026446 0.021883
#
#
# Mechanical properties :
#
#
# Convention : Reuss Voigt Hill
#
# Bulk Modulus (GPa) = 90.10328 22.37370 56.23849
# Shear Modulus (GPa) = -23.10073 30.77027 3.83477
#
# Velocity S-wave (km/s) = -3.25762 3.75970 1.32726
# Velocity P-wave (km/s) = 5.21943 5.39677 5.30884
#
# Compressibility (1/GPa) = 0.01109837
#
# Stress axis : x y z
#
# Youngs Moduli (GPa) = -83.93808 -14.13857 80.35210
#
# Poissons Ratio (x) = 0.63122 -1.29951
# Poissons Ratio (y) = 3.74745 1.62073
# Poissons Ratio (z) = 1.35750 -0.28518
#
# Static dielectric constant tensor:
#      x y z
#    x 1.873610 -0.077210 0.058090 
#    y -0.077210 1.826650 -0.037370 
#    z 0.058090 -0.037370 1.882510 
# 
# From -- ./inp_files/592108.got.cif
#   From: 2010.05.17/outbox.cif.g08.bks.cpg/sg2_297_cif.got.tgz:592108.got - 2010.06.03 11:33:40.
