data_PCOD9010799
_publ_section_title
;
Structure prediction by ZEFSAII (Michael W. Deem and Ramdas Pophale) SiO2 
 PCOD9010799
Probable space group: P -1
;
_chemical_formula_sum "Si O2"
_cell_formula_units_Z 14
_cell_length_a 7.415610
_cell_length_b 5.179670
_cell_length_c 15.558574
_cell_angle_alpha 105.205464
_cell_angle_beta 118.592293
_cell_angle_gamma 68.749619
_cell_volume 486.162741
_symmetry_space_group_name_H-M "P -1"
_symmetry_group_IT_number 2
_symmetry_cell_setting 'triclinic'
loop_
_space_group_symop_operation_xyz
x,y,z
-x,-y,-z
loop_
_atom_site_type_symbol
_atom_site_label
_atom_site_fract_x
_atom_site_fract_y
_atom_site_fract_z
Si Si1 0.315790 0.788658 0.098466
Si Si2 0.326517 0.116094 0.897314
Si Si3 0.206599 0.580961 0.520809
Si Si4 0.142600 0.028957 0.681040
Si Si5 0.172609 0.255587 0.325038
Si Si6 0.528153 0.756420 0.307844
Si Si7 0.027244 0.390069 0.113301
O O1 0.548939 0.682742 0.100743
O O2 0.358984 0.678293 0.196929
O O3 0.150650 0.692532 0.993831
O O4 0.232686 0.128892 0.111976
O O5 0.089142 0.272908 0.890862
O O6 0.290787 0.932273 0.792010
O O7 0.500000 0.000000 0.000000
O O8 0.176736 0.875756 0.583590
O O9 0.204243 0.505565 0.413878
O O10 0.000000 0.500000 0.500000
O O11 0.411620 0.397214 0.602506
O O12 0.249696 0.272811 0.695265
O O13 0.931886 0.952379 0.662804
O O14 0.402489 0.070904 0.330268
O O15 0.042120 0.362258 0.217673
#
# Coordination Sequence:
#
# PCOD9010799 Si02
#       7
#     2   2   2   2   2   2   2
#     4   9  21  39  64  90 125 174 209 267 331 374
#     4  11  23  37  61  97 130 170 220 261 330 399
#     4  10  23  40  66  93 129 171 215 271 320 387
#     4  10  24  41  62  97 125 169 218 260 331 378
#     4  10  22  43  64  93 129 171 219 263 328 384
#     4  10  22  43  64  95 130 165 220 269 321 392
#     4  10  21  40  64  92 131 172 211 275 323 383
#
# _framework density 28.796942999999999
#
# number of rings (size 3 to 8) (size 9 to 14) (size 15 to 20)
#    0.000    2.000    0.000    1.714   10.000    3.429 
#    7.714    0.000    0.000    0.000    0.000    0.000 
#    0.000    0.000    0.000    0.000    0.000    0.000 
#
# Total GULP energy -77985.047661 kJ/mol
# GULP energy per Si atom -5570.360547 kJ/mol
# Density = 2.873140 g / cm^3
# Si number density = 28.796943 Si / 1000 Ang^3
#
#
#
# Elastic Constant Matrix: (Units=GPa)
#
#
# Indices 1 2 3 4 5 6 
#
# 1 120.6246 9.5880 45.8717 -16.8133 0.9739 -18.7167
# 2 9.5880 77.0128 59.3634 -13.9518 -2.4485 -19.0722
# 3 45.8717 59.3634 280.4511 -17.3172 -24.5763 -9.6012
# 4 -16.8133 -13.9518 -17.3172 49.1090 -12.8218 -3.9217
# 5 0.9739 -2.4485 -24.5763 -12.8218 44.6269 -1.1785
# 6 -18.7167 -19.0722 -9.6012 -3.9217 -1.1785 38.3779
#
#
#
# Elastic Compliance Matrix: (Units=1/GPa)
#
#
# Indices 1 2 3 4 5 6 
#
# 1 0.010278 0.002303 -0.001670 0.004167 0.000343 0.006176
# 2 0.002303 0.019197 -0.003619 0.006066 0.001027 0.010409
# 3 -0.001670 -0.003619 0.004840 0.000705 0.002673 -0.001248
# 4 0.004167 0.006066 0.000705 0.026636 0.008500 0.008206
# 5 0.000343 0.001027 0.002673 0.008500 0.026451 0.003027
# 6 0.006176 0.010409 -0.001248 0.008206 0.003027 0.034861
#
#
# Mechanical properties :
#
#
# Convention : Reuss Voigt Hill
#
# Bulk Modulus (GPa) = 35.28209 78.63719 56.95964
# Shear Modulus (GPa) = 36.31521 50.64045 43.47783
#
# Velocity S-wave (km/s) = 3.55502 4.19804 3.88984
# Velocity P-wave (km/s) = 5.39718 7.13196 6.32433
#
# Compressibility (1/GPa) = 0.02834299
#
# Stress axis : x y z
#
# Youngs Moduli (GPa) = 97.29075 52.09062 206.61489
#
# Poissons Ratio (x) = -0.11995 0.34501
# Poissons Ratio (y) = -0.22403 0.74779
# Poissons Ratio (z) = 0.16246 0.18853
#
# Static dielectric constant tensor:
#      x y z
#    x 2.276710 0.037050 -0.009770 
#    y 0.037050 2.438060 0.040070 
#    z -0.009770 0.040070 2.194520 
# 
# From -- ./inp_files/553889.got.cif
#   From: 2010.05.17/outbox.cif.g08.bks.cpg/sg2_277_cif.got.tgz:553889.got - 2010.06.03 11:33:40.
