data_PCOD9010616
_publ_section_title
;
Structure prediction by ZEFSAII (Michael W. Deem and Ramdas Pophale) SiO2 
 PCOD9010616
Probable space group: P -1
;
_chemical_formula_sum "Si O2"
_cell_formula_units_Z 16
_cell_length_a 15.405870
_cell_length_b 5.618638
_cell_length_c 11.103447
_cell_angle_alpha 100.722561
_cell_angle_beta 128.469824
_cell_angle_gamma 59.995364
_cell_volume 640.468094
_symmetry_space_group_name_H-M "P -1"
_symmetry_group_IT_number 2
_symmetry_cell_setting 'triclinic'
loop_
_space_group_symop_operation_xyz
x,y,z
-x,-y,-z
loop_
_atom_site_type_symbol
_atom_site_label
_atom_site_fract_x
_atom_site_fract_y
_atom_site_fract_z
Si Si1 0.532102 0.699098 0.124421
Si Si2 0.174688 0.034153 0.087747
Si Si3 0.619501 0.325599 0.370041
Si Si4 0.172516 0.559017 0.356465
Si Si5 0.969760 0.756235 0.405324
Si Si6 0.101429 0.613953 0.018378
Si Si7 0.686922 0.894173 0.173444
Si Si8 0.388199 0.946178 0.438970
O O1 0.542777 0.620486 0.264557
O O2 0.669539 0.646022 0.191157
O O3 0.500000 0.500000 0.000000
O O4 0.412536 0.996897 0.013275
O O5 0.157268 0.287018 0.011248
O O6 0.307976 0.906644 0.260052
O O7 0.152083 0.784381 0.000427
O O8 0.052892 0.209637 0.090965
O O9 0.757923 0.274958 0.522124
O O10 0.633609 0.107186 0.260562
O O11 0.560474 0.287060 0.436131
O O12 0.142505 0.616723 0.194070
O O13 0.277425 0.234121 0.429431
O O14 0.054181 0.634752 0.346904
O O15 0.821248 0.867459 0.259699
O O16 0.000000 0.500000 0.500000
O O17 0.000000 0.000000 0.500000
O O18 0.500000 0.000000 0.500000
#
# Coordination Sequence:
#
# PCOD9010616 Si02
#       8
#     2   2   2   2   2   2   2   2
#     4   9  20  37  65  91 132 178 219 274 336 404
#     4   9  18  37  60  88 119 165 207 273 325 383
#     4  11  19  38  64  91 126 173 221 270 340 398
#     4  11  23  40  64  95 130 173 222 278 337 408
#     4  12  25  40  68 103 138 174 220 277 340 409
#     4   9  18  35  63  85 121 161 213 260 333 385
#     4  10  21  40  63  97 134 172 221 277 338 407
#     4  11  24  40  63  95 133 173 231 282 338 396
#
# _framework density 24.981728
#
# number of rings (size 3 to 8) (size 9 to 14) (size 15 to 20)
#    0.000    1.750    2.500    2.250    1.750    0.500 
#    0.000    5.000    8.250    0.000    0.000    0.000 
#    0.000    0.000    0.000    0.000    0.000    0.000 
#
# Total GULP energy -89448.071063 kJ/mol
# GULP energy per Si atom -5590.504441 kJ/mol
# Density = 2.492487 g / cm^3
# Si number density = 24.981728 Si / 1000 Ang^3
#
#
#
# Elastic Constant Matrix: (Units=GPa)
#
#
# Indices 1 2 3 4 5 6 
#
# 1 167.1102 53.6745 65.3253 -2.9916 20.8800 22.5053
# 2 53.6745 97.5372 26.8608 -6.0551 -0.0029 31.2701
# 3 65.3253 26.8608 135.3471 -11.2427 14.3994 13.5730
# 4 -2.9916 -6.0551 -11.2427 41.0055 14.5135 -1.5153
# 5 20.8800 -0.0029 14.3994 14.5135 40.6473 7.1959
# 6 22.5053 31.2701 13.5730 -1.5153 7.1959 50.6726
#
#
#
# Elastic Compliance Matrix: (Units=1/GPa)
#
#
# Indices 1 2 3 4 5 6 
#
# 1 0.008963 -0.004004 -0.003084 0.000510 -0.003668 -0.000148
# 2 -0.004004 0.015191 -0.000656 0.000195 0.003625 -0.007929
# 3 -0.003084 -0.000656 0.009632 0.003363 -0.002979 -0.000282
# 4 0.000510 0.000195 0.003363 0.029794 -0.012338 0.001395
# 5 -0.003668 0.003625 -0.002979 -0.012338 0.032803 -0.004837
# 6 -0.000148 -0.007929 -0.000282 0.001395 -0.004837 0.025497
#
#
# Mechanical properties :
#
#
# Convention : Reuss Voigt Hill
#
# Bulk Modulus (GPa) = 54.65515 76.85728 65.75621
# Shear Modulus (GPa) = 34.85102 43.40734 39.12918
#
# Velocity S-wave (km/s) = 3.73910 4.17293 3.96196
# Velocity P-wave (km/s) = 6.36920 7.35187 6.87811
#
# Compressibility (1/GPa) = 0.01829654
#
# Stress axis : x y z
#
# Youngs Moduli (GPa) = 111.56912 65.82836 103.82458
#
# Poissons Ratio (x) = 0.26359 0.32019
# Poissons Ratio (y) = 0.44674 0.06815
# Poissons Ratio (z) = 0.34408 0.04321
#
# Static dielectric constant tensor:
#      x y z
#    x 1.973690 0.078200 0.006600 
#    y 0.078200 2.180510 -0.045580 
#    z 0.006600 -0.045580 1.967860 
# 
# From -- ./inp_files/441204.got.cif
#   From: 2010.05.17/outbox.cif.g08.bks.cpg/sg2_221_cif.got.tgz:441204.got - 2010.06.03 11:33:40.
