data_PCOD9010155
_publ_section_title
;
Structure prediction by ZEFSAII (Michael W. Deem and Ramdas Pophale) SiO2 
 PCOD9010155
Probable space group: P -1
;
_chemical_formula_sum "Si O2"
_cell_formula_units_Z 16
_cell_length_a 8.393082
_cell_length_b 14.480099
_cell_length_c 9.772999
_cell_angle_alpha 32.573393
_cell_angle_beta 87.021767
_cell_angle_gamma 80.009700
_cell_volume 619.731650
_symmetry_space_group_name_H-M "P -1"
_symmetry_group_IT_number 2
_symmetry_cell_setting 'triclinic'
loop_
_space_group_symop_operation_xyz
x,y,z
-x,-y,-z
loop_
_atom_site_type_symbol
_atom_site_label
_atom_site_fract_x
_atom_site_fract_y
_atom_site_fract_z
Si Si1 0.266372 0.964117 0.085626
Si Si2 0.346761 0.554520 0.602252
Si Si3 0.740451 0.950368 0.518375
Si Si4 0.080639 0.963697 0.837952
Si Si5 0.453255 0.954112 0.337331
Si Si6 0.838533 0.460496 0.621610
Si Si7 0.822757 0.531105 0.036447
Si Si8 0.633791 0.551892 0.765848
O O1 0.347229 0.756840 0.322403
O O2 0.385139 0.038447 0.089347
O O3 0.200992 0.033474 0.852549
O O4 0.099756 0.979615 0.161154
O O5 0.309106 0.474383 0.561597
O O6 0.507949 0.467288 0.791276
O O7 0.194942 0.555156 0.710108
O O8 0.584912 0.026728 0.328967
O O9 0.760468 0.741508 0.796419
O O10 0.893668 0.975697 0.391644
O O11 0.696512 0.033066 0.565481
O O12 0.128855 0.750823 0.102119
O O13 0.539935 0.751131 0.556096
O O14 0.784302 0.544973 0.664603
O O15 0.000000 0.500000 0.500000
O O16 0.706019 0.467347 0.010500
O O17 0.000000 0.500000 0.000000
#
# Coordination Sequence:
#
# PCOD9010155 Si02
#       8
#     2   2   2   2   2   2   2   2
#     4   9  20  39  61  88 118 159 200 241 295 352
#     4  10  21  40  62  89 124 160 202 246 297 359
#     4  10  22  40  59  89 123 157 201 245 295 354
#     4  10  22  39  61  87 121 156 197 248 298 357
#     4   9  21  40  60  86 122 159 200 244 291 355
#     4  11  24  41  63  90 119 154 201 256 310 362
#     4  11  22  37  62  93 128 163 199 248 298 354
#     4  10  22  40  62  88 120 162 204 248 302 360
#
# _framework density 25.817626000000001
#
# number of rings (size 3 to 8) (size 9 to 14) (size 15 to 20)
#    0.000    2.000    0.000    2.250    0.000   13.000 
#    0.000    2.500    0.000    0.000    0.000    0.000 
#    0.000    0.000    0.000    0.000    0.000    0.000 
#
# Total GULP energy -89559.435217 kJ/mol
# GULP energy per Si atom -5597.464701 kJ/mol
# Density = 2.575886 g / cm^3
# Si number density = 25.817626 Si / 1000 Ang^3
#
#
#
# Elastic Constant Matrix: (Units=GPa)
#
#
# Indices 1 2 3 4 5 6 
#
# 1 58.5409 16.4395 10.2782 -1.2140 5.7828 -1.8209
# 2 16.4395 139.9532 45.0626 19.9606 -0.7307 -13.6416
# 3 10.2782 45.0626 59.4500 6.1095 -11.4927 11.7402
# 4 -1.2140 19.9606 6.1095 49.8539 -1.7237 -2.9459
# 5 5.7828 -0.7307 -11.4927 -1.7237 39.4086 16.1772
# 6 -1.8209 -13.6416 11.7402 -2.9459 16.1772 41.6504
#
#
#
# Elastic Compliance Matrix: (Units=1/GPa)
#
#
# Indices 1 2 3 4 5 6 
#
# 1 0.018883 -0.000241 -0.005363 0.001280 -0.006243 0.004774
# 2 -0.000241 0.012849 -0.013074 -0.003190 -0.008116 0.010810
# 3 -0.005363 -0.013074 0.036035 0.000057 0.020317 -0.022561
# 4 0.001280 -0.003190 0.000057 0.021397 0.000591 0.000279
# 5 -0.006243 -0.008116 0.020317 0.000591 0.042387 -0.025080
# 6 0.004774 0.010810 -0.022561 0.000279 -0.025080 0.043879
#
#
# Mechanical properties :
#
#
# Convention : Reuss Voigt Hill
#
# Bulk Modulus (GPa) = 32.88215 44.61164 38.74689
# Shear Modulus (GPa) = 22.42918 38.59350 30.51134
#
# Velocity S-wave (km/s) = 2.95066 3.87052 3.44147
# Velocity P-wave (km/s) = 4.93685 6.10669 5.55266
#
# Compressibility (1/GPa) = 0.03041164
#
# Stress axis : x y z
#
# Youngs Moduli (GPa) = 52.95742 77.82412 27.75062
#
# Poissons Ratio (x) = 0.01877 0.14883
# Poissons Ratio (y) = 0.01277 0.36281
# Poissons Ratio (z) = 0.28401 1.01747
#
# Static dielectric constant tensor:
#      x y z
#    x 2.124310 0.013620 0.020350 
#    y 0.013620 1.966430 0.020030 
#    z 0.020350 0.020030 1.983980 
# 
# From -- ./inp_files/205162.got.cif
#   From: 2010.05.17/outbox.cif.g08.bks.cpg/sg2_103_cif.got.tgz:205162.got - 2010.06.03 11:33:40.
