data_PCOD9010149
_publ_section_title
;
Structure prediction by ZEFSAII (Michael W. Deem and Ramdas Pophale) SiO2 
 PCOD9010149
Probable space group: P -1
;
_chemical_formula_sum "Si O2"
_cell_formula_units_Z 14
_cell_length_a 12.644072
_cell_length_b 14.314004
_cell_length_c 5.339306
_cell_angle_alpha 69.937799
_cell_angle_beta 71.986194
_cell_angle_gamma 48.697190
_cell_volume 677.186480
_symmetry_space_group_name_H-M "P -1"
_symmetry_group_IT_number 2
_symmetry_cell_setting 'triclinic'
loop_
_space_group_symop_operation_xyz
x,y,z
-x,-y,-z
loop_
_atom_site_type_symbol
_atom_site_label
_atom_site_fract_x
_atom_site_fract_y
_atom_site_fract_z
Si Si1 0.642073 0.990595 0.892689
Si Si2 0.853944 0.388746 0.780563
Si Si3 0.888003 0.638867 0.328419
Si Si4 0.233730 0.453552 0.803999
Si Si5 0.369759 0.652199 0.960322
Si Si6 0.567485 0.260858 0.664582
Si Si7 0.327589 0.107445 0.536722
O O1 0.727631 0.898075 0.683901
O O2 0.609770 0.122517 0.745505
O O3 0.710712 0.940543 0.158064
O O4 0.500000 0.000000 0.000000
O O5 0.826852 0.440119 0.467741
O O6 0.018852 0.313092 0.791027
O O7 0.784509 0.497683 0.946605
O O8 0.776251 0.327861 0.931745
O O9 0.840772 0.611237 0.133704
O O10 0.742467 0.747480 0.479366
O O11 0.000000 0.500000 0.500000
O O12 0.397961 0.355746 0.711284
O O13 0.380898 0.707991 0.645119
O O14 0.500000 0.500000 0.000000
O O15 0.383995 0.713218 0.138297
O O16 0.500000 0.000000 0.500000
#
# Coordination Sequence:
#
# PCOD9010149 Si02
#       7
#     2   2   2   2   2   2   2
#     4  10  22  38  61  92 122 160 211 267 316 372
#     4  11  23  37  56  87 131 170 199 262 322 383
#     4  10  24  40  64  97 131 168 210 265 336 386
#     4  11  20  36  58  90 127 164 210 255 325 385
#     4  12  22  39  60  92 133 174 217 264 318 382
#     4  12  22  37  66  93 126 169 221 269 317 375
#     4  10  21  40  62  88 128 164 207 258 314 382
#
# _framework density 20.673773000000001
#
# number of rings (size 3 to 8) (size 9 to 14) (size 15 to 20)
#    0.000    1.143    2.857    4.286    0.000   10.286 
#    0.000    0.000    0.000    5.143    0.000    0.000 
#    0.000    0.000    0.000    0.000    0.000    0.000 
#
# Total GULP energy -78103.298908 kJ/mol
# GULP energy per Si atom -5578.807065 kJ/mol
# Density = 2.062672 g / cm^3
# Si number density = 20.673773 Si / 1000 Ang^3
#
#
#
# Elastic Constant Matrix: (Units=GPa)
#
#
# Indices 1 2 3 4 5 6 
#
# 1 114.6348 17.0206 12.4888 2.3749 -15.6982 11.1569
# 2 17.0206 96.3114 29.7315 -1.9633 -10.3081 12.1060
# 3 12.4888 29.7315 128.9157 1.1435 5.8652 14.4040
# 4 2.3749 -1.9633 1.1435 25.4971 10.8172 4.2724
# 5 -15.6982 -10.3081 5.8652 10.8172 22.4799 11.4227
# 6 11.1569 12.1060 14.4040 4.2724 11.4227 35.6605
#
#
#
# Elastic Compliance Matrix: (Units=1/GPa)
#
#
# Indices 1 2 3 4 5 6 
#
# 1 0.011826 0.000840 -0.001130 -0.006480 0.016070 -0.007900
# 2 0.000840 0.013335 -0.002888 -0.003060 0.012639 -0.007305
# 3 -0.001130 -0.002888 0.008836 0.001656 -0.004753 -0.000911
# 4 -0.006480 -0.003060 0.001656 0.053492 -0.035907 0.007490
# 5 0.016070 0.012639 -0.004753 -0.035907 0.097456 -0.034314
# 6 -0.007900 -0.007305 -0.000911 0.007490 -0.034314 0.043455
#
#
# Mechanical properties :
#
#
# Convention : Reuss Voigt Hill
#
# Bulk Modulus (GPa) = 36.18133 50.92709 43.55421
# Shear Modulus (GPa) = 20.49428 35.43557 27.96493
#
# Velocity S-wave (km/s) = 3.15194 4.14458 3.68187
# Velocity P-wave (km/s) = 5.54845 6.89859 6.26003
#
# Compressibility (1/GPa) = 0.02763856
#
# Stress axis : x y z
#
# Youngs Moduli (GPa) = 84.56257 74.99203 113.17370
#
# Poissons Ratio (x) = -0.06299 0.12792
# Poissons Ratio (y) = -0.07102 0.32689
# Poissons Ratio (z) = 0.09558 0.21661
#
# Static dielectric constant tensor:
#      x y z
#    x 1.787120 0.018950 -0.065340 
#    y 0.018950 1.838600 -0.040250 
#    z -0.065340 -0.040250 1.860590 
# 
# From -- ./inp_files/68941.got.cif
#   From: 2010.05.17/outbox.cif.g08.bks.cpg/sg2_35_cif.got.tgz:68941.got - 2010.06.03 11:33:40.
