data_PCOD9010464
_publ_section_title
;
Structure prediction by ZEFSAII (Michael W. Deem and Ramdas Pophale) SiO2 
 PCOD9010464
Probable space group: P -1
;
_chemical_formula_sum "Si O2"
_cell_formula_units_Z 16
_cell_length_a 10.614075
_cell_length_b 8.382040
_cell_length_c 14.307266
_cell_angle_alpha 80.581294
_cell_angle_beta 137.607645
_cell_angle_gamma 121.078130
_cell_volume 680.819983
_symmetry_space_group_name_H-M "P -1"
_symmetry_group_IT_number 2
_symmetry_cell_setting 'triclinic'
loop_
_space_group_symop_operation_xyz
x,y,z
-x,-y,-z
loop_
_atom_site_type_symbol
_atom_site_label
_atom_site_fract_x
_atom_site_fract_y
_atom_site_fract_z
Si Si1 0.771272 0.773853 0.877557
Si Si2 0.352013 0.968924 0.284472
Si Si3 0.844783 0.178104 0.613450
Si Si4 0.361238 0.589943 0.045466
Si Si5 0.865100 0.227748 0.004051
Si Si6 0.833803 0.794143 0.375434
Si Si7 0.026917 0.425529 0.422767
Si Si8 0.538938 0.153147 0.086959
O O1 0.695814 0.622547 0.936554
O O2 0.597249 0.821098 0.742226
O O3 0.870575 0.696948 0.863521
O O4 0.000000 0.000000 0.000000
O O5 0.183862 0.894496 0.289364
O O6 0.230560 0.806823 0.150937
O O7 0.595781 0.018781 0.443752
O O8 0.041251 0.204041 0.651697
O O9 0.883057 0.391576 0.615493
O O10 0.177641 0.630593 0.975788
O O11 0.592721 0.745521 0.217006
O O12 0.416770 0.656896 0.961744
O O13 0.698116 0.997801 0.972912
O O14 0.809412 0.638301 0.453046
O O15 0.000000 0.000000 0.500000
O O16 0.770855 0.238994 0.265696
O O17 0.000000 0.500000 0.500000
O O18 0.500000 0.000000 0.000000
#
# Coordination Sequence:
#
# PCOD9010464 Si02
#       8
#     2   2   2   2   2   2   2   2
#     4  10  23  39  61  89 131 169 213 264 327 387
#     4  10  21  41  60  88 128 166 220 257 326 382
#     4  10  22  38  64  89 123 173 213 268 312 400
#     4  11  23  40  65  99 127 170 219 270 327 396
#     4  10  21  41  64  86 130 173 207 266 331 385
#     4  11  22  40  68  97 131 164 219 274 340 386
#     4  10  21  40  63  91 129 169 217 261 330 383
#     4  10  22  39  65  96 130 166 220 271 326 387
#
# _framework density 23.501073000000002
#
# number of rings (size 3 to 8) (size 9 to 14) (size 15 to 20)
#    0.000    1.750    0.000    4.875    5.250    3.000 
#    0.000    5.000    0.000    4.500    0.000    0.000 
#    0.000    0.000    0.000    0.000    0.000    0.000 
#
# Total GULP energy -89382.030936 kJ/mol
# GULP energy per Si atom -5586.376933 kJ/mol
# Density = 2.344758 g / cm^3
# Si number density = 23.501073 Si / 1000 Ang^3
#
#
#
# Elastic Constant Matrix: (Units=GPa)
#
#
# Indices 1 2 3 4 5 6 
#
# 1 79.6874 19.0612 1.9330 -8.7745 -6.3650 9.7493
# 2 19.0612 131.9543 -4.9175 -21.5629 -18.5294 22.3639
# 3 1.9330 -4.9175 73.1354 0.7325 -10.7991 4.1347
# 4 -8.7745 -21.5629 0.7325 39.7515 -0.8811 -2.4340
# 5 -6.3650 -18.5294 -10.7991 -0.8811 26.1879 -3.0230
# 6 9.7493 22.3639 4.1347 -2.4340 -3.0230 33.3315
#
#
#
# Elastic Compliance Matrix: (Units=1/GPa)
#
#
# Indices 1 2 3 4 5 6 
#
# 1 0.013569 -0.000647 0.000137 0.002508 0.002620 -0.003131
# 2 -0.000647 0.010807 0.002202 0.005472 0.007863 -0.006222
# 3 0.000137 0.002202 0.015069 0.000952 0.007533 -0.002634
# 4 0.002508 0.005472 0.000952 0.028668 0.005617 -0.001920
# 5 0.002620 0.007863 0.007533 0.005617 0.047420 -0.002266
# 6 -0.003131 -0.006222 -0.002634 -0.001920 -0.002266 0.035073
#
#
# Mechanical properties :
#
#
# Convention : Reuss Voigt Hill
#
# Bulk Modulus (GPa) = 23.34889 35.21448 29.28169
# Shear Modulus (GPa) = 30.96013 37.76755 34.36384
#
# Velocity S-wave (km/s) = 3.63353 4.01316 3.82805
# Velocity P-wave (km/s) = 5.24978 6.04075 5.65910
#
# Compressibility (1/GPa) = 0.04282859
#
# Stress axis : x y z
#
# Youngs Moduli (GPa) = 73.69798 92.53520 66.35962
#
# Poissons Ratio (x) = 0.05983 -0.00907
# Poissons Ratio (y) = 0.04765 -0.14610
# Poissons Ratio (z) = -0.01007 -0.20374
#
# Static dielectric constant tensor:
#      x y z
#    x 1.706210 0.032950 0.092500 
#    y 0.032950 1.986400 -0.024830 
#    z 0.092500 -0.024830 1.882360 
# 
# From -- ./inp_files/515446.got.cif
#   From: 2010.05.17/outbox.cif.g08.bks.cpg/sg2_258_cif.got.tgz:515446.got - 2010.06.03 11:33:40.
