data_PCOD9010764
_publ_section_title
;
Structure prediction by ZEFSAII (Michael W. Deem and Ramdas Pophale) SiO2 
 PCOD9010764
Probable space group: P -1
;
_chemical_formula_sum "Si O2"
_cell_formula_units_Z 14
_cell_length_a 10.623632
_cell_length_b 12.309415
_cell_length_c 9.197539
_cell_angle_alpha 74.904825
_cell_angle_beta 80.187923
_cell_angle_gamma 32.993260
_cell_volume 629.714573
_symmetry_space_group_name_H-M "P -1"
_symmetry_group_IT_number 2
_symmetry_cell_setting 'triclinic'
loop_
_space_group_symop_operation_xyz
x,y,z
-x,-y,-z
loop_
_atom_site_type_symbol
_atom_site_label
_atom_site_fract_x
_atom_site_fract_y
_atom_site_fract_z
Si Si1 0.017454 0.816903 0.579291
Si Si2 0.440466 0.741138 0.626139
Si Si3 0.863949 0.514976 0.417245
Si Si4 0.786300 0.019388 0.822143
Si Si5 0.217620 0.031090 0.819189
Si Si6 0.284491 0.672363 0.312241
Si Si7 0.413410 0.119354 0.824430
O O1 0.002066 0.695937 0.584644
O O2 0.239080 0.691000 0.486334
O O3 0.800200 0.048300 0.479090
O O4 0.017979 0.843738 0.740815
O O5 0.643862 0.640377 0.516977
O O6 0.523225 0.553709 0.702608
O O7 0.403559 0.823831 0.762605
O O8 0.784021 0.640301 0.243367
O O9 0.000000 0.500000 0.500000
O O10 0.680919 0.221745 0.761088
O O11 0.636356 0.030680 0.772208
O O12 0.798911 0.984014 0.001656
O O13 0.308848 0.091978 0.765175
O O14 0.961914 0.189875 0.754121
O O15 0.500000 0.000000 0.000000
#
# Coordination Sequence:
#
# PCOD9010764 Si02
#       7
#     2   2   2   2   2   2   2
#     4  10  22  40  63  95 124 164 214 265 315 373
#     4  10  21  40  64  91 124 165 218 262 304 384
#     4  11  22  39  68  94 125 175 217 255 322 389
#     4  11  22  42  64  92 135 166 204 270 326 370
#     4  10  23  43  63  91 129 170 213 259 315 387
#     4  10  22  42  65  94 124 170 219 255 314 387
#     4  10  22  42  63  93 130 163 210 268 321 372
#
# _framework density 22.232294
#
# number of rings (size 3 to 8) (size 9 to 14) (size 15 to 20)
#    0.000    1.714    1.429    3.429    2.000    2.286 
#   10.286    1.429    0.000    0.000    0.000    0.000 
#    0.000    0.000    0.000    0.000    0.000    0.000 
#
# Total GULP energy -78057.216499 kJ/mol
# GULP energy per Si atom -5575.515464 kJ/mol
# Density = 2.218169 g / cm^3
# Si number density = 22.232294 Si / 1000 Ang^3
#
#
#
# Elastic Constant Matrix: (Units=GPa)
#
#
# Indices 1 2 3 4 5 6 
#
# 1 122.3035 62.6401 28.1859 0.6382 -10.7864 14.0974
# 2 62.6401 161.5528 46.9071 14.2309 -6.0758 32.8138
# 3 28.1859 46.9071 112.0615 10.3351 0.3233 19.1449
# 4 0.6382 14.2309 10.3351 31.6834 7.1584 -0.5121
# 5 -10.7864 -6.0758 0.3233 7.1584 23.3005 -3.4788
# 6 14.0974 32.8138 19.1449 -0.5121 -3.4788 37.9576
#
#
#
# Elastic Compliance Matrix: (Units=1/GPa)
#
#
# Indices 1 2 3 4 5 6 
#
# 1 0.010698 -0.003798 -0.001262 0.001072 0.003695 0.000300
# 2 -0.003798 0.009824 -0.001726 -0.004139 0.001179 -0.006159
# 3 -0.001262 -0.001726 0.010822 -0.002577 -0.000933 -0.003618
# 4 0.001072 -0.004139 -0.002577 0.036853 -0.011280 0.003943
# 5 0.003695 0.001179 -0.000933 -0.011280 0.048772 0.002396
# 6 0.000300 -0.006159 -0.003618 0.003943 0.002396 0.033656
#
#
# Mechanical properties :
#
#
# Convention : Reuss Voigt Hill
#
# Bulk Modulus (GPa) = 56.26877 74.59825 65.43351
# Shear Modulus (GPa) = 29.39101 35.80063 32.59582
#
# Velocity S-wave (km/s) = 3.63987 4.01721 3.83318
# Velocity P-wave (km/s) = 6.55967 7.42591 7.00619
#
# Compressibility (1/GPa) = 0.01777185
#
# Stress axis : x y z
#
# Youngs Moduli (GPa) = 93.47407 101.79477 92.40418
#
# Poissons Ratio (x) = 0.38662 0.11659
# Poissons Ratio (y) = 0.35502 0.15951
# Poissons Ratio (z) = 0.11794 0.17572
#
# Static dielectric constant tensor:
#      x y z
#    x 1.918450 -0.021830 0.013240 
#    y -0.021830 1.789170 -0.023420 
#    z 0.013240 -0.023420 1.864550 
# 
# From -- ./inp_files/66985.got.cif
#   From: 2010.05.17/outbox.cif.g08.bks.cpg/sg2_34_cif.got.tgz:66985.got - 2010.06.03 11:33:40.
