data_PCOD9010066
_publ_section_title
;
Structure prediction by ZEFSAII (Michael W. Deem and Ramdas Pophale) SiO2 
 PCOD9010066
Probable space group: P -1
;
_chemical_formula_sum "Si O2"
_cell_formula_units_Z 14
_cell_length_a 5.235624
_cell_length_b 9.167583
_cell_length_c 12.400542
_cell_angle_alpha 87.740408
_cell_angle_beta 100.001493
_cell_angle_gamma 74.820887
_cell_volume 563.444932
_symmetry_space_group_name_H-M "P -1"
_symmetry_group_IT_number 2
_symmetry_cell_setting 'triclinic'
loop_
_space_group_symop_operation_xyz
x,y,z
-x,-y,-z
loop_
_atom_site_type_symbol
_atom_site_label
_atom_site_fract_x
_atom_site_fract_y
_atom_site_fract_z
Si Si1 0.637939 0.435539 0.701999
Si Si2 0.321207 0.083223 0.084414
Si Si3 0.988367 0.194375 0.606347
Si Si4 0.417955 0.206693 0.792549
Si Si5 0.798535 0.905189 0.604776
Si Si6 0.398565 0.785112 0.718148
Si Si7 0.967861 0.650165 0.062654
O O1 0.437995 0.331313 0.703733
O O2 0.505158 0.611778 0.692778
O O3 0.820251 0.365705 0.615520
O O4 0.812074 0.388311 0.826105
O O5 0.476696 0.184992 0.159538
O O6 0.326953 0.937325 0.163801
O O7 0.051520 0.201792 0.017485
O O8 0.500000 0.000000 0.000000
O O9 0.183536 0.143061 0.725702
O O10 0.145366 0.169884 0.506656
O O11 0.799143 0.080279 0.590798
O O12 0.310770 0.297468 0.891462
O O13 0.075836 0.829029 0.692190
O O14 0.539094 0.876158 0.642395
O O15 0.000000 0.500000 0.000000
#
# Coordination Sequence:
#
# PCOD9010066 Si02
#       7
#     2   2   2   2   2   2   2
#     4  11  25  41  67  99 142 179 227 288 343 417
#     4  10  21  44  66  95 139 179 232 277 339 408
#     4  10  24  45  71  98 137 178 230 285 347 406
#     4  10  22  42  65  97 134 180 227 280 344 414
#     4  11  27  46  74 101 137 183 234 285 341 413
#     4  12  26  46  69 106 140 180 230 286 344 408
#     4  10  21  40  61  97 133 178 228 280 344 399
#
# _framework density 24.847149000000002
#
# number of rings (size 3 to 8) (size 9 to 14) (size 15 to 20)
#    0.000    1.429    2.857    0.857    6.000    3.429 
#    5.143    0.000    0.000    0.000    0.000    0.000 
#    0.000    0.000    0.000    0.000    0.000    0.000 
#
# Total GULP energy -78299.058832 kJ/mol
# GULP energy per Si atom -5592.789917 kJ/mol
# Density = 2.479060 g / cm^3
# Si number density = 24.847149 Si / 1000 Ang^3
#
#
#
# Elastic Constant Matrix: (Units=GPa)
#
#
# Indices 1 2 3 4 5 6 
#
# 1 61.2400 25.5572 11.9506 1.0458 1.5930 -5.2927
# 2 25.5572 137.5975 22.4837 35.7033 -2.5744 -22.6220
# 3 11.9506 22.4837 94.6639 38.2874 -2.5573 -3.8676
# 4 1.0458 35.7033 38.2874 43.6600 -4.6810 -6.2171
# 5 1.5930 -2.5744 -2.5573 -4.6810 39.4374 -1.9707
# 6 -5.2927 -22.6220 -3.8676 -6.2171 -1.9707 33.0885
#
#
#
# Elastic Compliance Matrix: (Units=1/GPa)
#
#
# Indices 1 2 3 4 5 6 
#
# 1 0.018977 -0.004535 -0.004090 0.006892 -0.000473 0.000724
# 2 -0.004535 0.011307 0.002312 -0.010396 0.000104 0.005328
# 3 -0.004090 0.002312 0.017466 -0.017218 -0.000610 -0.000303
# 4 0.006892 -0.010396 -0.017218 0.046861 0.003538 0.000998
# 5 -0.000473 0.000104 -0.000610 0.003538 0.025869 0.002129
# 6 0.000724 0.005328 -0.000303 0.000998 0.002129 0.034260
#
#
# Mechanical properties :
#
#
# Convention : Reuss Voigt Hill
#
# Bulk Modulus (GPa) = 28.46928 45.94272 37.20600
# Shear Modulus (GPa) = 27.92152 38.80451 33.36302
#
# Velocity S-wave (km/s) = 3.35585 3.95616 3.66830
# Velocity P-wave (km/s) = 5.14765 6.27683 5.74007
#
# Compressibility (1/GPa) = 0.03512558
#
# Stress axis : x y z
#
# Youngs Moduli (GPa) = 52.69565 88.43693 57.25466
#
# Poissons Ratio (x) = 0.40104 0.23414
# Poissons Ratio (y) = 0.23896 -0.13237
# Poissons Ratio (z) = 0.21550 -0.20446
#
# Static dielectric constant tensor:
#      x y z
#    x 2.107580 0.087920 -0.013320 
#    y 0.087920 2.000790 -0.053100 
#    z -0.013320 -0.053100 2.023950 
# 
# From -- ./inp_files/27851.got.cif
#   From: 2010.05.17/outbox.cif.g08.bks.cpg/sg2_14_cif.got.tgz:27851.got - 2010.06.03 11:33:40.
