data_PCOD9010589
_publ_section_title
;
Structure prediction by ZEFSAII (Michael W. Deem and Ramdas Pophale) SiO2 
 PCOD9010589
Probable space group: P -1
;
_chemical_formula_sum "Si O2"
_cell_formula_units_Z 14
_cell_length_a 12.205982
_cell_length_b 9.432277
_cell_length_c 11.451142
_cell_angle_alpha 115.628108
_cell_angle_beta 127.489938
_cell_angle_gamma 36.369644
_cell_volume 615.659258
_symmetry_space_group_name_H-M "P -1"
_symmetry_group_IT_number 2
_symmetry_cell_setting 'triclinic'
loop_
_space_group_symop_operation_xyz
x,y,z
-x,-y,-z
loop_
_atom_site_type_symbol
_atom_site_label
_atom_site_fract_x
_atom_site_fract_y
_atom_site_fract_z
Si Si1 0.523749 0.345097 0.795329
Si Si2 0.163763 0.483340 0.282157
Si Si3 0.673917 0.343932 0.454838
Si Si4 0.797420 0.357940 0.093480
Si Si5 0.368110 0.966223 0.644360
Si Si6 0.727695 0.750960 0.102314
Si Si7 0.758446 0.891369 0.654505
O O1 0.430893 0.519336 0.686922
O O2 0.352306 0.491619 0.838055
O O3 0.587103 0.119880 0.709211
O O4 0.727043 0.259373 0.949888
O O5 0.172134 0.648481 0.403585
O O6 0.375198 0.276932 0.267316
O O7 0.186893 0.327780 0.340505
O O8 0.932455 0.651495 0.138463
O O9 0.500000 0.500000 0.500000
O O10 0.739528 0.105923 0.413263
O O11 0.750622 0.544357 0.043806
O O12 0.036162 0.174963 0.224324
O O13 0.277163 0.180404 0.743156
O O14 0.318984 0.037566 0.502493
O O15 0.500000 0.000000 0.000000
#
# Coordination Sequence:
#
# PCOD9010589 Si02
#       7
#     2   2   2   2   2   2   2
#     4  11  21  43  64  88 137 165 211 264 314 374
#     4  10  23  40  65  94 124 165 207 265 316 371
#     4  10  21  40  63  96 127 164 212 261 311 376
#     4  10  25  40  63  98 125 173 210 261 315 382
#     4  11  23  40  66  96 125 167 211 262 317 374
#     4  11  25  44  62  92 130 167 215 262 317 382
#     4  11  22  39  68  95 125 166 215 258 317 378
#
# _framework density 22.739850000000001
#
# number of rings (size 3 to 8) (size 9 to 14) (size 15 to 20)
#    0.000    1.429    2.857    2.571    4.000    2.286 
#    5.143    2.857    0.000    0.000    0.000    0.000 
#    0.000    0.000    0.000    0.000    0.000    0.000 
#
# Total GULP energy -78299.465164 kJ/mol
# GULP energy per Si atom -5592.818940 kJ/mol
# Density = 2.268809 g / cm^3
# Si number density = 22.739850 Si / 1000 Ang^3
#
#
#
# Elastic Constant Matrix: (Units=GPa)
#
#
# Indices 1 2 3 4 5 6 
#
# 1 87.4490 20.8275 35.2816 5.9647 26.1500 -1.4040
# 2 20.8275 67.1297 20.5707 3.4425 11.2024 -8.5975
# 3 35.2816 20.5707 69.5509 7.3889 10.9654 3.3139
# 4 5.9647 3.4425 7.3889 25.1289 -0.4651 -2.0830
# 5 26.1500 11.2024 10.9654 -0.4651 25.1205 3.6121
# 6 -1.4040 -8.5975 3.3139 -2.0830 3.6121 31.5565
#
#
#
# Elastic Compliance Matrix: (Units=1/GPa)
#
#
# Indices 1 2 3 4 5 6 
#
# 1 0.020048 -0.000461 -0.007054 -0.002674 -0.018124 0.003405
# 2 -0.000461 0.018310 -0.004342 -0.000737 -0.006687 0.006141
# 3 -0.007054 -0.004342 0.019644 -0.003812 0.001202 -0.003949
# 4 -0.002674 -0.000737 -0.003812 0.041935 0.005230 0.002250
# 5 -0.018124 -0.006687 0.001202 0.005230 0.062606 -0.009575
# 6 0.003405 0.006141 -0.003949 0.002250 -0.009575 0.035173
#
#
# Mechanical properties :
#
#
# Convention : Reuss Voigt Hill
#
# Bulk Modulus (GPa) = 29.16407 41.94323 35.55365
# Shear Modulus (GPa) = 21.47228 26.19116 23.83172
#
# Velocity S-wave (km/s) = 3.07621 3.39746 3.24082
# Velocity P-wave (km/s) = 5.04682 5.82024 5.44727
#
# Compressibility (1/GPa) = 0.03428877
#
# Stress axis : x y z
#
# Youngs Moduli (GPa) = 49.88122 54.61452 50.90556
#
# Poissons Ratio (x) = 0.02516 0.35910
# Poissons Ratio (y) = 0.02298 0.22102
# Poissons Ratio (z) = 0.35187 0.23713
#
# Static dielectric constant tensor:
#      x y z
#    x 1.849010 -0.000290 0.053480 
#    y -0.000290 1.848720 -0.017620 
#    z 0.053480 -0.017620 1.848650 
# 
# From -- ./inp_files/419787.got.cif
#   From: 2010.05.17/outbox.cif.g08.bks.cpg/sg2_210_cif.got.tgz:419787.got - 2010.06.03 11:33:40.
