data_PCOD9010055
_publ_section_title
;
Structure prediction by ZEFSAII (Michael W. Deem and Ramdas Pophale) SiO2 
 PCOD9010055
Probable space group: P -1
;
_chemical_formula_sum "Si O2"
_cell_formula_units_Z 16
_cell_length_a 17.842122
_cell_length_b 8.286596
_cell_length_c 7.745908
_cell_angle_alpha 124.846184
_cell_angle_beta 60.254709
_cell_angle_gamma 127.845253
_cell_volume 723.227026
_symmetry_space_group_name_H-M "P -1"
_symmetry_group_IT_number 2
_symmetry_cell_setting 'triclinic'
loop_
_space_group_symop_operation_xyz
x,y,z
-x,-y,-z
loop_
_atom_site_type_symbol
_atom_site_label
_atom_site_fract_x
_atom_site_fract_y
_atom_site_fract_z
Si Si1 0.947551 0.721744 0.527820
Si Si2 0.936068 0.619606 0.099107
Si Si3 0.415780 0.920305 0.193817
Si Si4 0.448075 0.634003 0.559523
Si Si5 0.794913 0.799670 0.969714
Si Si6 0.925423 0.230501 0.278529
Si Si7 0.397987 0.491157 0.148355
Si Si8 0.266507 0.618286 0.966445
O O1 0.948912 0.761098 0.344358
O O2 0.873885 0.797567 0.744570
O O3 0.912375 0.453814 0.427529
O O4 0.045072 0.813119 0.590762
O O5 0.824813 0.436306 0.084785
O O6 0.000000 0.500000 0.000000
O O7 0.984228 0.733017 0.930996
O O8 0.399784 0.697295 0.169215
O O9 0.461764 0.118256 0.398983
O O10 0.312945 0.844101 0.165823
O O11 0.500000 0.000000 0.000000
O O12 0.500000 0.500000 0.500000
O O13 0.398815 0.532550 0.374052
O O14 0.359674 0.627272 0.768187
O O15 0.693767 0.731370 0.945627
O O16 0.773476 0.597252 0.999079
O O17 0.835232 0.023432 0.170266
O O18 0.500000 0.500000 0.000000
#
# Coordination Sequence:
#
# PCOD9010055 Si02
#       8
#     2   2   2   2   2   2   2   2
#     4  10  21  40  65  89 126 167 216 257 325 378
#     4  10  21  40  61  94 128 167 215 268 317 390
#     4   9  20  40  66  89 122 168 206 268 331 382
#     4  11  22  43  64  96 129 168 217 270 332 399
#     4  11  22  42  65  92 127 169 213 269 324 386
#     4  10  22  42  62  91 128 166 211 267 315 383
#     4  11  23  43  63  94 129 166 218 271 328 400
#     4  10  21  40  63  91 127 162 211 267 323 386
#
# _framework density 22.123066000000001
#
# number of rings (size 3 to 8) (size 9 to 14) (size 15 to 20)
#    0.000    1.750    1.250    3.750    0.000    0.500 
#   27.000    0.000    0.000    0.000    0.000    0.000 
#    0.000    0.000    0.000    0.000    0.000    0.000 
#
# Total GULP energy -89306.605564 kJ/mol
# GULP energy per Si atom -5581.662848 kJ/mol
# Density = 2.207271 g / cm^3
# Si number density = 22.123066 Si / 1000 Ang^3
#
#
#
# Elastic Constant Matrix: (Units=GPa)
#
#
# Indices 1 2 3 4 5 6 
#
# 1 144.8795 36.8841 32.9852 16.7862 27.2837 37.1702
# 2 36.8841 66.1639 13.6250 19.9543 17.7046 25.6327
# 3 32.9852 13.6250 63.2612 15.7246 23.7591 20.1300
# 4 16.7862 19.9543 15.7246 38.0749 7.0890 17.7511
# 5 27.2837 17.7046 23.7591 7.0890 43.4330 6.7829
# 6 37.1702 25.6327 20.1300 17.7511 6.7829 41.4615
#
#
#
# Elastic Compliance Matrix: (Units=1/GPa)
#
#
# Indices 1 2 3 4 5 6 
#
# 1 0.010126 -0.001932 -0.001460 0.001150 -0.003864 -0.007035
# 2 -0.001932 0.023610 0.003893 -0.006740 -0.007786 -0.010595
# 3 -0.001460 0.003893 0.024174 -0.005137 -0.011693 -0.008723
# 4 0.001150 -0.006740 -0.005137 0.035895 0.000510 -0.009821
# 5 -0.003864 -0.007786 -0.011693 0.000510 0.033653 0.008231
# 6 -0.007035 -0.010595 -0.008723 -0.009821 0.008231 0.044070
#
#
# Mechanical properties :
#
#
# Convention : Reuss Voigt Hill
#
# Bulk Modulus (GPa) = 16.97412 49.03260 33.00336
# Shear Modulus (GPa) = 26.29346 37.31457 31.80401
#
# Velocity S-wave (km/s) = 3.45122 4.11138 3.79568
# Velocity P-wave (km/s) = 4.85494 6.68951 5.84466
#
# Compressibility (1/GPa) = 0.05891321
#
# Stress axis : x y z
#
# Youngs Moduli (GPa) = 98.75856 42.35493 41.36635
#
# Poissons Ratio (x) = 0.08181 0.06039
# Poissons Ratio (y) = 0.19076 -0.16104
# Poissons Ratio (z) = 0.14417 -0.16489
#
# Static dielectric constant tensor:
#      x y z
#    x 1.713920 -0.023810 0.197740 
#    y -0.023810 1.835040 0.042770 
#    z 0.197740 0.042770 1.725320 
# 
# From -- ./inp_files/327994.got.cif
#   From: 2010.05.17/outbox.cif.g08.bks.cpg/sg2_164_cif.got.tgz:327994.got - 2010.06.03 11:33:40.
