data_PCOD9010365
_publ_section_title
;
Structure prediction by ZEFSAII (Michael W. Deem and Ramdas Pophale) SiO2 
 PCOD9010365
Probable space group: P -1
;
_chemical_formula_sum "Si O2"
_cell_formula_units_Z 14
_cell_length_a 8.665983
_cell_length_b 16.230492
_cell_length_c 18.492780
_cell_angle_alpha 159.212418
_cell_angle_beta 141.130187
_cell_angle_gamma 50.127082
_cell_volume 533.503466
_symmetry_space_group_name_H-M "P -1"
_symmetry_group_IT_number 2
_symmetry_cell_setting 'triclinic'
loop_
_space_group_symop_operation_xyz
x,y,z
-x,-y,-z
loop_
_atom_site_type_symbol
_atom_site_label
_atom_site_fract_x
_atom_site_fract_y
_atom_site_fract_z
Si Si1 0.043841 0.488185 0.228808
Si Si2 0.066293 0.255977 0.833053
Si Si3 0.335291 0.222351 0.053575
Si Si4 0.266218 0.286627 0.783298
Si Si5 0.974289 0.681565 0.515251
Si Si6 0.208835 0.846263 0.924516
Si Si7 0.213140 0.034963 0.223763
O O1 0.979949 0.629002 0.254087
O O2 0.990780 0.633440 0.396846
O O3 0.316016 0.442180 0.278104
O O4 0.838267 0.201066 0.935885
O O5 0.155585 0.227113 0.922601
O O6 0.290151 0.286380 0.878126
O O7 0.818776 0.996011 0.508819
O O8 0.000000 0.500000 0.000000
O O9 0.203319 0.958463 0.830384
O O10 0.599017 0.219481 0.112870
O O11 0.500000 0.500000 0.000000
O O12 0.989725 0.430481 0.347583
O O13 0.734847 0.728507 0.509679
O O14 0.048428 0.977706 0.928293
O O15 0.365310 0.000563 0.179161
#
# Coordination Sequence:
#
# PCOD9010365 Si02
#       7
#     2   2   2   2   2   2   2
#     4  10  21  41  62  95 134 167 216 277 323 398
#     4  11  24  45  67 100 135 170 228 279 327 408
#     4  11  23  40  65  94 133 172 214 274 333 391
#     4  11  25  44  70  96 135 176 223 276 338 398
#     4  10  21  40  63  87 133 167 216 272 324 390
#     4  10  22  41  65  94 128 172 221 266 335 390
#     4   9  21  41  64  94 129 168 224 274 315 405
#
# _framework density 26.241630000000001
#
# number of rings (size 3 to 8) (size 9 to 14) (size 15 to 20)
#    0.000    1.714    2.857    0.429    4.000    4.000 
#    5.143    7.143    0.000    0.000    0.000    0.000 
#    0.000    0.000    0.000    0.000    0.000    0.000 
#
# Total GULP energy -78141.824128 kJ/mol
# GULP energy per Si atom -5581.558866 kJ/mol
# Density = 2.618190 g / cm^3
# Si number density = 26.241630 Si / 1000 Ang^3
#
#
#
# Elastic Constant Matrix: (Units=GPa)
#
#
# Indices 1 2 3 4 5 6 
#
# 1 151.0937 24.1426 43.0178 -3.4373 -27.4588 20.1065
# 2 24.1426 109.4937 44.5346 32.9181 -7.5212 6.5752
# 3 43.0178 44.5346 122.9991 46.7283 -10.9099 1.3592
# 4 -3.4373 32.9181 46.7283 43.8509 4.1235 -2.5843
# 5 -27.4588 -7.5212 -10.9099 4.1235 55.7384 7.0699
# 6 20.1065 6.5752 1.3592 -2.5843 7.0699 51.3508
#
#
#
# Elastic Compliance Matrix: (Units=1/GPa)
#
#
# Indices 1 2 3 4 5 6 
#
# 1 0.009546 -0.001669 -0.004951 0.006744 0.003457 -0.003530
# 2 -0.001669 0.012734 -0.000103 -0.009853 0.001823 -0.001721
# 3 -0.004951 -0.000103 0.017300 -0.018950 0.002307 0.000222
# 4 0.006744 -0.009853 -0.018950 0.051623 -0.005856 0.002527
# 5 0.003457 0.001823 0.002307 -0.005856 0.021395 -0.004889
# 6 -0.003530 -0.001721 0.000222 0.002527 -0.004889 0.021871
#
#
# Mechanical properties :
#
#
# Convention : Reuss Voigt Hill
#
# Bulk Modulus (GPa) = 38.26275 67.44183 52.85229
# Shear Modulus (GPa) = 31.92327 48.31411 40.11869
#
# Velocity S-wave (km/s) = 3.49164 4.29549 3.91425
# Velocity P-wave (km/s) = 5.55589 7.09632 6.37282
#
# Compressibility (1/GPa) = 0.02613508
#
# Stress axis : x y z
#
# Youngs Moduli (GPa) = 104.75581 78.53253 57.80231
#
# Poissons Ratio (x) = 0.13109 0.28615
# Poissons Ratio (y) = 0.17486 0.00593
# Poissons Ratio (z) = 0.51860 0.00806
#
# Static dielectric constant tensor:
#      x y z
#    x 2.262460 -0.099100 -0.011890 
#    y -0.099100 2.055230 -0.083820 
#    z -0.011890 -0.083820 2.102520 
# 
# From -- ./inp_files/530025.got.cif
#   From: 2010.05.17/outbox.cif.g08.bks.cpg/sg2_266_cif.got.tgz:530025.got - 2010.06.03 11:33:40.
