data_PCOD9010941
_publ_section_title
;
Structure prediction by ZEFSAII (Michael W. Deem and Ramdas Pophale) SiO2 
 PCOD9010941
Probable space group: P -1
;
_chemical_formula_sum "Si O2"
_cell_formula_units_Z 16
_cell_length_a 10.937280
_cell_length_b 10.171116
_cell_length_c 12.071661
_cell_angle_alpha 78.432296
_cell_angle_beta 59.887720
_cell_angle_gamma 39.954988
_cell_volume 703.875196
_symmetry_space_group_name_H-M "P -1"
_symmetry_group_IT_number 2
_symmetry_cell_setting 'triclinic'
loop_
_space_group_symop_operation_xyz
x,y,z
-x,-y,-z
loop_
_atom_site_type_symbol
_atom_site_label
_atom_site_fract_x
_atom_site_fract_y
_atom_site_fract_z
Si Si1 0.154452 0.183523 0.334492
Si Si2 0.336026 0.961126 0.500212
Si Si3 0.532725 0.507373 0.114395
Si Si4 0.838694 0.648295 0.356011
Si Si5 0.762707 0.125332 0.224537
Si Si6 0.584847 0.997000 0.076888
Si Si7 0.997808 0.313761 0.920012
Si Si8 0.819699 0.032695 0.840545
O O1 0.196770 0.047278 0.436645
O O2 0.385960 0.101902 0.233392
O O3 0.951152 0.439542 0.401493
O O4 0.116195 0.131752 0.246567
O O5 0.231986 0.176449 0.562263
O O6 0.602356 0.781787 0.384096
O O7 0.323359 0.861374 0.619622
O O8 0.585554 0.338552 0.193546
O O9 0.301387 0.757686 0.206602
O O10 0.500000 0.500000 0.000000
O O11 0.748581 0.446856 0.042030
O O12 0.008014 0.576064 0.196140
O O13 0.864960 0.918179 0.152351
O O14 0.971775 0.067940 0.166669
O O15 0.831726 0.762864 0.048394
O O16 0.636072 0.110768 0.998189
O O17 0.500000 0.000000 0.000000
#
# Coordination Sequence:
#
# PCOD9010941 Si02
#       8
#     2   2   2   2   2   2   2   2
#     4  11  23  43  66  91 135 170 209 268 330 384
#     4  10  23  43  64  95 126 166 226 268 310 390
#     4  12  23  40  68  97 129 173 213 264 328 379
#     4  10  22  41  67  96 121 169 218 269 322 376
#     4  11  24  41  65  95 131 169 218 273 317 381
#     4  10  21  40  64  96 134 166 207 267 325 389
#     4  11  20  42  69  94 132 164 218 274 323 381
#     4  11  24  42  61 100 133 169 217 263 326 397
#
# _framework density 22.731301999999999
#
# number of rings (size 3 to 8) (size 9 to 14) (size 15 to 20)
#    0.000    1.250    3.750    2.250    0.000    2.500 
#    0.000    3.750    0.000    0.000    0.000    0.000 
#    0.000    0.000    0.000    0.000    0.000    0.000 
#
# Total GULP energy -89417.731292 kJ/mol
# GULP energy per Si atom -5588.608206 kJ/mol
# Density = 2.267956 g / cm^3
# Si number density = 22.731302 Si / 1000 Ang^3
#
#
#
# Elastic Constant Matrix: (Units=GPa)
#
#
# Indices 1 2 3 4 5 6 
#
# 1 71.4100 16.0740 11.6687 -6.7126 0.5373 -13.7840
# 2 16.0740 120.8992 25.4772 -25.9351 2.4342 -8.4806
# 3 11.6687 25.4772 62.7209 -24.4440 1.2919 -0.5178
# 4 -6.7126 -25.9351 -24.4440 34.8545 -3.1538 1.5343
# 5 0.5373 2.4342 1.2919 -3.1538 11.9154 -10.4748
# 6 -13.7840 -8.4806 -0.5178 1.5343 -10.4748 31.7721
#
#
#
# Elastic Compliance Matrix: (Units=1/GPa)
#
#
# Indices 1 2 3 4 5 6 
#
# 1 0.016495 -0.000947 -0.002315 0.001191 0.008450 0.009594
# 2 -0.000947 0.010246 -0.001482 0.006483 0.002215 0.002717
# 3 -0.002315 -0.001482 0.022558 0.014374 0.000350 -0.001611
# 4 0.001191 0.006483 0.014374 0.044795 0.012954 0.004589
# 5 0.008450 0.002215 0.000350 0.012954 0.126278 0.045269
# 6 0.009594 0.002717 -0.001611 0.004589 0.045269 0.051038
#
#
# Mechanical properties :
#
#
# Convention : Reuss Voigt Hill
#
# Bulk Modulus (GPa) = 25.11866 40.16331 32.64099
# Shear Modulus (GPa) = 16.99702 29.16242 23.07972
#
# Velocity S-wave (km/s) = 2.73744 3.58567 3.18988
# Velocity P-wave (km/s) = 4.58974 5.90337 5.28751
#
# Compressibility (1/GPa) = 0.03981104
#
# Stress axis : x y z
#
# Youngs Moduli (GPa) = 60.62317 97.59538 44.33057
#
# Poissons Ratio (x) = 0.09242 0.10262
# Poissons Ratio (y) = 0.05741 0.06572
# Poissons Ratio (z) = 0.14033 0.14468
#
# Static dielectric constant tensor:
#      x y z
#    x 1.881190 0.020680 -0.015710 
#    y 0.020680 1.851430 -0.033030 
#    z -0.015710 -0.033030 1.879660 
# 
# From -- ./inp_files/76993.got.cif
#   From: 2010.05.17/outbox.cif.g08.bks.cpg/sg2_39_cif.got.tgz:76993.got - 2010.06.03 11:33:40.
