data_PCOD9010862
_publ_section_title
;
Structure prediction by ZEFSAII (Michael W. Deem and Ramdas Pophale) SiO2 
 PCOD9010862
Probable space group: P -1
;
_chemical_formula_sum "Si O2"
_cell_formula_units_Z 16
_cell_length_a 14.432929
_cell_length_b 14.255807
_cell_length_c 9.467712
_cell_angle_alpha 58.562087
_cell_angle_beta 91.794859
_cell_angle_gamma 140.724695
_cell_volume 762.019135
_symmetry_space_group_name_H-M "P -1"
_symmetry_group_IT_number 2
_symmetry_cell_setting 'triclinic'
loop_
_space_group_symop_operation_xyz
x,y,z
-x,-y,-z
loop_
_atom_site_type_symbol
_atom_site_label
_atom_site_fract_x
_atom_site_fract_y
_atom_site_fract_z
Si Si1 0.952738 0.928426 0.717730
Si Si2 0.799327 0.987946 0.817647
Si Si3 0.469119 0.596648 0.911311
Si Si4 0.096608 0.496272 0.082753
Si Si5 0.105289 0.906998 0.936652
Si Si6 0.319854 0.039265 0.592932
Si Si7 0.278523 0.657931 0.681396
Si Si8 0.956261 0.394668 0.433586
O O1 0.898759 0.988503 0.740229
O O2 0.096858 0.011068 0.763392
O O3 0.767902 0.647103 0.922587
O O4 0.000000 0.000000 0.500000
O O5 0.571242 0.753690 0.931286
O O6 0.891285 0.202821 0.616589
O O7 0.824113 0.995443 0.978698
O O8 0.578661 0.756398 0.652062
O O9 0.500000 0.500000 0.000000
O O10 0.135742 0.569338 0.188764
O O11 0.900700 0.210125 0.292722
O O12 0.000000 0.500000 0.000000
O O13 0.266485 0.641726 0.865111
O O14 0.264800 0.002654 0.780910
O O15 0.894979 0.613734 0.162177
O O16 0.493396 0.130064 0.518034
O O17 0.206242 0.698359 0.581753
O O18 0.000000 0.500000 0.500000
#
# Coordination Sequence:
#
# PCOD9010862 Si02
#       8
#     2   2   2   2   2   2   2   2
#     4  11  24  44  72  98 130 176 226 280 340 401
#     4  11  23  42  66  98 138 173 221 279 340 397
#     4  10  21  40  64  94 128 167 224 277 320 398
#     4   9  21  38  63  90 126 172 225 267 323 380
#     4  11  22  42  68 100 135 172 218 278 340 398
#     4  11  21  41  67  95 132 173 231 271 328 401
#     4  10  22  40  67  96 130 179 223 273 327 398
#     4  11  21  39  65  96 136 176 216 273 333 398
#
# _framework density 20.996846000000001
#
# number of rings (size 3 to 8) (size 9 to 14) (size 15 to 20)
#    0.000    1.500    3.750    1.875    1.750    2.000 
#    2.250    5.000    2.750    0.000    0.000    0.000 
#    0.000    0.000    0.000    0.000    0.000    0.000 
#
# Total GULP energy -89188.126564 kJ/mol
# GULP energy per Si atom -5574.257910 kJ/mol
# Density = 2.094906 g / cm^3
# Si number density = 20.996846 Si / 1000 Ang^3
#
#
#
# Elastic Constant Matrix: (Units=GPa)
#
#
# Indices 1 2 3 4 5 6 
#
# 1 111.6934 30.6340 42.3977 15.3742 1.6174 -2.8167
# 2 30.6340 118.9325 63.6694 42.8709 -15.4312 -20.6752
# 3 42.3977 63.6694 116.7903 27.1736 -3.0025 -7.5532
# 4 15.3742 42.8709 27.1736 45.8477 -6.0424 -0.1784
# 5 1.6174 -15.4312 -3.0025 -6.0424 47.4493 2.9641
# 6 -2.8167 -20.6752 -7.5532 -0.1784 2.9641 32.0807
#
#
#
# Elastic Compliance Matrix: (Units=1/GPa)
#
#
# Indices 1 2 3 4 5 6 
#
# 1 0.010531 -0.000810 -0.003188 -0.001009 -0.000936 -0.000267
# 2 -0.000810 0.018967 -0.006198 -0.013293 0.003467 0.010299
# 3 -0.003188 -0.006198 0.013270 -0.001156 -0.001149 -0.001050
# 4 -0.001009 -0.013293 -0.001156 0.035321 0.000685 -0.008795
# 5 -0.000936 0.003467 -0.001149 0.000685 0.022260 -0.000171
# 6 -0.000267 0.010299 -0.001050 -0.008795 -0.000171 0.037505
#
#
# Mechanical properties :
#
#
# Convention : Reuss Voigt Hill
#
# Bulk Modulus (GPa) = 44.69053 68.97981 56.83517
# Shear Modulus (GPa) = 30.17433 39.12323 34.64878
#
# Velocity S-wave (km/s) = 3.79501 4.32127 4.06666
# Velocity P-wave (km/s) = 6.36658 7.60405 7.01267
#
# Compressibility (1/GPa) = 0.02237611
#
# Stress axis : x y z
#
# Youngs Moduli (GPa) = 94.95709 52.72427 75.35830
#
# Poissons Ratio (x) = 0.04271 0.24024
# Poissons Ratio (y) = 0.07693 0.46704
# Poissons Ratio (z) = 0.30272 0.32676
#
# Static dielectric constant tensor:
#      x y z
#    x 1.819070 -0.012230 -0.031060 
#    y -0.012230 1.818420 -0.035860 
#    z -0.031060 -0.035860 1.773980 
# 
# From -- ./inp_files/312774.got.cif
#   From: 2010.05.17/outbox.cif.g08.bks.cpg/sg2_157_cif.got.tgz:312774.got - 2010.06.03 11:33:40.
