data_PCOD9010719
_publ_section_title
;
Structure prediction by ZEFSAII (Michael W. Deem and Ramdas Pophale) SiO2 
 PCOD9010719
Probable space group: P -1
;
_chemical_formula_sum "Si O2"
_cell_formula_units_Z 12
_cell_length_a 14.645677
_cell_length_b 12.047675
_cell_length_c 9.137376
_cell_angle_alpha 135.891764
_cell_angle_beta 125.094712
_cell_angle_gamma 30.839517
_cell_volume 571.338867
_symmetry_space_group_name_H-M "P -1"
_symmetry_group_IT_number 2
_symmetry_cell_setting 'triclinic'
loop_
_space_group_symop_operation_xyz
x,y,z
-x,-y,-z
loop_
_atom_site_type_symbol
_atom_site_label
_atom_site_fract_x
_atom_site_fract_y
_atom_site_fract_z
Si Si1 0.337554 0.390745 0.489601
Si Si2 0.380718 0.283380 0.109633
Si Si3 0.014294 0.234198 0.822740
Si Si4 0.316887 0.033539 0.116336
Si Si5 0.365549 0.782012 0.206713
Si Si6 0.035581 0.060042 0.364751
O O1 0.366021 0.405604 0.358354
O O2 0.314070 0.226455 0.320811
O O3 0.508963 0.249700 0.605101
O O4 0.152053 0.681366 0.639241
O O5 0.177812 0.464187 0.057067
O O6 0.500000 0.000000 0.000000
O O7 0.490087 0.231332 0.025806
O O8 0.056743 0.151146 0.613181
O O9 0.168926 0.151522 0.972539
O O10 0.983636 0.096779 0.740199
O O11 0.289587 0.970490 0.181162
O O12 0.203265 0.891855 0.254320
O O13 0.500000 0.500000 0.000000
#
# Coordination Sequence:
#
# PCOD9010719 Si02
#       6
#     2   2   2   2   2   2
#     4  10  23  41  61  88 119 157 199 242 294 348
#     4   9  20  38  63  90 118 151 193 244 292 348
#     4  10  21  40  64  90 117 154 200 243 292 348
#     4  11  23  38  63  92 120 154 194 245 298 350
#     4  12  25  40  60  86 122 161 197 242 295 352
#     4  10  23  41  62  87 120 158 198 243 291 351
#
# _framework density 21.003295999999999
#
# number of rings (size 3 to 8) (size 9 to 14) (size 15 to 20)
#    0.000    1.667    0.000    3.500    0.000   13.333 
#    0.000    6.667    0.000    0.000    0.000    0.000 
#    0.000    0.000    0.000    0.000    0.000    0.000 
#
# Total GULP energy -67095.842266 kJ/mol
# GULP energy per Si atom -5591.320189 kJ/mol
# Density = 2.095549 g / cm^3
# Si number density = 21.003296 Si / 1000 Ang^3
#
#
#
# Elastic Constant Matrix: (Units=GPa)
#
#
# Indices 1 2 3 4 5 6 
#
# 1 95.3431 13.9036 22.7360 17.1768 -21.9904 -11.7280
# 2 13.9036 65.6118 2.9721 19.5533 -14.3192 -12.7534
# 3 22.7360 2.9721 32.1281 9.9211 -2.8331 -13.1370
# 4 17.1768 19.5533 9.9211 36.4657 -4.6206 -4.1918
# 5 -21.9904 -14.3192 -2.8331 -4.6206 28.2497 9.6766
# 6 -11.7280 -12.7534 -13.1370 -4.1918 9.6766 34.7573
#
#
#
# Elastic Compliance Matrix: (Units=1/GPa)
#
#
# Indices 1 2 3 4 5 6 
#
# 1 0.015917 0.000352 -0.009906 -0.003740 0.011625 -0.001932
# 2 0.000352 0.021065 0.004342 -0.010993 0.007509 0.006073
# 3 -0.009906 0.004342 0.046954 -0.009509 -0.008228 0.017141
# 4 -0.003740 -0.010993 -0.009509 0.036961 -0.002071 -0.003855
# 5 0.011625 0.007509 -0.008228 -0.002071 0.050798 -0.010824
# 6 -0.001932 0.006073 0.017141 -0.003855 -0.010824 0.039375
#
#
# Mechanical properties :
#
#
# Convention : Reuss Voigt Hill
#
# Bulk Modulus (GPa) = 13.60334 30.25628 21.92981
# Shear Modulus (GPa) = 20.32546 30.12598 25.22572
#
# Velocity S-wave (km/s) = 3.11421 3.79138 3.46936
# Velocity P-wave (km/s) = 4.40702 5.79680 5.14902
#
# Compressibility (1/GPa) = 0.07351136
#
# Stress axis : x y z
#
# Youngs Moduli (GPa) = 62.82647 47.47198 21.29756
#
# Poissons Ratio (x) = -0.01671 0.21098
# Poissons Ratio (y) = -0.02212 -0.09248
# Poissons Ratio (z) = 0.62238 -0.20613
#
# Static dielectric constant tensor:
#      x y z
#    x 1.774300 0.024300 -0.013630 
#    y 0.024300 1.776980 0.030470 
#    z -0.013630 0.030470 1.781050 
# 
# From -- ./inp_files/36869.got.cif
#   From: 2010.05.17/outbox.cif.g08.bks.cpg/sg2_19_cif.got.tgz:36869.got - 2010.06.03 11:33:40.
