data_PCOD9010414
_publ_section_title
;
Structure prediction by ZEFSAII (Michael W. Deem and Ramdas Pophale) SiO2 
 PCOD9010414
Probable space group: P -1
;
_chemical_formula_sum "Si O2"
_cell_formula_units_Z 16
_cell_length_a 17.181190
_cell_length_b 11.864189
_cell_length_c 9.774094
_cell_angle_alpha 68.209757
_cell_angle_beta 96.064432
_cell_angle_gamma 36.900856
_cell_volume 768.645536
_symmetry_space_group_name_H-M "P -1"
_symmetry_group_IT_number 2
_symmetry_cell_setting 'triclinic'
loop_
_space_group_symop_operation_xyz
x,y,z
-x,-y,-z
loop_
_atom_site_type_symbol
_atom_site_label
_atom_site_fract_x
_atom_site_fract_y
_atom_site_fract_z
Si Si1 0.462003 0.752074 0.205791
Si Si2 0.270752 0.431313 0.218049
Si Si3 0.045752 0.931160 0.760475
Si Si4 0.129530 0.065718 0.021100
Si Si5 0.793669 0.152995 0.395558
Si Si6 0.131097 0.169872 0.275016
Si Si7 0.685882 0.429042 0.648744
Si Si8 0.712477 0.813135 0.851618
O O1 0.260307 0.984872 0.020270
O O2 0.616566 0.488918 0.246668
O O3 0.539702 0.586597 0.439004
O O4 0.427635 0.936839 0.171512
O O5 0.384057 0.357223 0.375524
O O6 0.353407 0.208506 0.240800
O O7 0.181124 0.655970 0.996921
O O8 0.092089 0.627180 0.179629
O O9 0.144075 0.907620 0.719664
O O10 0.960984 0.967413 0.606925
O O11 0.867254 0.214885 0.692011
O O12 0.234463 0.790531 0.143196
O O13 0.142374 0.072981 0.183287
O O14 0.771656 0.045083 0.490100
O O15 0.219532 0.173702 0.243920
O O16 0.908508 0.502156 0.103941
#
# Coordination Sequence:
#
# PCOD9010414 Si02
#       8
#     2   2   2   2   2   2   2   2
#     4  10  19  29  49  80 100 120 160 216 247 274
#     4  10  18  33  49  72 103 134 160 192 246 304
#     4   9  17  30  49  72  98 128 168 197 240 295
#     4   9  15  28  48  74  93 117 165 209 244 264
#     4  10  17  29  51  74  99 124 165 207 243 281
#     4   9  15  29  48  72 100 125 160 207 242 286
#     4  10  18  29  51  73  99 127 164 206 242 283
#     4   9  18  28  46  74 104 126 158 197 250 290
#
# _framework density 20.815835
#
# number of rings (size 3 to 8) (size 9 to 14) (size 15 to 20)
#    0.000    2.500    5.000    2.625    1.750    0.500 
#    0.000    0.625    0.000    3.750    0.000    0.000 
#    0.000    0.000    0.000    0.000    0.000    0.000 
#
# Total GULP energy -89077.389491 kJ/mol
# GULP energy per Si atom -5567.336843 kJ/mol
# Density = 2.076846 g / cm^3
# Si number density = 20.815835 Si / 1000 Ang^3
#
#
#
# Elastic Constant Matrix: (Units=GPa)
#
#
# Indices 1 2 3 4 5 6 
#
# 1 55.0159 23.6910 3.6548 5.1529 -7.1781 14.0353
# 2 23.6910 57.5112 18.0533 -17.8202 -12.8195 18.5973
# 3 3.6548 18.0533 30.7943 -15.2938 -5.6242 -0.8770
# 4 5.1529 -17.8202 -15.2938 27.2042 7.0778 -5.2091
# 5 -7.1781 -12.8195 -5.6242 7.0778 23.1505 -2.6222
# 6 14.0353 18.5973 -0.8770 -5.2091 -2.6222 30.5603
#
#
#
# Elastic Compliance Matrix: (Units=1/GPa)
#
#
# Indices 1 2 3 4 5 6 
#
# 1 0.028477 -0.011977 -0.005131 -0.019322 0.005870 -0.008727
# 2 -0.011977 0.036972 -0.011694 0.015221 0.007670 -0.014082
# 3 -0.005131 -0.011694 0.053331 0.026638 -0.001508 0.015415
# 4 -0.019322 0.015221 0.026638 0.070505 -0.011353 0.011420
# 5 0.005870 0.007670 -0.001508 -0.011353 0.051813 -0.004896
# 6 -0.008727 -0.014082 0.015415 0.011420 -0.004896 0.047268
#
#
# Mechanical properties :
#
#
# Convention : Reuss Voigt Hill
#
# Bulk Modulus (GPa) = 16.34629 26.01330 21.17979
# Shear Modulus (GPa) = 13.64766 22.71116 18.17941
#
# Velocity S-wave (km/s) = 2.56332 3.30669 2.95845
# Velocity P-wave (km/s) = 4.07807 5.20605 4.67620
#
# Compressibility (1/GPa) = 0.06117596
#
# Stress axis : x y z
#
# Youngs Moduli (GPa) = 35.11622 27.04749 18.75069
#
# Poissons Ratio (x) = 0.32393 0.09621
# Poissons Ratio (y) = 0.42057 0.21928
# Poissons Ratio (z) = 0.18019 0.31630
#
# Static dielectric constant tensor:
#      x y z
#    x 1.833140 0.002500 0.012580 
#    y 0.002500 1.776990 -0.028990 
#    z 0.012580 -0.028990 1.813590 
# 
# From -- ./inp_files/463720.got.cif
#   From: 2010.05.17/outbox.cif.g08.bks.cpg/sg2_232_cif.got.tgz:463720.got - 2010.06.03 11:33:40.
