data_PCOD9010295
_publ_section_title
;
Structure prediction by ZEFSAII (Michael W. Deem and Ramdas Pophale) SiO2 
 PCOD9010295
Probable space group: P -1
;
_chemical_formula_sum "Si O2"
_cell_formula_units_Z 14
_cell_length_a 14.836454
_cell_length_b 18.074085
_cell_length_c 8.178519
_cell_angle_alpha 132.951070
_cell_angle_beta 56.295184
_cell_angle_gamma 158.147893
_cell_volume 572.795875
_symmetry_space_group_name_H-M "P -1"
_symmetry_group_IT_number 2
_symmetry_cell_setting 'triclinic'
loop_
_space_group_symop_operation_xyz
x,y,z
-x,-y,-z
loop_
_atom_site_type_symbol
_atom_site_label
_atom_site_fract_x
_atom_site_fract_y
_atom_site_fract_z
Si Si1 0.200509 0.855846 0.215328
Si Si2 0.431963 0.245540 0.426787
Si Si3 0.263059 0.296273 0.808836
Si Si4 0.940828 0.693975 0.801902
Si Si5 0.950366 0.513699 0.739918
Si Si6 0.418349 0.076651 0.682617
Si Si7 0.628704 0.449037 0.179633
O O1 0.911038 0.644688 0.226474
O O2 0.331975 0.047692 0.251420
O O3 0.346753 0.988995 0.438341
O O4 0.175056 0.723983 0.957839
O O5 0.234702 0.155253 0.578370
O O6 0.698736 0.479156 0.605402
O O7 0.490430 0.331613 0.315681
O O8 0.339207 0.420715 0.755573
O O9 0.500000 0.500000 0.000000
O O10 0.057191 0.190977 0.952545
O O11 0.900369 0.584410 0.827564
O O12 0.187595 0.863205 0.714491
O O13 0.696655 0.263175 0.708581
O O14 0.000000 0.500000 0.500000
O O15 0.466771 0.236451 0.908816
#
# Coordination Sequence:
#
# PCOD9010295 Si02
#       7
#     2   2   2   2   2   2   2
#     4  11  22  43  68  94 127 171 213 264 327 379
#     4  11  22  40  66  94 134 175 216 261 316 378
#     4  10  21  40  62  96 134 173 219 261 310 376
#     4  11  21  43  65  95 133 173 212 269 316 378
#     4  11  25  46  70  95 126 166 215 270 329 388
#     4  11  22  42  68  93 133 167 212 268 322 381
#     4  11  22  40  63  96 130 177 218 257 317 379
#
# _framework density 24.441514999999999
#
# number of rings (size 3 to 8) (size 9 to 14) (size 15 to 20)
#    0.000    1.143    5.714    2.143    0.000    1.714 
#    2.571    2.857    0.000    0.000    0.000    0.000 
#    0.000    0.000    0.000    0.000    0.000    0.000 
#
# Total GULP energy -78251.635983 kJ/mol
# GULP energy per Si atom -5589.402570 kJ/mol
# Density = 2.438589 g / cm^3
# Si number density = 24.441515 Si / 1000 Ang^3
#
#
#
# Elastic Constant Matrix: (Units=GPa)
#
#
# Indices 1 2 3 4 5 6 
#
# 1 34.7534 11.0753 13.2323 7.9233 6.9590 -6.2647
# 2 11.0753 141.7514 36.8241 -4.3939 -2.2352 -0.2581
# 3 13.2323 36.8241 161.4334 -1.8609 10.9890 7.1239
# 4 7.9233 -4.3939 -1.8609 39.2184 6.5113 2.0864
# 5 6.9590 -2.2352 10.9890 6.5113 37.5873 -10.6830
# 6 -6.2647 -0.2581 7.1239 2.0864 -10.6830 25.3516
#
#
#
# Elastic Compliance Matrix: (Units=1/GPa)
#
#
# Indices 1 2 3 4 5 6 
#
# 1 0.034185 -0.002225 -0.002653 -0.007457 -0.001833 0.009012
# 2 -0.002225 0.007717 -0.001678 0.000989 0.001326 0.000477
# 3 -0.002653 -0.001678 0.007208 0.001432 -0.003140 -0.004139
# 4 -0.007457 0.000989 0.001432 0.028546 -0.005938 -0.007087
# 5 -0.001833 0.001326 -0.003140 -0.005938 0.033212 0.014927
# 6 0.009012 0.000477 -0.004139 -0.007087 0.014927 0.049714
#
#
# Mechanical properties :
#
#
# Convention : Reuss Voigt Hill
#
# Bulk Modulus (GPa) = 27.78037 51.13352 39.45695
# Shear Modulus (GPa) = 26.92609 38.88522 32.90566
#
# Velocity S-wave (km/s) = 3.32272 3.99300 3.67318
# Velocity P-wave (km/s) = 5.10993 6.49807 5.84535
#
# Compressibility (1/GPa) = 0.03599664
#
# Stress axis : x y z
#
# Youngs Moduli (GPa) = 29.25255 129.58833 138.74202
#
# Poissons Ratio (x) = 0.28837 0.36813
# Poissons Ratio (y) = 0.06510 0.23278
# Poissons Ratio (z) = 0.07762 0.21742
#
# Static dielectric constant tensor:
#      x y z
#    x 1.926270 0.047400 -0.004560 
#    y 0.047400 1.940740 0.015060 
#    z -0.004560 0.015060 2.058790 
# 
# From -- ./inp_files/313502.got.cif
#   From: 2010.05.17/outbox.cif.g08.bks.cpg/sg2_157_cif.got.tgz:313502.got - 2010.06.03 11:33:40.
