data_PCOD9010097
_publ_section_title
;
Structure prediction by ZEFSAII (Michael W. Deem and Ramdas Pophale) SiO2 
 PCOD9010097
Probable space group: P -1
;
_chemical_formula_sum "Si O2"
_cell_formula_units_Z 16
_cell_length_a 10.993702
_cell_length_b 11.745270
_cell_length_c 13.399766
_cell_angle_alpha 125.365431
_cell_angle_beta 80.056060
_cell_angle_gamma 141.796718
_cell_volume 723.290831
_symmetry_space_group_name_H-M "P -1"
_symmetry_group_IT_number 2
_symmetry_cell_setting 'triclinic'
loop_
_space_group_symop_operation_xyz
x,y,z
-x,-y,-z
loop_
_atom_site_type_symbol
_atom_site_label
_atom_site_fract_x
_atom_site_fract_y
_atom_site_fract_z
Si Si1 0.143282 0.340506 0.097750
Si Si2 0.132824 0.566612 0.371418
Si Si3 0.703527 0.510723 0.573301
Si Si4 0.769400 0.089956 0.583729
Si Si5 0.682857 0.719907 0.839379
Si Si6 0.726226 0.547489 0.361409
Si Si7 0.208713 0.652069 0.117666
Si Si8 0.599609 0.116871 0.155989
O O1 0.308107 0.365976 0.106394
O O2 0.166468 0.452526 0.052936
O O3 0.219526 0.528556 0.264894
O O4 0.870847 0.025441 0.984431
O O5 0.869341 0.338439 0.252608
O O6 0.157225 0.504411 0.440140
O O7 0.261366 0.840349 0.476127
O O8 0.789489 0.717695 0.738884
O O9 0.726928 0.594003 0.500539
O O10 0.439894 0.210557 0.497084
O O11 0.791869 0.234430 0.736178
O O12 0.010567 0.235540 0.605382
O O13 0.428306 0.516167 0.728713
O O14 0.582062 0.264237 0.249578
O O15 0.447130 0.889933 0.142763
O O16 0.000000 0.500000 0.000000
O O17 0.500000 0.000000 0.000000
#
# Coordination Sequence:
#
# PCOD9010097 Si02
#       8
#     2   2   2   2   2   2   2   2
#     4   9  20  38  65  88 121 162 202 254 306 358
#     4   9  20  38  61  92 123 156 196 258 317 358
#     4  11  22  40  61  88 124 166 204 249 304 367
#     4  10  22  38  60  94 120 158 202 254 309 367
#     4  10  21  40  62  85 123 171 207 245 300 361
#     4  11  22  39  62  89 124 162 205 249 302 367
#     4  11  20  37  64  97 122 150 203 259 313 359
#     4  11  21  37  65  95 123 154 197 259 316 364
#
# _framework density 22.121116000000001
#
# number of rings (size 3 to 8) (size 9 to 14) (size 15 to 20)
#    0.000    1.750    1.250    4.500    0.000    2.500 
#    6.750    0.000    5.500    5.250    0.000    0.000 
#    0.000    0.000    0.000    0.000    0.000    0.000 
#
# Total GULP energy -89202.469477 kJ/mol
# GULP energy per Si atom -5575.154342 kJ/mol
# Density = 2.207077 g / cm^3
# Si number density = 22.121116 Si / 1000 Ang^3
#
#
#
# Elastic Constant Matrix: (Units=GPa)
#
#
# Indices 1 2 3 4 5 6 
#
# 1 111.5909 41.6171 20.5284 9.3383 36.0531 -15.7444
# 2 41.6171 105.6551 22.7498 14.6173 15.5747 -7.5803
# 3 20.5284 22.7498 69.2168 4.1142 7.9119 -2.9399
# 4 9.3383 14.6173 4.1142 27.3574 -2.0633 1.8616
# 5 36.0531 15.5747 7.9119 -2.0633 45.0515 0.2990
# 6 -15.7444 -7.5803 -2.9399 1.8616 0.2990 22.2708
#
#
#
# Elastic Compliance Matrix: (Units=1/GPa)
#
#
# Indices 1 2 3 4 5 6 
#
# 1 0.016163 -0.002678 -0.001751 -0.005472 -0.012025 0.010903
# 2 -0.002678 0.012311 -0.002596 -0.005586 -0.001929 0.002447
# 3 -0.001751 -0.002596 0.015906 -0.000448 -0.000516 0.000023
# 4 -0.005472 -0.005586 -0.000448 0.042755 0.008410 -0.009515
# 5 -0.012025 -0.001929 -0.000516 0.008410 0.033031 -0.010372
# 6 0.010903 0.002447 0.000023 -0.009515 -0.010372 0.054380
#
#
# Mechanical properties :
#
#
# Convention : Reuss Voigt Hill
#
# Bulk Modulus (GPa) = 32.96826 50.69481 41.83153
# Shear Modulus (GPa) = 25.16280 32.37377 28.76829
#
# Velocity S-wave (km/s) = 3.37635 3.82969 3.61014
# Velocity P-wave (km/s) = 5.48958 6.52090 6.02734
#
# Compressibility (1/GPa) = 0.03033220
#
# Stress axis : x y z
#
# Youngs Moduli (GPa) = 61.86908 81.22672 62.86821
#
# Poissons Ratio (x) = 0.21751 0.11007
# Poissons Ratio (y) = 0.16567 0.16319
# Poissons Ratio (z) = 0.10832 0.21084
#
# Static dielectric constant tensor:
#      x y z
#    x 1.885610 -0.069660 0.055220 
#    y -0.069660 1.898260 -0.084880 
#    z 0.055220 -0.084880 1.894210 
# 
# From -- ./inp_files/519839.got.cif
#   From: 2010.05.17/outbox.cif.g08.bks.cpg/sg2_260_cif.got.tgz:519839.got - 2010.06.03 11:33:40.
