data_PCOD9010059
_publ_section_title
;
Structure prediction by ZEFSAII (Michael W. Deem and Ramdas Pophale) SiO2 
 PCOD9010059
Probable space group: P -1
;
_chemical_formula_sum "Si O2"
_cell_formula_units_Z 12
_cell_length_a 12.081499
_cell_length_b 19.015290
_cell_length_c 6.836770
_cell_angle_alpha 38.760029
_cell_angle_beta 121.788524
_cell_angle_gamma 143.886802
_cell_volume 556.436462
_symmetry_space_group_name_H-M "P -1"
_symmetry_group_IT_number 2
_symmetry_cell_setting 'triclinic'
loop_
_space_group_symop_operation_xyz
x,y,z
-x,-y,-z
loop_
_atom_site_type_symbol
_atom_site_label
_atom_site_fract_x
_atom_site_fract_y
_atom_site_fract_z
Si Si1 0.378913 0.466429 0.774846
Si Si2 0.879966 0.486815 0.586196
Si Si3 0.234878 0.830524 0.304688
Si Si4 0.667902 0.130264 0.147661
Si Si5 0.100173 0.896982 0.332035
Si Si6 0.714371 0.746296 0.190514
O O1 0.218255 0.458555 0.688925
O O2 0.517265 0.612171 0.421967
O O3 0.300303 0.308534 0.924305
O O4 0.500000 0.500000 0.000000
O O5 0.000000 0.500000 0.500000
O O6 0.046882 0.627952 0.593971
O O7 0.710150 0.286832 0.906882
O O8 0.180273 0.847313 0.641958
O O9 0.165204 0.906797 0.151227
O O10 0.283107 0.855432 0.066926
O O11 0.442513 0.945204 0.356768
O O12 0.869413 0.765305 0.402725
O O13 0.199600 0.074485 0.110327
#
# Coordination Sequence:
#
# PCOD9010059 Si02
#       6
#     2   2   2   2   2   2
#     4  11  24  45  68  94 134 174 215 275 331 384
#     4  10  22  41  66  98 128 167 226 270 316 400
#     4  10  21  40  61  94 134 163 222 269 319 396
#     4  10  23  39  65  95 131 174 217 268 336 381
#     4  11  22  42  64  93 132 172 214 274 326 389
#     4  10  25  41  64  98 130 169 228 262 324 408
#
# _framework density 21.565805999999998
#
# number of rings (size 3 to 8) (size 9 to 14) (size 15 to 20)
#    0.000    1.667    1.667    1.500    4.667    6.000 
#    3.000    3.333    0.000    0.000    0.000    0.000 
#    0.000    0.000    0.000    0.000    0.000    0.000 
#
# Total GULP energy -66940.416820 kJ/mol
# GULP energy per Si atom -5578.368068 kJ/mol
# Density = 2.151672 g / cm^3
# Si number density = 21.565806 Si / 1000 Ang^3
#
#
#
# Elastic Constant Matrix: (Units=GPa)
#
#
# Indices 1 2 3 4 5 6 
#
# 1 122.2996 50.4299 17.9204 -0.7282 15.4680 -13.8784
# 2 50.4299 167.3207 35.1088 2.0219 15.5394 -24.9839
# 3 17.9204 35.1088 46.1009 9.4544 11.9008 -11.0932
# 4 -0.7282 2.0219 9.4544 20.1025 3.5791 -0.1027
# 5 15.4680 15.5394 11.9008 3.5791 22.6401 -3.3404
# 6 -13.8784 -24.9839 -11.0932 -0.1027 -3.3404 36.9285
#
#
#
# Elastic Compliance Matrix: (Units=1/GPa)
#
#
# Indices 1 2 3 4 5 6 
#
# 1 0.010019 -0.002138 -0.001016 0.001939 -0.004918 0.001574
# 2 -0.002138 0.008180 -0.004537 0.001523 -0.001532 0.003233
# 3 -0.001016 -0.004537 0.032072 -0.012812 -0.010255 0.005220
# 4 0.001939 0.001523 -0.012812 0.056553 -0.004927 -0.002378
# 5 -0.004918 -0.001532 -0.010255 -0.004927 0.054597 -0.001041
# 6 0.001574 0.003233 0.005220 -0.002378 -0.001041 0.031326
#
#
# Mechanical properties :
#
#
# Convention : Reuss Voigt Hill
#
# Bulk Modulus (GPa) = 28.66166 60.29327 44.47747
# Shear Modulus (GPa) = 22.75223 31.41837 27.08530
#
# Velocity S-wave (km/s) = 3.25162 3.82103 3.54777
# Velocity P-wave (km/s) = 5.23608 6.89097 6.11972
#
# Compressibility (1/GPa) = 0.03488981
#
# Stress axis : x y z
#
# Youngs Moduli (GPa) = 99.80635 122.25441 31.17938
#
# Poissons Ratio (x) = 0.26142 0.03167
# Poissons Ratio (y) = 0.21342 0.14146
# Poissons Ratio (z) = 0.10136 0.55466
#
# Static dielectric constant tensor:
#      x y z
#    x 1.823010 0.027500 -0.061000 
#    y 0.027500 1.835990 -0.028950 
#    z -0.061000 -0.028950 1.776110 
# 
# From -- ./inp_files/78901.got.cif
#   From: 2010.05.17/outbox.cif.g08.bks.cpg/sg2_40_cif.got.tgz:78901.got - 2010.06.03 11:33:40.
