data_PCOD9010041
_publ_section_title
;
Structure prediction by ZEFSAII (Michael W. Deem and Ramdas Pophale) SiO2 
 PCOD9010041
Probable space group: P -1
;
_chemical_formula_sum "Si O2"
_cell_formula_units_Z 16
_cell_length_a 13.633233
_cell_length_b 12.861048
_cell_length_c 9.351708
_cell_angle_alpha 83.675482
_cell_angle_beta 140.372982
_cell_angle_gamma 125.480180
_cell_volume 648.133947
_symmetry_space_group_name_H-M "P -1"
_symmetry_group_IT_number 2
_symmetry_cell_setting 'triclinic'
loop_
_space_group_symop_operation_xyz
x,y,z
-x,-y,-z
loop_
_atom_site_type_symbol
_atom_site_label
_atom_site_fract_x
_atom_site_fract_y
_atom_site_fract_z
Si Si1 0.698984 0.162450 0.354363
Si Si2 0.348678 0.991372 0.225410
Si Si3 0.191606 0.130745 0.068552
Si Si4 0.735227 0.347704 0.145924
Si Si5 0.207708 0.331015 0.244855
Si Si6 0.922098 0.522276 0.047301
Si Si7 0.115479 0.221735 0.713788
Si Si8 0.412960 0.381483 0.767688
O O1 0.446573 0.008765 0.178414
O O2 0.630921 0.192415 0.133063
O O3 0.859534 0.313394 0.631821
O O4 0.892107 0.175896 0.522427
O O5 0.375511 0.131221 0.259125
O O6 0.500000 0.000000 0.500000
O O7 0.070530 0.822559 0.984957
O O8 0.265020 0.283355 0.186388
O O9 0.096193 0.107222 0.805310
O O10 0.000000 0.000000 0.000000
O O11 0.000000 0.500000 0.500000
O O12 0.776753 0.371310 0.019074
O O13 0.564719 0.357537 0.978978
O O14 0.349477 0.362312 0.535034
O O15 0.224056 0.456370 0.182625
O O16 0.000000 0.500000 0.000000
O O17 0.387570 0.419491 0.013008
O O18 0.152969 0.235984 0.583462
#
# Coordination Sequence:
#
# PCOD9010041 Si02
#       8
#     2   2   2   2   2   2   2   2
#     4  11  21  43  67  93 133 175 228 263 325 410
#     4  11  22  43  69  97 130 180 224 271 330 396
#     4  10  21  42  69  92 130 178 223 272 325 396
#     4  10  21  40  61  93 128 173 213 260 330 397
#     4  11  24  44  65 102 133 171 230 278 326 386
#     4  11  23  38  65  99 137 167 212 282 332 386
#     4  11  22  42  66  97 127 186 215 266 344 396
#     4  11  24  40  68  96 138 169 221 278 330 398
#
# _framework density 24.686256
#
# number of rings (size 3 to 8) (size 9 to 14) (size 15 to 20)
#    0.000    1.250    5.000    1.500    1.750    5.000 
#    0.000    6.250    0.000    0.000    0.000    0.000 
#    0.000    0.000    0.000    0.000    0.000    0.000 
#
# Total GULP energy -89360.192686 kJ/mol
# GULP energy per Si atom -5585.012043 kJ/mol
# Density = 2.463007 g / cm^3
# Si number density = 24.686256 Si / 1000 Ang^3
#
#
#
# Elastic Constant Matrix: (Units=GPa)
#
#
# Indices 1 2 3 4 5 6 
#
# 1 188.4189 78.3568 52.6188 -23.7312 21.8439 33.8621
# 2 78.3568 120.7124 54.1123 -47.1432 12.0302 36.1677
# 3 52.6188 54.1123 95.7064 -25.7552 25.4603 5.0202
# 4 -23.7312 -47.1432 -25.7552 58.0508 7.7853 2.8732
# 5 21.8439 12.0302 25.4603 7.7853 42.7599 -2.7106
# 6 33.8621 36.1677 5.0202 2.8732 -2.7106 51.7017
#
#
#
# Elastic Compliance Matrix: (Units=1/GPa)
#
#
# Indices 1 2 3 4 5 6 
#
# 1 0.007947 -0.003013 -0.001694 0.000538 -0.002497 -0.003093
# 2 -0.003013 0.025949 -0.004852 0.019548 -0.007521 -0.017189
# 3 -0.001694 -0.004852 0.017489 0.004204 -0.008815 0.002110
# 4 0.000538 0.019548 0.004204 0.038241 -0.016344 -0.017417
# 5 -0.002497 -0.007521 -0.008815 -0.016344 0.035670 0.010531
# 6 -0.003093 -0.017189 0.002110 -0.017417 0.010531 0.034707
#
#
# Mechanical properties :
#
#
# Convention : Reuss Voigt Hill
#
# Bulk Modulus (GPa) = 30.99224 86.11262 58.55243
# Shear Modulus (GPa) = 26.33301 45.15247 35.74274
#
# Velocity S-wave (km/s) = 3.26959 4.28138 3.80923
# Velocity P-wave (km/s) = 5.18028 7.70707 6.56636
#
# Compressibility (1/GPa) = 0.03226614
#
# Stress axis : x y z
#
# Youngs Moduli (GPa) = 125.83936 38.53705 57.17925
#
# Poissons Ratio (x) = 0.11612 0.09686
# Poissons Ratio (y) = 0.37918 0.27743
# Poissons Ratio (z) = 0.21318 0.18698
#
# Static dielectric constant tensor:
#      x y z
#    x 1.987230 -0.036630 -0.053020 
#    y -0.036630 2.108970 0.087890 
#    z -0.053020 0.087890 1.957690 
# 
# From -- ./inp_files/270274.got.cif
#   From: 2010.05.17/outbox.cif.g08.bks.cpg/sg2_136_cif.got.tgz:270274.got - 2010.06.03 11:33:40.
