data_PCOD9010271
_publ_section_title
;
Structure prediction by ZEFSAII (Michael W. Deem and Ramdas Pophale) SiO2 
 PCOD9010271
Probable space group: P -1
;
_chemical_formula_sum "Si O2"
_cell_formula_units_Z 14
_cell_length_a 10.681279
_cell_length_b 12.657589
_cell_length_c 9.217118
_cell_angle_alpha 49.762664
_cell_angle_beta 115.005567
_cell_angle_gamma 137.538323
_cell_volume 638.691447
_symmetry_space_group_name_H-M "P -1"
_symmetry_group_IT_number 2
_symmetry_cell_setting 'triclinic'
loop_
_space_group_symop_operation_xyz
x,y,z
-x,-y,-z
loop_
_atom_site_type_symbol
_atom_site_label
_atom_site_fract_x
_atom_site_fract_y
_atom_site_fract_z
Si Si1 0.282961 0.893945 0.963764
Si Si2 0.200388 0.102961 0.933735
Si Si3 0.550375 0.851021 0.753455
Si Si4 0.257679 0.730097 0.524796
Si Si5 0.194332 0.270530 0.500493
Si Si6 0.764730 0.952179 0.473246
Si Si7 0.161470 0.535819 0.354984
O O1 0.208116 0.963199 0.973707
O O2 0.259163 0.942818 0.749676
O O3 0.500000 0.000000 0.000000
O O4 0.170673 0.680203 0.135988
O O5 0.232339 0.239631 0.707241
O O6 0.364723 0.197908 0.047404
O O7 0.000000 0.000000 0.000000
O O8 0.335411 0.714602 0.724795
O O9 0.640480 0.883810 0.612873
O O10 0.623184 0.053627 0.647998
O O11 0.262472 0.636718 0.468013
O O12 0.048342 0.636471 0.541613
O O13 0.285735 0.226498 0.471385
O O14 0.238867 0.461855 0.363287
O O15 0.976374 0.102529 0.502315
#
# Coordination Sequence:
#
# PCOD9010271 Si02
#       7
#     2   2   2   2   2   2   2
#     4  11  25  41  67  97 131 173 219 270 331 392
#     4  11  21  40  68  96 125 182 217 259 325 402
#     4  11  20  41  68  95 128 172 223 261 322 395
#     4  10  22  35  67 100 127 162 217 281 318 367
#     4  10  22  39  63  93 129 172 216 258 328 386
#     4  10  21  40  62  95 129 173 213 260 326 394
#     4  11  21  43  66  97 132 166 219 272 324 385
#
# _framework density 21.919819
#
# number of rings (size 3 to 8) (size 9 to 14) (size 15 to 20)
#    0.000    1.429    4.286    0.857    4.000    0.571 
#    0.000    7.143    0.000    0.000    0.000    0.000 
#    0.000    0.000    0.000    0.000    0.000    0.000 
#
# Total GULP energy -78223.096545 kJ/mol
# GULP energy per Si atom -5587.364039 kJ/mol
# Density = 2.186993 g / cm^3
# Si number density = 21.919819 Si / 1000 Ang^3
#
#
#
# Elastic Constant Matrix: (Units=GPa)
#
#
# Indices 1 2 3 4 5 6 
#
# 1 84.5427 31.5960 23.8664 1.2400 6.8974 -21.8788
# 2 31.5960 82.1165 33.9967 20.4615 7.5191 -11.2228
# 3 23.8664 33.9967 104.6985 30.1658 21.4661 -14.0412
# 4 1.2400 20.4615 30.1658 45.2099 1.4966 15.9867
# 5 6.8974 7.5191 21.4661 1.4966 29.7794 7.6887
# 6 -21.8788 -11.2228 -14.0412 15.9867 7.6887 38.3014
#
#
#
# Elastic Compliance Matrix: (Units=1/GPa)
#
#
# Indices 1 2 3 4 5 6 
#
# 1 0.016474 -0.003833 0.001490 -0.003626 -0.006762 0.011704
# 2 -0.003833 0.018165 0.001146 -0.012180 -0.006478 0.009937
# 3 0.001490 0.001146 0.024030 -0.024642 -0.023154 0.024930
# 4 -0.003626 -0.012180 -0.024642 0.059262 0.030453 -0.045523
# 5 -0.006762 -0.006478 -0.023154 0.030453 0.062123 -0.039431
# 6 0.011704 0.009937 0.024930 -0.045523 -0.039431 0.071761
#
#
# Mechanical properties :
#
#
# Convention : Reuss Voigt Hill
#
# Bulk Modulus (GPa) = 17.77035 50.03065 33.90050
# Shear Modulus (GPa) = 18.31715 34.78471 26.55093
#
# Velocity S-wave (km/s) = 2.89389 3.98792 3.48411
# Velocity P-wave (km/s) = 4.39212 6.63917 5.62891
#
# Compressibility (1/GPa) = 0.05627350
#
# Stress axis : x y z
#
# Youngs Moduli (GPa) = 60.70120 55.05220 41.61451
#
# Poissons Ratio (x) = 0.21104 -0.06201
# Poissons Ratio (y) = 0.23269 -0.04767
# Poissons Ratio (z) = -0.09046 -0.06306
#
# Static dielectric constant tensor:
#      x y z
#    x 1.878170 0.016630 0.048950 
#    y 0.016630 1.824840 0.027630 
#    z 0.048950 0.027630 1.797540 
# 
# From -- ./inp_files/158489.got.cif
#   From: 2010.05.17/outbox.cif.g08.bks.cpg/sg2_80_cif.got.tgz:158489.got - 2010.06.03 11:33:40.
