data_PCOD9010065
_publ_section_title
;
Structure prediction by ZEFSAII (Michael W. Deem and Ramdas Pophale) SiO2 
 PCOD9010065
Probable space group: P -1
;
_chemical_formula_sum "Si O2"
_cell_formula_units_Z 16
_cell_length_a 14.081395
_cell_length_b 7.570584
_cell_length_c 17.636872
_cell_angle_alpha 72.892896
_cell_angle_beta 156.825090
_cell_angle_gamma 100.464161
_cell_volume 687.191324
_symmetry_space_group_name_H-M "P -1"
_symmetry_group_IT_number 2
_symmetry_cell_setting 'triclinic'
loop_
_space_group_symop_operation_xyz
x,y,z
-x,-y,-z
loop_
_atom_site_type_symbol
_atom_site_label
_atom_site_fract_x
_atom_site_fract_y
_atom_site_fract_z
Si Si1 0.215265 0.683003 0.344571
Si Si2 0.201493 0.995569 0.541109
Si Si3 0.084129 0.558589 0.412455
Si Si4 0.202684 0.447899 0.222116
Si Si5 0.233093 0.729460 0.727803
Si Si6 0.921053 0.903007 0.734716
Si Si7 0.491577 0.266149 0.806705
Si Si8 0.348310 0.213181 0.872932
O O1 0.072033 0.572725 0.311467
O O2 0.164895 0.625629 0.229891
O O3 0.509621 0.604195 0.585041
O O4 0.135670 0.904560 0.280769
O O5 0.197371 0.040229 0.442865
O O6 0.391362 0.109406 0.704985
O O7 0.935233 0.097166 0.369110
O O8 0.261855 0.793074 0.654831
O O9 0.369999 0.467179 0.652662
O O10 0.922464 0.427136 0.350236
O O11 0.929623 0.762137 0.303476
O O12 0.178009 0.262194 0.275233
O O13 0.000000 0.500000 0.000000
O O14 0.500502 0.697224 0.965852
O O15 0.216711 0.810954 0.957990
O O16 0.364270 0.295763 0.791611
O O17 0.500000 0.000000 0.000000
#
# Coordination Sequence:
#
# PCOD9010065 Si02
#       8
#     2   2   2   2   2   2   2   2
#     4  11  27  48  74 110 140 181 242 298 357 435
#     4  10  22  39  66 101 145 188 238 285 339 416
#     4  11  25  42  65 101 144 189 239 292 345 417
#     4  11  26  52  79 106 143 177 231 306 374 432
#     4  10  21  40  61  96 144 197 236 282 340 404
#     4  12  25  47  79 105 145 189 234 297 362 424
#     4  11  23  40  66 101 144 193 239 287 347 416
#     4  12  22  39  64  95 143 193 241 288 339 410
#
# _framework density 23.283180999999999
#
# number of rings (size 3 to 8) (size 9 to 14) (size 15 to 20)
#    0.000    1.000    2.500    4.125    0.000    3.500 
#    0.000    0.000    0.000    0.000    0.000    0.000 
#    0.000    0.000    0.000    0.000    0.000    0.000 
#
# Total GULP energy -89394.712321 kJ/mol
# GULP energy per Si atom -5587.169520 kJ/mol
# Density = 2.323019 g / cm^3
# Si number density = 23.283181 Si / 1000 Ang^3
#
#
#
# Elastic Constant Matrix: (Units=GPa)
#
#
# Indices 1 2 3 4 5 6 
#
# 1 138.8965 54.8515 61.5631 2.4402 -11.7000 3.9925
# 2 54.8515 90.8663 30.2759 -5.8231 -11.1436 0.8541
# 3 61.5631 30.2759 134.8614 16.2414 -19.6498 -8.3018
# 4 2.4402 -5.8231 16.2414 31.8605 -6.4984 2.9393
# 5 -11.7000 -11.1436 -19.6498 -6.4984 38.8179 -9.0604
# 6 3.9925 0.8541 -8.3018 2.9393 -9.0604 38.5224
#
#
#
# Elastic Compliance Matrix: (Units=1/GPa)
#
#
# Indices 1 2 3 4 5 6 
#
# 1 0.011175 -0.005407 -0.004165 0.000326 -0.000736 -0.002134
# 2 -0.005407 0.015250 -0.001004 0.004299 0.003052 0.000396
# 3 -0.004165 -0.001004 0.011011 -0.005014 0.004169 0.004190
# 4 0.000326 0.004299 -0.005014 0.035813 0.004094 -0.002979
# 5 -0.000736 0.003052 0.004169 0.004094 0.031055 0.007899
# 6 -0.002134 0.000396 0.004190 -0.002979 0.007899 0.029159
#
#
# Mechanical properties :
#
#
# Convention : Reuss Voigt Hill
#
# Bulk Modulus (GPa) = 61.41372 73.11168 67.26270
# Shear Modulus (GPa) = 31.24168 36.36908 33.80538
#
# Velocity S-wave (km/s) = 3.66705 3.95654 3.81454
# Velocity P-wave (km/s) = 6.66062 7.23475 6.95361
#
# Compressibility (1/GPa) = 0.01628301
#
# Stress axis : x y z
#
# Youngs Moduli (GPa) = 89.48852 65.57485 90.81961
#
# Poissons Ratio (x) = 0.35457 0.37827
# Poissons Ratio (y) = 0.48387 0.09117
# Poissons Ratio (z) = 0.37273 0.06583
#
# Static dielectric constant tensor:
#      x y z
#    x 1.887550 -0.006500 -0.037690 
#    y -0.006500 2.055840 -0.046130 
#    z -0.037690 -0.046130 1.927110 
# 
# From -- ./inp_files/515456.got.cif
#   From: 2010.05.17/outbox.cif.g08.bks.cpg/sg2_258_cif.got.tgz:515456.got - 2010.06.03 11:33:40.
