data_PCOD9010640
_publ_section_title
;
Structure prediction by ZEFSAII (Michael W. Deem and Ramdas Pophale) SiO2 
 PCOD9010640
Probable space group: P -1
;
_chemical_formula_sum "Si O2"
_cell_formula_units_Z 16
_cell_length_a 8.347742
_cell_length_b 9.981232
_cell_length_c 12.346832
_cell_angle_alpha 47.022765
_cell_angle_beta 78.990281
_cell_angle_gamma 84.905056
_cell_volume 737.576429
_symmetry_space_group_name_H-M "P -1"
_symmetry_group_IT_number 2
_symmetry_cell_setting 'triclinic'
loop_
_space_group_symop_operation_xyz
x,y,z
-x,-y,-z
loop_
_atom_site_type_symbol
_atom_site_label
_atom_site_fract_x
_atom_site_fract_y
_atom_site_fract_z
Si Si1 0.422999 0.779613 0.767548
Si Si2 0.032732 0.110719 0.823583
Si Si3 0.167370 0.469937 0.053724
Si Si4 0.684699 0.251628 0.806666
Si Si5 0.720600 0.623233 0.697647
Si Si6 0.208308 0.961159 0.533894
Si Si7 0.600132 0.959431 0.172537
Si Si8 0.098412 0.082401 0.267134
O O1 0.576923 0.672350 0.770642
O O2 0.357134 0.863904 0.618862
O O3 0.438802 0.940305 0.765457
O O4 0.294685 0.629200 0.915077
O O5 0.230724 0.148622 0.777309
O O6 0.880626 0.244281 0.764347
O O7 0.988000 0.992891 0.787108
O O8 0.000000 0.000000 0.000000
O O9 0.153748 0.468088 0.186647
O O10 0.206297 0.264932 0.123972
O O11 0.000000 0.500000 0.000000
O O12 0.658795 0.466146 0.710630
O O13 0.557964 0.161969 0.783726
O O14 0.641845 0.123456 0.988697
O O15 0.786208 0.826059 0.542411
O O16 0.047784 0.866752 0.661352
O O17 0.195727 0.959829 0.406182
#
# Coordination Sequence:
#
# PCOD9010640 Si02
#       8
#     2   2   2   2   2   2   2   2
#     4  12  22  41  68  97 131 170 223 286 329 390
#     4  10  21  40  68  93 130 175 220 270 332 400
#     4  11  21  36  66  96 128 160 221 289 326 381
#     4  10  23  40  61  95 134 171 214 276 334 396
#     4  11  25  41  60 100 135 171 222 274 336 393
#     4  10  22  41  66  90 138 176 217 271 333 407
#     4  10  21  40  65  95 129 172 220 270 340 390
#     4  10  21  40  64 101 127 173 223 269 337 396
#
# _framework density 21.692667
#
# number of rings (size 3 to 8) (size 9 to 14) (size 15 to 20)
#    0.000    1.500    3.750    0.750    5.250    2.000 
#    0.000    1.250    0.000    0.000    0.000    0.000 
#    0.000    0.000    0.000    0.000    0.000    0.000 
#
# Total GULP energy -89172.776006 kJ/mol
# GULP energy per Si atom -5573.298500 kJ/mol
# Density = 2.164329 g / cm^3
# Si number density = 21.692667 Si / 1000 Ang^3
#
#
#
# Elastic Constant Matrix: (Units=GPa)
#
#
# Indices 1 2 3 4 5 6 
#
# 1 114.7694 58.7800 22.4546 -3.4964 6.6377 4.4864
# 2 58.7800 83.6877 23.4968 7.4532 5.5534 17.2812
# 3 22.4546 23.4968 75.0613 1.8803 14.7094 19.8956
# 4 -3.4964 7.4532 1.8803 31.4118 10.6837 1.8955
# 5 6.6377 5.5534 14.7094 10.6837 32.9981 6.4858
# 6 4.4864 17.2812 19.8956 1.8955 6.4858 33.8302
#
#
#
# Elastic Compliance Matrix: (Units=1/GPa)
#
#
# Indices 1 2 3 4 5 6 
#
# 1 0.015025 -0.011367 -0.001858 0.005181 -0.002978 0.005187
# 2 -0.011367 0.022762 -0.001730 -0.007147 0.003379 -0.009350
# 3 -0.001858 -0.001730 0.017774 0.001747 -0.006206 -0.008231
# 4 0.005181 -0.007147 0.001747 0.038464 -0.013539 0.002377
# 5 -0.002978 0.003379 -0.006206 -0.013539 0.038324 -0.004270
# 6 0.005187 -0.009350 -0.008231 0.002377 -0.004270 0.039174
#
#
# Mechanical properties :
#
#
# Convention : Reuss Voigt Hill
#
# Bulk Modulus (GPa) = 38.98242 53.66458 46.32350
# Shear Modulus (GPa) = 23.81156 30.90048 27.35602
#
# Velocity S-wave (km/s) = 3.31672 3.77831 3.55501
# Velocity P-wave (km/s) = 5.71636 6.62015 6.18479
#
# Compressibility (1/GPa) = 0.02565259
#
# Stress axis : x y z
#
# Youngs Moduli (GPa) = 66.55374 43.93378 56.26306
#
# Poissons Ratio (x) = 0.49938 0.10452
# Poissons Ratio (y) = 0.75650 0.09731
# Poissons Ratio (z) = 0.12364 0.07599
#
# Static dielectric constant tensor:
#      x y z
#    x 1.952100 -0.019800 0.040750 
#    y -0.019800 1.812400 -0.016860 
#    z 0.040750 -0.016860 1.809350 
# 
# From -- ./inp_files/208717.got.cif
#   From: 2010.05.17/outbox.cif.g08.bks.cpg/sg2_105_cif.got.tgz:208717.got - 2010.06.03 11:33:40.
