data_PCOD9010018
_publ_section_title
;
Structure prediction by ZEFSAII (Michael W. Deem and Ramdas Pophale) SiO2 
 PCOD9010018
Probable space group: P -1
;
_chemical_formula_sum "Si O2"
_cell_formula_units_Z 16
_cell_length_a 9.376126
_cell_length_b 16.112184
_cell_length_c 12.909590
_cell_angle_alpha 128.949928
_cell_angle_beta 115.023073
_cell_angle_gamma 108.076623
_cell_volume 791.240281
_symmetry_space_group_name_H-M "P -1"
_symmetry_group_IT_number 2
_symmetry_cell_setting 'triclinic'
loop_
_space_group_symop_operation_xyz
x,y,z
-x,-y,-z
loop_
_atom_site_type_symbol
_atom_site_label
_atom_site_fract_x
_atom_site_fract_y
_atom_site_fract_z
Si Si1 0.397433 0.005625 0.768579
Si Si2 0.282452 0.867012 0.237184
Si Si3 0.810553 0.304392 0.423655
Si Si4 0.615577 0.332246 0.208607
Si Si5 0.957943 0.460342 0.819590
Si Si6 0.869274 0.821957 0.366298
Si Si7 0.398536 0.612660 0.215496
Si Si8 0.250490 0.316381 0.005431
O O1 0.339598 0.889790 0.751389
O O2 0.105381 0.880606 0.534340
O O3 0.569308 0.048364 0.761805
O O4 0.550940 0.195948 0.006824
O O5 0.051973 0.827565 0.158654
O O6 0.500000 0.000000 0.500000
O O7 0.133589 0.667873 0.038902
O O8 0.631387 0.290484 0.294718
O O9 0.091729 0.453439 0.561744
O O10 0.898767 0.394625 0.634108
O O11 0.389768 0.296188 0.090156
O O12 0.675649 0.327152 0.689166
O O13 0.139165 0.474327 0.947752
O O14 0.658958 0.745801 0.328109
O O15 0.737540 0.696303 0.125219
O O16 0.000000 0.000000 0.500000
O O17 0.401220 0.513275 0.214712
#
# Coordination Sequence:
#
# PCOD9010018 Si02
#       8
#     2   2   2   2   2   2   2   2
#     4  12  23  41  67  93 125 166 211 253 316 379
#     4  11  23  39  62  97 131 165 196 253 325 381
#     4  11  24  42  69  87 119 177 212 259 305 363
#     4  11  24  45  64  90 126 160 223 263 301 359
#     4  10  21  40  61  90 130 164 205 254 311 379
#     4  12  21  33  59  92 125 154 196 258 318 365
#     4  10  22  35  60  92 122 159 202 252 317 386
#     4  11  22  39  60  91 126 161 201 260 313 369
#
# _framework density 20.221419000000001
#
# number of rings (size 3 to 8) (size 9 to 14) (size 15 to 20)
#    0.000    1.000    3.750    3.750    3.500    0.000 
#    0.000    3.125    2.750    0.000    0.000    0.000 
#    0.000    0.000    0.000    0.000    0.000    0.000 
#
# Total GULP energy -89390.503167 kJ/mol
# GULP energy per Si atom -5586.906448 kJ/mol
# Density = 2.017539 g / cm^3
# Si number density = 20.221419 Si / 1000 Ang^3
#
#
#
# Elastic Constant Matrix: (Units=GPa)
#
#
# Indices 1 2 3 4 5 6 
#
# 1 86.9266 58.0071 17.6929 7.3425 28.1453 -3.8685
# 2 58.0071 131.2472 25.8417 -4.6000 30.3498 -12.4453
# 3 17.6929 25.8417 38.0088 -3.4453 11.4482 -9.0237
# 4 7.3425 -4.6000 -3.4453 40.6774 2.9894 5.3514
# 5 28.1453 30.3498 11.4482 2.9894 36.9525 4.9686
# 6 -3.8685 -12.4453 -9.0237 5.3514 4.9686 35.2217
#
#
#
# Elastic Compliance Matrix: (Units=1/GPa)
#
#
# Indices 1 2 3 4 5 6 
#
# 1 0.019231 -0.006027 -0.002240 -0.003855 -0.008859 0.001244
# 2 -0.006027 0.012535 -0.003089 0.002192 -0.005383 0.003402
# 3 -0.002240 -0.003089 0.033841 0.002418 -0.007515 0.008025
# 4 -0.003855 0.002192 0.002418 0.026203 -0.001353 -0.002820
# 5 -0.008859 -0.005383 -0.007515 -0.001353 0.042084 -0.010531
# 6 0.001244 0.003402 0.008025 -0.002820 -0.010531 0.033700
#
#
# Mechanical properties :
#
#
# Convention : Reuss Voigt Hill
#
# Bulk Modulus (GPa) = 23.31318 51.02954 37.17136
# Shear Modulus (GPa) = 24.43724 32.87972 28.65848
#
# Velocity S-wave (km/s) = 3.48010 4.03672 3.76870
# Velocity P-wave (km/s) = 5.26328 6.85690 6.11225
#
# Compressibility (1/GPa) = 0.04289419
#
# Stress axis : x y z
#
# Youngs Moduli (GPa) = 51.99875 79.77403 29.55004
#
# Poissons Ratio (x) = 0.48081 0.06619
# Poissons Ratio (y) = 0.31340 0.09129
# Poissons Ratio (z) = 0.11648 0.24646
#
# Static dielectric constant tensor:
#      x y z
#    x 1.845260 -0.015280 -0.029940 
#    y -0.015280 1.733830 0.060920 
#    z -0.029940 0.060920 1.806740 
# 
# From -- ./inp_files/223845.got.cif
#   From: 2010.05.17/outbox.cif.g08.bks.cpg/sg2_112_cif.got.tgz:223845.got - 2010.06.03 11:33:40.
