data_PCOD9010530
_publ_section_title
;
Structure prediction by ZEFSAII (Michael W. Deem and Ramdas Pophale) SiO2 
 PCOD9010530
Probable space group: P -1
;
_chemical_formula_sum "Si O2"
_cell_formula_units_Z 15
_cell_length_a 16.341465
_cell_length_b 9.045005
_cell_length_c 9.783752
_cell_angle_alpha 59.517473
_cell_angle_beta 32.781245
_cell_angle_gamma 50.883000
_cell_volume 606.557766
_symmetry_space_group_name_H-M "P -1"
_symmetry_group_IT_number 2
_symmetry_cell_setting 'triclinic'
loop_
_space_group_symop_operation_xyz
x,y,z
-x,-y,-z
loop_
_atom_site_type_symbol
_atom_site_label
_atom_site_fract_x
_atom_site_fract_y
_atom_site_fract_z
Si Si1 0.143707 0.507783 0.695249
Si Si2 0.397143 0.469482 0.778957
Si Si3 0.070828 0.499453 0.227460
Si Si4 0.263917 0.811677 0.486935
Si Si5 0.000000 0.000000 0.000000
Si Si6 0.699983 0.124658 0.169083
Si Si7 0.559313 0.886657 0.637371
Si Si8 0.794601 0.805107 0.590782
O O1 0.207815 0.661637 0.573440
O O2 0.302711 0.302271 0.546238
O O3 0.051205 0.563174 0.651924
O O4 0.000000 0.500000 0.000000
O O5 0.500000 0.500000 0.500000
O O6 0.533698 0.285435 0.747299
O O7 0.333092 0.655570 0.877209
O O8 0.240489 0.457257 0.932044
O O9 0.152149 0.381883 0.305572
O O10 0.959484 0.730113 0.291419
O O11 0.211178 0.019286 0.398563
O O12 0.178442 0.868985 0.730175
O O13 0.111380 0.000886 0.984633
O O14 0.625972 0.094284 0.141879
O O15 0.581777 0.066243 0.461187
O O16 0.632048 0.857817 0.702288
#
# Coordination Sequence:
#
# PCOD9010530 Si02
#       8
#     2   2   2   2   1   2   2   2
#     4  11  23  38  64 103 134 165 219 278 325 380
#     4  12  22  39  64 100 130 168 219 273 336 381
#     4  10  25  43  72  93 130 180 220 269 323 397
#     4  12  24  39  65  93 136 172 216 279 326 393
#     4  12  22  38  60  98 124 170 212 264 336 382
#     4  11  22  36  64  95 130 165 216 267 327 379
#     4  10  21  40  63  93 131 172 213 267 319 390
#     4  10  22  47  68  92 132 181 227 253 327 406
#
# _framework density 24.729714999999999
#
# number of rings (size 3 to 8) (size 9 to 14) (size 15 to 20)
#    0.000    1.067    4.000    2.400    3.733    1.067 
#    2.400    0.667    2.933    0.000    0.000    0.000 
#    0.000    0.000    0.000    0.000    0.000    0.000 
#
# Total GULP energy -83602.933230 kJ/mol
# GULP energy per Si atom -5573.528882 kJ/mol
# Density = 2.467343 g / cm^3
# Si number density = 24.729715 Si / 1000 Ang^3
#
#
#
# Elastic Constant Matrix: (Units=GPa)
#
#
# Indices 1 2 3 4 5 6 
#
# 1 142.5415 43.8099 29.5252 0.7130 -48.2885 -4.8907
# 2 43.8099 135.0877 15.8122 12.2043 -19.3016 8.9655
# 3 29.5252 15.8122 59.5619 18.6103 -36.3732 -2.8123
# 4 0.7130 12.2043 18.6103 17.4503 -3.8137 -6.5599
# 5 -48.2885 -19.3016 -36.3732 -3.8137 48.5567 -0.2763
# 6 -4.8907 8.9655 -2.8123 -6.5599 -0.2763 41.1472
#
#
#
# Elastic Compliance Matrix: (Units=1/GPa)
#
#
# Indices 1 2 3 4 5 6 
#
# 1 0.011654 -0.002814 0.000683 0.004296 0.011336 0.002806
# 2 -0.002814 0.009664 0.004672 -0.012381 0.003547 -0.004071
# 3 0.000683 0.004672 0.059436 -0.059728 0.042333 -0.006112
# 4 0.004296 -0.012381 -0.059728 0.129130 -0.035138 0.019476
# 5 0.011336 0.003547 0.042333 -0.035138 0.062220 -0.001716
# 6 0.002806 -0.004071 -0.006112 0.019476 -0.001716 0.028199
#
#
# Mechanical properties :
#
#
# Convention : Reuss Voigt Hill
#
# Bulk Modulus (GPa) = 11.65019 57.27619 34.46319
# Shear Modulus (GPa) = 15.44009 37.96709 26.70359
#
# Velocity S-wave (km/s) = 2.50142 3.92252 3.28962
# Velocity P-wave (km/s) = 3.61442 6.61257 5.32870
#
# Compressibility (1/GPa) = 0.08583551
#
# Stress axis : x y z
#
# Youngs Moduli (GPa) = 85.80760 103.47791 16.82485
#
# Poissons Ratio (x) = 0.29119 -0.01149
# Poissons Ratio (y) = 0.24146 -0.07860
# Poissons Ratio (z) = -0.05862 -0.48342
#
# Static dielectric constant tensor:
#      x y z
#    x 2.086190 -0.040080 0.053040 
#    y -0.040080 1.913200 0.097770 
#    z 0.053040 0.097770 1.998960 
# 
# From -- ./inp_files/169280.got.cif
#   From: 2010.05.17/outbox.cif.g08.bks.cpg/sg2_85_cif.got.tgz:169280.got - 2010.06.03 11:33:40.
