data_PCOD9010069
_publ_section_title
;
Structure prediction by ZEFSAII (Michael W. Deem and Ramdas Pophale) SiO2 
 PCOD9010069
Probable space group: P -1
;
_chemical_formula_sum "Si O2"
_cell_formula_units_Z 16
_cell_length_a 5.326939
_cell_length_b 16.074181
_cell_length_c 15.542043
_cell_angle_alpha 138.079502
_cell_angle_beta 133.999244
_cell_angle_gamma 56.900902
_cell_volume 638.396990
_symmetry_space_group_name_H-M "P -1"
_symmetry_group_IT_number 2
_symmetry_cell_setting 'triclinic'
loop_
_space_group_symop_operation_xyz
x,y,z
-x,-y,-z
loop_
_atom_site_type_symbol
_atom_site_label
_atom_site_fract_x
_atom_site_fract_y
_atom_site_fract_z
Si Si1 0.200301 0.784534 0.967240
Si Si2 0.569157 0.197828 0.233076
Si Si3 0.169835 0.728580 0.098356
Si Si4 0.717584 0.970499 0.193397
Si Si5 0.810322 0.113176 0.490276
Si Si6 0.536369 0.391845 0.228614
Si Si7 0.354950 0.595174 0.466882
Si Si8 0.350969 0.278470 0.644233
O O1 0.210865 0.650162 0.820815
O O2 0.804340 0.835592 0.918000
O O3 0.370292 0.757863 0.080273
O O4 0.399984 0.882408 0.034283
O O5 0.781717 0.071685 0.213372
O O6 0.680239 0.300065 0.269825
O O7 0.517516 0.273735 0.368932
O O8 0.383983 0.668701 0.182231
O O9 0.033030 0.867455 0.202984
O O10 0.842443 0.651066 0.928813
O O11 0.624823 0.045141 0.315644
O O12 0.560941 0.200571 0.559813
O O13 0.110530 0.189904 0.575503
O O14 0.000000 0.000000 0.500000
O O15 0.488870 0.530325 0.360699
O O16 0.500000 0.500000 0.500000
O O17 0.937623 0.620596 0.382702
#
# Coordination Sequence:
#
# PCOD9010069 Si02
#       8
#     2   2   2   2   2   2   2   2
#     4  10  22  38  63  93 133 184 222 287 344 419
#     4  10  21  40  61  98 129 176 231 284 354 411
#     4  10  23  41  65  94 138 173 231 277 359 413
#     4  11  22  37  63  99 137 176 221 287 348 429
#     4  12  25  43  71 108 146 185 225 286 355 432
#     4   9  22  43  63  93 131 179 235 287 345 402
#     4  10  23  47  69  96 136 182 242 298 343 411
#     4  12  26  46  70 107 141 187 237 287 358 416
#
# _framework density 25.062775999999999
#
# number of rings (size 3 to 8) (size 9 to 14) (size 15 to 20)
#    0.000    1.500    2.500    1.500    3.500    8.500 
#    6.750    0.625    0.000    0.000    0.000    0.000 
#    0.000    0.000    0.000    0.000    0.000    0.000 
#
# Total GULP energy -89404.575238 kJ/mol
# GULP energy per Si atom -5587.785952 kJ/mol
# Density = 2.500573 g / cm^3
# Si number density = 25.062776 Si / 1000 Ang^3
#
#
#
# Elastic Constant Matrix: (Units=GPa)
#
#
# Indices 1 2 3 4 5 6 
#
# 1 86.7471 22.3587 16.2047 4.1975 -25.3059 -3.4094
# 2 22.3587 138.8250 37.0251 -12.3792 -8.3462 -2.5136
# 3 16.2047 37.0251 125.9002 -2.9297 -29.9671 1.8164
# 4 4.1975 -12.3792 -2.9297 32.3072 -4.3230 12.0597
# 5 -25.3059 -8.3462 -29.9671 -4.3230 43.6699 6.2674
# 6 -3.4094 -2.5136 1.8164 12.0597 6.2674 16.8725
#
#
#
# Elastic Compliance Matrix: (Units=1/GPa)
#
#
# Indices 1 2 3 4 5 6 
#
# 1 0.014452 -0.002166 0.000646 -0.001894 0.008091 0.000876
# 2 -0.002166 0.008420 -0.002235 0.003743 -0.000610 -0.001391
# 3 0.000646 -0.002235 0.010830 0.004047 0.008864 -0.007554
# 4 -0.001894 0.003743 0.004047 0.050057 0.013228 -0.040953
# 5 0.008091 -0.000610 0.008864 0.013228 0.038170 -0.023044
# 6 0.000876 -0.001391 -0.007554 -0.040953 -0.023044 0.097882
#
#
# Mechanical properties :
#
#
# Convention : Reuss Voigt Hill
#
# Bulk Modulus (GPa) = 38.18192 55.84992 47.01592
# Shear Modulus (GPa) = 21.18171 36.96218 29.07195
#
# Velocity S-wave (km/s) = 2.91029 3.84446 3.40952
# Velocity P-wave (km/s) = 5.15370 6.48374 5.85660
#
# Compressibility (1/GPa) = 0.02619040
#
# Stress axis : x y z
#
# Youngs Moduli (GPa) = 69.19593 118.76017 92.33672
#
# Poissons Ratio (x) = 0.25729 -0.05966
# Poissons Ratio (y) = 0.14991 0.20641
# Poissons Ratio (z) = -0.04471 0.26548
#
# Static dielectric constant tensor:
#      x y z
#    x 2.033920 0.022740 -0.010630 
#    y 0.022740 1.969870 -0.025610 
#    z -0.010630 -0.025610 2.038180 
# 
# From -- ./inp_files/77176.got.cif
#   From: 2010.05.17/outbox.cif.g08.bks.cpg/sg2_39_cif.got.tgz:77176.got - 2010.06.03 11:33:40.
