data_PCOD9010411
_publ_section_title
;
Structure prediction by ZEFSAII (Michael W. Deem and Ramdas Pophale) SiO2 
 PCOD9010411
Probable space group: P -1
;
_chemical_formula_sum "Si O2"
_cell_formula_units_Z 14
_cell_length_a 22.086751
_cell_length_b 11.657141
_cell_length_c 17.783676
_cell_angle_alpha 152.380735
_cell_angle_beta 162.735402
_cell_angle_gamma 23.508018
_cell_volume 539.954614
_symmetry_space_group_name_H-M "P -1"
_symmetry_group_IT_number 2
_symmetry_cell_setting 'triclinic'
loop_
_space_group_symop_operation_xyz
x,y,z
-x,-y,-z
loop_
_atom_site_type_symbol
_atom_site_label
_atom_site_fract_x
_atom_site_fract_y
_atom_site_fract_z
Si Si1 0.632116 0.319480 0.810576
Si Si2 0.747108 0.947156 0.922991
Si Si3 0.717640 0.722564 0.541538
Si Si4 0.351579 0.247508 0.802155
Si Si5 0.133649 0.609379 0.617261
Si Si6 0.527700 0.773930 0.838190
Si Si7 0.275327 0.566361 0.324480
O O1 0.360377 0.387837 0.542556
O O2 0.680421 0.463544 0.879456
O O3 0.774527 0.973404 0.770425
O O4 0.658953 0.486876 0.010777
O O5 0.711429 0.716750 0.792029
O O6 0.531455 0.111808 0.704998
O O7 0.012101 0.765403 0.094136
O O8 0.770984 0.174399 0.135717
O O9 0.885454 0.471588 0.537649
O O10 0.308469 0.323831 0.708069
O O11 0.112225 0.267780 0.559600
O O12 0.561176 0.935226 0.899217
O O13 0.309520 0.732425 0.531500
O O14 0.500000 0.000000 0.000000
O O15 0.500000 0.500000 0.500000
#
# Coordination Sequence:
#
# PCOD9010411 Si02
#       7
#     2   2   2   2   2   2   2
#     4  10  22  41  60  90 132 176 214 270 321 396
#     4  11  23  43  67  98 134 159 226 278 313 394
#     4  11  23  40  65  92 130 176 214 268 331 382
#     4  10  22  39  65  94 130 170 220 277 321 389
#     4  11  23  40  67  97 128 170 222 272 326 382
#     4  10  21  40  63  89 132 172 210 267 329 383
#     4  11  25  43  72  97 127 174 217 273 336 384
#
# _framework density 25.928106
#
# number of rings (size 3 to 8) (size 9 to 14) (size 15 to 20)
#    0.000    1.429    4.286    0.429    2.000    1.714 
#    0.000    6.429    0.000    0.000    0.000    0.000 
#    0.000    0.000    0.000    0.000    0.000    0.000 
#
# Total GULP energy -78089.246412 kJ/mol
# GULP energy per Si atom -5577.803315 kJ/mol
# Density = 2.586909 g / cm^3
# Si number density = 25.928106 Si / 1000 Ang^3
#
#
#
# Elastic Constant Matrix: (Units=GPa)
#
#
# Indices 1 2 3 4 5 6 
#
# 1 102.3966 42.5093 27.8515 16.1442 15.3454 10.7114
# 2 42.5093 88.2124 42.5629 32.7163 18.4643 13.1089
# 3 27.8515 42.5629 131.1778 35.5233 15.4595 -1.4973
# 4 16.1442 32.7163 35.5233 70.2513 -7.2342 8.5450
# 5 15.3454 18.4643 15.4595 -7.2342 44.7659 1.0728
# 6 10.7114 13.1089 -1.4973 8.5450 1.0728 30.9990
#
#
#
# Elastic Compliance Matrix: (Units=1/GPa)
#
#
# Indices 1 2 3 4 5 6 
#
# 1 0.012560 -0.004849 -0.000850 -0.000132 -0.001980 -0.002226
# 2 -0.004849 0.019521 -0.002805 -0.006649 -0.006384 -0.004661
# 3 -0.000850 -0.002805 0.010282 -0.004396 -0.002892 0.003288
# 4 -0.000132 -0.006649 -0.004396 0.020790 0.007746 -0.003354
# 5 -0.001980 -0.006384 -0.002892 0.007746 0.027897 0.000144
# 6 -0.002226 -0.004661 0.003288 -0.003354 0.000144 0.036078
#
#
# Mechanical properties :
#
#
# Convention : Reuss Voigt Hill
#
# Bulk Modulus (GPa) = 39.43644 60.84823 50.14233
# Shear Modulus (GPa) = 32.76810 43.12746 37.94778
#
# Velocity S-wave (km/s) = 3.55886 4.08284 3.82982
# Velocity P-wave (km/s) = 5.66836 6.76351 6.24001
#
# Compressibility (1/GPa) = 0.02535726
#
# Stress axis : x y z
#
# Youngs Moduli (GPa) = 79.61556 51.22695 97.25286
#
# Poissons Ratio (x) = 0.24837 0.08266
# Poissons Ratio (y) = 0.38602 0.27278
# Poissons Ratio (z) = 0.06767 0.14368
#
# Static dielectric constant tensor:
#      x y z
#    x 2.101120 -0.024270 -0.016670 
#    y -0.024270 2.151380 -0.052170 
#    z -0.016670 -0.052170 2.066080 
# 
# From -- ./inp_files/502602.got.cif
#   From: 2010.05.17/outbox.cif.g08.bks.cpg/sg2_252_cif.got.tgz:502602.got - 2010.06.03 11:33:40.
