data_PCOD9010023
_publ_section_title
;
Structure prediction by ZEFSAII (Michael W. Deem and Ramdas Pophale) SiO2 
 PCOD9010023
Probable space group: P -1
;
_chemical_formula_sum "Si O2"
_cell_formula_units_Z 14
_cell_length_a 10.276323
_cell_length_b 12.766749
_cell_length_c 19.205703
_cell_angle_alpha 25.271712
_cell_angle_beta 36.700575
_cell_angle_gamma 35.763488
_cell_volume 604.881575
_symmetry_space_group_name_H-M "P -1"
_symmetry_group_IT_number 2
_symmetry_cell_setting 'triclinic'
loop_
_space_group_symop_operation_xyz
x,y,z
-x,-y,-z
loop_
_atom_site_type_symbol
_atom_site_label
_atom_site_fract_x
_atom_site_fract_y
_atom_site_fract_z
Si Si1 0.584932 0.622239 0.477421
Si Si2 0.585841 0.691770 0.151530
Si Si3 0.059187 0.304187 0.216900
Si Si4 0.220081 0.105378 0.656365
Si Si5 0.252064 0.547089 0.283298
Si Si6 0.115559 0.755646 0.520989
Si Si7 0.461200 0.504322 0.931456
O O1 0.521067 0.399069 0.680037
O O2 0.620621 0.819373 0.399643
O O3 0.367641 0.749782 0.444588
O O4 0.818315 0.477654 0.421899
O O5 0.479847 0.575437 0.204239
O O6 0.860414 0.556596 0.121047
O O7 0.500000 0.000000 0.000000
O O8 0.018503 0.288538 0.327274
O O9 0.011396 0.048880 0.361261
O O10 0.309421 0.323674 0.086933
O O11 0.229765 0.273589 0.482664
O O12 0.963240 0.228608 0.724550
O O13 0.312421 0.797790 0.795068
O O14 0.298719 0.570768 0.168137
O O15 0.500000 0.500000 0.000000
#
# Coordination Sequence:
#
# PCOD9010023 Si02
#       7
#     2   2   2   2   2   2   2
#     4   9  19  37  65  85 120 168 204 257 313 377
#     4  10  21  40  61  91 125 159 214 260 310 376
#     4  10  22  39  61  93 126 160 206 264 317 370
#     4  10  22  46  64  92 127 173 215 254 318 383
#     4  10  24  44  66  92 127 176 212 258 318 376
#     4   9  19  39  61  92 121 161 209 254 322 380
#     4  12  26  41  64 100 131 165 212 267 317 381
#
# _framework density 23.145026000000001
#
# number of rings (size 3 to 8) (size 9 to 14) (size 15 to 20)
#    0.000    2.000    0.000    2.143    4.000    2.286 
#   12.857    0.000    0.000    0.000    0.000    0.000 
#    0.000    0.000    0.000    0.000    0.000    0.000 
#
# Total GULP energy -78299.352774 kJ/mol
# GULP energy per Si atom -5592.810912 kJ/mol
# Density = 2.309235 g / cm^3
# Si number density = 23.145026 Si / 1000 Ang^3
#
#
#
# Elastic Constant Matrix: (Units=GPa)
#
#
# Indices 1 2 3 4 5 6 
#
# 1 44.6251 -3.7081 14.1463 10.6962 1.5049 -8.5234
# 2 -3.7081 70.2547 48.5707 11.9549 5.9405 -0.9130
# 3 14.1463 48.5707 99.9523 1.9614 -4.5814 0.2345
# 4 10.6962 11.9549 1.9614 55.2279 -0.1125 4.8379
# 5 1.5049 5.9405 -4.5814 -0.1125 22.0079 3.7810
# 6 -8.5234 -0.9130 0.2345 4.8379 3.7810 31.6224
#
#
#
# Elastic Compliance Matrix: (Units=1/GPa)
#
#
# Indices 1 2 3 4 5 6 
#
# 1 0.031158 0.011067 -0.010058 -0.009080 -0.009196 0.011281
# 2 0.011067 0.028313 -0.015767 -0.008328 -0.012880 0.006732
# 3 -0.010058 -0.015767 0.019456 0.005153 0.009928 -0.005286
# 4 -0.009080 -0.008328 0.005153 0.022085 0.005210 -0.006728
# 5 -0.009196 -0.012880 0.009928 0.005210 0.053373 -0.010103
# 6 0.011281 0.006732 -0.005286 -0.006728 -0.010103 0.037135
#
#
# Mechanical properties :
#
#
# Convention : Reuss Voigt Hill
#
# Bulk Modulus (GPa) = 20.23818 36.98333 28.61076
# Shear Modulus (GPa) = 21.05216 32.15984 26.60600
#
# Velocity S-wave (km/s) = 3.01919 3.73163 3.39416
# Velocity P-wave (km/s) = 4.57352 5.88051 5.26771
#
# Compressibility (1/GPa) = 0.04941156
#
# Stress axis : x y z
#
# Youngs Moduli (GPa) = 32.09457 35.32008 51.39672
#
# Poissons Ratio (x) = -0.39089 0.51692
# Poissons Ratio (y) = -0.35519 0.81038
# Poissons Ratio (z) = 0.32279 0.55690
#
# Static dielectric constant tensor:
#      x y z
#    x 1.904220 0.003800 0.022760 
#    y 0.003800 1.900370 -0.001420 
#    z 0.022760 -0.001420 1.839610 
# 
# From -- ./inp_files/191142.got.cif
#   From: 2010.05.17/outbox.cif.g08.bks.cpg/sg2_96_cif.got.tgz:191142.got - 2010.06.03 11:33:40.
