data_PCOD9010721
_publ_section_title
;
Structure prediction by ZEFSAII (Michael W. Deem and Ramdas Pophale) SiO2 
 PCOD9010721
Probable space group: P -1
;
_chemical_formula_sum "Si O2"
_cell_formula_units_Z 14
_cell_length_a 12.896241
_cell_length_b 16.017462
_cell_length_c 10.520751
_cell_angle_alpha 32.565242
_cell_angle_beta 32.702368
_cell_angle_gamma 36.061985
_cell_volume 594.090168
_symmetry_space_group_name_H-M "P -1"
_symmetry_group_IT_number 2
_symmetry_cell_setting 'triclinic'
loop_
_space_group_symop_operation_xyz
x,y,z
-x,-y,-z
loop_
_atom_site_type_symbol
_atom_site_label
_atom_site_fract_x
_atom_site_fract_y
_atom_site_fract_z
Si Si1 0.235727 0.453354 0.362304
Si Si2 0.957145 0.540470 0.197570
Si Si3 0.393644 0.866274 0.008135
Si Si4 0.445535 0.863715 0.439456
Si Si5 0.432987 0.332576 0.674524
Si Si6 0.994393 0.104801 0.240507
Si Si7 0.396027 0.427932 0.963688
O O1 0.181104 0.515131 0.484005
O O2 0.393170 0.270043 0.465332
O O3 0.000000 0.500000 0.500000
O O4 0.343640 0.497382 0.071382
O O5 0.809302 0.572353 0.187840
O O6 0.979212 0.718988 0.981465
O O7 0.186085 0.418423 0.132469
O O8 0.551411 0.962987 0.737372
O O9 0.449840 0.733709 0.233736
O O10 0.436562 0.754387 0.982417
O O11 0.174890 0.997142 0.099963
O O12 0.538125 0.819029 0.258540
O O13 0.217310 0.865456 0.653009
O O14 0.541349 0.444148 0.349209
O O15 0.000000 0.000000 0.500000
#
# Coordination Sequence:
#
# PCOD9010721 Si02
#       7
#     2   2   2   2   2   2   2
#     4   9  21  43  65  89 124 167 216 256 300 380
#     4  10  21  40  64  90 118 166 218 248 300 379
#     4  12  24  39  62  97 132 154 205 273 317 363
#     4  11  22  39  67  93 121 168 216 251 312 368
#     4  11  21  39  65  92 122 167 214 251 314 379
#     4  12  21  38  65  95 124 163 208 256 309 375
#     4  11  24  41  61  92 130 166 201 267 316 362
#
# _framework density 23.565446000000001
#
# number of rings (size 3 to 8) (size 9 to 14) (size 15 to 20)
#    0.000    1.143    5.714    1.714    0.000    4.571 
#    2.571    0.714    0.000    0.000    0.000    0.000 
#    0.000    0.000    0.000    0.000    0.000    0.000 
#
# Total GULP energy -78059.783910 kJ/mol
# GULP energy per Si atom -5575.698851 kJ/mol
# Density = 2.351181 g / cm^3
# Si number density = 23.565446 Si / 1000 Ang^3
#
#
#
# Elastic Constant Matrix: (Units=GPa)
#
#
# Indices 1 2 3 4 5 6 
#
# 1 76.4657 23.6918 24.9604 4.8389 -4.1727 -23.6416
# 2 23.6918 119.9310 36.5725 14.0865 -13.5419 -10.1575
# 3 24.9604 36.5725 95.8281 -0.5195 -7.2946 0.5147
# 4 4.8389 14.0865 -0.5195 27.3729 -10.2517 -13.2191
# 5 -4.1727 -13.5419 -7.2946 -10.2517 32.8381 -1.4546
# 6 -23.6416 -10.1575 0.5147 -13.2191 -1.4546 31.1457
#
#
#
# Elastic Compliance Matrix: (Units=1/GPa)
#
#
# Indices 1 2 3 4 5 6 
#
# 1 0.020506 -0.001529 -0.004499 0.007603 0.004172 0.018563
# 2 -0.001529 0.010470 -0.003462 -0.004058 0.002118 0.000688
# 3 -0.004499 -0.003462 0.013040 0.001205 0.001088 -0.004197
# 4 0.007603 -0.004058 0.001205 0.059308 0.019427 0.030507
# 5 0.004172 0.002118 0.001088 0.019427 0.038778 0.013896
# 6 0.018563 0.000688 -0.004197 0.030507 0.013896 0.060088
#
#
# Mechanical properties :
#
#
# Convention : Reuss Voigt Hill
#
# Bulk Modulus (GPa) = 39.94106 51.40825 45.67466
# Shear Modulus (GPa) = 21.78509 32.07134 26.92821
#
# Velocity S-wave (km/s) = 3.04378 3.69310 3.38405
# Velocity P-wave (km/s) = 5.41651 6.32833 5.89009
#
# Compressibility (1/GPa) = 0.02503689
#
# Stress axis : x y z
#
# Youngs Moduli (GPa) = 48.76719 95.51174 76.68560
#
# Poissons Ratio (x) = 0.14602 0.34498
# Poissons Ratio (y) = 0.07455 0.26549
# Poissons Ratio (z) = 0.21938 0.33067
#
# Static dielectric constant tensor:
#      x y z
#    x 1.978250 0.033880 0.018600 
#    y 0.033880 1.962100 0.033610 
#    z 0.018600 0.033610 1.936120 
# 
# From -- ./inp_files/456605.got.cif
#   From: 2010.05.17/outbox.cif.g08.bks.cpg/sg2_229_cif.got.tgz:456605.got - 2010.06.03 11:33:40.
