data_PCOD9010604
_publ_section_title
;
Structure prediction by ZEFSAII (Michael W. Deem and Ramdas Pophale) SiO2 
 PCOD9010604
Probable space group: P -1
;
_chemical_formula_sum "Si O2"
_cell_formula_units_Z 16
_cell_length_a 18.014010
_cell_length_b 7.750833
_cell_length_c 7.801582
_cell_angle_alpha 92.081921
_cell_angle_beta 51.076848
_cell_angle_gamma 120.200590
_cell_volume 666.044194
_symmetry_space_group_name_H-M "P -1"
_symmetry_group_IT_number 2
_symmetry_cell_setting 'triclinic'
loop_
_space_group_symop_operation_xyz
x,y,z
-x,-y,-z
loop_
_atom_site_type_symbol
_atom_site_label
_atom_site_fract_x
_atom_site_fract_y
_atom_site_fract_z
Si Si1 0.700438 0.296445 0.113775
Si Si2 0.875584 0.251936 0.455618
Si Si3 0.577528 0.320323 0.803562
Si Si4 0.330492 0.104091 0.045086
Si Si5 0.215966 0.329138 0.265812
Si Si6 0.190802 0.834632 0.824454
Si Si7 0.993677 0.252749 0.631302
Si Si8 0.451314 0.083955 0.337630
O O1 0.788149 0.340483 0.144593
O O2 0.561128 0.205885 0.322789
O O3 0.763471 0.497296 0.898323
O O4 0.682219 0.083492 0.054016
O O5 0.886983 0.232452 0.237766
O O6 0.912431 0.490703 0.440339
O O7 0.949734 0.243877 0.501293
O O8 0.736820 0.044190 0.692270
O O9 0.703216 0.548079 0.677310
O O10 0.587797 0.152449 0.679176
O O11 0.471823 0.306984 0.863146
O O12 0.518609 0.224937 0.074222
O O13 0.262522 0.205188 0.110774
O O14 0.076350 0.177009 0.516358
O O15 0.330834 0.041104 0.582560
O O16 0.116310 0.850018 0.079987
#
# Coordination Sequence:
#
# PCOD9010604 Si02
#       8
#     2   2   2   2   2   2   2   2
#     4  10  21  40  63  97 126 164 214 266 313 380
#     4  11  22  41  65  93 125 173 214 256 319 369
#     4   9  18  36  62  98 127 158 214 266 308 383
#     4  11  20  40  69  92 129 166 208 270 317 369
#     4  11  22  38  67  96 126 172 211 254 326 375
#     4  12  21  38  68  94 127 172 212 258 320 377
#     4  11  23  40  61  95 135 163 217 262 304 386
#     4   9  18  32  66  94 125 166 210 258 321 374
#
# _framework density 24.022431999999998
#
# number of rings (size 3 to 8) (size 9 to 14) (size 15 to 20)
#    0.000    1.500    3.750    3.375    0.000    0.500 
#    0.000    0.625    5.500    4.500    0.000    0.000 
#    0.000    0.000    0.000    0.000    0.000    0.000 
#
# Total GULP energy -89210.187796 kJ/mol
# GULP energy per Si atom -5575.636737 kJ/mol
# Density = 2.396776 g / cm^3
# Si number density = 24.022432 Si / 1000 Ang^3
#
#
#
# Elastic Constant Matrix: (Units=GPa)
#
#
# Indices 1 2 3 4 5 6 
#
# 1 114.3928 35.0191 65.4717 29.8455 -15.2150 22.1810
# 2 35.0191 72.6066 22.6053 6.8487 -12.2650 14.6389
# 3 65.4717 22.6053 127.0199 13.3221 -23.8642 -2.7814
# 4 29.8455 6.8487 13.3221 11.3846 1.9572 -15.4367
# 5 -15.2150 -12.2650 -23.8642 1.9572 47.0200 8.4944
# 6 22.1810 14.6389 -2.7814 -15.4367 8.4944 15.8723
#
#
#
# Elastic Compliance Matrix: (Units=1/GPa)
#
#
# Indices 1 2 3 4 5 6 
#
# 1 0.005648 -0.006751 -0.003908 0.014734 -0.005197 0.014760
# 2 -0.006751 0.016664 0.000137 0.007073 0.001951 -0.000077
# 3 -0.003908 0.000137 0.011474 -0.006454 0.005170 -0.001698
# 4 0.014734 0.007073 -0.006454 -0.010893 0.011964 -0.045242
# 5 -0.005197 0.001951 0.005170 0.011964 0.020999 0.006766
# 6 0.014760 -0.000077 -0.001698 -0.045242 0.006766 -0.005471
#
#
# Mechanical properties :
#
#
# Convention : Reuss Voigt Hill
#
# Bulk Modulus (GPa) = 78.48003 62.24573 70.36288
# Shear Modulus (GPa) = 78.47829 27.58360 53.03094
#
# Velocity S-wave (km/s) = 5.72186 3.39225 4.70356
# Velocity P-wave (km/s) = 8.74033 6.42736 7.67151
#
# Compressibility (1/GPa) = 0.01274210
#
# Stress axis : x y z
#
# Youngs Moduli (GPa) = 177.05641 60.00924 87.15424
#
# Poissons Ratio (x) = 0.40511 0.34062
# Poissons Ratio (y) = 1.19526 -0.01195
# Poissons Ratio (z) = 0.69199 -0.00823
#
# Static dielectric constant tensor:
#      x y z
#    x 2.043100 0.038370 -0.002770 
#    y 0.038370 1.924710 -0.005210 
#    z -0.002770 -0.005210 1.973910 
# 
# From -- ./inp_files/328820.got.cif
#   From: 2010.05.17/outbox.cif.g08.bks.cpg/sg2_165_cif.got.tgz:328820.got - 2010.06.03 11:33:40.
