data_PCOD9010720
_publ_section_title
;
Structure prediction by ZEFSAII (Michael W. Deem and Ramdas Pophale) SiO2 
 PCOD9010720
Probable space group: P -1
;
_chemical_formula_sum "Si O2"
_cell_formula_units_Z 14
_cell_length_a 10.969038
_cell_length_b 15.250063
_cell_length_c 11.375808
_cell_angle_alpha 45.468910
_cell_angle_beta 24.371859
_cell_angle_gamma 43.406419
_cell_volume 534.332737
_symmetry_space_group_name_H-M "P -1"
_symmetry_group_IT_number 2
_symmetry_cell_setting 'triclinic'
loop_
_space_group_symop_operation_xyz
x,y,z
-x,-y,-z
loop_
_atom_site_type_symbol
_atom_site_label
_atom_site_fract_x
_atom_site_fract_y
_atom_site_fract_z
Si Si1 0.051333 0.919794 0.827492
Si Si2 0.467493 0.176900 0.686458
Si Si3 0.649926 0.556410 0.594018
Si Si4 0.472108 0.715978 0.818292
Si Si5 0.702001 0.290276 0.590387
Si Si6 0.959804 0.198526 0.688024
Si Si7 0.132042 0.430518 0.113677
O O1 0.334697 0.917874 0.496108
O O2 0.186325 0.807712 0.909097
O O3 0.922811 0.057466 0.870547
O O4 0.813573 0.878707 0.990632
O O5 0.342491 0.315325 0.602681
O O6 0.655816 0.203869 0.605878
O O7 0.619690 0.593125 0.722617
O O8 0.963855 0.450836 0.372604
O O9 0.330888 0.531269 0.856626
O O10 0.724296 0.790331 0.546800
O O11 0.326517 0.700590 0.086794
O O12 0.951339 0.217100 0.537446
O O13 0.823400 0.413270 0.334978
O O14 0.387124 0.327511 0.907703
#
# Coordination Sequence:
#
# PCOD9010720 Si02
#       7
#     2   2   2   2   2   2   2
#     4  11  23  40  66  94 119 159 206 253 304 352
#     4  11  23  40  64  94 125 154 203 256 302 365
#     4  10  21  40  64  90 118 157 205 261 304 339
#     4  11  22  41  65  92 120 157 207 256 300 356
#     4  11  25  41  59  92 128 164 202 241 302 373
#     4  12  24  41  63  89 129 165 197 248 303 364
#     4  10  22  41  62  89 122 161 208 246 302 362
#
# _framework density 26.200903
#
# number of rings (size 3 to 8) (size 9 to 14) (size 15 to 20)
#    0.000    1.143    0.000    7.714    0.000    4.571 
#    0.000   14.286    0.000    0.000    0.000    0.000 
#    0.000    0.000    0.000    0.000    0.000    0.000 
#
# Total GULP energy -78196.401227 kJ/mol
# GULP energy per Si atom -5585.457231 kJ/mol
# Density = 2.614127 g / cm^3
# Si number density = 26.200903 Si / 1000 Ang^3
#
#
#
# Elastic Constant Matrix: (Units=GPa)
#
#
# Indices 1 2 3 4 5 6 
#
# 1 104.7171 23.7780 8.8223 -6.8617 -11.4474 35.4791
# 2 23.7780 87.7012 17.7067 -0.0330 -6.8591 17.3260
# 3 8.8223 17.7067 153.0510 -4.0923 -15.9876 14.7464
# 4 -6.8617 -0.0330 -4.0923 40.8763 22.0091 -5.6996
# 5 -11.4474 -6.8591 -15.9876 22.0091 40.1431 -5.2116
# 6 35.4791 17.3260 14.7464 -5.6996 -5.2116 34.9398
#
#
#
# Elastic Compliance Matrix: (Units=1/GPa)
#
#
# Indices 1 2 3 4 5 6 
#
# 1 0.015015 -0.001089 0.000994 -0.001179 0.003212 -0.014839
# 2 -0.001089 0.013016 -0.000796 -0.002075 0.002079 -0.005041
# 3 0.000994 -0.000796 0.007206 -0.001380 0.003335 -0.003384
# 4 -0.001179 -0.002075 -0.001380 0.035735 -0.020101 0.005640
# 5 0.003212 0.002079 0.003335 -0.020101 0.038103 -0.003295
# 6 -0.014839 -0.005041 -0.003384 0.005640 -0.003295 0.048045
#
#
# Mechanical properties :
#
#
# Convention : Reuss Voigt Hill
#
# Bulk Modulus (GPa) = 29.89064 49.56480 39.72772
# Shear Modulus (GPa) = 29.40260 42.86932 36.13596
#
# Velocity S-wave (km/s) = 3.35356 4.04936 3.71777
# Velocity P-wave (km/s) = 5.14083 6.38916 5.79868
#
# Compressibility (1/GPa) = 0.03345529
#
# Stress axis : x y z
#
# Youngs Moduli (GPa) = 66.60202 76.82840 138.77344
#
# Poissons Ratio (x) = 0.08368 -0.13797
# Poissons Ratio (y) = 0.07255 0.11041
# Poissons Ratio (z) = -0.06622 0.06113
#
# Static dielectric constant tensor:
#      x y z
#    x 2.093350 -0.093210 0.035330 
#    y -0.093210 2.117490 -0.036970 
#    z 0.035330 -0.036970 1.991410 
# 
# From -- ./inp_files/424766.got.cif
#   From: 2010.05.17/outbox.cif.g08.bks.cpg/sg2_213_cif.got.tgz:424766.got - 2010.06.03 11:33:40.
