data_PCOD9010858
_publ_section_title
;
Structure prediction by ZEFSAII (Michael W. Deem and Ramdas Pophale) SiO2 
 PCOD9010858
Probable space group: P -1
;
_chemical_formula_sum "Si O2"
_cell_formula_units_Z 16
_cell_length_a 9.549910
_cell_length_b 17.184001
_cell_length_c 9.105537
_cell_angle_alpha 115.941073
_cell_angle_beta 47.609784
_cell_angle_gamma 85.617285
_cell_volume 822.816865
_symmetry_space_group_name_H-M "P -1"
_symmetry_group_IT_number 2
_symmetry_cell_setting 'triclinic'
loop_
_space_group_symop_operation_xyz
x,y,z
-x,-y,-z
loop_
_atom_site_type_symbol
_atom_site_label
_atom_site_fract_x
_atom_site_fract_y
_atom_site_fract_z
Si Si1 0.164949 0.803817 0.432404
Si Si2 0.903238 0.497366 0.912620
Si Si3 0.209318 0.398659 0.347411
Si Si4 0.379299 0.585385 0.029555
Si Si5 0.661393 0.724950 0.115331
Si Si6 0.043572 0.901677 0.296035
Si Si7 0.619845 0.909091 0.462700
Si Si8 0.837075 0.019524 0.992286
O O1 0.195663 0.693628 0.330114
O O2 0.386891 0.787459 0.342700
O O3 0.171416 0.815425 0.260338
O O4 0.948258 0.907221 0.740572
O O5 0.742661 0.455319 0.014287
O O6 0.114207 0.414556 0.590698
O O7 0.764686 0.613502 0.031928
O O8 0.000000 0.500000 0.000000
O O9 0.000000 0.500000 0.500000
O O10 0.430900 0.403419 0.173906
O O11 0.253133 0.303345 0.137210
O O12 0.500000 0.500000 0.000000
O O13 0.716353 0.798836 0.222426
O O14 0.161263 0.903389 0.064244
O O15 0.815331 0.911093 0.412554
O O16 0.000000 0.000000 0.500000
O O17 0.500000 0.000000 0.500000
O O18 0.416621 0.933161 0.734194
O O19 0.000000 0.000000 0.000000
#
# Coordination Sequence:
#
# PCOD9010858 Si02
#       8
#     2   2   2   2   2   2   2   2
#     4  10  21  40  64  94 126 170 212 260 317 375
#     4  11  24  42  65  95 130 161 211 269 308 376
#     4   9  19  40  63  90 119 165 210 247 315 374
#     4  11  20  40  67  90 126 170 212 255 313 380
#     4  10  21  41  64  90 129 166 212 255 313 382
#     4  10  23  42  62  89 133 162 213 268 305 378
#     4  12  23  40  66  96 126 166 213 260 314 375
#     4  11  21  42  65  94 128 168 207 259 321 370
#
# _framework density 19.445397
#
# number of rings (size 3 to 8) (size 9 to 14) (size 15 to 20)
#    0.000    1.500    6.250    0.750    1.750    3.500 
#    4.500    2.500    0.000    0.000    0.000    0.000 
#    0.000    0.000    0.000    0.000    0.000    0.000 
#
# Total GULP energy -89181.765666 kJ/mol
# GULP energy per Si atom -5573.860354 kJ/mol
# Density = 1.940114 g / cm^3
# Si number density = 19.445397 Si / 1000 Ang^3
#
#
#
# Elastic Constant Matrix: (Units=GPa)
#
#
# Indices 1 2 3 4 5 6 
#
# 1 155.5094 43.5544 45.5843 -9.1894 8.8556 21.7567
# 2 43.5544 78.1922 44.7557 2.6721 5.0101 6.3638
# 3 45.5843 44.7557 124.3544 -8.3624 7.6819 11.8180
# 4 -9.1894 2.6721 -8.3624 40.8773 4.5590 5.9919
# 5 8.8556 5.0101 7.6819 4.5590 28.8150 -3.2457
# 6 21.7567 6.3638 11.8180 5.9919 -3.2457 36.5350
#
#
#
# Elastic Compliance Matrix: (Units=1/GPa)
#
#
# Indices 1 2 3 4 5 6 
#
# 1 0.008857 -0.003883 -0.000986 0.003099 -0.002842 -0.005040
# 2 -0.003883 0.018058 -0.005463 -0.003417 0.000221 0.001514
# 3 -0.000986 -0.005463 0.010988 0.003060 -0.002468 -0.002736
# 4 0.003099 -0.003417 0.003060 0.027804 -0.006403 -0.007368
# 5 -0.002842 0.000221 -0.002468 -0.006403 0.037985 0.006877
# 6 -0.005040 0.001514 -0.002736 -0.007368 0.006877 0.032813
#
#
# Mechanical properties :
#
#
# Convention : Reuss Voigt Hill
#
# Bulk Modulus (GPa) = 58.01078 69.53831 63.77454
# Shear Modulus (GPa) = 30.69085 36.18958 33.44022
#
# Velocity S-wave (km/s) = 3.97710 4.31871 4.15142
# Velocity P-wave (km/s) = 7.14053 7.79146 7.47309
#
# Compressibility (1/GPa) = 0.01723817
#
# Stress axis : x y z
#
# Youngs Moduli (GPa) = 112.90387 55.37667 91.01099
#
# Poissons Ratio (x) = 0.21500 0.08978
# Poissons Ratio (y) = 0.43835 0.49722
# Poissons Ratio (z) = 0.11138 0.30254
#
# Static dielectric constant tensor:
#      x y z
#    x 1.712320 0.029650 -0.006270 
#    y 0.029650 1.763450 0.005070 
#    z -0.006270 0.005070 1.706820 
# 
# From -- ./inp_files/215422.got.cif
#   From: 2010.05.17/outbox.cif.g08.bks.cpg/sg2_108_cif.got.tgz:215422.got - 2010.06.03 11:33:40.
