data_PCOD9010904
_publ_section_title
;
Structure prediction by ZEFSAII (Michael W. Deem and Ramdas Pophale) SiO2 
 PCOD9010904
Probable space group: P -1
;
_chemical_formula_sum "Si O2"
_cell_formula_units_Z 14
_cell_length_a 19.721256
_cell_length_b 9.233650
_cell_length_c 9.710367
_cell_angle_alpha 134.410079
_cell_angle_beta 141.602842
_cell_angle_gamma 30.950742
_cell_volume 562.722819
_symmetry_space_group_name_H-M "P -1"
_symmetry_group_IT_number 2
_symmetry_cell_setting 'triclinic'
loop_
_space_group_symop_operation_xyz
x,y,z
-x,-y,-z
loop_
_atom_site_type_symbol
_atom_site_label
_atom_site_fract_x
_atom_site_fract_y
_atom_site_fract_z
Si Si1 0.619416 0.198637 0.393676
Si Si2 0.718500 0.501201 0.506347
Si Si3 0.827836 0.192930 0.918696
Si Si4 0.137667 0.398732 0.744949
Si Si5 0.472305 0.997547 0.650592
Si Si6 0.990011 0.337845 0.987054
Si Si7 0.414140 0.724826 0.888560
O O1 0.735755 0.929423 0.301942
O O2 0.559718 0.114529 0.351412
O O3 0.710932 0.252776 0.659378
O O4 0.508633 0.401865 0.226125
O O5 0.683614 0.698588 0.454566
O O6 0.864717 0.355426 0.732567
O O7 0.725816 0.253772 0.321318
O O8 0.570473 0.750066 0.529071
O O9 0.796323 0.463552 0.094022
O O10 0.000000 0.000000 0.000000
O O11 0.859441 0.983528 0.946552
O O12 0.000000 0.500000 0.500000
O O13 0.076590 0.487008 0.861015
O O14 0.573605 0.057554 0.900699
O O15 0.000000 0.500000 0.000000
O O16 0.500000 0.500000 0.000000
#
# Coordination Sequence:
#
# PCOD9010904 Si02
#       7
#     2   2   2   2   2   2   2
#     4  12  22  40  69  92 130 168 217 270 319 389
#     4  10  22  41  63  87 133 169 205 266 328 375
#     4  10  21  40  64  95 130 170 213 263 326 387
#     4  11  23  40  65  93 130 170 215 262 320 378
#     4  10  23  41  63  93 123 170 218 261 316 389
#     4  11  22  41  67  96 133 172 213 267 328 385
#     4  10  22  39  61  92 126 164 215 263 322 378
#
# _framework density 24.879035999999999
#
# number of rings (size 3 to 8) (size 9 to 14) (size 15 to 20)
#    0.000    1.429    2.857    3.857    0.000    1.714 
#    0.000    6.429    0.000    0.000    0.000    0.000 
#    0.000    0.000    0.000    0.000    0.000    0.000 
#
# Total GULP energy -78217.956355 kJ/mol
# GULP energy per Si atom -5586.996882 kJ/mol
# Density = 2.482241 g / cm^3
# Si number density = 24.879036 Si / 1000 Ang^3
#
#
#
# Elastic Constant Matrix: (Units=GPa)
#
#
# Indices 1 2 3 4 5 6 
#
# 1 93.3128 35.7065 37.7296 -0.4665 -8.9550 51.9688
# 2 35.7065 111.9020 51.2018 9.2001 -4.4000 30.4492
# 3 37.7296 51.2018 192.1603 6.1329 2.2126 25.3647
# 4 -0.4665 9.2001 6.1329 46.1349 18.2031 -3.0281
# 5 -8.9550 -4.4000 2.2126 18.2031 32.8457 -1.1303
# 6 51.9688 30.4492 25.3647 -3.0281 -1.1303 47.0328
#
#
#
# Elastic Compliance Matrix: (Units=1/GPa)
#
#
# Indices 1 2 3 4 5 6 
#
# 1 0.031180 0.001200 -0.001829 -0.006318 0.011103 -0.034382
# 2 0.001200 0.012413 -0.002361 -0.004387 0.004296 -0.008268
# 3 -0.001829 -0.002361 0.006176 0.000163 -0.001315 0.000198
# 4 -0.006318 -0.004387 0.000163 0.030674 -0.018934 0.011254
# 5 0.011103 0.004296 -0.001315 -0.018934 0.044131 -0.014499
# 6 -0.034382 -0.008268 0.000198 0.011254 -0.014499 0.064874
#
#
# Mechanical properties :
#
#
# Convention : Reuss Voigt Hill
#
# Bulk Modulus (GPa) = 22.83793 71.85012 47.34403
# Shear Modulus (GPa) = 23.80671 43.38515 33.59593
#
# Velocity S-wave (km/s) = 3.09673 4.18047 3.67873
# Velocity P-wave (km/s) = 4.68891 7.22802 6.09221
#
# Compressibility (1/GPa) = 0.04378680
#
# Stress axis : x y z
#
# Youngs Moduli (GPa) = 32.07233 80.55861 161.91412
#
# Poissons Ratio (x) = -0.09664 0.29621
# Poissons Ratio (y) = -0.03847 0.38232
# Poissons Ratio (z) = 0.05867 0.19022
#
# Static dielectric constant tensor:
#      x y z
#    x 1.952020 -0.191270 0.099500 
#    y -0.191270 1.618370 0.173660 
#    z 0.099500 0.173660 1.936740 
# 
# From -- ./inp_files/343068.got.cif
#   From: 2010.05.17/outbox.cif.g08.bks.cpg/sg2_172_cif.got.tgz:343068.got - 2010.06.03 11:33:40.
