data_PCOD9010395
_publ_section_title
;
Structure prediction by ZEFSAII (Michael W. Deem and Ramdas Pophale) SiO2 
 PCOD9010395
Probable space group: P -1
;
_chemical_formula_sum "Si O2"
_cell_formula_units_Z 14
_cell_length_a 9.811573
_cell_length_b 19.929020
_cell_length_c 9.055620
_cell_angle_alpha 64.234500
_cell_angle_beta 118.057863
_cell_angle_gamma 157.818905
_cell_volume 589.929723
_symmetry_space_group_name_H-M "P -1"
_symmetry_group_IT_number 2
_symmetry_cell_setting 'triclinic'
loop_
_space_group_symop_operation_xyz
x,y,z
-x,-y,-z
loop_
_atom_site_type_symbol
_atom_site_label
_atom_site_fract_x
_atom_site_fract_y
_atom_site_fract_z
Si Si1 0.661209 0.129603 0.344765
Si Si2 0.716659 0.049152 0.190792
Si Si3 0.147506 0.668634 0.336492
Si Si4 0.692399 0.515353 0.499719
Si Si5 0.713924 0.381951 0.798559
Si Si6 0.255088 0.153543 0.360288
Si Si7 0.486583 0.203081 0.116016
O O1 0.839941 0.159524 0.277673
O O2 0.427526 0.089106 0.176209
O O3 0.898948 0.286797 0.420865
O O4 0.500000 0.000000 0.500000
O O5 0.073122 0.154455 0.241535
O O6 0.416062 0.857305 0.277796
O O7 0.500000 0.000000 0.000000
O O8 0.138279 0.622925 0.218018
O O9 0.341573 0.690887 0.518533
O O10 0.777906 0.538404 0.349046
O O11 0.500000 0.500000 0.500000
O O12 0.534306 0.368521 0.620972
O O13 0.075115 0.582328 0.854018
O O14 0.419008 0.222159 0.917701
O O15 0.285367 0.136633 0.226267
O O16 0.000000 0.000000 0.500000
#
# Coordination Sequence:
#
# PCOD9010395 Si02
#       7
#     2   2   2   2   2   2   2
#     4  11  20  42  65  88 133 169 211 273 322 383
#     4  11  24  39  62  95 128 166 213 273 332 381
#     4  11  21  43  62  93 127 171 223 263 320 398
#     4  11  24  39  66 100 126 171 223 271 327 383
#     4  10  22  39  66  89 131 170 214 268 322 392
#     4  10  21  40  63  89 124 169 216 260 319 391
#     4  10  21  41  62  95 127 171 214 265 329 385
#
# _framework density 23.731639000000001
#
# number of rings (size 3 to 8) (size 9 to 14) (size 15 to 20)
#    0.000    1.429    4.286    2.143    2.000    1.143 
#    0.000    3.571    0.000    6.857    0.000    0.000 
#    0.000    0.000    0.000    0.000    0.000    0.000 
#
# Total GULP energy -77982.334361 kJ/mol
# GULP energy per Si atom -5570.166740 kJ/mol
# Density = 2.367762 g / cm^3
# Si number density = 23.731639 Si / 1000 Ang^3
#
#
#
# Elastic Constant Matrix: (Units=GPa)
#
#
# Indices 1 2 3 4 5 6 
#
# 1 183.8549 4.1508 49.5848 -28.8566 13.8492 1.8192
# 2 4.1508 64.6611 37.2833 -11.8222 8.9832 0.2968
# 3 49.5848 37.2833 112.6154 -35.8945 1.8759 1.3404
# 4 -28.8566 -11.8222 -35.8945 37.7075 3.8076 5.2110
# 5 13.8492 8.9832 1.8759 3.8076 29.9444 -3.2206
# 6 1.8192 0.2968 1.3404 5.2110 -3.2206 32.9820
#
#
#
# Elastic Compliance Matrix: (Units=1/GPa)
#
#
# Indices 1 2 3 4 5 6 
#
# 1 0.007107 0.002393 -0.002354 0.004620 -0.004606 -0.001497
# 2 0.002393 0.020849 -0.006980 0.002630 -0.007384 -0.001173
# 3 -0.002354 -0.006980 0.015868 0.011368 0.000507 -0.002199
# 4 0.004620 0.002630 0.011368 0.043925 -0.010156 -0.008672
# 5 -0.004606 -0.007384 0.000507 -0.010156 0.039621 0.005773
# 6 -0.001497 -0.001173 -0.002199 -0.008672 0.005773 0.032436
#
#
# Mechanical properties :
#
#
# Convention : Reuss Voigt Hill
#
# Bulk Modulus (GPa) = 33.40021 60.35213 46.87617
# Shear Modulus (GPa) = 27.22265 38.13430 32.67847
#
# Velocity S-wave (km/s) = 3.39057 4.01296 3.71482
# Velocity P-wave (km/s) = 5.42518 6.85260 6.18024
#
# Compressibility (1/GPa) = 0.02993993
#
# Stress axis : x y z
#
# Youngs Moduli (GPa) = 140.71012 47.96449 63.01813
#
# Poissons Ratio (x) = -0.11476 0.14836
# Poissons Ratio (y) = -0.33666 0.43989
# Poissons Ratio (z) = 0.33126 0.33481
#
# Static dielectric constant tensor:
#      x y z
#    x 1.968970 0.096280 0.080790 
#    y 0.096280 2.059020 0.176100 
#    z 0.080790 0.176100 2.196540 
# 
# From -- ./inp_files/160105.got.cif
#   From: 2010.05.17/outbox.cif.g08.bks.cpg/sg2_81_cif.got.tgz:160105.got - 2010.06.03 11:33:40.
