data_PCOD9010418
_publ_section_title
;
Structure prediction by ZEFSAII (Michael W. Deem and Ramdas Pophale) SiO2 
 PCOD9010418
Probable space group: P -1
;
_chemical_formula_sum "Si O2"
_cell_formula_units_Z 16
_cell_length_a 12.767386
_cell_length_b 8.969049
_cell_length_c 16.491334
_cell_angle_alpha 118.428202
_cell_angle_beta 47.212117
_cell_angle_gamma 147.172734
_cell_volume 729.676932
_symmetry_space_group_name_H-M "P -1"
_symmetry_group_IT_number 2
_symmetry_cell_setting 'triclinic'
loop_
_space_group_symop_operation_xyz
x,y,z
-x,-y,-z
loop_
_atom_site_type_symbol
_atom_site_label
_atom_site_fract_x
_atom_site_fract_y
_atom_site_fract_z
Si Si1 0.536200 0.861770 0.991995
Si Si2 0.920092 0.104376 0.536778
Si Si3 0.512329 0.121904 0.352810
Si Si4 0.835128 0.529852 0.655076
Si Si5 0.101595 0.581799 0.652533
Si Si6 0.964811 0.739636 0.893046
Si Si7 0.210042 0.770122 0.900647
Si Si8 0.248071 0.252294 0.117391
O O1 0.754028 0.935956 0.890273
O O2 0.303534 0.535201 0.006286
O O3 0.500000 0.000000 0.000000
O O4 0.568682 0.958874 0.091635
O O5 0.098491 0.331990 0.430695
O O6 0.945579 0.266599 0.637121
O O7 0.660049 0.884717 0.576988
O O8 0.000000 0.000000 0.500000
O O9 0.644865 0.238072 0.399566
O O10 0.708564 0.294086 0.222731
O O11 0.358535 0.802651 0.339896
O O12 0.757821 0.607864 0.775348
O O13 0.064623 0.656801 0.609503
O O14 0.004696 0.616694 0.781003
O O15 0.958591 0.895647 0.877447
O O16 0.132178 0.859518 0.911395
O O17 0.000000 0.500000 0.000000
O O18 0.500000 0.500000 0.000000
#
# Coordination Sequence:
#
# PCOD9010418 Si02
#       8
#     2   2   2   2   2   2   2   2
#     4  11  20  33  56  80 120 162 194 244 298 355
#     4  11  24  40  60  93 127 158 200 253 309 370
#     4  10  21  40  67  86 121 163 203 259 299 361
#     4  10  21  40  63  90 118 157 210 253 304 360
#     4   9  19  38  65  86 114 156 205 248 305 358
#     4   9  19  37  56  84 115 150 205 252 295 360
#     4  11  21  36  59  91 120 157 209 247 304 367
#     4   9  19  36  58  86 115 155 200 247 298 355
#
# _framework density 21.927513000000001
#
# number of rings (size 3 to 8) (size 9 to 14) (size 15 to 20)
#    0.000    2.000    1.250    4.500    0.000    5.000 
#    0.000    3.750    0.000    0.000    0.000    0.000 
#    0.000    0.000    0.000    0.000    0.000    0.000 
#
# Total GULP energy -89173.361433 kJ/mol
# GULP energy per Si atom -5573.335090 kJ/mol
# Density = 2.187761 g / cm^3
# Si number density = 21.927513 Si / 1000 Ang^3
#
#
#
# Elastic Constant Matrix: (Units=GPa)
#
#
# Indices 1 2 3 4 5 6 
#
# 1 220.2927 41.1692 23.7774 10.2647 -24.7832 0.2491
# 2 41.1692 33.6683 6.6745 -0.6430 -2.4185 1.7600
# 3 23.7774 6.6745 67.8038 2.6977 -9.4921 -19.3280
# 4 10.2647 -0.6430 2.6977 32.2545 -4.3929 -2.9735
# 5 -24.7832 -2.4185 -9.4921 -4.3929 39.0601 9.2923
# 6 0.2491 1.7600 -19.3280 -2.9735 9.2923 39.5170
#
#
#
# Elastic Compliance Matrix: (Units=1/GPa)
#
#
# Indices 1 2 3 4 5 6 
#
# 1 0.006559 -0.007458 -0.001390 -0.001769 0.003482 -0.001341
# 2 -0.007458 0.039288 -0.002251 0.002875 -0.002021 -0.002113
# 3 -0.001390 -0.002251 0.018112 -0.000142 0.001306 0.008650
# 4 -0.001769 0.002875 -0.000142 0.032096 0.002225 0.001706
# 5 0.003482 -0.002021 0.001306 0.002225 0.029707 -0.006111
# 6 -0.001341 -0.002113 0.008650 0.001706 -0.006111 0.031204
#
#
# Mechanical properties :
#
#
# Convention : Reuss Voigt Hill
#
# Bulk Modulus (GPa) = 23.94717 51.66743 37.80730
# Shear Modulus (GPa) = 25.89527 38.84257 32.36892
#
# Velocity S-wave (km/s) = 3.44022 4.21338 3.84627
# Velocity P-wave (km/s) = 5.16962 6.87634 6.08313
#
# Compressibility (1/GPa) = 0.04175859
#
# Stress axis : x y z
#
# Youngs Moduli (GPa) = 152.46275 25.45319 55.21256
#
# Poissons Ratio (x) = 0.18983 0.07677
# Poissons Ratio (y) = 1.13709 0.12431
# Poissons Ratio (z) = 0.21198 0.05731
#
# Static dielectric constant tensor:
#      x y z
#    x 1.904890 -0.004380 -0.007590 
#    y -0.004380 1.853280 -0.016290 
#    z -0.007590 -0.016290 1.846170 
# 
# From -- ./inp_files/566138.got.cif
#   From: 2010.05.17/outbox.cif.g08.bks.cpg/sg2_284_cif.got.tgz:566138.got - 2010.06.03 11:33:40.
