data_PCOD9010707
_publ_section_title
;
Structure prediction by ZEFSAII (Michael W. Deem and Ramdas Pophale) SiO2 
 PCOD9010707
Probable space group: P -1
;
_chemical_formula_sum "Si O2"
_cell_formula_units_Z 16
_cell_length_a 13.422588
_cell_length_b 13.870188
_cell_length_c 8.994622
_cell_angle_alpha 54.897136
_cell_angle_beta 84.361434
_cell_angle_gamma 40.189654
_cell_volume 674.888085
_symmetry_space_group_name_H-M "P -1"
_symmetry_group_IT_number 2
_symmetry_cell_setting 'triclinic'
loop_
_space_group_symop_operation_xyz
x,y,z
-x,-y,-z
loop_
_atom_site_type_symbol
_atom_site_label
_atom_site_fract_x
_atom_site_fract_y
_atom_site_fract_z
Si Si1 0.166994 0.180331 0.490222
Si Si2 0.567593 0.750452 0.994326
Si Si3 0.774127 0.704550 0.225502
Si Si4 0.958808 0.916566 0.224375
Si Si5 0.145594 0.896063 0.442198
Si Si6 0.938068 0.395553 0.725934
Si Si7 0.530992 0.408439 0.737391
Si Si8 0.032461 0.670156 0.889624
O O1 0.129718 0.234666 0.271740
O O2 0.990065 0.437072 0.363883
O O3 0.108159 0.107352 0.615307
O O4 0.389080 0.965634 0.715489
O O5 0.610228 0.816842 0.039713
O O6 0.521481 0.677807 0.158739
O O7 0.772885 0.514686 0.081025
O O8 0.833825 0.780311 0.166324
O O9 0.776024 0.634755 0.442555
O O10 0.098171 0.867278 0.329353
O O11 0.051659 0.741570 0.234600
O O12 0.760535 0.182258 0.956544
O O13 0.086795 0.090406 0.259506
O O14 0.380048 0.632252 0.671440
O O15 0.000000 0.000000 0.500000
O O16 0.890375 0.452778 0.854885
O O17 0.500000 0.500000 0.500000
#
# Coordination Sequence:
#
# PCOD9010707 Si02
#       8
#     2   2   2   2   2   2   2   2
#     4   9  19  38  61  88 120 161 202 260 304 367
#     4  10  21  40  64  89 125 170 206 258 311 372
#     4   9  20  42  65  86 122 164 214 252 318 372
#     4  10  22  41  62  86 125 162 210 253 313 369
#     4  12  22  40  65  91 121 170 208 250 313 375
#     4  10  21  40  64  91 123 165 203 269 313 364
#     4  11  23  38  61  93 127 163 207 257 307 365
#     4  11  22  38  61  92 128 159 212 255 313 374
#
# _framework density 23.707636000000001
#
# number of rings (size 3 to 8) (size 9 to 14) (size 15 to 20)
#    0.000    1.750    2.500    2.250    0.000    6.500 
#    0.000   18.750    0.000    0.000    0.000    0.000 
#    0.000    0.000    0.000    0.000    0.000    0.000 
#
# Total GULP energy -89419.315998 kJ/mol
# GULP energy per Si atom -5588.707250 kJ/mol
# Density = 2.365368 g / cm^3
# Si number density = 23.707636 Si / 1000 Ang^3
#
#
#
# Elastic Constant Matrix: (Units=GPa)
#
#
# Indices 1 2 3 4 5 6 
#
# 1 66.6570 29.2097 27.9069 8.7019 17.1089 18.7226
# 2 29.2097 85.6811 51.6039 15.0004 0.7107 10.7720
# 3 27.9069 51.6039 131.8937 16.5290 20.6735 7.4695
# 4 8.7019 15.0004 16.5290 46.5556 7.0022 2.8392
# 5 17.1089 0.7107 20.6735 7.0022 39.8562 1.9271
# 6 18.7226 10.7720 7.4695 2.8392 1.9271 32.6772
#
#
#
# Elastic Compliance Matrix: (Units=1/GPa)
#
#
# Indices 1 2 3 4 5 6 
#
# 1 0.023253 -0.006225 -0.000435 -0.000170 -0.009102 -0.010620
# 2 -0.006225 0.018283 -0.006338 -0.003354 0.006275 -0.001090
# 3 -0.000435 -0.006338 0.011100 -0.001035 -0.005286 0.000203
# 4 -0.000170 -0.003354 -0.001035 0.023501 -0.003440 -0.000400
# 5 -0.009102 0.006275 -0.005286 -0.003440 0.032098 0.002760
# 6 -0.010620 -0.001090 0.000203 -0.000400 0.002760 0.036872
#
#
# Mechanical properties :
#
#
# Convention : Reuss Voigt Hill
#
# Bulk Modulus (GPa) = 37.53609 55.74144 46.63877
# Shear Modulus (GPa) = 27.78030 35.51857 31.64944
#
# Velocity S-wave (km/s) = 3.42685 3.87485 3.65771
# Velocity P-wave (km/s) = 5.61472 6.60169 6.12810
#
# Compressibility (1/GPa) = 0.02664102
#
# Stress axis : x y z
#
# Youngs Moduli (GPa) = 43.00431 54.69695 90.08775
#
# Poissons Ratio (x) = 0.34048 0.03921
# Poissons Ratio (y) = 0.26770 0.57093
# Poissons Ratio (z) = 0.01872 0.34664
#
# Static dielectric constant tensor:
#      x y z
#    x 2.016190 -0.016250 -0.044010 
#    y -0.016250 1.948030 0.021180 
#    z -0.044010 0.021180 1.937700 
# 
# From -- ./inp_files/312734.got.cif
#   From: 2010.05.17/outbox.cif.g08.bks.cpg/sg2_157_cif.got.tgz:312734.got - 2010.06.03 11:33:40.
