data_PCOD9010422
_publ_section_title
;
Structure prediction by ZEFSAII (Michael W. Deem and Ramdas Pophale) SiO2 
 PCOD9010422
Probable space group: P -1
;
_chemical_formula_sum "Si O2"
_cell_formula_units_Z 14
_cell_length_a 13.336741
_cell_length_b 14.681752
_cell_length_c 11.221319
_cell_angle_alpha 27.162101
_cell_angle_beta 36.078526
_cell_angle_gamma 44.786134
_cell_volume 590.331421
_symmetry_space_group_name_H-M "P -1"
_symmetry_group_IT_number 2
_symmetry_cell_setting 'triclinic'
loop_
_space_group_symop_operation_xyz
x,y,z
-x,-y,-z
loop_
_atom_site_type_symbol
_atom_site_label
_atom_site_fract_x
_atom_site_fract_y
_atom_site_fract_z
Si Si1 0.841950 0.872914 0.428503
Si Si2 0.341629 0.625473 0.459754
Si Si3 0.403902 0.035177 0.257313
Si Si4 0.123570 0.821840 0.628101
Si Si5 0.952367 0.758699 0.114392
Si Si6 0.815931 0.366616 0.644708
Si Si7 0.341070 0.047104 0.722402
O O1 0.734453 0.831459 0.698923
O O2 0.725587 0.844335 0.457123
O O3 0.006770 0.741652 0.420638
O O4 0.913137 0.105712 0.095955
O O5 0.500000 0.500000 0.500000
O O6 0.183644 0.667457 0.650418
O O7 0.262834 0.546035 0.503244
O O8 0.438539 0.835938 0.092952
O O9 0.303079 0.916341 0.392454
O O10 0.477480 0.907845 0.445137
O O11 0.000000 0.000000 0.500000
O O12 0.036456 0.732880 0.934759
O O13 0.866158 0.544901 0.478516
O O14 0.793036 0.901437 0.105551
O O15 0.680952 0.187907 0.014280
#
# Coordination Sequence:
#
# PCOD9010422 Si02
#       7
#     2   2   2   2   2   2   2
#     4  10  21  40  64  89 121 160 200 251 304 357
#     4  11  25  38  61  90 124 162 198 254 311 351
#     4  10  22  40  61  87 124 152 207 247 301 366
#     4  11  23  40  63  87 120 167 207 246 303 363
#     4  10  22  37  63  89 122 154 206 244 297 363
#     4  10  22  39  60  90 123 154 208 244 294 370
#     4  10  21  40  63  90 121 160 198 252 308 352
#
# _framework density 23.715492000000001
#
# number of rings (size 3 to 8) (size 9 to 14) (size 15 to 20)
#    0.000    1.714    0.000    6.000    6.000    2.857 
#    0.000    0.000    0.000    5.143    0.000    0.000 
#    0.000    0.000    0.000    0.000    0.000    0.000 
#
# Total GULP energy -78096.513907 kJ/mol
# GULP energy per Si atom -5578.322422 kJ/mol
# Density = 2.366151 g / cm^3
# Si number density = 23.715492 Si / 1000 Ang^3
#
#
#
# Elastic Constant Matrix: (Units=GPa)
#
#
# Indices 1 2 3 4 5 6 
#
# 1 136.6428 23.1054 1.9893 -11.5411 -17.8729 -19.1797
# 2 23.1054 88.7580 12.2282 4.8000 2.0918 -1.6943
# 3 1.9893 12.2282 43.5494 -5.4926 -20.4899 6.4429
# 4 -11.5411 4.8000 -5.4926 35.1281 3.5765 0.6436
# 5 -17.8729 2.0918 -20.4899 3.5765 33.2262 4.3294
# 6 -19.1797 -1.6943 6.4429 0.6436 4.3294 33.6928
#
#
#
# Elastic Compliance Matrix: (Units=1/GPa)
#
#
# Indices 1 2 3 4 5 6 
#
# 1 0.009468 -0.003206 0.003446 0.003350 0.006582 0.003660
# 2 -0.003206 0.013520 -0.007586 -0.003392 -0.007055 0.001277
# 3 0.003446 -0.007586 0.040172 0.005803 0.027754 -0.009779
# 4 0.003350 -0.003392 0.005803 0.030707 0.002323 -0.000258
# 5 0.006582 -0.007055 0.027754 0.002323 0.052074 -0.008651
# 6 0.003660 0.001277 -0.009779 -0.000258 -0.008651 0.034814
#
#
# Mechanical properties :
#
#
# Convention : Reuss Voigt Hill
#
# Bulk Modulus (GPa) = 20.63230 38.17735 29.40482
# Shear Modulus (GPa) = 23.62910 35.85124 29.74017
#
# Velocity S-wave (km/s) = 3.15994 3.89231 3.54508
# Velocity P-wave (km/s) = 4.69387 6.02769 5.40211
#
# Compressibility (1/GPa) = 0.04846770
#
# Stress axis : x y z
#
# Youngs Moduli (GPa) = 105.62026 73.96257 24.89300
#
# Poissons Ratio (x) = 0.23711 -0.08577
# Poissons Ratio (y) = 0.33860 0.18884
# Poissons Ratio (z) = -0.36393 0.56109
#
# Static dielectric constant tensor:
#      x y z
#    x 1.932150 0.012050 0.060020 
#    y 0.012050 1.925160 -0.009450 
#    z 0.060020 -0.009450 1.996440 
# 
# From -- ./inp_files/425763.got.cif
#   From: 2010.05.17/outbox.cif.g08.bks.cpg/sg2_213_cif.got.tgz:425763.got - 2010.06.03 11:33:40.
