data_PCOD9010872
_publ_section_title
;
Structure prediction by ZEFSAII (Michael W. Deem and Ramdas Pophale) SiO2 
 PCOD9010872
Probable space group: P -1
;
_chemical_formula_sum "Si O2"
_cell_formula_units_Z 15
_cell_length_a 9.062919
_cell_length_b 12.116935
_cell_length_c 12.271024
_cell_angle_alpha 38.434922
_cell_angle_beta 55.033750
_cell_angle_gamma 77.439221
_cell_volume 611.523191
_symmetry_space_group_name_H-M "P -1"
_symmetry_group_IT_number 2
_symmetry_cell_setting 'triclinic'
loop_
_space_group_symop_operation_xyz
x,y,z
-x,-y,-z
loop_
_atom_site_type_symbol
_atom_site_label
_atom_site_fract_x
_atom_site_fract_y
_atom_site_fract_z
Si Si1 0.106513 0.530921 0.760846
Si Si2 0.936449 0.320630 0.790373
Si Si3 0.972402 0.990445 0.389891
Si Si4 0.677124 0.463281 0.649999
Si Si5 0.584958 0.645946 0.749080
Si Si6 0.722550 0.791086 0.077447
Si Si7 0.741929 0.253473 0.266697
Si Si8 0.000000 0.000000 0.000000
O O1 0.207438 0.382093 0.828204
O O2 0.258385 0.714242 0.627373
O O3 0.027450 0.507594 0.688738
O O4 0.901884 0.451090 0.981242
O O5 0.785720 0.347607 0.752457
O O6 0.136505 0.332195 0.632891
O O7 0.872570 0.108984 0.035265
O O8 0.819696 0.776516 0.574611
O O9 0.850376 0.114548 0.316109
O O10 0.000000 0.000000 0.500000
O O11 0.185165 0.077221 0.171410
O O12 0.561796 0.521440 0.745626
O O13 0.519813 0.326184 0.732971
O O14 0.465777 0.776211 0.676804
O O15 0.500000 0.500000 0.000000
O O16 0.829155 0.927118 0.029852
#
# Coordination Sequence:
#
# PCOD9010872 Si02
#       8
#     2   2   2   2   2   2   2   1
#     4   9  19  37  66  91 126 166 211 256 325 385
#     4  10  23  41  64  95 124 170 213 271 320 393
#     4  11  25  40  64  99 134 169 217 271 324 386
#     4  11  23  41  66  92 129 166 220 264 325 392
#     4  12  24  41  68  97 130 172 216 266 329 394
#     4  10  21  43  64  93 130 169 215 268 324 388
#     4  10  21  40  64  94 131 169 212 265 320 386
#     4  10  22  42  64  88 128 166 212 268 320 382
#
# _framework density 24.528915000000001
#
# number of rings (size 3 to 8) (size 9 to 14) (size 15 to 20)
#    0.000    1.600    1.333    2.800    5.600    2.667 
#    2.400    4.000    0.000    0.000    0.000    0.000 
#    0.000    0.000    0.000    0.000    0.000    0.000 
#
# Total GULP energy -83524.780248 kJ/mol
# GULP energy per Si atom -5568.318683 kJ/mol
# Density = 2.447309 g / cm^3
# Si number density = 24.528915 Si / 1000 Ang^3
#
#
#
# Elastic Constant Matrix: (Units=GPa)
#
#
# Indices 1 2 3 4 5 6 
#
# 1 140.4790 24.6571 17.6165 1.9238 -12.9115 14.8871
# 2 24.6571 61.4787 5.8290 7.9876 1.1138 15.4435
# 3 17.6165 5.8290 30.2959 5.4439 -12.9290 6.9530
# 4 1.9238 7.9876 5.4439 23.5353 8.6707 0.3549
# 5 -12.9115 1.1138 -12.9290 8.6707 36.3834 -7.7959
# 6 14.8871 15.4435 6.9530 0.3549 -7.7959 54.8505
#
#
#
# Elastic Compliance Matrix: (Units=1/GPa)
#
#
# Indices 1 2 3 4 5 6 
#
# 1 0.008281 -0.002892 -0.003573 0.000611 0.001445 -0.000779
# 2 -0.002892 0.019441 -0.000611 -0.005582 -0.001535 -0.004793
# 3 -0.003573 -0.000611 0.046957 -0.017390 0.019158 -0.001975
# 4 0.000611 -0.005582 -0.017390 0.055291 -0.018846 0.000574
# 5 0.001445 -0.001535 0.019158 -0.018846 0.040079 0.003430
# 6 -0.000779 -0.004793 -0.001975 0.000574 0.003430 0.020527
#
#
# Mechanical properties :
#
#
# Convention : Reuss Voigt Hill
#
# Bulk Modulus (GPa) = 16.52149 36.49540 26.50845
# Shear Modulus (GPa) = 22.23175 35.23057 28.73116
#
# Velocity S-wave (km/s) = 3.01383 3.79395 3.42617
# Velocity P-wave (km/s) = 4.34293 5.83977 5.14606
#
# Compressibility (1/GPa) = 0.06052722
#
# Stress axis : x y z
#
# Youngs Moduli (GPa) = 120.75444 51.43783 21.29603
#
# Poissons Ratio (x) = 0.14878 0.07609
# Poissons Ratio (y) = 0.34927 0.01300
# Poissons Ratio (z) = 0.43146 0.03141
#
# Static dielectric constant tensor:
#      x y z
#    x 1.844740 0.208590 -0.195770 
#    y 0.208590 1.536370 0.413830 
#    z -0.195770 0.413830 1.566470 
# 
# From -- ./inp_files/221994.got.cif
#   From: 2010.05.17/outbox.cif.g08.bks.cpg/sg2_111_cif.got.tgz:221994.got - 2010.06.03 11:33:40.
