data_PCOD9010358
_publ_section_title
;
Structure prediction by ZEFSAII (Michael W. Deem and Ramdas Pophale) SiO2 
 PCOD9010358
Probable space group: P -1
;
_chemical_formula_sum "Si O2"
_cell_formula_units_Z 16
_cell_length_a 13.169534
_cell_length_b 15.359153
_cell_length_c 13.389206
_cell_angle_alpha 145.958474
_cell_angle_beta 32.627789
_cell_angle_gamma 121.577712
_cell_volume 667.527784
_symmetry_space_group_name_H-M "P -1"
_symmetry_group_IT_number 2
_symmetry_cell_setting 'triclinic'
loop_
_space_group_symop_operation_xyz
x,y,z
-x,-y,-z
loop_
_atom_site_type_symbol
_atom_site_label
_atom_site_fract_x
_atom_site_fract_y
_atom_site_fract_z
Si Si1 0.444752 0.143536 0.271983
Si Si2 0.582933 0.573457 0.208796
Si Si3 0.335261 0.643273 0.684490
Si Si4 0.746213 0.553792 0.755848
Si Si5 0.847710 0.244806 0.507826
Si Si6 0.067631 0.482169 0.786703
Si Si7 0.417214 0.868218 0.471089
Si Si8 0.317518 0.191243 0.119784
O O1 0.643334 0.181203 0.150806
O O2 0.203655 0.343233 0.637103
O O3 0.500000 0.000000 0.000000
O O4 0.468886 0.018305 0.226997
O O5 0.438886 0.569735 0.417197
O O6 0.435185 0.791155 0.494122
O O7 0.687438 0.391275 0.870647
O O8 0.812798 0.541124 0.034771
O O9 0.500000 0.500000 0.500000
O O10 0.107562 0.648258 0.896811
O O11 0.774915 0.358735 0.569218
O O12 0.632210 0.704301 0.905274
O O13 0.000000 0.500000 0.500000
O O14 0.621831 0.668330 0.066249
O O15 0.802673 0.086306 0.367651
O O16 0.103851 0.182424 0.256107
O O17 0.218557 0.335437 0.431839
O O18 0.500000 0.000000 0.500000
#
# Coordination Sequence:
#
# PCOD9010358 Si02
#       8
#     2   2   2   2   2   2   2   2
#     4   9  19  37  57  84 121 150 193 255 302 355
#     4  10  21  40  63  87 123 162 200 255 304 359
#     4  10  22  37  61  90 113 157 211 244 300 366
#     4   9  18  35  58  83 110 159 205 235 290 375
#     4   9  20  39  59  86 120 161 198 245 302 374
#     4   9  20  37  62  88 116 157 208 247 301 370
#     4  11  24  38  56  93 130 154 203 258 308 361
#     4   9  18  34  63  85 114 155 198 249 309 354
#
# _framework density 23.96904
#
# number of rings (size 3 to 8) (size 9 to 14) (size 15 to 20)
#    0.000    2.500    0.000    2.250    5.250    3.000 
#    0.000    2.500    5.500   10.500    0.000    0.000 
#    0.000    0.000    0.000    0.000    0.000    0.000 
#
# Total GULP energy -89128.904000 kJ/mol
# GULP energy per Si atom -5570.556500 kJ/mol
# Density = 2.391449 g / cm^3
# Si number density = 23.969040 Si / 1000 Ang^3
#
#
#
# Elastic Constant Matrix: (Units=GPa)
#
#
# Indices 1 2 3 4 5 6 
#
# 1 102.4196 70.9816 20.6104 19.7894 3.4329 8.2639
# 2 70.9816 148.8452 17.9376 23.2474 -13.2124 4.8744
# 3 20.6104 17.9376 44.7461 4.1448 -0.4174 -0.5153
# 4 19.7894 23.2474 4.1448 34.7272 4.4030 -0.0240
# 5 3.4329 -13.2124 -0.4174 4.4030 31.3148 -0.1370
# 6 8.2639 4.8744 -0.5153 -0.0240 -0.1370 63.3313
#
#
#
# Elastic Compliance Matrix: (Units=1/GPa)
#
#
# Indices 1 2 3 4 5 6 
#
# 1 0.016599 -0.007150 -0.004508 -0.003578 -0.004401 -0.001663
# 2 -0.007150 0.011446 -0.000841 -0.004274 0.006203 0.000057
# 3 -0.004508 -0.000841 0.024765 0.000119 0.000457 0.000855
# 4 -0.003578 -0.004274 0.000119 0.034475 -0.006253 0.000796
# 5 -0.004401 0.006203 0.000457 -0.006253 0.035919 0.000176
# 6 -0.001663 0.000057 0.000855 0.000796 0.000176 0.016010
#
#
# Mechanical properties :
#
#
# Convention : Reuss Voigt Hill
#
# Bulk Modulus (GPa) = 35.95539 57.23001 46.59270
# Shear Modulus (GPa) = 28.82132 38.30675 33.56404
#
# Velocity S-wave (km/s) = 3.47138 4.00206 3.74613
# Velocity P-wave (km/s) = 5.57680 6.72932 6.17998
#
# Compressibility (1/GPa) = 0.02781224
#
# Stress axis : x y z
#
# Youngs Moduli (GPa) = 60.24370 87.36994 40.37962
#
# Poissons Ratio (x) = 0.62469 0.18204
# Poissons Ratio (y) = 0.43074 0.03394
# Poissons Ratio (z) = 0.27160 0.07344
#
# Static dielectric constant tensor:
#      x y z
#    x 2.057000 -0.047050 0.023050 
#    y -0.047050 1.984740 0.054980 
#    z 0.023050 0.054980 1.895700 
# 
# From -- ./inp_files/534501.got.cif
#   From: 2010.05.17/outbox.cif.g08.bks.cpg/sg2_268_cif.got.tgz:534501.got - 2010.06.03 11:33:40.
