data_PCOD9010990
_publ_section_title
;
Structure prediction by ZEFSAII (Michael W. Deem and Ramdas Pophale) SiO2 
 PCOD9010990
Probable space group: P -1
;
_chemical_formula_sum "Si O2"
_cell_formula_units_Z 12
_cell_length_a 6.554461
_cell_length_b 17.622919
_cell_length_c 6.309747
_cell_angle_alpha 114.396356
_cell_angle_beta 106.618518
_cell_angle_gamma 53.559654
_cell_volume 533.150886
_symmetry_space_group_name_H-M "P -1"
_symmetry_group_IT_number 2
_symmetry_cell_setting 'triclinic'
loop_
_space_group_symop_operation_xyz
x,y,z
-x,-y,-z
loop_
_atom_site_type_symbol
_atom_site_label
_atom_site_fract_x
_atom_site_fract_y
_atom_site_fract_z
Si Si1 0.163792 0.431370 0.276837
Si Si2 0.281383 0.730427 0.584265
Si Si3 0.521839 0.062825 0.765486
Si Si4 0.969634 0.381526 0.797170
Si Si5 0.813547 0.871690 0.878490
Si Si6 0.482852 0.202062 0.577544
O O1 0.438322 0.344548 0.331393
O O2 0.175671 0.506828 0.206537
O O3 0.000000 0.500000 0.500000
O O4 0.018430 0.387472 0.065365
O O5 0.176549 0.669918 0.371033
O O6 0.302934 0.797201 0.490374
O O7 0.094593 0.794166 0.792814
O O8 0.572876 0.137370 0.743999
O O9 0.500000 0.000000 0.500000
O O10 0.725279 0.981703 0.896557
O O11 0.262527 0.122640 0.893426
O O12 0.251519 0.313060 0.699353
O O13 0.642177 0.840858 0.662867
#
# Coordination Sequence:
#
# PCOD9010990 Si02
#       6
#     2   2   2   2   2   2
#     4  11  23  45  67  93 139 176 219 280 326 396
#     4  11  23  43  70 102 130 179 225 269 339 393
#     4   9  19  41  66  92 138 173 213 282 327 387
#     4  10  24  44  63  98 135 176 222 273 332 393
#     4   9  21  42  65  95 134 175 221 271 329 397
#     4  10  21  40  64  99 134 169 223 276 327 391
#
# _framework density 22.5077
#
# number of rings (size 3 to 8) (size 9 to 14) (size 15 to 20)
#    0.000    2.000    1.667    0.500    2.333    1.333 
#   12.000    7.500    0.000    0.000    0.000    0.000 
#    0.000    0.000    0.000    0.000    0.000    0.000 
#
# Total GULP energy -67116.965719 kJ/mol
# GULP energy per Si atom -5593.080477 kJ/mol
# Density = 2.245647 g / cm^3
# Si number density = 22.507700 Si / 1000 Ang^3
#
#
#
# Elastic Constant Matrix: (Units=GPa)
#
#
# Indices 1 2 3 4 5 6 
#
# 1 69.1476 50.5033 42.9733 -24.2512 -14.2137 5.5882
# 2 50.5033 92.8449 48.8975 15.1249 -6.9815 3.7185
# 3 42.9733 48.8975 139.2030 -12.6662 -23.4727 -7.8801
# 4 -24.2512 15.1249 -12.6662 1.3812 -6.6647 -3.5592
# 5 -14.2137 -6.9815 -23.4727 -6.6647 29.7015 -1.5057
# 6 5.5882 3.7185 -7.8801 -3.5592 -1.5057 29.9014
#
#
#
# Elastic Compliance Matrix: (Units=1/GPa)
#
#
# Indices 1 2 3 4 5 6 
#
# 1 0.007365 0.003321 -0.007130 -0.023456 -0.006938 -0.006810
# 2 0.003321 0.006631 -0.000409 0.018651 0.007062 0.001023
# 3 -0.007130 -0.000409 0.009856 -0.004868 0.003369 0.003571
# 4 -0.023456 0.018651 -0.004868 -0.027462 -0.017020 -0.003345
# 5 -0.006938 0.007062 0.003369 -0.017020 0.030894 0.000836
# 6 -0.006810 0.001023 0.003571 -0.003345 0.000836 0.035174
#
#
# Mechanical properties :
#
#
# Convention : Reuss Voigt Hill
#
# Bulk Modulus (GPa) = 64.86566 65.10486 64.98526
# Shear Modulus (GPa) = 65.76097 22.78489 44.27293
#
# Velocity S-wave (km/s) = 5.41115 3.18514 4.43991
# Velocity P-wave (km/s) = 8.24152 6.52037 7.43094
#
# Compressibility (1/GPa) = 0.01541648
#
# Stress axis : x y z
#
# Youngs Moduli (GPa) = 135.77327 150.79891 101.46371
#
# Poissons Ratio (x) = -0.50078 0.72342
# Poissons Ratio (y) = -0.45088 0.04148
# Poissons Ratio (z) = 0.96805 0.06166
#
# Static dielectric constant tensor:
#      x y z
#    x 1.806000 0.019800 -0.005010 
#    y 0.019800 1.868620 -0.027610 
#    z -0.005010 -0.027610 1.852310 
# 
# From -- ./inp_files/3290.got.cif
#   From: 2010.05.17/outbox.cif.g08.bks.cpg/sg2_2_cif.got.tgz:3290.got - 2010.06.03 11:33:40.
