data_PCOD9010578
_publ_section_title
;
Structure prediction by ZEFSAII (Michael W. Deem and Ramdas Pophale) SiO2 
 PCOD9010578
Probable space group: P -1
;
_chemical_formula_sum "Si O2"
_cell_formula_units_Z 16
_cell_length_a 21.267644
_cell_length_b 6.423154
_cell_length_c 6.226222
_cell_angle_alpha 70.210138
_cell_angle_beta 83.062712
_cell_angle_gamma 57.002846
_cell_volume 669.028948
_symmetry_space_group_name_H-M "P -1"
_symmetry_group_IT_number 2
_symmetry_cell_setting 'triclinic'
loop_
_space_group_symop_operation_xyz
x,y,z
-x,-y,-z
loop_
_atom_site_type_symbol
_atom_site_label
_atom_site_fract_x
_atom_site_fract_y
_atom_site_fract_z
Si Si1 0.154354 0.647368 0.765161
Si Si2 0.794397 0.696572 0.518833
Si Si3 0.951601 0.869487 0.101324
Si Si4 0.697852 0.608483 0.916735
Si Si5 0.435197 0.956196 0.898670
Si Si6 0.094417 0.343523 0.166505
Si Si7 0.326521 0.799985 0.814296
Si Si8 0.545137 0.610165 0.327055
O O1 0.160555 0.572038 0.540559
O O2 0.237095 0.515051 0.882932
O O3 0.105301 0.950608 0.751260
O O4 0.116554 0.503356 0.941367
O O5 0.845350 0.741801 0.641676
O O6 0.752040 0.937420 0.289161
O O7 0.731053 0.689520 0.683830
O O8 0.011919 0.559710 0.218363
O O9 0.908929 0.869303 0.903061
O O10 0.000000 0.000000 0.000000
O O11 0.683003 0.379945 0.950248
O O12 0.622005 0.853825 0.957299
O O13 0.386555 0.870767 0.825559
O O14 0.456512 0.130988 0.688540
O O15 0.506160 0.714984 0.071961
O O16 0.366983 0.615004 0.655183
O O17 0.500000 0.500000 0.500000
#
# Coordination Sequence:
#
# PCOD9010578 Si02
#       8
#     2   2   2   2   2   2   2   2
#     4  10  21  40  63  95 134 169 221 276 324 401
#     4  11  23  42  67  99 132 177 223 271 337 399
#     4   9  19  41  66  92 134 171 217 280 329 388
#     4  10  23  42  60  95 135 172 215 274 330 388
#     4  10  21  41  62  88 136 166 219 282 320 385
#     4   9  21  42  65  94 132 173 218 278 331 389
#     4  11  23  41  64  94 132 174 216 275 328 395
#     4  10  22  39  63  94 124 174 223 267 332 388
#
# _framework density 23.915258999999999
#
# number of rings (size 3 to 8) (size 9 to 14) (size 15 to 20)
#    0.000    2.000    1.250    1.125    1.750    2.000 
#    9.000    5.625    0.000    0.000    0.000    0.000 
#    0.000    0.000    0.000    0.000    0.000    0.000 
#
# Total GULP energy -89424.392119 kJ/mol
# GULP energy per Si atom -5589.024507 kJ/mol
# Density = 2.386083 g / cm^3
# Si number density = 23.915259 Si / 1000 Ang^3
#
#
#
# Elastic Constant Matrix: (Units=GPa)
#
#
# Indices 1 2 3 4 5 6 
#
# 1 102.9529 46.3485 21.8260 5.7212 2.4101 14.1894
# 2 46.3485 128.1337 43.6631 11.8313 -9.2231 6.5128
# 3 21.8260 43.6631 36.6491 7.6218 -19.7054 9.1517
# 4 5.7212 11.8313 7.6218 33.5871 3.9604 -4.6390
# 5 2.4101 -9.2231 -19.7054 3.9604 29.2486 5.4180
# 6 14.1894 6.5128 9.1517 -4.6390 5.4180 51.7355
#
#
#
# Elastic Compliance Matrix: (Units=1/GPa)
#
#
# Indices 1 2 3 4 5 6 
#
# 1 0.012967 -0.001855 -0.010704 0.001900 -0.009064 -0.000310
# 2 -0.001855 0.016897 -0.030105 0.003928 -0.016404 0.005777
# 3 -0.010704 -0.030105 0.131642 -0.032010 0.089754 -0.028831
# 4 0.001900 0.003928 -0.032010 0.040176 -0.027995 0.011181
# 5 -0.009064 -0.016404 0.089754 -0.027995 0.098498 -0.024151
# 6 -0.000310 0.005777 -0.028831 0.011181 -0.024151 0.027319
#
#
# Mechanical properties :
#
#
# Convention : Reuss Voigt Hill
#
# Bulk Modulus (GPa) = 13.12711 54.60121 33.86416
# Shear Modulus (GPa) = 11.40982 33.30745 22.35864
#
# Velocity S-wave (km/s) = 2.18662 3.73598 3.06095
# Velocity P-wave (km/s) = 3.44616 6.44133 5.16559
#
# Compressibility (1/GPa) = 0.07617821
#
# Stress axis : x y z
#
# Youngs Moduli (GPa) = 77.11990 59.18173 7.59634
#
# Poissons Ratio (x) = 0.10979 0.08131
# Poissons Ratio (y) = 0.14307 0.22869
# Poissons Ratio (z) = 0.82546 1.78169
#
# Static dielectric constant tensor:
#      x y z
#    x 1.899930 0.023370 -0.002350 
#    y 0.023370 1.966880 0.019450 
#    z -0.002350 0.019450 1.909690 
# 
# From -- ./inp_files/121558.got.cif
#   From: 2010.05.17/outbox.cif.g08.bks.cpg/sg2_61_cif.got.tgz:121558.got - 2010.06.03 11:33:40.
