data_PCOD9010228
_publ_section_title
;
Structure prediction by ZEFSAII (Michael W. Deem and Ramdas Pophale) SiO2 
 PCOD9010228
Probable space group: P -1
;
_chemical_formula_sum "Si O2"
_cell_formula_units_Z 16
_cell_length_a 6.402216
_cell_length_b 18.063353
_cell_length_c 9.396913
_cell_angle_alpha 39.742011
_cell_angle_beta 103.585643
_cell_angle_gamma 101.941486
_cell_volume 674.724254
_symmetry_space_group_name_H-M "P -1"
_symmetry_group_IT_number 2
_symmetry_cell_setting 'triclinic'
loop_
_space_group_symop_operation_xyz
x,y,z
-x,-y,-z
loop_
_atom_site_type_symbol
_atom_site_label
_atom_site_fract_x
_atom_site_fract_y
_atom_site_fract_z
Si Si1 0.760689 0.006770 0.221724
Si Si2 0.310189 0.786675 0.924040
Si Si3 0.690670 0.765593 0.229353
Si Si4 0.480705 0.382450 0.986345
Si Si5 0.399687 0.834833 0.296396
Si Si6 0.988905 0.823908 0.405343
Si Si7 0.058544 0.372383 0.738125
Si Si8 0.788537 0.577207 0.830964
O O1 0.564617 0.912284 0.305107
O O2 0.969631 0.930798 0.349955
O O3 0.768168 0.084177 0.250551
O O4 0.713318 0.092360 0.954831
O O5 0.537879 0.796488 0.030656
O O6 0.376575 0.726878 0.875058
O O7 0.132596 0.701070 0.102452
O O8 0.517083 0.737724 0.367742
O O9 0.839259 0.862444 0.189985
O O10 0.865139 0.684031 0.313810
O O11 0.273108 0.380115 0.855656
O O12 0.640003 0.495199 0.825742
O O13 0.369651 0.393992 0.105152
O O14 0.217836 0.792819 0.434082
O O15 0.883117 0.703313 0.618076
O O16 0.000000 0.500000 0.500000
O O17 0.000000 0.500000 0.000000
#
# Coordination Sequence:
#
# PCOD9010228 Si02
#       8
#     2   2   2   2   2   2   2   2
#     4   9  19  36  58  93 129 164 203 263 320 382
#     4  10  21  40  62  92 130 166 200 262 331 383
#     4   9  20  34  56  91 128 162 200 254 314 383
#     4  10  25  46  65  89 125 170 219 264 320 372
#     4   9  18  35  57  92 132 166 206 253 320 385
#     4  11  22  36  65  93 126 169 220 257 317 374
#     4  11  24  38  64  96 130 165 211 261 326 384
#     4  11  26  46  66  89 126 173 224 270 304 368
#
# _framework density 23.713391000000001
#
# number of rings (size 3 to 8) (size 9 to 14) (size 15 to 20)
#    0.000    2.000    0.000    3.375    5.250    9.000 
#    0.000    0.625    0.000    3.750    0.000    0.000 
#    0.000    0.000    0.000    0.000    0.000    0.000 
#
# Total GULP energy -89153.870742 kJ/mol
# GULP energy per Si atom -5572.116921 kJ/mol
# Density = 2.365942 g / cm^3
# Si number density = 23.713391 Si / 1000 Ang^3
#
#
#
# Elastic Constant Matrix: (Units=GPa)
#
#
# Indices 1 2 3 4 5 6 
#
# 1 121.7148 37.7021 17.9505 -5.0174 -12.7699 -36.7162
# 2 37.7021 134.8024 17.7370 -21.7355 2.8493 -33.8315
# 3 17.9505 17.7370 32.1498 -9.0925 -3.4317 -13.3486
# 4 -5.0174 -21.7355 -9.0925 21.6335 -4.3585 14.8962
# 5 -12.7699 2.8493 -3.4317 -4.3585 29.2833 -11.3371
# 6 -36.7162 -33.8315 -13.3486 14.8962 -11.3371 54.0615
#
#
#
# Elastic Compliance Matrix: (Units=1/GPa)
#
#
# Indices 1 2 3 4 5 6 
#
# 1 0.012946 -0.001704 -0.002502 -0.005128 0.008766 0.010360
# 2 -0.001704 0.009919 -0.001297 0.007140 0.000296 0.002825
# 3 -0.002502 -0.001297 0.039894 0.012675 0.007712 0.005464
# 4 -0.005128 0.007140 0.012675 0.067742 0.003269 -0.013865
# 5 0.008766 0.000296 0.007712 0.003269 0.045818 0.016751
# 6 0.010360 0.002825 0.005464 -0.013865 0.016751 0.035983
#
#
# Mechanical properties :
#
#
# Convention : Reuss Voigt Hill
#
# Bulk Modulus (GPa) = 19.32240 48.38290 33.85265
# Shear Modulus (GPa) = 20.78487 35.34747 28.06617
#
# Velocity S-wave (km/s) = 2.96379 3.86503 3.44402
# Velocity P-wave (km/s) = 4.45848 6.35338 5.48833
#
# Compressibility (1/GPa) = 0.05175342
#
# Stress axis : x y z
#
# Youngs Moduli (GPa) = 77.24411 100.81174 25.06668
#
# Poissons Ratio (x) = 0.17176 0.06271
# Poissons Ratio (y) = 0.13161 0.03252
# Poissons Ratio (z) = 0.19324 0.13079
#
# Static dielectric constant tensor:
#      x y z
#    x 1.975750 -0.065360 0.046960 
#    y -0.065360 2.004700 0.037640 
#    z 0.046960 0.037640 1.949160 
# 
# From -- ./inp_files/368865.got.cif
#   From: 2010.05.17/outbox.cif.g08.bks.cpg/sg2_185_cif.got.tgz:368865.got - 2010.06.03 11:33:40.
