data_PCOD9010064
_publ_section_title
;
Structure prediction by ZEFSAII (Michael W. Deem and Ramdas Pophale) SiO2 
 PCOD9010064
Probable space group: P -1
;
_chemical_formula_sum "Si O2"
_cell_formula_units_Z 14
_cell_length_a 9.920195
_cell_length_b 16.403438
_cell_length_c 7.701907
_cell_angle_alpha 113.241097
_cell_angle_beta 61.949376
_cell_angle_gamma 148.317862
_cell_volume 580.874973
_symmetry_space_group_name_H-M "P -1"
_symmetry_group_IT_number 2
_symmetry_cell_setting 'triclinic'
loop_
_space_group_symop_operation_xyz
x,y,z
-x,-y,-z
loop_
_atom_site_type_symbol
_atom_site_label
_atom_site_fract_x
_atom_site_fract_y
_atom_site_fract_z
Si Si1 0.108339 0.674577 0.455282
Si Si2 0.018691 0.305683 0.789281
Si Si3 0.821477 0.650421 0.899473
Si Si4 0.364713 0.685808 0.568070
Si Si5 0.138281 0.161225 0.517357
Si Si6 0.698693 0.389022 0.106772
Si Si7 0.810251 0.831082 0.921537
O O1 0.174769 0.748513 0.290461
O O2 0.922820 0.650174 0.664167
O O3 0.921167 0.498682 0.398411
O O4 0.350408 0.757229 0.499781
O O5 0.028301 0.205124 0.671106
O O6 0.274974 0.493683 0.754871
O O7 0.018205 0.315397 0.006448
O O8 0.891425 0.785863 0.945567
O O9 0.500000 0.500000 0.000000
O O10 0.592814 0.722072 0.431570
O O11 0.421421 0.733491 0.776220
O O12 0.166823 0.180097 0.306837
O O13 0.000000 0.000000 0.500000
O O14 0.505870 0.295857 0.980082
O O15 0.000000 0.500000 0.000000
O O16 0.000000 0.000000 0.000000
#
# Coordination Sequence:
#
# PCOD9010064 Si02
#       7
#     2   2   2   2   2   2   2
#     4  10  21  40  61  96 132 158 217 285 325 390
#     4  11  22  40  67  98 126 177 226 275 333 398
#     4  12  22  36  67  98 129 175 225 275 332 401
#     4   9  21  37  64  92 132 170 214 278 339 385
#     4  11  23  44  66  92 137 180 225 278 340 408
#     4  10  21  40  67 100 136 174 228 280 340 411
#     4  11  24  42  64 101 139 176 222 285 343 402
#
# _framework density 24.101572000000001
#
# number of rings (size 3 to 8) (size 9 to 14) (size 15 to 20)
#    0.000    1.429    2.857    2.571    0.000    2.286 
#    7.714    2.143    0.000    5.143    0.000    0.000 
#    0.000    0.000    0.000    0.000    0.000    0.000 
#
# Total GULP energy -77989.788854 kJ/mol
# GULP energy per Si atom -5570.699204 kJ/mol
# Density = 2.404672 g / cm^3
# Si number density = 24.101572 Si / 1000 Ang^3
#
#
#
# Elastic Constant Matrix: (Units=GPa)
#
#
# Indices 1 2 3 4 5 6 
#
# 1 162.2233 16.5327 25.3465 -3.8531 37.4723 -27.5934
# 2 16.5327 63.1903 6.9963 17.8861 -1.1487 -26.0888
# 3 25.3465 6.9963 86.8446 5.7757 15.0390 -6.6512
# 4 -3.8531 17.8861 5.7757 25.7611 -9.1496 3.7481
# 5 37.4723 -1.1487 15.0390 -9.1496 41.8496 -2.6482
# 6 -27.5934 -26.0888 -6.6512 3.7481 -2.6482 32.7032
#
#
#
# Elastic Compliance Matrix: (Units=1/GPa)
#
#
# Indices 1 2 3 4 5 6 
#
# 1 0.009608 0.003248 -0.000356 -0.005433 -0.008908 0.010527
# 2 0.003248 0.042142 0.002805 -0.038360 -0.008575 0.040631
# 3 -0.000356 0.002805 0.013294 -0.007764 -0.005759 0.005065
# 4 -0.005433 -0.038360 -0.007764 0.080412 0.021383 -0.044249
# 5 -0.008908 -0.008575 -0.005759 0.021383 0.037435 -0.014947
# 6 0.010527 0.040631 0.005065 -0.044249 -0.014947 0.076764
#
#
# Mechanical properties :
#
#
# Convention : Reuss Voigt Hill
#
# Bulk Modulus (GPa) = 13.08248 45.55657 29.31953
# Shear Modulus (GPa) = 18.26551 37.62164 27.94357
#
# Velocity S-wave (km/s) = 2.75590 3.95519 3.40870
# Velocity P-wave (km/s) = 3.94544 6.30880 5.26153
#
# Compressibility (1/GPa) = 0.07643808
#
# Stress axis : x y z
#
# Youngs Moduli (GPa) = 104.07890 23.72942 75.22119
#
# Poissons Ratio (x) = -0.07707 0.02675
# Poissons Ratio (y) = -0.33801 -0.21100
# Poissons Ratio (z) = 0.03702 -0.06656
#
# Static dielectric constant tensor:
#      x y z
#    x 2.008360 0.048300 0.011670 
#    y 0.048300 1.937590 -0.058510 
#    z 0.011670 -0.058510 2.133700 
# 
# From -- ./inp_files/208222.got.cif
#   From: 2010.05.17/outbox.cif.g08.bks.cpg/sg2_105_cif.got.tgz:208222.got - 2010.06.03 11:33:40.
