data_PCOD9010920
_publ_section_title
;
Structure prediction by ZEFSAII (Michael W. Deem and Ramdas Pophale) SiO2 
 PCOD9010920
Probable space group: P -1
;
_chemical_formula_sum "Si O2"
_cell_formula_units_Z 16
_cell_length_a 16.810327
_cell_length_b 11.090677
_cell_length_c 19.492739
_cell_angle_alpha 37.120475
_cell_angle_beta 20.807981
_cell_angle_gamma 32.649742
_cell_volume 695.488974
_symmetry_space_group_name_H-M "P -1"
_symmetry_group_IT_number 2
_symmetry_cell_setting 'triclinic'
loop_
_space_group_symop_operation_xyz
x,y,z
-x,-y,-z
loop_
_atom_site_type_symbol
_atom_site_label
_atom_site_fract_x
_atom_site_fract_y
_atom_site_fract_z
Si Si1 0.098266 0.013574 0.631314
Si Si2 0.381473 0.612373 0.733542
Si Si3 0.360290 0.135580 0.721134
Si Si4 0.877438 0.636982 0.328144
Si Si5 0.889467 0.858027 0.585293
Si Si6 0.411714 0.870194 0.182589
Si Si7 0.097562 0.917747 0.104043
Si Si8 0.782923 0.475910 0.229174
O O1 0.353659 0.962185 0.490024
O O2 0.111022 0.772423 0.710802
O O3 0.115077 0.145872 0.491502
O O4 0.879937 0.121982 0.814280
O O5 0.598569 0.671678 0.557454
O O6 0.406472 0.392718 0.851683
O O7 0.416929 0.524149 0.665909
O O8 0.116749 0.826386 0.850938
O O9 0.170099 0.256816 0.757550
O O10 0.321955 0.323734 0.723649
O O11 0.324821 0.933203 0.875580
O O12 0.001222 0.757110 0.219433
O O13 0.041170 0.372123 0.326184
O O14 0.129920 0.907334 0.377814
O O15 0.630875 0.035919 0.747706
O O16 0.500000 0.000000 0.000000
O O17 0.000000 0.500000 0.000000
#
# Coordination Sequence:
#
# PCOD9010920 Si02
#       8
#     2   2   2   2   2   2   2   2
#     4  11  24  41  63  92 130 168 207 270 310 383
#     4  10  21  40  64  96 121 167 206 262 320 369
#     4  12  23  39  67  96 122 166 216 266 320 366
#     4  11  24  44  64  93 129 172 213 261 312 379
#     4  10  25  41  61  93 131 170 209 254 323 378
#     4  10  23  39  62  92 131 168 206 255 322 387
#     4  11  24  43  66  92 128 166 221 263 309 368
#     4  11  21  36  62  93 126 158 205 261 323 363
#
# _framework density 23.005398
#
# number of rings (size 3 to 8) (size 9 to 14) (size 15 to 20)
#    0.000    1.250    5.000    1.875    8.750    1.500 
#    0.000    0.625    0.000    0.000    0.000    0.000 
#    0.000    0.000    0.000    0.000    0.000    0.000 
#
# Total GULP energy -89357.716007 kJ/mol
# GULP energy per Si atom -5584.857250 kJ/mol
# Density = 2.295304 g / cm^3
# Si number density = 23.005398 Si / 1000 Ang^3
#
#
#
# Elastic Constant Matrix: (Units=GPa)
#
#
# Indices 1 2 3 4 5 6 
#
# 1 67.4301 -2.4953 26.8984 -22.1109 8.7249 -2.2644
# 2 -2.4953 22.4647 18.4688 -8.7002 4.5415 -1.4601
# 3 26.8984 18.4688 107.0591 -23.8148 20.6868 8.1388
# 4 -22.1109 -8.7002 -23.8148 27.3709 -1.2511 -4.2543
# 5 8.7249 4.5415 20.6868 -1.2511 40.2087 -13.1862
# 6 -2.2644 -1.4601 8.1388 -4.2543 -13.1862 24.1773
#
#
#
# Elastic Compliance Matrix: (Units=1/GPa)
#
#
# Indices 1 2 3 4 5 6 
#
# 1 0.025063 0.015940 -0.004221 0.022761 -0.001820 0.007744
# 2 0.015940 0.066228 -0.010406 0.026972 -0.000292 0.013583
# 3 -0.004221 -0.010406 0.015966 0.005085 -0.009463 -0.010665
# 4 0.022761 0.026972 0.005085 0.069544 -0.004570 0.011794
# 5 -0.001820 -0.000292 -0.009463 -0.004570 0.037440 0.022613
# 6 0.007744 0.013583 -0.010665 0.011794 0.022613 0.060905
#
#
# Mechanical properties :
#
#
# Convention : Reuss Voigt Hill
#
# Bulk Modulus (GPa) = 9.10061 31.41085 20.25573
# Shear Modulus (GPa) = 16.17354 28.62350 22.39852
#
# Velocity S-wave (km/s) = 2.65435 3.53116 3.12367
# Velocity P-wave (km/s) = 3.65494 5.50534 4.67265
#
# Compressibility (1/GPa) = 0.10988273
#
# Stress axis : x y z
#
# Youngs Moduli (GPa) = 39.89982 15.09945 62.63117
#
# Poissons Ratio (x) = -0.24069 0.26435
# Poissons Ratio (y) = -0.63600 0.65176
# Poissons Ratio (z) = 0.16841 0.15713
#
# Static dielectric constant tensor:
#      x y z
#    x 1.945660 -0.013920 0.012190 
#    y -0.013920 1.860960 0.003450 
#    z 0.012190 0.003450 1.876980 
# 
# From -- ./inp_files/428107.got.cif
#   From: 2010.05.17/outbox.cif.g08.bks.cpg/sg2_215_cif.got.tgz:428107.got - 2010.06.03 11:33:40.
