data_PCOD9010545
_publ_section_title
;
Structure prediction by ZEFSAII (Michael W. Deem and Ramdas Pophale) SiO2 
 PCOD9010545
Probable space group: P -1
;
_chemical_formula_sum "Si O2"
_cell_formula_units_Z 12
_cell_length_a 13.604272
_cell_length_b 9.214404
_cell_length_c 9.070871
_cell_angle_alpha 135.533889
_cell_angle_beta 43.360587
_cell_angle_gamma 137.137159
_cell_volume 489.689016
_symmetry_space_group_name_H-M "P -1"
_symmetry_group_IT_number 2
_symmetry_cell_setting 'triclinic'
loop_
_space_group_symop_operation_xyz
x,y,z
-x,-y,-z
loop_
_atom_site_type_symbol
_atom_site_label
_atom_site_fract_x
_atom_site_fract_y
_atom_site_fract_z
Si Si1 0.317077 0.255119 0.409170
Si Si2 0.248423 0.908875 0.639775
Si Si3 0.455035 0.626670 0.270771
Si Si4 0.888438 0.221700 0.623736
Si Si5 0.121878 0.631037 0.828405
Si Si6 0.656983 0.332060 0.143232
O O1 0.366166 0.427272 0.343510
O O2 0.468714 0.203307 0.231835
O O3 0.303781 0.404601 0.668451
O O4 0.163227 0.013053 0.397212
O O5 0.348130 0.755245 0.430965
O O6 0.144949 0.843339 0.557122
O O7 0.134914 0.836077 0.856024
O O8 0.382158 0.171573 0.693886
O O9 0.500000 0.500000 0.000000
O O10 0.059896 0.415946 0.625302
O O11 0.762681 0.317493 0.884031
O O12 0.286846 0.744595 0.823255
O O13 0.000000 0.500000 0.000000
#
# Coordination Sequence:
#
# PCOD9010545 Si02
#       6
#     2   2   2   2   2   2
#     4  11  22  39  66  97 126 167 220 268 319 377
#     4  11  23  44  63  97 133 167 217 269 318 384
#     4  11  25  39  68  99 131 165 216 275 325 375
#     4  11  24  39  69  94 132 171 211 266 325 383
#     4  10  23  42  67  93 132 180 212 256 326 392
#     4  10  21  40  63  94 127 170 215 260 316 384
#
# _framework density 24.505348999999999
#
# number of rings (size 3 to 8) (size 9 to 14) (size 15 to 20)
#    0.000    1.333    1.667    4.000    7.000    0.667 
#    0.000    0.000    0.000    7.000    0.000    0.000 
#    0.000    0.000    0.000    0.000    0.000    0.000 
#
# Total GULP energy -67039.570467 kJ/mol
# GULP energy per Si atom -5586.630872 kJ/mol
# Density = 2.444957 g / cm^3
# Si number density = 24.505349 Si / 1000 Ang^3
#
#
#
# Elastic Constant Matrix: (Units=GPa)
#
#
# Indices 1 2 3 4 5 6 
#
# 1 124.8928 51.9192 27.1644 -10.1172 32.7087 5.2382
# 2 51.9192 131.2478 8.5184 -11.9905 9.1261 -7.7232
# 3 27.1644 8.5184 85.7442 -9.1181 5.7234 -13.1371
# 4 -10.1172 -11.9905 -9.1181 32.2820 -5.2809 4.2976
# 5 32.7087 9.1261 5.7234 -5.2809 31.5410 -4.7179
# 6 5.2382 -7.7232 -13.1371 4.2976 -4.7179 39.0969
#
#
#
# Elastic Compliance Matrix: (Units=1/GPa)
#
#
# Indices 1 2 3 4 5 6 
#
# 1 0.015020 -0.005026 -0.004238 0.000132 -0.014252 -0.006164
# 2 -0.005026 0.009725 0.001155 0.002454 0.003061 0.003082
# 3 -0.004238 0.001155 0.013833 0.002741 0.002830 0.005484
# 4 0.000132 0.002454 0.002741 0.033602 0.004009 -0.001822
# 5 -0.014252 0.003061 0.002830 0.004009 0.047059 0.008703
# 6 -0.006164 0.003082 0.005484 -0.001822 0.008703 0.030105
#
#
# Mechanical properties :
#
#
# Convention : Reuss Voigt Hill
#
# Bulk Modulus (GPa) = 44.72237 57.45431 51.08834
# Shear Modulus (GPa) = 28.89894 37.53616 33.21755
#
# Velocity S-wave (km/s) = 3.43781 3.91801 3.68574
# Velocity P-wave (km/s) = 5.83504 6.63055 6.24548
#
# Compressibility (1/GPa) = 0.02236017
#
# Stress axis : x y z
#
# Youngs Moduli (GPa) = 66.57825 102.82598 72.28921
#
# Poissons Ratio (x) = 0.51682 0.30636
# Poissons Ratio (y) = 0.33463 -0.08349
# Poissons Ratio (z) = 0.28216 -0.11876
#
# Static dielectric constant tensor:
#      x y z
#    x 1.979000 -0.016570 -0.067730 
#    y -0.016570 1.946260 -0.003880 
#    z -0.067730 -0.003880 2.087910 
# 
# From -- ./inp_files/179514.got.cif
#   From: 2010.05.17/outbox.cif.g08.bks.cpg/sg2_90_cif.got.tgz:179514.got - 2010.06.03 11:33:40.
