data_PCOD9010735
_publ_section_title
;
Structure prediction by ZEFSAII (Michael W. Deem and Ramdas Pophale) SiO2 
 PCOD9010735
Probable space group: P -1
;
_chemical_formula_sum "Si O2"
_cell_formula_units_Z 15
_cell_length_a 13.898874
_cell_length_b 9.145185
_cell_length_c 9.274057
_cell_angle_alpha 75.052837
_cell_angle_beta 148.495933
_cell_angle_gamma 101.107005
_cell_volume 594.283689
_symmetry_space_group_name_H-M "P -1"
_symmetry_group_IT_number 2
_symmetry_cell_setting 'triclinic'
loop_
_space_group_symop_operation_xyz
x,y,z
-x,-y,-z
loop_
_atom_site_type_symbol
_atom_site_label
_atom_site_fract_x
_atom_site_fract_y
_atom_site_fract_z
Si Si1 0.198596 0.017182 0.031689
Si Si2 0.411150 0.160745 0.503698
Si Si3 0.135827 0.287294 0.661376
Si Si4 0.742713 0.481116 0.602656
Si Si5 0.054568 0.705444 0.868702
Si Si6 0.303147 0.586355 0.753062
Si Si7 0.500000 0.500000 0.500000
Si Si8 0.464655 0.174720 0.896578
O O1 0.394279 0.938050 0.244060
O O2 0.251874 0.075095 0.242078
O O3 0.067552 0.876394 0.895638
O O4 0.129643 0.163263 0.811182
O O5 0.417021 0.329246 0.404379
O O6 0.387685 0.180869 0.636525
O O7 0.182260 0.461427 0.705587
O O8 0.308081 0.229809 0.795385
O O9 0.967627 0.288779 0.332155
O O10 0.768790 0.388173 0.511792
O O11 0.532348 0.528666 0.355034
O O12 0.892094 0.606622 0.748091
O O13 0.768348 0.395090 0.814860
O O14 0.500000 0.500000 0.000000
O O15 0.351505 0.739542 0.852897
O O16 0.500000 0.000000 0.000000
#
# Coordination Sequence:
#
# PCOD9010735 Si02
#       8
#     2   2   2   2   2   2   1   2
#     4  11  23  40  64  92 132 170 214 262 328 387
#     4  11  25  37  63 101 126 165 216 276 318 374
#     4  10  21  40  64  90 124 177 212 254 322 396
#     4  10  22  39  69  97 125 171 214 267 319 384
#     4  10  21  42  64  91 130 177 213 247 330 402
#     4   9  20  35  64  92 125 169 215 258 322 384
#     4  12  22  40  66  98 130 154 220 276 304 376
#     4  11  22  38  63  96 132 157 217 279 321 357
#
# _framework density 25.240469000000001
#
# number of rings (size 3 to 8) (size 9 to 14) (size 15 to 20)
#    0.000    1.600    2.667    2.800    7.467    0.000 
#    0.000    2.667    0.000    4.000    0.000    0.000 
#    0.000    0.000    0.000    0.000    0.000    0.000 
#
# Total GULP energy -83551.093985 kJ/mol
# GULP energy per Si atom -5570.072932 kJ/mol
# Density = 2.518302 g / cm^3
# Si number density = 25.240469 Si / 1000 Ang^3
#
#
#
# Elastic Constant Matrix: (Units=GPa)
#
#
# Indices 1 2 3 4 5 6 
#
# 1 92.3289 34.0310 22.5221 17.1328 -4.5057 6.7863
# 2 34.0310 200.6208 89.9113 39.8686 -33.2627 5.1781
# 3 22.5221 89.9113 131.4940 13.1216 -29.2059 11.2890
# 4 17.1328 39.8686 13.1216 54.4680 0.1135 -2.6760
# 5 -4.5057 -33.2627 -29.2059 0.1135 29.8891 -4.8152
# 6 6.7863 5.1781 11.2890 -2.6760 -4.8152 28.4951
#
#
#
# Elastic Compliance Matrix: (Units=1/GPa)
#
#
# Indices 1 2 3 4 5 6 
#
# 1 0.012181 -0.001107 -0.000978 -0.002917 -0.000778 -0.002718
# 2 -0.001107 0.009083 -0.004247 -0.005250 0.005942 0.000807
# 3 -0.000978 -0.004247 0.012391 0.000283 0.006794 -0.002730
# 4 -0.002917 -0.005250 0.000283 0.023199 -0.005650 0.002761
# 5 -0.000778 0.005942 0.006794 -0.005650 0.047234 0.003865
# 6 -0.002718 0.000807 -0.002730 0.002761 0.003865 0.037588
#
#
# Mechanical properties :
#
#
# Convention : Reuss Voigt Hill
#
# Bulk Modulus (GPa) = 47.63727 79.70807 63.67267
# Shear Modulus (GPa) = 30.99091 41.10242 36.04666
#
# Velocity S-wave (km/s) = 3.50784 4.03976 3.78316
# Velocity P-wave (km/s) = 5.94314 7.30805 6.66065
#
# Compressibility (1/GPa) = 0.02099197
#
# Stress axis : x y z
#
# Youngs Moduli (GPa) = 82.09822 110.09286 80.70179
#
# Poissons Ratio (x) = 0.12188 0.07889
# Poissons Ratio (y) = 0.09089 0.34273
# Poissons Ratio (z) = 0.08026 0.46755
#
# Static dielectric constant tensor:
#      x y z
#    x 1.796310 0.102290 -0.363460 
#    y 0.102290 2.214100 -0.239420 
#    z -0.363460 -0.239420 2.273770 
# 
# From -- ./inp_files/295078.got.cif
#   From: 2010.05.17/outbox.cif.g08.bks.cpg/sg2_148_cif.got.tgz:295078.got - 2010.06.03 11:33:40.
