data_PCOD9010820
_publ_section_title
;
Structure prediction by ZEFSAII (Michael W. Deem and Ramdas Pophale) SiO2 
 PCOD9010820
Probable space group: P -1
;
_chemical_formula_sum "Si O2"
_cell_formula_units_Z 16
_cell_length_a 14.490330
_cell_length_b 9.374893
_cell_length_c 21.498938
_cell_angle_alpha 53.092295
_cell_angle_beta 18.616857
_cell_angle_gamma 64.121063
_cell_volume 636.970224
_symmetry_space_group_name_H-M "P -1"
_symmetry_group_IT_number 2
_symmetry_cell_setting 'triclinic'
loop_
_space_group_symop_operation_xyz
x,y,z
-x,-y,-z
loop_
_atom_site_type_symbol
_atom_site_label
_atom_site_fract_x
_atom_site_fract_y
_atom_site_fract_z
Si Si1 0.605181 0.905053 0.263176
Si Si2 0.404441 0.106704 0.445341
Si Si3 0.849175 0.592109 0.484841
Si Si4 0.566353 0.692677 0.951365
Si Si5 0.701838 0.551722 0.453206
Si Si6 0.503865 0.149714 0.162357
Si Si7 0.191098 0.693983 0.754256
Si Si8 0.596001 0.508994 0.095035
O O1 0.433326 0.658038 0.443523
O O2 0.502532 0.020027 0.347836
O O3 0.488788 0.958416 0.258111
O O4 0.000000 0.000000 0.000000
O O5 0.170939 0.199310 0.554776
O O6 0.741596 0.277764 0.222415
O O7 0.213076 0.908657 0.664934
O O8 0.646250 0.484504 0.579196
O O9 0.666696 0.476346 0.695059
O O10 0.220372 0.642233 0.219019
O O11 0.681366 0.876617 0.779080
O O12 0.764492 0.685395 0.887160
O O13 0.500000 0.500000 0.000000
O O14 0.503399 0.671444 0.538202
O O15 0.097685 0.703190 0.148318
O O16 0.436015 0.292435 0.215722
O O17 0.870427 0.525070 0.964479
#
# Coordination Sequence:
#
# PCOD9010820 Si02
#       8
#     2   2   2   2   2   2   2   2
#     4  12  23  35  64  95 131 171 213 254 318 380
#     4  10  22  39  59  94 134 170 206 261 319 380
#     4  10  21  40  64  93 126 163 213 266 317 379
#     4   9  21  41  68  91 122 167 211 263 325 375
#     4  10  23  40  62  95 132 171 209 260 321 384
#     4  10  21  41  63  93 131 167 212 264 317 376
#     4  10  22  39  63  92 134 169 207 263 319 377
#     4  11  20  37  68  90 123 168 215 260 315 378
#
# _framework density 25.118912999999999
#
# number of rings (size 3 to 8) (size 9 to 14) (size 15 to 20)
#    0.000    1.750    1.250    2.625    1.750    3.500 
#    0.000    0.625    5.500    7.500    0.000    0.000 
#    0.000    0.000    0.000    0.000    0.000    0.000 
#
# Total GULP energy -89418.620898 kJ/mol
# GULP energy per Si atom -5588.663806 kJ/mol
# Density = 2.506174 g / cm^3
# Si number density = 25.118913 Si / 1000 Ang^3
#
#
#
# Elastic Constant Matrix: (Units=GPa)
#
#
# Indices 1 2 3 4 5 6 
#
# 1 154.9895 27.6343 22.5610 6.7785 30.7537 -1.4856
# 2 27.6343 127.1231 31.1618 17.9134 0.0431 12.1936
# 3 22.5610 31.1618 51.6086 21.4856 4.9518 11.1506
# 4 6.7785 17.9134 21.4856 44.8989 -0.4467 5.5658
# 5 30.7537 0.0431 4.9518 -0.4467 37.1854 5.8457
# 6 -1.4856 12.1936 11.1506 5.5658 5.8457 38.2854
#
#
#
# Elastic Compliance Matrix: (Units=1/GPa)
#
#
# Indices 1 2 3 4 5 6 
#
# 1 0.008552 -0.001446 -0.002868 0.000256 -0.007107 0.002676
# 2 -0.001446 0.009632 -0.004444 -0.001234 0.002071 -0.001966
# 3 -0.002868 -0.004444 0.029187 -0.011091 -0.000784 -0.005465
# 4 0.000256 -0.001234 -0.011091 0.028140 0.001718 -0.000720
# 5 -0.007107 0.002071 -0.000784 0.001718 0.033856 -0.006126
# 6 0.002676 -0.001966 -0.005465 -0.000720 -0.006126 0.029481
#
#
# Mechanical properties :
#
#
# Convention : Reuss Voigt Hill
#
# Bulk Modulus (GPa) = 33.49580 55.15949 44.32764
# Shear Modulus (GPa) = 30.06335 40.89820 35.48078
#
# Velocity S-wave (km/s) = 3.46329 4.03945 3.76242
# Velocity P-wave (km/s) = 5.41815 6.61538 6.04647
#
# Compressibility (1/GPa) = 0.02985449
#
# Stress axis : x y z
#
# Youngs Moduli (GPa) = 116.93137 103.82212 34.26181
#
# Poissons Ratio (x) = 0.15016 0.09827
# Poissons Ratio (y) = 0.16912 0.15225
# Poissons Ratio (z) = 0.33537 0.46137
#
# Static dielectric constant tensor:
#      x y z
#    x 3.301440 0.053420 -1.019360 
#    y 0.053420 1.928750 -0.115280 
#    z -1.019360 -0.115280 2.922000 
# 
# From -- ./inp_files/294060.got.cif
#   From: 2010.05.17/outbox.cif.g08.bks.cpg/sg2_148_cif.got.tgz:294060.got - 2010.06.03 11:33:40.
