data_PCOD9010042
_publ_section_title
;
Structure prediction by ZEFSAII (Michael W. Deem and Ramdas Pophale) SiO2 
 PCOD9010042
Probable space group: P -1
;
_chemical_formula_sum "Si O2"
_cell_formula_units_Z 16
_cell_length_a 14.594088
_cell_length_b 12.948254
_cell_length_c 7.724001
_cell_angle_alpha 114.764388
_cell_angle_beta 109.105050
_cell_angle_gamma 30.236937
_cell_volume 665.508778
_symmetry_space_group_name_H-M "P -1"
_symmetry_group_IT_number 2
_symmetry_cell_setting 'triclinic'
loop_
_space_group_symop_operation_xyz
x,y,z
-x,-y,-z
loop_
_atom_site_type_symbol
_atom_site_label
_atom_site_fract_x
_atom_site_fract_y
_atom_site_fract_z
Si Si1 0.459962 0.302207 0.929341
Si Si2 0.294335 0.019834 0.700904
Si Si3 0.834431 0.312350 0.255456
Si Si4 0.690927 0.668070 0.597860
Si Si5 0.257408 0.305296 0.728423
Si Si6 0.756566 0.088243 0.711394
Si Si7 0.530051 0.450663 0.281996
Si Si8 0.110125 0.323642 0.092394
O O1 0.287100 0.525053 0.869080
O O2 0.385193 0.252302 0.897673
O O3 0.633358 0.128560 0.784715
O O4 0.510271 0.340769 0.135298
O O5 0.254583 0.176778 0.683097
O O6 0.511324 0.798082 0.666124
O O7 0.217509 0.994684 0.519553
O O8 0.213958 0.120668 0.912841
O O9 0.814954 0.435043 0.469587
O O10 0.724393 0.312181 0.255218
O O11 0.048631 0.079024 0.202181
O O12 0.660458 0.750700 0.446591
O O13 0.766978 0.699838 0.769289
O O14 0.046731 0.556420 0.785586
O O15 0.624636 0.326442 0.763897
O O16 0.500000 0.500000 0.500000
O O17 0.000000 0.500000 0.000000
#
# Coordination Sequence:
#
# PCOD9010042 Si02
#       8
#     2   2   2   2   2   2   2   2
#     4  10  23  43  66  93 128 167 213 265 314 380
#     4  11  21  39  63  95 130 169 210 259 323 377
#     4  10  21  41  71  92 123 168 214 267 315 375
#     4  11  20  39  63  91 130 171 213 258 313 377
#     4  10  21  40  61  93 129 165 213 263 305 377
#     4  11  22  43  69  94 123 168 219 261 320 379
#     4  11  25  44  64  94 130 163 210 268 324 383
#     4  10  22  35  55  89 129 171 208 252 312 378
#
# _framework density 24.041755999999999
#
# number of rings (size 3 to 8) (size 9 to 14) (size 15 to 20)
#    0.000    1.500    3.750    4.125    0.000    6.500 
#    2.250    0.000    0.000    0.000    0.000    0.000 
#    0.000    0.000    0.000    0.000    0.000    0.000 
#
# Total GULP energy -89509.433405 kJ/mol
# GULP energy per Si atom -5594.339588 kJ/mol
# Density = 2.398704 g / cm^3
# Si number density = 24.041756 Si / 1000 Ang^3
#
#
#
# Elastic Constant Matrix: (Units=GPa)
#
#
# Indices 1 2 3 4 5 6 
#
# 1 69.6887 37.1404 16.8576 0.4540 5.0911 -14.0760
# 2 37.1404 117.5387 21.9307 13.8108 -5.2843 -34.7340
# 3 16.8576 21.9307 120.0474 -1.4920 20.1328 -10.2062
# 4 0.4540 13.8108 -1.4920 30.1500 -5.5257 5.1524
# 5 5.0911 -5.2843 20.1328 -5.5257 41.9879 2.4789
# 6 -14.0760 -34.7340 -10.2062 5.1524 2.4789 36.6091
#
#
#
# Elastic Compliance Matrix: (Units=1/GPa)
#
#
# Indices 1 2 3 4 5 6 
#
# 1 0.017870 -0.005269 -0.001022 0.001420 -0.002244 0.001539
# 2 -0.005269 0.015567 -0.001260 -0.009222 0.001185 0.013610
# 3 -0.001022 -0.001260 0.009618 -0.000042 -0.004736 0.001419
# 4 0.001420 -0.009222 -0.000042 0.040704 0.004887 -0.014275
# 5 -0.002244 0.001185 -0.004736 0.004887 0.027364 -0.003599
# 6 0.001539 0.013610 0.001419 -0.014275 -0.003599 0.043469
#
#
# Mechanical properties :
#
#
# Convention : Reuss Voigt Hill
#
# Bulk Modulus (GPa) = 35.77441 51.01469 43.39455
# Shear Modulus (GPa) = 27.93116 37.17246 32.55181
#
# Velocity S-wave (km/s) = 3.41218 3.93639 3.68362
# Velocity P-wave (km/s) = 5.51692 6.47499 6.01506
#
# Compressibility (1/GPa) = 0.02795295
#
# Stress axis : x y z
#
# Youngs Moduli (GPa) = 55.95850 64.24011 103.96993
#
# Poissons Ratio (x) = 0.33847 0.10627
# Poissons Ratio (y) = 0.29484 0.13102
# Poissons Ratio (z) = 0.05719 0.08095
#
# Static dielectric constant tensor:
#      x y z
#    x 1.963300 -0.005460 0.037680 
#    y -0.005460 2.014490 0.000750 
#    z 0.037680 0.000750 1.978970 
# 
# From -- ./inp_files/315762.got.cif
#   From: 2010.05.17/outbox.cif.g08.bks.cpg/sg2_158_cif.got.tgz:315762.got - 2010.06.03 11:33:40.
