data_PCOD9010039
_publ_section_title
;
Structure prediction by ZEFSAII (Michael W. Deem and Ramdas Pophale) SiO2 
 PCOD9010039
Probable space group: P -1
;
_chemical_formula_sum "Si O2"
_cell_formula_units_Z 16
_cell_length_a 18.435411
_cell_length_b 8.947265
_cell_length_c 7.835055
_cell_angle_alpha 102.082224
_cell_angle_beta 54.965141
_cell_angle_gamma 130.987359
_cell_volume 768.992824
_symmetry_space_group_name_H-M "P -1"
_symmetry_group_IT_number 2
_symmetry_cell_setting 'triclinic'
loop_
_space_group_symop_operation_xyz
x,y,z
-x,-y,-z
loop_
_atom_site_type_symbol
_atom_site_label
_atom_site_fract_x
_atom_site_fract_y
_atom_site_fract_z
Si Si1 0.225160 0.999634 0.711625
Si Si2 0.743115 0.394834 0.576627
Si Si3 0.375606 0.437950 0.700569
Si Si4 0.965347 0.453001 0.235303
Si Si5 0.624712 0.217570 0.335494
Si Si6 0.355796 0.013210 0.233041
Si Si7 0.780588 0.157898 0.940715
Si Si8 0.583197 0.458242 0.947689
O O1 0.261180 0.218387 0.724618
O O2 0.330599 0.054190 0.463899
O O3 0.222699 0.939364 0.898385
O O4 0.110767 0.793005 0.720538
O O5 0.706122 0.310242 0.414723
O O6 0.676138 0.200129 0.746644
O O7 0.691544 0.504657 0.708063
O O8 0.879986 0.494753 0.418954
O O9 0.500000 0.500000 0.500000
O O10 0.385479 0.621453 0.669501
O O11 0.365790 0.426955 0.914610
O O12 0.089564 0.617260 0.203835
O O13 0.000000 0.500000 0.000000
O O14 0.686189 0.183626 0.104636
O O15 0.500000 0.000000 0.500000
O O16 0.266565 0.976467 0.199107
O O17 0.486875 0.212133 0.049008
O O18 0.500000 0.500000 0.000000
#
# Coordination Sequence:
#
# PCOD9010039 Si02
#       8
#     2   2   2   2   2   2   2   2
#     4  10  21  40  61  93 124 169 209 263 315 381
#     4  11  22  39  62  92 126 163 215 261 316 373
#     4  12  23  39  60  87 133 170 204 256 332 384
#     4   9  19  41  69  90 125 168 217 267 313 375
#     4  12  22  37  63  94 124 163 213 260 317 384
#     4  11  21  39  63  95 127 162 212 266 319 383
#     4  11  21  41  69  94 122 168 215 265 321 370
#     4  12  24  39  60  94 132 166 208 265 323 386
#
# _framework density 20.806436000000001
#
# number of rings (size 3 to 8) (size 9 to 14) (size 15 to 20)
#    0.000    1.000    5.000    4.875    0.000    2.000 
#    0.000    0.625    0.000    6.750    0.000    0.000 
#    0.000    0.000    0.000    0.000    0.000    0.000 
#
# Total GULP energy -89223.338222 kJ/mol
# GULP energy per Si atom -5576.458639 kJ/mol
# Density = 2.075908 g / cm^3
# Si number density = 20.806436 Si / 1000 Ang^3
#
#
#
# Elastic Constant Matrix: (Units=GPa)
#
#
# Indices 1 2 3 4 5 6 
#
# 1 53.0213 21.1899 18.6643 -4.6369 1.1755 -9.4960
# 2 21.1899 95.6202 26.7319 -12.3975 -17.8755 1.6355
# 3 18.6643 26.7319 91.5083 -2.7541 -12.7308 -5.9752
# 4 -4.6369 -12.3975 -2.7541 26.3923 9.9061 -0.4930
# 5 1.1755 -17.8755 -12.7308 9.9061 38.9464 4.1117
# 6 -9.4960 1.6355 -5.9752 -0.4930 4.1117 40.1317
#
#
#
# Elastic Compliance Matrix: (Units=1/GPa)
#
#
# Indices 1 2 3 4 5 6 
#
# 1 0.023619 -0.004891 -0.003690 0.003728 -0.005732 0.005872
# 2 -0.004891 0.013619 -0.002343 0.003351 0.005048 -0.002537
# 3 -0.003690 -0.002343 0.012863 -0.001746 0.003606 0.000747
# 4 0.003728 0.003351 -0.001746 0.043933 -0.010542 0.002105
# 5 -0.005732 0.005048 0.003606 -0.010542 0.032500 -0.004484
# 6 0.005872 -0.002537 0.000747 0.002105 -0.004484 0.027007
#
#
# Mechanical properties :
#
#
# Convention : Reuss Voigt Hill
#
# Bulk Modulus (GPa) = 35.39703 41.48024 38.43864
# Shear Modulus (GPa) = 27.05527 32.66499 29.86013
#
# Velocity S-wave (km/s) = 3.60992 3.96655 3.79243
# Velocity P-wave (km/s) = 5.86727 6.39981 6.13932
#
# Compressibility (1/GPa) = 0.02825095
#
# Stress axis : x y z
#
# Youngs Moduli (GPa) = 42.33901 73.42921 77.74184
#
# Poissons Ratio (x) = 0.35914 0.28690
# Poissons Ratio (y) = 0.20708 0.18217
# Poissons Ratio (z) = 0.15625 0.17207
#
# Static dielectric constant tensor:
#      x y z
#    x 1.842210 -0.060170 -0.042940 
#    y -0.060170 1.769980 0.047520 
#    z -0.042940 0.047520 1.827700 
# 
# From -- ./inp_files/327712.got.cif
#   From: 2010.05.17/outbox.cif.g08.bks.cpg/sg2_164_cif.got.tgz:327712.got - 2010.06.03 11:33:40.
