data_PCOD9010383
_publ_section_title
;
Structure prediction by ZEFSAII (Michael W. Deem and Ramdas Pophale) SiO2 
 PCOD9010383
Probable space group: P -1
;
_chemical_formula_sum "Si O2"
_cell_formula_units_Z 16
_cell_length_a 17.460026
_cell_length_b 5.797092
_cell_length_c 24.555838
_cell_angle_alpha 88.829264
_cell_angle_beta 159.933220
_cell_angle_gamma 79.978848
_cell_volume 704.541470
_symmetry_space_group_name_H-M "P -1"
_symmetry_group_IT_number 2
_symmetry_cell_setting 'triclinic'
loop_
_space_group_symop_operation_xyz
x,y,z
-x,-y,-z
loop_
_atom_site_type_symbol
_atom_site_label
_atom_site_fract_x
_atom_site_fract_y
_atom_site_fract_z
Si Si1 0.729562 0.162030 0.590096
Si Si2 0.773290 0.676954 0.893404
Si Si3 0.127648 0.610692 0.624298
Si Si4 0.126549 0.636595 0.412938
Si Si5 0.844729 0.222039 0.786055
Si Si6 0.295158 0.775194 0.632040
Si Si7 0.371939 0.328042 0.898019
Si Si8 0.518465 0.081996 0.630479
O O1 0.904714 0.155104 0.656220
O O2 0.871983 0.143786 0.741500
O O3 0.428771 0.458696 0.392341
O O4 0.665548 0.930131 0.538134
O O5 0.604619 0.606989 0.819808
O O6 0.542326 0.888882 0.695880
O O7 0.000000 0.500000 0.000000
O O8 0.907991 0.789466 0.021531
O O9 0.277998 0.694669 0.682626
O O10 0.320617 0.388106 0.799206
O O11 0.000000 0.500000 0.500000
O O12 0.875912 0.888312 0.482982
O O13 0.135786 0.719895 0.480170
O O14 0.412631 0.365680 0.589542
O O15 0.920235 0.545077 0.270700
O O16 0.786087 0.017908 0.780069
O O17 0.500000 0.500000 0.000000
O O18 0.500000 0.000000 0.000000
#
# Coordination Sequence:
#
# PCOD9010383 Si02
#       8
#     2   2   2   2   2   2   2   2
#     4  10  21  40  63  88 131 187 227 274 358 451
#     4  12  22  41  65 102 143 178 235 308 356 431
#     4  11  25  49  77 103 142 198 254 305 369 462
#     4  11  23  44  70  96 133 186 239 293 370 463
#     4  10  22  38  57  94 135 175 230 289 350 426
#     4  11  24  44  77 104 141 196 256 303 377 448
#     4  12  28  47  74 109 149 185 242 321 386 438
#     4  11  21  39  68  89 131 192 238 282 361 445
#
# _framework density 22.709807000000001
#
# number of rings (size 3 to 8) (size 9 to 14) (size 15 to 20)
#    0.000    1.000    3.750    3.000    3.500    1.000 
#    0.000    0.000    0.000    0.000    0.000    0.000 
#    0.000    0.000    0.000    0.000    0.000    0.000 
#
# Total GULP energy -89196.276326 kJ/mol
# GULP energy per Si atom -5574.767270 kJ/mol
# Density = 2.265812 g / cm^3
# Si number density = 22.709807 Si / 1000 Ang^3
#
#
#
# Elastic Constant Matrix: (Units=GPa)
#
#
# Indices 1 2 3 4 5 6 
#
# 1 119.5552 29.7888 52.2226 5.9720 -3.5176 -0.1036
# 2 29.7888 95.4980 33.1344 21.9001 -11.5576 -15.4221
# 3 52.2226 33.1344 68.7619 32.9193 -8.3482 -2.5200
# 4 5.9720 21.9001 32.9193 51.1276 1.3241 -2.5816
# 5 -3.5176 -11.5576 -8.3482 1.3241 44.8201 8.8305
# 6 -0.1036 -15.4221 -2.5200 -2.5816 8.8305 37.9132
#
#
#
# Elastic Compliance Matrix: (Units=1/GPa)
#
#
# Indices 1 2 3 4 5 6 
#
# 1 0.014750 -0.001819 -0.014707 0.008553 -0.002188 -0.000585
# 2 -0.001819 0.013985 -0.003270 -0.003485 0.002020 0.004759
# 3 -0.014707 -0.003270 0.038448 -0.021884 0.006153 -0.001738
# 4 0.008553 -0.003485 -0.021884 0.034323 -0.005468 0.000762
# 5 -0.002188 0.002020 0.006153 -0.005468 0.024945 -0.004958
# 6 -0.000585 0.004759 -0.001738 0.000762 -0.004958 0.029401
#
#
# Mechanical properties :
#
#
# Convention : Reuss Voigt Hill
#
# Bulk Modulus (GPa) = 36.24270 57.12296 46.68283
# Shear Modulus (GPa) = 24.43298 38.01681 31.22490
#
# Velocity S-wave (km/s) = 3.28362 4.09593 3.71206
# Velocity P-wave (km/s) = 5.51089 6.89760 6.24286
#
# Compressibility (1/GPa) = 0.02759176
#
# Stress axis : x y z
#
# Youngs Moduli (GPa) = 67.79872 71.50314 26.00883
#
# Poissons Ratio (x) = 0.13004 0.38251
# Poissons Ratio (y) = 0.12330 0.08505
# Poissons Ratio (z) = 0.99712 0.23382
#
# Static dielectric constant tensor:
#      x y z
#    x 1.870020 0.043560 0.039830 
#    y 0.043560 1.897140 -0.129050 
#    z 0.039830 -0.129050 1.870330 
# 
# From -- ./inp_files/612686.got.cif
#   From: 2010.05.17/outbox.cif.g08.bks.cpg/sg2_307_cif.got.tgz:612686.got - 2010.06.03 11:33:40.
