data_PCOD9010595
_publ_section_title
;
Structure prediction by ZEFSAII (Michael W. Deem and Ramdas Pophale) SiO2 
 PCOD9010595
Probable space group: P -1
;
_chemical_formula_sum "Si O2"
_cell_formula_units_Z 14
_cell_length_a 12.204901
_cell_length_b 6.802302
_cell_length_c 8.668243
_cell_angle_alpha 108.181478
_cell_angle_beta 88.128841
_cell_angle_gamma 115.822186
_cell_volume 610.947773
_symmetry_space_group_name_H-M "P -1"
_symmetry_group_IT_number 2
_symmetry_cell_setting 'triclinic'
loop_
_space_group_symop_operation_xyz
x,y,z
-x,-y,-z
loop_
_atom_site_type_symbol
_atom_site_label
_atom_site_fract_x
_atom_site_fract_y
_atom_site_fract_z
Si Si1 0.304796 0.507487 0.666783
Si Si2 0.911545 0.361560 0.610182
Si Si3 0.099461 0.393779 0.874490
Si Si4 0.247162 0.366767 0.293731
Si Si5 0.490752 0.426360 0.805314
Si Si6 0.254514 0.943134 0.697171
Si Si7 0.880255 0.112336 0.994877
O O1 0.212997 0.381398 0.782565
O O2 0.268972 0.364809 0.475472
O O3 0.439816 0.567886 0.734218
O O4 0.285308 0.731173 0.685099
O O5 0.841119 0.510876 0.696476
O O6 0.816665 0.123866 0.477948
O O7 0.000000 0.500000 0.500000
O O8 0.997453 0.341583 0.732784
O O9 0.024326 0.216726 0.969070
O O10 0.141876 0.660664 0.986997
O O11 0.377265 0.528293 0.249536
O O12 0.194690 0.113262 0.159216
O O13 0.382993 0.167601 0.735332
O O14 0.500000 0.500000 0.000000
O O15 0.165613 0.940946 0.839894
#
# Coordination Sequence:
#
# PCOD9010595 Si02
#       7
#     2   2   2   2   2   2   2
#     4  10  24  45  66  95 137 173 217 273 328 395
#     4  11  21  43  68  95 135 171 219 270 329 400
#     4  10  22  43  64  99 134 173 212 265 347 390
#     4  11  24  42  66  97 131 175 223 270 324 387
#     4  12  26  45  67 101 129 175 233 268 323 389
#     4  10  23  46  66  96 137 177 215 276 328 383
#     4  10  21  40  63  96 133 168 216 269 331 386
#
# _framework density 22.915216999999998
#
# number of rings (size 3 to 8) (size 9 to 14) (size 15 to 20)
#    0.000    1.429    5.714    0.429    2.000    8.571 
#    2.571    0.000    0.000    0.000    0.000    0.000 
#    0.000    0.000    0.000    0.000    0.000    0.000 
#
# Total GULP energy -78343.433974 kJ/mol
# GULP energy per Si atom -5595.959570 kJ/mol
# Density = 2.286306 g / cm^3
# Si number density = 22.915217 Si / 1000 Ang^3
#
#
#
# Elastic Constant Matrix: (Units=GPa)
#
#
# Indices 1 2 3 4 5 6 
#
# 1 122.4942 31.5502 46.9876 -0.4835 -10.6182 16.2440
# 2 31.5502 129.0058 44.8329 14.8608 -18.2737 28.5010
# 3 46.9876 44.8329 147.3551 31.2150 -11.9027 8.8747
# 4 -0.4835 14.8608 31.2150 43.4385 8.4792 5.1555
# 5 -10.6182 -18.2737 -11.9027 8.4792 40.7086 -9.7436
# 6 16.2440 28.5010 8.8747 5.1555 -9.7436 38.7150
#
#
#
# Elastic Compliance Matrix: (Units=1/GPa)
#
#
# Indices 1 2 3 4 5 6 
#
# 1 0.010180 -0.000988 -0.003496 0.003411 -0.000304 -0.003274
# 2 -0.000988 0.010627 -0.001852 -0.002199 0.003009 -0.005935
# 3 -0.003496 -0.001852 0.010230 -0.007706 0.003421 0.002372
# 4 0.003411 -0.002199 -0.007706 0.031907 -0.010158 -0.004852
# 5 -0.000304 0.003009 0.003421 -0.010158 0.030421 0.006137
# 6 -0.003274 -0.005935 0.002372 -0.004852 0.006137 0.033219
#
#
# Mechanical properties :
#
#
# Convention : Reuss Voigt Hill
#
# Bulk Modulus (GPa) = 54.44567 71.73295 63.08931
# Shear Modulus (GPa) = 34.39279 42.93805 38.66542
#
# Velocity S-wave (km/s) = 3.87831 4.33341 4.11216
# Velocity P-wave (km/s) = 6.62316 7.51063 7.08081
#
# Compressibility (1/GPa) = 0.01836693
#
# Stress axis : x y z
#
# Youngs Moduli (GPa) = 98.23002 94.09599 97.74740
#
# Poissons Ratio (x) = 0.09293 0.34170
# Poissons Ratio (y) = 0.09701 0.18105
# Poissons Ratio (z) = 0.34338 0.17429
#
# Static dielectric constant tensor:
#      x y z
#    x 1.841520 -0.033080 -0.012590 
#    y -0.033080 1.874090 -0.008730 
#    z -0.012590 -0.008730 1.866380 
# 
# From -- ./inp_files/245460.got.cif
#   From: 2010.05.17/outbox.cif.g08.bks.cpg/sg2_123_cif.got.tgz:245460.got - 2010.06.03 11:33:40.
