data_PCOD9010650
_publ_section_title
;
Structure prediction by ZEFSAII (Michael W. Deem and Ramdas Pophale) SiO2 
 PCOD9010650
Probable space group: P -1
;
_chemical_formula_sum "Si O2"
_cell_formula_units_Z 12
_cell_length_a 13.626521
_cell_length_b 12.334343
_cell_length_c 21.638160
_cell_angle_alpha 22.972823
_cell_angle_beta 20.240287
_cell_angle_gamma 31.132694
_cell_volume 490.229071
_symmetry_space_group_name_H-M "P -1"
_symmetry_group_IT_number 2
_symmetry_cell_setting 'triclinic'
loop_
_space_group_symop_operation_xyz
x,y,z
-x,-y,-z
loop_
_atom_site_type_symbol
_atom_site_label
_atom_site_fract_x
_atom_site_fract_y
_atom_site_fract_z
Si Si1 0.339905 0.174499 0.452903
Si Si2 0.728332 0.173533 0.867749
Si Si3 0.982355 0.582864 0.755244
Si Si4 0.193356 0.032241 0.933567
Si Si5 0.180998 0.856152 0.378329
Si Si6 0.564250 0.787803 0.753276
O O1 0.374537 0.515623 0.250077
O O2 0.471995 0.068539 0.366582
O O3 0.005056 0.122953 0.690584
O O4 0.500000 0.000000 0.500000
O O5 0.476944 0.935536 0.129613
O O6 0.812994 0.143148 0.906849
O O7 0.910026 0.845405 0.699763
O O8 0.118689 0.336218 0.839966
O O9 0.676827 0.463721 0.970421
O O10 0.192211 0.660763 0.533829
O O11 0.493299 0.979939 0.751807
O O12 0.000000 0.000000 0.000000
O O13 0.894985 0.729246 0.582609
#
# Coordination Sequence:
#
# PCOD9010650 Si02
#       6
#     2   2   2   2   2   2
#     4  11  25  48  71  94 141 187 229 283 343 406
#     4  11  25  44  70 101 139 184 228 279 348 407
#     4  10  21  40  64 103 150 167 223 283 348 401
#     4  10  22  39  71 107 132 179 229 277 344 406
#     4  11  23  38  68 104 137 182 222 284 344 404
#     4  11  23  41  72 100 136 180 226 283 342 405
#
# _framework density 24.478351
#
# number of rings (size 3 to 8) (size 9 to 14) (size 15 to 20)
#    0.000    1.333    1.667    4.500    4.667    3.333 
#    0.000    0.833    0.000    0.000    0.000    0.000 
#    0.000    0.000    0.000    0.000    0.000    0.000 
#
# Total GULP energy -66927.055791 kJ/mol
# GULP energy per Si atom -5577.254649 kJ/mol
# Density = 2.442264 g / cm^3
# Si number density = 24.478351 Si / 1000 Ang^3
#
#
#
# Elastic Constant Matrix: (Units=GPa)
#
#
# Indices 1 2 3 4 5 6 
#
# 1 68.3212 17.5621 30.2607 -10.1069 17.0740 -12.7729
# 2 17.5621 98.9719 40.7594 -13.2031 9.5837 -23.6945
# 3 30.2607 40.7594 188.3004 24.9968 3.0610 -13.9897
# 4 -10.1069 -13.2031 24.9968 50.6650 -2.9131 12.5314
# 5 17.0740 9.5837 3.0610 -2.9131 51.6314 2.2151
# 6 -12.7729 -23.6945 -13.9897 12.5314 2.2151 37.5232
#
#
#
# Elastic Compliance Matrix: (Units=1/GPa)
#
#
# Indices 1 2 3 4 5 6 
#
# 1 0.018923 0.000102 -0.003162 0.003932 -0.006055 0.004371
# 2 0.000102 0.013488 -0.002825 0.003157 -0.002474 0.006590
# 3 -0.003162 -0.002825 0.007233 -0.005275 0.000777 0.001552
# 4 0.003932 0.003157 -0.005275 0.025750 0.000190 -0.007246
# 5 -0.006055 -0.002474 0.000777 0.000190 0.021996 -0.004696
# 6 0.004371 0.006590 0.001552 -0.007246 -0.004696 0.035575
#
#
# Mechanical properties :
#
#
# Convention : Reuss Voigt Hill
#
# Bulk Modulus (GPa) = 35.87651 59.19531 47.53591
# Shear Modulus (GPa) = 34.71577 45.76466 40.24022
#
# Velocity S-wave (km/s) = 3.77002 4.32858 4.05892
# Velocity P-wave (km/s) = 5.79991 7.01550 6.43647
#
# Compressibility (1/GPa) = 0.02787339
#
# Stress axis : x y z
#
# Youngs Moduli (GPa) = 52.84560 74.14150 138.25055
#
# Poissons Ratio (x) = -0.00753 0.43713
# Poissons Ratio (y) = -0.00537 0.39057
# Poissons Ratio (z) = 0.16709 0.20946
#
# Static dielectric constant tensor:
#      x y z
#    x 2.102070 -0.068780 -0.069830 
#    y -0.068780 1.984270 -0.001530 
#    z -0.069830 -0.001530 1.986460 
# 
# From -- ./inp_files/612073.got.cif
#   From: 2010.05.17/outbox.cif.g08.bks.cpg/sg2_307_cif.got.tgz:612073.got - 2010.06.03 11:33:40.
