data_PCOD9010577
_publ_section_title
;
Structure prediction by ZEFSAII (Michael W. Deem and Ramdas Pophale) SiO2 
 PCOD9010577
Probable space group: P -1
;
_chemical_formula_sum "Si O2"
_cell_formula_units_Z 16
_cell_length_a 11.486974
_cell_length_b 9.212035
_cell_length_c 20.255092
_cell_angle_alpha 45.796035
_cell_angle_beta 142.914977
_cell_angle_gamma 105.316991
_cell_volume 683.087208
_symmetry_space_group_name_H-M "P -1"
_symmetry_group_IT_number 2
_symmetry_cell_setting 'triclinic'
loop_
_space_group_symop_operation_xyz
x,y,z
-x,-y,-z
loop_
_atom_site_type_symbol
_atom_site_label
_atom_site_fract_x
_atom_site_fract_y
_atom_site_fract_z
Si Si1 0.012226 0.492350 0.833604
Si Si2 0.165846 0.804757 0.394249
Si Si3 0.673935 0.360576 0.689069
Si Si4 0.721770 0.457863 0.180995
Si Si5 0.584215 0.992307 0.741739
Si Si6 0.942458 0.568676 0.559239
Si Si7 0.178970 0.220398 0.213022
Si Si8 0.170110 0.977649 0.710815
O O1 0.898754 0.366416 0.791651
O O2 0.805924 0.711026 0.727145
O O3 0.109905 0.560110 0.796464
O O4 0.271466 0.280136 0.064000
O O5 0.469745 0.544481 0.598225
O O6 0.019518 0.696910 0.347470
O O7 0.085314 0.054794 0.234337
O O8 0.088138 0.902252 0.403597
O O9 0.500000 0.500000 0.500000
O O10 0.757698 0.068220 0.814656
O O11 0.785553 0.176279 0.288385
O O12 0.813461 0.487913 0.281229
O O13 0.420767 0.728130 0.945596
O O14 0.298202 0.237741 0.560552
O O15 0.579793 0.965488 0.669687
O O16 0.846079 0.771491 0.389585
O O17 0.000000 0.500000 0.000000
#
# Coordination Sequence:
#
# PCOD9010577 Si02
#       8
#     2   2   2   2   2   2   2   2
#     4  11  21  40  63  95 129 172 212 261 333 386
#     4  11  23  42  65  93 135 170 211 274 319 389
#     4  11  22  38  62  95 129 167 213 263 324 393
#     4  11  24  40  71  93 126 177 217 270 323 384
#     4  10  21  40  63  95 134 164 214 267 323 394
#     4  11  24  43  68  96 129 173 221 267 326 381
#     4  10  22  38  61  95 130 169 209 267 324 385
#     4  11  24  47  64  94 134 167 229 267 319 382
#
# _framework density 23.423071
#
# number of rings (size 3 to 8) (size 9 to 14) (size 15 to 20)
#    0.000    1.250    3.750    2.625    0.000    2.000 
#    0.000    2.500    0.000    0.000    0.000    0.000 
#    0.000    0.000    0.000    0.000    0.000    0.000 
#
# Total GULP energy -89317.463492 kJ/mol
# GULP energy per Si atom -5582.341468 kJ/mol
# Density = 2.336976 g / cm^3
# Si number density = 23.423071 Si / 1000 Ang^3
#
#
#
# Elastic Constant Matrix: (Units=GPa)
#
#
# Indices 1 2 3 4 5 6 
#
# 1 92.4451 -3.1828 1.0094 -13.4910 -6.4481 -4.6237
# 2 -3.1828 61.1059 17.6561 -4.4450 -10.3728 8.9282
# 3 1.0094 17.6561 43.1532 -2.9117 -20.2785 -3.5619
# 4 -13.4910 -4.4450 -2.9117 33.2599 8.1516 -0.8148
# 5 -6.4481 -10.3728 -20.2785 8.1516 30.3192 -11.2851
# 6 -4.6237 8.9282 -3.5619 -0.8148 -11.2851 37.6069
#
#
#
# Elastic Compliance Matrix: (Units=1/GPa)
#
#
# Indices 1 2 3 4 5 6 
#
# 1 0.011829 0.000670 0.001726 0.004179 0.003774 0.002682
# 2 0.000670 0.019867 -0.009693 0.002553 -0.002562 -0.006266
# 3 0.001726 -0.009693 0.044229 -0.004684 0.034165 0.016853
# 4 0.004179 0.002553 -0.004684 0.034528 -0.011904 -0.003360
# 5 0.003774 -0.002562 0.034165 -0.011904 0.068070 0.024477
# 6 0.002682 -0.006266 0.016853 -0.003360 0.024477 0.037277
#
#
# Mechanical properties :
#
#
# Convention : Reuss Voigt Hill
#
# Bulk Modulus (GPa) = 16.30531 25.29662 20.80096
# Shear Modulus (GPa) = 19.93332 32.31863 26.12597
#
# Velocity S-wave (km/s) = 2.92038 3.71857 3.34338
# Velocity P-wave (km/s) = 4.28343 5.40928 4.87894
#
# Compressibility (1/GPa) = 0.06132973
#
# Stress axis : x y z
#
# Youngs Moduli (GPa) = 84.53990 50.33481 22.60984
#
# Poissons Ratio (x) = -0.03374 -0.03902
# Poissons Ratio (y) = -0.05666 0.21916
# Poissons Ratio (z) = -0.14589 0.48791
#
# Static dielectric constant tensor:
#      x y z
#    x 1.899690 -0.005870 -0.022190 
#    y -0.005870 1.947470 -0.046750 
#    z -0.022190 -0.046750 1.918020 
# 
# From -- ./inp_files/594046.got.cif
#   From: 2010.05.17/outbox.cif.g08.bks.cpg/sg2_298_cif.got.tgz:594046.got - 2010.06.03 11:33:40.
