data_PCOD9010380
_publ_section_title
;
Structure prediction by ZEFSAII (Michael W. Deem and Ramdas Pophale) SiO2 
 PCOD9010380
Probable space group: P -1
;
_chemical_formula_sum "Si O2"
_cell_formula_units_Z 12
_cell_length_a 14.652290
_cell_length_b 9.099580
_cell_length_c 9.846076
_cell_angle_alpha 71.700359
_cell_angle_beta 46.076782
_cell_angle_gamma 43.242384
_cell_volume 597.099919
_symmetry_space_group_name_H-M "P -1"
_symmetry_group_IT_number 2
_symmetry_cell_setting 'triclinic'
loop_
_space_group_symop_operation_xyz
x,y,z
-x,-y,-z
loop_
_atom_site_type_symbol
_atom_site_label
_atom_site_fract_x
_atom_site_fract_y
_atom_site_fract_z
Si Si1 0.812586 0.583061 0.226496
Si Si2 0.243079 0.397069 0.399309
Si Si3 0.322503 0.023819 0.901570
Si Si4 0.945179 0.928063 0.464726
Si Si5 0.008150 0.893618 0.886360
Si Si6 0.701083 0.899062 0.796987
O O1 0.799268 0.593002 0.400490
O O2 0.833702 0.388016 0.207102
O O3 0.653652 0.840033 0.249886
O O4 0.000000 0.500000 0.000000
O O5 0.467923 0.234402 0.210190
O O6 0.217415 0.274015 0.362137
O O7 0.103130 0.651511 0.405975
O O8 0.187816 0.021549 0.968149
O O9 0.224844 0.160775 0.106430
O O10 0.738392 0.039838 0.669729
O O11 0.000000 0.000000 0.500000
O O12 0.956717 0.009613 0.291106
O O13 0.000000 0.000000 0.000000
O O14 0.500000 0.000000 0.000000
#
# Coordination Sequence:
#
# PCOD9010380 Si02
#       6
#     2   2   2   2   2   2
#     4  10  21  40  63  88 128 167 213 258 307 385
#     4  11  23  40  69  92 125 173 215 263 322 381
#     4  10  22  43  62  96 128 166 218 262 315 383
#     4  12  22  42  66  93 133 165 216 268 322 379
#     4  11  25  41  63  93 130 173 209 265 326 373
#     4  10  23  42  66  98 126 167 217 262 318 385
#
# _framework density 20.097138000000001
#
# number of rings (size 3 to 8) (size 9 to 14) (size 15 to 20)
#    0.000    1.333    3.333    2.000    7.000    0.667 
#    0.000    0.833    0.000    0.000    0.000    0.000 
#    0.000    0.000    0.000    0.000    0.000    0.000 
#
# Total GULP energy -66821.668395 kJ/mol
# GULP energy per Si atom -5568.472366 kJ/mol
# Density = 2.005140 g / cm^3
# Si number density = 20.097138 Si / 1000 Ang^3
#
#
#
# Elastic Constant Matrix: (Units=GPa)
#
#
# Indices 1 2 3 4 5 6 
#
# 1 158.8192 35.5216 64.9119 -6.4585 19.0136 31.8210
# 2 35.5216 83.0763 47.8093 -31.0255 0.5653 13.1389
# 3 64.9119 47.8093 114.0436 -28.0069 22.5354 16.3219
# 4 -6.4585 -31.0255 -28.0069 40.1447 -7.8208 -3.2348
# 5 19.0136 0.5653 22.5354 -7.8208 57.0275 10.5301
# 6 31.8210 13.1389 16.3219 -3.2348 10.5301 30.7385
#
#
#
# Elastic Compliance Matrix: (Units=1/GPa)
#
#
# Indices 1 2 3 4 5 6 
#
# 1 0.010000 -0.001846 -0.004685 -0.003797 -0.000646 -0.007254
# 2 -0.001846 0.021428 -0.004937 0.013415 0.005111 -0.004966
# 3 -0.004685 -0.004937 0.015553 0.005574 -0.003885 0.000619
# 4 -0.003797 0.013415 0.005574 0.039296 0.004735 -0.002250
# 5 -0.000646 0.005111 -0.003885 0.004735 0.021021 -0.006156
# 6 -0.007254 -0.004966 0.000619 -0.002250 -0.006156 0.043708
#
#
# Mechanical properties :
#
#
# Convention : Reuss Voigt Hill
#
# Bulk Modulus (GPa) = 41.58794 72.49162 57.03978
# Shear Modulus (GPa) = 27.47884 39.42855 33.45370
#
# Velocity S-wave (km/s) = 3.70172 4.43414 4.08438
# Velocity P-wave (km/s) = 6.24569 7.89711 7.11945
#
# Compressibility (1/GPa) = 0.02404543
#
# Stress axis : x y z
#
# Youngs Moduli (GPa) = 99.99510 46.66769 64.29745
#
# Poissons Ratio (x) = 0.08616 0.30121
# Poissons Ratio (y) = 0.18461 0.31744
# Poissons Ratio (z) = 0.46844 0.23040
#
# Static dielectric constant tensor:
#      x y z
#    x 1.723790 -0.028810 -0.026700 
#    y -0.028810 1.768870 0.046610 
#    z -0.026700 0.046610 1.749700 
# 
# From -- ./inp_files/145932.got.cif
#   From: 2010.05.17/outbox.cif.g08.bks.cpg/sg2_73_cif.got.tgz:145932.got - 2010.06.03 11:33:40.
