data_PCOD9010011
_publ_section_title
;
Structure prediction by ZEFSAII (Michael W. Deem and Ramdas Pophale) SiO2 
 PCOD9010011
Probable space group: P -1
;
_chemical_formula_sum "Si O2"
_cell_formula_units_Z 16
_cell_length_a 6.156814
_cell_length_b 24.484286
_cell_length_c 9.203701
_cell_angle_alpha 136.681020
_cell_angle_beta 126.870568
_cell_angle_gamma 45.380289
_cell_volume 666.167717
_symmetry_space_group_name_H-M "P -1"
_symmetry_group_IT_number 2
_symmetry_cell_setting 'triclinic'
loop_
_space_group_symop_operation_xyz
x,y,z
-x,-y,-z
loop_
_atom_site_type_symbol
_atom_site_label
_atom_site_fract_x
_atom_site_fract_y
_atom_site_fract_z
Si Si1 0.166954 0.032141 0.313578
Si Si2 0.559347 0.261000 0.743377
Si Si3 0.045018 0.572386 0.027362
Si Si4 0.486594 0.929660 0.970511
Si Si5 0.217223 0.273110 0.352265
Si Si6 0.527030 0.132944 0.702674
Si Si7 0.743211 0.448619 0.628388
Si Si8 0.120640 0.296898 0.046030
O O1 0.244111 0.110514 0.539274
O O2 0.836432 0.071351 0.184056
O O3 0.193277 0.961338 0.311252
O O4 0.444356 0.969846 0.192388
O O5 0.486643 0.264148 0.550430
O O6 0.575914 0.170641 0.644224
O O7 0.866183 0.265165 0.910304
O O8 0.268404 0.348002 0.868201
O O9 0.310308 0.546481 0.207557
O O10 0.050163 0.620178 0.973061
O O11 0.981913 0.489690 0.802415
O O12 0.746169 0.826526 0.849869
O O13 0.500000 0.000000 0.000000
O O14 0.904896 0.343466 0.444191
O O15 0.215531 0.315403 0.276994
O O16 0.421705 0.215553 0.933517
O O17 0.500000 0.500000 0.500000
#
# Coordination Sequence:
#
# PCOD9010011 Si02
#       8
#     2   2   2   2   2   2   2   2
#     4  10  22  39  62  87 128 168 215 268 325 379
#     4  10  22  40  63  92 129 170 210 264 322 382
#     4   9  22  42  64  94 130 167 212 260 320 397
#     4  11  23  40  61  96 129 168 219 270 319 383
#     4  11  23  40  63  96 127 164 224 260 318 390
#     4  10  21  40  61  90 124 173 214 260 327 386
#     4  10  21  43  68  95 130 170 209 265 330 382
#     4  11  22  40  65  96 131 166 217 264 319 387
#
# _framework density 24.017975
#
# number of rings (size 3 to 8) (size 9 to 14) (size 15 to 20)
#    0.000    1.750    1.250    2.250    1.750    1.500 
#    0.000   15.625    0.000    0.000    0.000    0.000 
#    0.000    0.000    0.000    0.000    0.000    0.000 
#
# Total GULP energy -89410.590752 kJ/mol
# GULP energy per Si atom -5588.161922 kJ/mol
# Density = 2.396331 g / cm^3
# Si number density = 24.017975 Si / 1000 Ang^3
#
#
#
# Elastic Constant Matrix: (Units=GPa)
#
#
# Indices 1 2 3 4 5 6 
#
# 1 39.2408 42.6363 28.8648 -5.7416 -5.6762 15.1886
# 2 42.6363 135.0746 46.5448 -8.8545 -11.4054 29.9597
# 3 28.8648 46.5448 102.3423 -18.5978 -24.6471 10.4254
# 4 -5.7416 -8.8545 -18.5978 58.9939 4.9596 -11.3058
# 5 -5.6762 -11.4054 -24.6471 4.9596 19.7647 1.4660
# 6 15.1886 29.9597 10.4254 -11.3058 1.4660 38.8983
#
#
#
# Elastic Compliance Matrix: (Units=1/GPa)
#
#
# Indices 1 2 3 4 5 6 
#
# 1 0.044668 -0.009815 -0.007971 -0.001002 -0.001934 -0.007964
# 2 -0.009815 0.012598 -0.001888 -0.000996 0.002774 -0.005759
# 3 -0.007971 -0.001888 0.017766 0.003028 0.018016 0.000006
# 4 -0.001002 -0.000996 0.003028 0.018992 -0.002294 0.005954
# 5 -0.001934 0.002774 0.018016 -0.002294 0.075405 -0.009719
# 6 -0.007964 -0.005759 0.000006 0.005954 -0.009719 0.035348
#
#
# Mechanical properties :
#
#
# Convention : Reuss Voigt Hill
#
# Bulk Modulus (GPa) = 28.02308 56.97218 42.49763
# Shear Modulus (GPa) = 19.52977 34.10550 26.81763
#
# Velocity S-wave (km/s) = 2.85464 3.77238 3.34513
# Velocity P-wave (km/s) = 4.74954 6.53809 5.71422
#
# Compressibility (1/GPa) = 0.03568488
#
# Stress axis : x y z
#
# Youngs Moduli (GPa) = 22.38763 79.37626 56.28645
#
# Poissons Ratio (x) = 0.77910 0.44864
# Poissons Ratio (y) = 0.21974 0.10624
# Poissons Ratio (z) = 0.17845 0.14982
#
# Static dielectric constant tensor:
#      x y z
#    x 1.930830 0.009290 -0.050190 
#    y 0.009290 1.958200 -0.005430 
#    z -0.050190 -0.005430 1.907940 
# 
# From -- ./inp_files/142690.got.cif
#   From: 2010.05.17/outbox.cif.g08.bks.cpg/sg2_72_cif.got.tgz:142690.got - 2010.06.03 11:33:40.
