data_PCOD9010086
_publ_section_title
;
Structure prediction by ZEFSAII (Michael W. Deem and Ramdas Pophale) SiO2 
 PCOD9010086
Probable space group: P -1
;
_chemical_formula_sum "Si O2"
_cell_formula_units_Z 16
_cell_length_a 12.351077
_cell_length_b 9.271381
_cell_length_c 13.794059
_cell_angle_alpha 122.831641
_cell_angle_beta 35.252608
_cell_angle_gamma 110.312301
_cell_volume 751.042424
_symmetry_space_group_name_H-M "P -1"
_symmetry_group_IT_number 2
_symmetry_cell_setting 'triclinic'
loop_
_space_group_symop_operation_xyz
x,y,z
-x,-y,-z
loop_
_atom_site_type_symbol
_atom_site_label
_atom_site_fract_x
_atom_site_fract_y
_atom_site_fract_z
Si Si1 0.583682 0.189009 0.776543
Si Si2 0.708243 0.287522 0.262755
Si Si3 0.417759 0.065414 0.480599
Si Si4 0.657950 0.562839 0.085249
Si Si5 0.081575 0.306618 0.911185
Si Si6 0.597649 0.531557 0.602046
Si Si7 0.723107 0.885405 0.677884
Si Si8 0.135535 0.809233 0.262840
O O1 0.419514 0.353499 0.930346
O O2 0.763218 0.232474 0.719856
O O3 0.627338 0.091403 0.607556
O O4 0.548319 0.026941 0.811028
O O5 0.578513 0.154300 0.345150
O O6 0.736072 0.407220 0.380191
O O7 0.582230 0.401457 0.313072
O O8 0.909678 0.216753 0.038842
O O9 0.223841 0.204690 0.690793
O O10 0.500000 0.000000 0.500000
O O11 0.793517 0.674786 0.078418
O O12 0.479192 0.565798 0.288644
O O13 0.773484 0.362731 0.924733
O O14 0.000000 0.500000 0.000000
O O15 0.668119 0.698136 0.657408
O O16 0.908877 0.846691 0.456482
O O17 0.796472 0.009799 0.750089
#
# Coordination Sequence:
#
# PCOD9010086 Si02
#       8
#     2   2   2   2   2   2   2   2
#     4  10  21  40  62  83 125 165 196 260 319 350
#     4  11  21  38  60  90 132 165 203 253 317 364
#     4  12  23  43  62  92 131 163 205 259 316 370
#     4  12  22  38  61  92 123 159 214 251 309 375
#     4  12  24  36  63  96 119 168 212 251 306 382
#     4  11  20  36  60  90 128 161 200 264 306 366
#     4   9  20  38  62  85 110 164 204 249 308 357
#     4   9  21  39  65  85 115 164 214 248 307 373
#
# _framework density 21.303722
#
# number of rings (size 3 to 8) (size 9 to 14) (size 15 to 20)
#    0.750    0.500    5.000    1.875    1.750    1.000 
#    0.000    0.625    0.000    0.000    0.000    0.000 
#    0.000    0.000    0.000    0.000    0.000    0.000 
#
# Total GULP energy -89116.565319 kJ/mol
# GULP energy per Si atom -5569.785332 kJ/mol
# Density = 2.125523 g / cm^3
# Si number density = 21.303722 Si / 1000 Ang^3
#
#
#
# Elastic Constant Matrix: (Units=GPa)
#
#
# Indices 1 2 3 4 5 6 
#
# 1 38.0000 8.5936 7.3831 -7.8309 -2.0500 4.8513
# 2 8.5936 82.1769 42.5965 -8.2324 -7.8862 5.8308
# 3 7.3831 42.5965 71.7420 -2.8353 -7.5524 17.2654
# 4 -7.8309 -8.2324 -2.8353 35.7628 7.2953 2.0159
# 5 -2.0500 -7.8862 -7.5524 7.2953 23.1857 7.3701
# 6 4.8513 5.8308 17.2654 2.0159 7.3701 31.7004
#
#
#
# Elastic Compliance Matrix: (Units=1/GPa)
#
#
# Indices 1 2 3 4 5 6 
#
# 1 0.028643 -0.001718 -0.000465 0.005808 0.001403 -0.004509
# 2 -0.001718 0.018259 -0.011104 0.002640 0.000784 0.002602
# 3 -0.000465 -0.011104 0.024656 -0.001790 0.009003 -0.013294
# 4 0.005808 0.002640 -0.001790 0.031553 -0.009000 -0.000313
# 5 0.001403 0.000784 0.009003 -0.009000 0.054828 -0.017437
# 6 -0.004509 0.002602 -0.013294 -0.000313 -0.017437 0.043071
#
#
# Mechanical properties :
#
#
# Convention : Reuss Voigt Hill
#
# Bulk Modulus (GPa) = 22.23008 34.34058 28.28533
# Shear Modulus (GPa) = 20.61184 27.01949 23.81567
#
# Velocity S-wave (km/s) = 3.11388 3.56518 3.34714
# Velocity P-wave (km/s) = 4.83589 5.75342 5.31449
#
# Compressibility (1/GPa) = 0.04498410
#
# Stress axis : x y z
#
# Youngs Moduli (GPa) = 34.91272 54.76648 40.55812
#
# Poissons Ratio (x) = 0.09407 0.01888
# Poissons Ratio (y) = 0.05997 0.45035
# Poissons Ratio (z) = 0.01625 0.60812
#
# Static dielectric constant tensor:
#      x y z
#    x 1.808620 -0.002520 0.017500 
#    y -0.002520 1.817070 0.045720 
#    z 0.017500 0.045720 1.832240 
# 
# From -- ./inp_files/528900.got.cif
#   From: 2010.05.17/outbox.cif.g08.bks.cpg/sg2_265_cif.got.tgz:528900.got - 2010.06.03 11:33:40.
