data_PCOD9010203
_publ_section_title
;
Structure prediction by ZEFSAII (Michael W. Deem and Ramdas Pophale) SiO2 
 PCOD9010203
Probable space group: P -1
;
_chemical_formula_sum "Si O2"
_cell_formula_units_Z 16
_cell_length_a 10.035160
_cell_length_b 8.147159
_cell_length_c 14.570171
_cell_angle_alpha 66.473600
_cell_angle_beta 90.283743
_cell_angle_gamma 44.743519
_cell_volume 687.776552
_symmetry_space_group_name_H-M "P -1"
_symmetry_group_IT_number 2
_symmetry_cell_setting 'triclinic'
loop_
_space_group_symop_operation_xyz
x,y,z
-x,-y,-z
loop_
_atom_site_type_symbol
_atom_site_label
_atom_site_fract_x
_atom_site_fract_y
_atom_site_fract_z
Si Si1 0.592608 0.824873 0.444813
Si Si2 0.248962 0.791061 0.169128
Si Si3 0.871847 0.780667 0.710723
Si Si4 0.138529 0.628327 0.901312
Si Si5 0.295164 0.674035 0.401207
Si Si6 0.545741 0.617077 0.906028
Si Si7 0.228834 0.232173 0.720094
Si Si8 0.484175 0.170754 0.884214
O O1 0.736506 0.501752 0.541457
O O2 0.733607 0.791882 0.382650
O O3 0.500000 0.000000 0.500000
O O4 0.374524 0.010378 0.346189
O O5 0.347890 0.648203 0.300272
O O6 0.335615 0.566860 0.144348
O O7 0.308860 0.928041 0.105225
O O8 0.001339 0.062509 0.130451
O O9 0.985041 0.650995 0.840371
O O10 0.003786 0.526121 0.695160
O O11 0.873199 0.996169 0.646653
O O12 0.309822 0.489703 0.853979
O O13 0.286823 0.425114 0.033094
O O14 0.500000 0.500000 0.500000
O O15 0.323202 0.944140 0.814588
O O16 0.500000 0.500000 0.000000
O O17 0.385444 0.203643 0.782666
O O18 0.500000 0.000000 0.000000
#
# Coordination Sequence:
#
# PCOD9010203 Si02
#       8
#     2   2   2   2   2   2   2   2
#     4  11  23  44  66  96 131 161 210 272 321 371
#     4  11  22  39  63  90 126 168 214 258 318 380
#     4   9  22  42  65  96 121 166 217 256 313 392
#     4  10  21  40  62  91 126 165 218 249 312 387
#     4   9  19  41  67  90 124 165 213 264 314 373
#     4  12  23  43  60  94 134 173 206 262 320 381
#     4  11  23  41  64  92 131 166 210 260 323 371
#     4  11  20  39  61  90 127 163 208 260 305 372
#
# _framework density 23.263369999999998
#
# number of rings (size 3 to 8) (size 9 to 14) (size 15 to 20)
#    0.000    1.500    2.500    3.375    0.000    1.500 
#   13.500    3.750    0.000    0.000    0.000    0.000 
#    0.000    0.000    0.000    0.000    0.000    0.000 
#
# Total GULP energy -89206.853277 kJ/mol
# GULP energy per Si atom -5575.428330 kJ/mol
# Density = 2.321042 g / cm^3
# Si number density = 23.263370 Si / 1000 Ang^3
#
#
#
# Elastic Constant Matrix: (Units=GPa)
#
#
# Indices 1 2 3 4 5 6 
#
# 1 43.9518 8.9466 26.0382 -2.2884 -8.5287 -4.7557
# 2 8.9466 190.9453 44.4006 2.4392 -19.5123 -13.2086
# 3 26.0382 44.4006 111.8516 4.5228 -13.9646 -9.4266
# 4 -2.2884 2.4392 4.5228 43.8589 9.4982 1.9961
# 5 -8.5287 -19.5123 -13.9646 9.4982 34.6703 -4.3643
# 6 -4.7557 -13.2086 -9.4266 1.9961 -4.3643 19.1141
#
#
#
# Elastic Compliance Matrix: (Units=1/GPa)
#
#
# Indices 1 2 3 4 5 6 
#
# 1 0.027681 0.001016 -0.005635 0.000446 0.005755 0.006078
# 2 0.001016 0.006371 -0.001806 -0.001211 0.004046 0.004815
# 3 -0.005635 -0.001806 0.011871 -0.002385 0.003570 0.004269
# 4 0.000446 -0.001211 -0.002385 0.025467 -0.009352 -0.006697
# 5 0.005755 0.004046 0.003570 -0.009352 0.038520 0.015760
# 6 0.006078 0.004815 0.004269 -0.006697 0.015760 0.063560
#
#
# Mechanical properties :
#
#
# Convention : Reuss Voigt Hill
#
# Bulk Modulus (GPa) = 30.23478 56.16885 43.20182
# Shear Modulus (GPa) = 25.33650 37.35287 31.34468
#
# Velocity S-wave (km/s) = 3.30376 4.01141 3.67465
# Velocity P-wave (km/s) = 5.25148 6.75665 6.05105
#
# Compressibility (1/GPa) = 0.03307450
#
# Stress axis : x y z
#
# Youngs Moduli (GPa) = 36.12587 156.95040 84.24015
#
# Poissons Ratio (x) = -0.15946 0.47466
# Poissons Ratio (y) = -0.03670 0.15212
# Poissons Ratio (z) = 0.20356 0.28342
#
# Static dielectric constant tensor:
#      x y z
#    x 1.937350 0.061860 0.015400 
#    y 0.061860 1.901500 -0.037960 
#    z 0.015400 -0.037960 1.908620 
# 
# From -- ./inp_files/515379.got.cif
#   From: 2010.05.17/outbox.cif.g08.bks.cpg/sg2_258_cif.got.tgz:515379.got - 2010.06.03 11:33:40.
