data_PCOD9010794
_publ_section_title
;
Structure prediction by ZEFSAII (Michael W. Deem and Ramdas Pophale) SiO2 
 PCOD9010794
Probable space group: P -1
;
_chemical_formula_sum "Si O2"
_cell_formula_units_Z 12
_cell_length_a 10.868559
_cell_length_b 9.653258
_cell_length_c 8.109249
_cell_angle_alpha 66.410251
_cell_angle_beta 47.300896
_cell_angle_gamma 71.296225
_cell_volume 571.485017
_symmetry_space_group_name_H-M "P -1"
_symmetry_group_IT_number 2
_symmetry_cell_setting 'triclinic'
loop_
_space_group_symop_operation_xyz
x,y,z
-x,-y,-z
loop_
_atom_site_type_symbol
_atom_site_label
_atom_site_fract_x
_atom_site_fract_y
_atom_site_fract_z
Si Si1 0.607000 0.931124 0.591358
Si Si2 0.225123 0.275741 0.698901
Si Si3 0.440189 0.662777 0.055520
Si Si4 0.425923 0.748326 0.406487
Si Si5 0.890631 0.413393 0.517326
Si Si6 0.944140 0.332285 0.168013
O O1 0.766502 0.845024 0.399575
O O2 0.500000 0.000000 0.500000
O O3 0.624158 0.070777 0.631868
O O4 0.518461 0.797543 0.825294
O O5 0.403746 0.274213 0.631998
O O6 0.202722 0.444350 0.563225
O O7 0.073497 0.239436 0.975441
O O8 0.466789 0.681324 0.219554
O O9 0.239369 0.676089 0.219502
O O10 0.500000 0.500000 0.000000
O O11 0.255756 0.682259 0.665827
O O12 0.975958 0.310127 0.345258
O O13 0.000000 0.500000 0.500000
O O14 0.000000 0.500000 0.000000
#
# Coordination Sequence:
#
# PCOD9010794 Si02
#       6
#     2   2   2   2   2   2
#     4  10  22  41  63  96 129 169 211 256 325 383
#     4  10  21  40  64  92 129 171 207 257 325 373
#     4  11  22  40  67  94 122 171 218 258 315 374
#     4  10  23  41  66  91 133 167 211 264 317 383
#     4  10  22  38  59  95 130 160 215 270 308 372
#     4   9  21  37  58  94 123 162 215 259 315 371
#
# _framework density 20.997927000000001
#
# number of rings (size 3 to 8) (size 9 to 14) (size 15 to 20)
#    0.000    2.000    1.667    0.500    2.333   12.000 
#    0.000    1.667    0.000   11.000    0.000    0.000 
#    0.000    0.000    0.000    0.000    0.000    0.000 
#
# Total GULP energy -66858.109823 kJ/mol
# GULP energy per Si atom -5571.509152 kJ/mol
# Density = 2.095013 g / cm^3
# Si number density = 20.997927 Si / 1000 Ang^3
#
#
#
# Elastic Constant Matrix: (Units=GPa)
#
#
# Indices 1 2 3 4 5 6 
#
# 1 70.4707 16.7214 35.3122 6.9410 -9.0349 12.8340
# 2 16.7214 128.6045 60.1289 11.3866 11.0860 16.4389
# 3 35.3122 60.1289 167.5970 26.8338 -1.2277 0.6331
# 4 6.9410 11.3866 26.8338 38.2595 3.5234 9.6300
# 5 -9.0349 11.0860 -1.2277 3.5234 13.6680 2.8701
# 6 12.8340 16.4389 0.6331 9.6300 2.8701 19.8019
#
#
#
# Elastic Compliance Matrix: (Units=1/GPa)
#
#
# Indices 1 2 3 4 5 6 
#
# 1 0.021709 -0.000058 -0.004714 0.002196 0.017064 -0.017412
# 2 -0.000058 0.011713 -0.004712 0.003092 -0.008706 -0.009777
# 3 -0.004714 -0.004712 0.009782 -0.007239 0.001355 0.009978
# 4 0.002196 0.003092 -0.007239 0.035566 -0.006656 -0.020090
# 5 0.017064 -0.008706 0.001355 -0.006656 0.096411 -0.014612
# 6 -0.017412 -0.009777 0.009978 -0.020090 -0.014612 0.081471
#
#
# Mechanical properties :
#
#
# Convention : Reuss Voigt Hill
#
# Bulk Modulus (GPa) = 41.26253 65.66634 53.46443
# Shear Modulus (GPa) = 17.62442 31.31319 24.46880
#
# Velocity S-wave (km/s) = 2.90028 3.86586 3.41735
# Velocity P-wave (km/s) = 5.55958 7.16011 6.41000
#
# Compressibility (1/GPa) = 0.02423506
#
# Stress axis : x y z
#
# Youngs Moduli (GPa) = 46.06440 85.37649 102.23188
#
# Poissons Ratio (x) = 0.00498 0.48191
# Poissons Ratio (y) = 0.00269 0.48170
# Poissons Ratio (z) = 0.21714 0.40228
#
# Static dielectric constant tensor:
#      x y z
#    x 1.757050 -0.034140 0.036450 
#    y -0.034140 2.053130 -0.151900 
#    z 0.036450 -0.151900 2.035920 
# 
# From -- ./inp_files/183489.got.cif
#   From: 2010.05.17/outbox.cif.g08.bks.cpg/sg2_92_cif.got.tgz:183489.got - 2010.06.03 11:33:40.
