data_PCOD9010964
_publ_section_title
;
Structure prediction by ZEFSAII (Michael W. Deem and Ramdas Pophale) SiO2 
 PCOD9010964
Probable space group: P -1
;
_chemical_formula_sum "Si O2"
_cell_formula_units_Z 15
_cell_length_a 5.795289
_cell_length_b 11.227163
_cell_length_c 12.117584
_cell_angle_alpha 57.410677
_cell_angle_beta 60.149199
_cell_angle_gamma 73.185887
_cell_volume 575.913767
_symmetry_space_group_name_H-M "P -1"
_symmetry_group_IT_number 2
_symmetry_cell_setting 'triclinic'
loop_
_space_group_symop_operation_xyz
x,y,z
-x,-y,-z
loop_
_atom_site_type_symbol
_atom_site_label
_atom_site_fract_x
_atom_site_fract_y
_atom_site_fract_z
Si Si1 0.282009 0.355681 0.555565
Si Si2 0.897286 0.697871 0.952868
Si Si3 0.500000 0.500000 0.000000
Si Si4 0.246427 0.536384 0.275573
Si Si5 0.870716 0.892964 0.441609
Si Si6 0.402576 0.833038 0.722855
Si Si7 0.607359 0.980900 0.802106
Si Si8 0.422036 0.255193 0.800926
O O1 0.393921 0.435196 0.382544
O O2 0.173837 0.209487 0.601775
O O3 0.456615 0.315649 0.639603
O O4 0.056301 0.457038 0.615199
O O5 0.725270 0.597180 0.968466
O O6 0.213465 0.700268 0.850206
O O7 0.782440 0.857326 0.878831
O O8 0.838896 0.683907 0.104159
O O9 0.685119 0.503811 0.843302
O O10 0.347459 0.692602 0.200311
O O11 0.705565 0.819159 0.614859
O O12 0.179910 0.924825 0.362972
O O13 0.737728 0.049720 0.380380
O O14 0.415655 0.903664 0.803460
O O15 0.443196 0.088177 0.863926
#
# Coordination Sequence:
#
# PCOD9010964 Si02
#       8
#     2   2   1   2   2   2   2   2
#     4  11  22  43  68  99 134 180 232 280 341 406
#     4  10  25  43  68 102 136 184 229 278 349 407
#     4  10  24  52  70  96 138 180 228 288 338 408
#     4  10  24  45  70  98 132 182 231 279 345 406
#     4  10  21  40  64  97 142 175 228 283 336 405
#     4  10  22  41  63 104 135 181 228 277 346 402
#     4  11  21  40  69 101 136 181 226 286 340 406
#     4  11  22  43  67 100 138 177 226 287 340 408
#
# _framework density 26.045563000000001
#
# number of rings (size 3 to 8) (size 9 to 14) (size 15 to 20)
#    0.000    1.600    2.667    1.200    1.867    2.667 
#    7.200    2.000    0.000    0.000    0.000    0.000 
#    0.000    0.000    0.000    0.000    0.000    0.000 
#
# Total GULP energy -83632.462468 kJ/mol
# GULP energy per Si atom -5575.497498 kJ/mol
# Density = 2.598628 g / cm^3
# Si number density = 26.045563 Si / 1000 Ang^3
#
#
#
# Elastic Constant Matrix: (Units=GPa)
#
#
# Indices 1 2 3 4 5 6 
#
# 1 60.2590 43.2399 28.1618 11.4005 -18.2749 20.5969
# 2 43.2399 128.8185 68.8615 18.8626 7.5743 24.6940
# 3 28.1618 68.8615 161.1924 29.9553 -8.6866 9.7236
# 4 11.4005 18.8626 29.9553 39.6533 12.9538 1.7977
# 5 -18.2749 7.5743 -8.6866 12.9538 43.4056 -0.8559
# 6 20.5969 24.6940 9.7236 1.7977 -0.8559 43.6359
#
#
#
# Elastic Compliance Matrix: (Units=1/GPa)
#
#
# Indices 1 2 3 4 5 6 
#
# 1 0.035504 -0.010576 0.002608 -0.013591 0.021167 -0.010379
# 2 -0.010576 0.014726 -0.005377 0.003180 -0.009096 -0.002453
# 3 0.002608 -0.005377 0.009802 -0.007652 0.006283 0.000066
# 4 -0.013591 0.003180 -0.007652 0.039581 -0.019536 0.004307
# 5 0.021167 -0.009096 0.006283 -0.019536 0.040533 -0.004644
# 6 -0.010379 -0.002453 0.000066 0.004307 -0.004644 0.028921
#
#
# Mechanical properties :
#
#
# Convention : Reuss Voigt Hill
#
# Bulk Modulus (GPa) = 29.99246 70.08851 50.04049
# Shear Modulus (GPa) = 24.16971 39.33941 31.75456
#
# Velocity S-wave (km/s) = 3.04958 3.89061 3.49548
# Velocity P-wave (km/s) = 4.89288 6.86665 5.96201
#
# Compressibility (1/GPa) = 0.03334171
#
# Stress axis : x y z
#
# Youngs Moduli (GPa) = 28.16615 67.90493 102.02392
#
# Poissons Ratio (x) = 0.71818 -0.26605
# Poissons Ratio (y) = 0.29789 0.54853
# Poissons Ratio (z) = -0.07345 0.36509
#
# Static dielectric constant tensor:
#      x y z
#    x 2.140580 -0.105600 0.049930 
#    y -0.105600 2.103560 -0.094250 
#    z 0.049930 -0.094250 2.158470 
# 
# From -- ./inp_files/362754.got.cif
#   From: 2010.05.17/outbox.cif.g08.bks.cpg/sg2_182_cif.got.tgz:362754.got - 2010.06.03 11:33:40.
