data_PCOD9010440
_publ_section_title
;
Structure prediction by ZEFSAII (Michael W. Deem and Ramdas Pophale) SiO2 
 PCOD9010440
Probable space group: P -1
;
_chemical_formula_sum "Si O2"
_cell_formula_units_Z 16
_cell_length_a 12.413724
_cell_length_b 8.260816
_cell_length_c 13.369166
_cell_angle_alpha 35.157756
_cell_angle_beta 73.082462
_cell_angle_gamma 63.368429
_cell_volume 698.064437
_symmetry_space_group_name_H-M "P -1"
_symmetry_group_IT_number 2
_symmetry_cell_setting 'triclinic'
loop_
_space_group_symop_operation_xyz
x,y,z
-x,-y,-z
loop_
_atom_site_type_symbol
_atom_site_label
_atom_site_fract_x
_atom_site_fract_y
_atom_site_fract_z
Si Si1 0.826572 0.782132 0.473768
Si Si2 0.007263 0.404339 0.289350
Si Si3 0.513495 0.773633 0.201575
Si Si4 0.152789 0.042866 0.836096
Si Si5 0.228765 0.570935 0.767582
Si Si6 0.596726 0.733501 0.544153
Si Si7 0.125209 0.455344 0.045053
Si Si8 0.428576 0.860785 0.847205
O O1 0.862146 0.745711 0.366087
O O2 0.733915 0.619320 0.607421
O O3 0.933136 0.703756 0.564989
O O4 0.755434 0.141832 0.330559
O O5 0.935380 0.766490 0.148760
O O6 0.895572 0.329778 0.312868
O O7 0.113964 0.287749 0.235186
O O8 0.657990 0.574083 0.262535
O O9 0.444326 0.545833 0.324084
O O10 0.487071 0.998691 0.187796
O O11 0.500000 0.000000 0.000000
O O12 0.126136 0.764739 0.936648
O O13 0.293685 0.918689 0.896906
O O14 0.218523 0.371103 0.968207
O O15 0.500000 0.000000 0.500000
O O16 0.602035 0.926389 0.348581
O O17 0.000000 0.500000 0.000000
O O18 0.500000 0.500000 0.000000
#
# Coordination Sequence:
#
# PCOD9010440 Si02
#       8
#     2   2   2   2   2   2   2   2
#     4  10  22  39  66  94 131 177 215 270 339 400
#     4  11  20  39  64  96 127 174 225 267 330 398
#     4  12  25  44  70  98 134 180 228 279 342 404
#     4  10  21  40  63  90 135 167 220 277 326 401
#     4  10  21  43  63  93 134 174 217 276 333 397
#     4  11  23  45  67 100 138 171 225 283 332 408
#     4   9  21  37  59  87 127 168 209 269 319 388
#     4  11  25  44  71  99 132 180 224 281 347 399
#
# _framework density 22.920521000000001
#
# number of rings (size 3 to 8) (size 9 to 14) (size 15 to 20)
#    0.000    1.500    2.500    2.250    3.500    2.000 
#    4.500    0.000    0.000    0.000    0.000    0.000 
#    0.000    0.000    0.000    0.000    0.000    0.000 
#
# Total GULP energy -89128.070517 kJ/mol
# GULP energy per Si atom -5570.504407 kJ/mol
# Density = 2.286835 g / cm^3
# Si number density = 22.920521 Si / 1000 Ang^3
#
#
#
# Elastic Constant Matrix: (Units=GPa)
#
#
# Indices 1 2 3 4 5 6 
#
# 1 123.6709 24.4431 38.6424 -8.7312 -24.0321 31.6519
# 2 24.4431 53.5668 8.3737 -12.0072 -13.8814 23.3334
# 3 38.6424 8.3737 61.5835 -11.1121 -12.2841 4.9491
# 4 -8.7312 -12.0072 -11.1121 32.8875 12.5853 -9.1550
# 5 -24.0321 -13.8814 -12.2841 12.5853 37.7447 -5.8128
# 6 31.6519 23.3334 4.9491 -9.1550 -5.8128 37.0944
#
#
#
# Elastic Compliance Matrix: (Units=1/GPa)
#
#
# Indices 1 2 3 4 5 6 
#
# 1 0.014244 0.000360 -0.007562 -0.004273 0.006407 -0.011423
# 2 0.000360 0.028056 -0.000857 0.002980 0.006805 -0.016039
# 3 -0.007562 -0.000857 0.021945 0.006407 0.000764 0.005765
# 4 -0.004273 0.002980 0.006407 0.039306 -0.011283 0.008850
# 5 0.006407 0.006805 0.000764 -0.011283 0.036009 -0.006991
# 6 -0.011423 -0.016039 0.005765 0.008850 -0.006991 0.047114
#
#
# Mechanical properties :
#
#
# Convention : Reuss Voigt Hill
#
# Bulk Modulus (GPa) = 20.77807 42.41550 31.59679
# Shear Modulus (GPa) = 22.84830 32.70280 27.77555
#
# Velocity S-wave (km/s) = 3.16072 3.78139 3.48490
# Velocity P-wave (km/s) = 4.73341 6.13277 5.47795
#
# Compressibility (1/GPa) = 0.04812766
#
# Stress axis : x y z
#
# Youngs Moduli (GPa) = 70.20270 35.64322 45.56879
#
# Poissons Ratio (x) = -0.01284 0.34460
# Poissons Ratio (y) = -0.02530 0.03904
# Poissons Ratio (z) = 0.53089 0.03054
#
# Static dielectric constant tensor:
#      x y z
#    x 1.966830 -0.046470 -0.047200 
#    y -0.046470 1.858250 -0.072430 
#    z -0.047200 -0.072430 1.797420 
# 
# From -- ./inp_files/221884.got.cif
#   From: 2010.05.17/outbox.cif.g08.bks.cpg/sg2_111_cif.got.tgz:221884.got - 2010.06.03 11:33:40.
