data_PCOD9010803
_publ_section_title
;
Structure prediction by ZEFSAII (Michael W. Deem and Ramdas Pophale) SiO2 
 PCOD9010803
Probable space group: P -1
;
_chemical_formula_sum "Si O2"
_cell_formula_units_Z 14
_cell_length_a 23.513973
_cell_length_b 5.229160
_cell_length_c 5.200525
_cell_angle_alpha 76.347211
_cell_angle_beta 96.751602
_cell_angle_gamma 113.091677
_cell_volume 571.370280
_symmetry_space_group_name_H-M "P -1"
_symmetry_group_IT_number 2
_symmetry_cell_setting 'triclinic'
loop_
_space_group_symop_operation_xyz
x,y,z
-x,-y,-z
loop_
_atom_site_type_symbol
_atom_site_label
_atom_site_fract_x
_atom_site_fract_y
_atom_site_fract_z
Si Si1 0.863464 0.248801 0.137112
Si Si2 0.312948 0.621429 0.575271
Si Si3 0.390515 0.289070 0.518022
Si Si4 0.487447 0.689560 0.164037
Si Si5 0.233344 0.542930 0.040693
Si Si6 0.012925 0.341844 0.793273
Si Si7 0.887099 0.973205 0.715828
O O1 0.876192 0.040340 0.399875
O O2 0.912762 0.553959 0.191226
O O3 0.792521 0.214109 0.107242
O O4 0.878400 0.195303 0.864637
O O5 0.359360 0.453056 0.644452
O O6 0.280329 0.585168 0.288711
O O7 0.345377 0.963712 0.540280
O O8 0.263968 0.494623 0.807869
O O9 0.416821 0.523528 0.251200
O O10 0.455963 0.264377 0.622268
O O11 0.500000 0.500000 0.000000
O O12 0.500000 0.000000 0.000000
O O13 0.169713 0.307481 0.168068
O O14 0.959832 0.027096 0.791331
O O15 0.000000 0.500000 0.500000
O O16 0.000000 0.500000 0.000000
#
# Coordination Sequence:
#
# PCOD9010803 Si02
#       7
#     2   2   2   2   2   2   2
#     4  10  21  40  64  92 133 175 233 304 366 433
#     4  12  30  47  76 103 154 200 242 294 352 430
#     4  11  28  50  72 116 148 189 242 294 354 421
#     4  11  24  47  84 113 147 186 234 299 356 417
#     4  12  28  43  66 101 134 198 246 290 356 428
#     4   8  16  33  60  91 122 169 223 296 378 429
#     4  10  21  40  64  92 133 175 233 304 366 433
#
# _framework density 24.502499
#
# number of rings (size 3 to 8) (size 9 to 14) (size 15 to 20)
#    0.000    1.429    0.000    3.429   12.000    2.857 
#    0.000    0.000    0.000   12.000    0.000    0.000 
#    0.000    0.000    0.000    0.000    0.000    0.000 
#
# Total GULP energy -78106.472336 kJ/mol
# GULP energy per Si atom -5579.033738 kJ/mol
# Density = 2.444673 g / cm^3
# Si number density = 24.502499 Si / 1000 Ang^3
#
#
#
# Elastic Constant Matrix: (Units=GPa)
#
#
# Indices 1 2 3 4 5 6 
#
# 1 95.0526 10.2770 24.5554 -6.2922 -2.8017 0.7159
# 2 10.2770 123.1413 18.0086 -31.9387 4.0075 3.4398
# 3 24.5554 18.0086 110.6526 6.3603 -0.7704 5.1839
# 4 -6.2922 -31.9387 6.3603 33.7414 3.1910 -5.2322
# 5 -2.8017 4.0075 -0.7704 3.1910 34.5489 5.2126
# 6 0.7159 3.4398 5.1839 -5.2322 5.2126 32.3277
#
#
#
# Elastic Compliance Matrix: (Units=1/GPa)
#
#
# Indices 1 2 3 4 5 6 
#
# 1 0.011410 0.000149 -0.002741 0.002822 0.000504 0.000547
# 2 0.000149 0.011697 -0.002728 0.012123 -0.002766 0.001598
# 3 -0.002741 -0.002728 0.010532 -0.005570 0.001211 -0.002435
# 4 0.002822 0.012123 -0.005570 0.044524 -0.006592 0.007810
# 5 0.000504 -0.002766 0.001211 -0.006592 0.030840 -0.005951
# 6 0.000547 0.001598 -0.002435 0.007810 -0.005951 0.033365
#
#
# Mechanical properties :
#
#
# Convention : Reuss Voigt Hill
#
# Bulk Modulus (GPa) = 43.47759 48.28095 45.87927
# Shear Modulus (GPa) = 31.11905 38.52398 34.82151
#
# Velocity S-wave (km/s) = 3.56762 3.96946 3.77389
# Velocity P-wave (km/s) = 5.89519 6.38405 6.14448
#
# Compressibility (1/GPa) = 0.02300036
#
# Stress axis : x y z
#
# Youngs Moduli (GPa) = 87.64280 85.49165 94.94792
#
# Poissons Ratio (x) = -0.01273 0.26022
# Poissons Ratio (y) = -0.01305 0.25899
# Poissons Ratio (z) = 0.24019 0.23320
#
# Static dielectric constant tensor:
#      x y z
#    x 1.341060 0.378460 -0.541030 
#    y 0.378460 2.087220 0.178750 
#    z -0.541030 0.178750 1.554370 
# 
# From -- ./inp_files/14150.got.cif
#   From: 2010.05.17/outbox.cif.g08.bks.cpg/sg2_8_cif.got.tgz:14150.got - 2010.06.03 11:33:40.
