data_PCOD9010465
_publ_section_title
;
Structure prediction by ZEFSAII (Michael W. Deem and Ramdas Pophale) SiO2 
 PCOD9010465
Probable space group: P -1
;
_chemical_formula_sum "Si O2"
_cell_formula_units_Z 16
_cell_length_a 26.663303
_cell_length_b 7.131711
_cell_length_c 8.345256
_cell_angle_alpha 57.468114
_cell_angle_beta 133.777658
_cell_angle_gamma 137.926881
_cell_volume 766.803373
_symmetry_space_group_name_H-M "P -1"
_symmetry_group_IT_number 2
_symmetry_cell_setting 'triclinic'
loop_
_space_group_symop_operation_xyz
x,y,z
-x,-y,-z
loop_
_atom_site_type_symbol
_atom_site_label
_atom_site_fract_x
_atom_site_fract_y
_atom_site_fract_z
Si Si1 0.257400 0.746396 0.767281
Si Si2 0.476674 0.211178 0.530863
Si Si3 0.034604 0.803243 0.995199
Si Si4 0.109422 0.085673 0.362771
Si Si5 0.398604 0.808381 0.814843
Si Si6 0.703698 0.658398 0.418752
Si Si7 0.370781 0.762727 0.261245
Si Si8 0.099305 0.114175 0.677778
O O1 0.330807 0.782913 0.798010
O O2 0.165466 0.451047 0.660883
O O3 0.264601 0.025761 0.643474
O O4 0.287677 0.717502 0.021094
O O5 0.500000 0.500000 0.500000
O O6 0.566463 0.246433 0.717951
O O7 0.402973 0.978824 0.593520
O O8 0.434480 0.077687 0.327506
O O9 0.103093 0.011443 0.910568
O O10 0.073131 0.873732 0.228588
O O11 0.954231 0.823778 0.813838
O O12 0.000000 0.500000 0.000000
O O13 0.210402 0.322858 0.434169
O O14 0.111931 0.999704 0.592167
O O15 0.361980 0.506760 0.800172
O O16 0.500000 0.000000 0.000000
O O17 0.657264 0.473592 0.559736
O O18 0.000000 0.000000 0.500000
#
# Coordination Sequence:
#
# PCOD9010465 Si02
#       8
#     2   2   2   2   2   2   2   2
#     4  12  24  43  68  96 134 175 221 282 339 393
#     4  10  21  40  63  91 129 176 214 276 338 386
#     4  10  23  43  72 101 134 180 220 283 343 396
#     4  10  22  44  64  99 138 166 233 271 329 419
#     4  11  23  41  64  96 133 167 228 275 321 415
#     4  11  25  42  66  97 135 178 216 278 343 389
#     4  10  23  41  61  95 132 166 231 271 320 417
#     4  10  23  45  67  99 136 172 228 277 333 414
#
# _framework density 20.865843999999999
#
# number of rings (size 3 to 8) (size 9 to 14) (size 15 to 20)
#    0.000    1.500    2.500    1.500    5.250    1.000 
#    6.750    0.000    0.000    0.000    0.000    0.000 
#    0.000    0.000    0.000    0.000    0.000    0.000 
#
# Total GULP energy -89170.377944 kJ/mol
# GULP energy per Si atom -5573.148621 kJ/mol
# Density = 2.081835 g / cm^3
# Si number density = 20.865844 Si / 1000 Ang^3
#
#
#
# Elastic Constant Matrix: (Units=GPa)
#
#
# Indices 1 2 3 4 5 6 
#
# 1 112.7319 56.5419 25.4224 5.9378 -11.4770 6.4631
# 2 56.5419 151.5640 40.8534 14.2762 -6.6560 -11.5620
# 3 25.4224 40.8534 67.7882 18.3093 0.6610 -8.5396
# 4 5.9378 14.2762 18.3093 29.0487 8.7757 1.9014
# 5 -11.4770 -6.6560 0.6610 8.7757 26.3533 11.7801
# 6 6.4631 -11.5620 -8.5396 1.9014 11.7801 33.9811
#
#
#
# Elastic Compliance Matrix: (Units=1/GPa)
#
#
# Indices 1 2 3 4 5 6 
#
# 1 0.012969 -0.004118 -0.003253 -0.000573 0.008237 -0.007509
# 2 -0.004118 0.009424 -0.003184 -0.001946 -0.000189 0.003364
# 3 -0.003253 -0.003184 0.021765 -0.011360 -0.001781 0.006258
# 4 -0.000573 -0.001946 -0.011360 0.047545 -0.016066 -0.000499
# 5 0.008237 -0.000189 -0.001781 -0.016066 0.056101 -0.020628
# 6 -0.007509 0.003364 0.006258 -0.000499 -0.020628 0.040753
#
#
# Mechanical properties :
#
#
# Convention : Reuss Voigt Hill
#
# Bulk Modulus (GPa) = 43.38914 64.19108 53.79011
# Shear Modulus (GPa) = 23.00438 31.82769 27.41603
#
# Velocity S-wave (km/s) = 3.32398 3.90981 3.62873
# Velocity P-wave (km/s) = 5.96416 7.15630 6.58726
#
# Compressibility (1/GPa) = 0.02304724
#
# Stress axis : x y z
#
# Youngs Moduli (GPa) = 77.10592 106.11126 45.94611
#
# Poissons Ratio (x) = 0.43701 0.14947
# Poissons Ratio (y) = 0.31756 0.14628
# Poissons Ratio (z) = 0.25084 0.33783
#
# Static dielectric constant tensor:
#      x y z
#    x 1.797640 -0.018110 -0.088660 
#    y -0.018110 1.745010 0.040030 
#    z -0.088660 0.040030 1.871370 
# 
# From -- ./inp_files/52865.got.cif
#   From: 2010.05.17/outbox.cif.g08.bks.cpg/sg2_27_cif.got.tgz:52865.got - 2010.06.03 11:33:40.
