data_PCOD9010976
_publ_section_title
;
Structure prediction by ZEFSAII (Michael W. Deem and Ramdas Pophale) SiO2 
 PCOD9010976
Probable space group: P -1
;
_chemical_formula_sum "Si O2"
_cell_formula_units_Z 14
_cell_length_a 31.516084
_cell_length_b 24.781036
_cell_length_c 14.294782
_cell_angle_alpha 157.919849
_cell_angle_beta 157.972876
_cell_angle_gamma 8.950560
_cell_volume 639.884248
_symmetry_space_group_name_H-M "P -1"
_symmetry_group_IT_number 2
_symmetry_cell_setting 'triclinic'
loop_
_space_group_symop_operation_xyz
x,y,z
-x,-y,-z
loop_
_atom_site_type_symbol
_atom_site_label
_atom_site_fract_x
_atom_site_fract_y
_atom_site_fract_z
Si Si1 0.827145 0.250311 0.459932
Si Si2 0.073955 0.471949 0.358097
Si Si3 0.321070 0.285720 0.014738
Si Si4 0.564436 0.691449 0.103760
Si Si5 0.178167 0.171382 0.784797
Si Si6 0.928755 0.028564 0.689915
Si Si7 0.312084 0.639325 0.012030
O O1 0.809169 0.438322 0.746514
O O2 0.520269 0.532786 0.278852
O O3 0.000000 0.000000 0.500000
O O4 0.998222 0.027644 0.357913
O O5 0.201143 0.459192 0.650156
O O6 0.927250 0.704390 0.338981
O O7 0.299637 0.091208 0.174038
O O8 0.888981 0.595416 0.250480
O O9 0.504328 0.142860 0.078849
O O10 0.500000 0.000000 0.000000
O O11 0.681999 0.421580 0.850999
O O12 0.529465 0.668969 0.101648
O O13 0.148938 0.047043 0.568426
O O14 0.000000 0.500000 0.000000
O O15 0.215538 0.725556 0.847415
O O16 0.000000 0.000000 0.000000
#
# Coordination Sequence:
#
# PCOD9010976 Si02
#       7
#     2   2   2   2   2   2   2
#     4  12  26  44  67  99 133 173 226 287 335 392
#     4  10  21  40  64  98 133 175 210 269 331 390
#     4  10  22  39  64  91 132 172 214 262 333 392
#     4  10  21  40  69  96 132 172 218 269 332 387
#     4  11  23  42  65  98 130 174 220 272 331 402
#     4  11  23  42  69  99 129 179 229 272 328 407
#     4  10  21  41  68  96 131 173 222 270 330 397
#
# _framework density 21.878955999999999
#
# number of rings (size 3 to 8) (size 9 to 14) (size 15 to 20)
#    0.000    1.429    1.429    4.714    6.000    1.143 
#    2.571    9.286    0.000    4.286    0.000    0.000 
#    0.000    0.000    0.000    0.000    0.000    0.000 
#
# Total GULP energy -78117.539837 kJ/mol
# GULP energy per Si atom -5579.824274 kJ/mol
# Density = 2.182916 g / cm^3
# Si number density = 21.878956 Si / 1000 Ang^3
#
#
#
# Elastic Constant Matrix: (Units=GPa)
#
#
# Indices 1 2 3 4 5 6 
#
# 1 116.2504 36.8109 35.4058 -2.1137 2.8174 2.1159
# 2 36.8109 43.2433 32.5278 8.5363 8.5805 -3.8109
# 3 35.4058 32.5278 142.1006 -3.0306 24.8499 -10.6521
# 4 -2.1137 8.5363 -3.0306 55.0359 -7.2533 11.9317
# 5 2.8174 8.5805 24.8499 -7.2533 24.4728 6.5617
# 6 2.1159 -3.8109 -10.6521 11.9317 6.5617 29.9006
#
#
#
# Elastic Compliance Matrix: (Units=1/GPa)
#
#
# Indices 1 2 3 4 5 6 
#
# 1 0.013544 -0.013258 -0.002396 0.005301 0.009137 -0.007622
# 2 -0.013258 0.044167 -0.002553 -0.013366 -0.019419 0.015253
# 3 -0.002396 -0.002553 0.010938 -0.002378 -0.012642 0.007464
# 4 0.005301 -0.013366 -0.002378 0.026699 0.019173 -0.017788
# 5 0.009137 -0.019419 -0.012642 0.019173 0.073562 -0.031420
# 6 -0.007622 0.015253 0.007464 -0.017788 -0.031420 0.052580
#
#
# Mechanical properties :
#
#
# Convention : Reuss Voigt Hill
#
# Bulk Modulus (GPa) = 31.02154 56.78705 43.90429
# Shear Modulus (GPa) = 18.61174 35.00517 26.80845
#
# Velocity S-wave (km/s) = 2.91979 4.00427 3.50424
# Velocity P-wave (km/s) = 5.05731 6.88407 6.04015
#
# Compressibility (1/GPa) = 0.03223567
#
# Stress axis : x y z
#
# Youngs Moduli (GPa) = 73.83509 22.64146 91.42356
#
# Poissons Ratio (x) = 0.30018 0.21903
# Poissons Ratio (y) = 0.97891 0.23336
# Poissons Ratio (z) = 0.17690 0.05779
#
# Static dielectric constant tensor:
#      x y z
#    x 1.814970 -0.008470 -0.025320 
#    y -0.008470 1.892340 -0.071200 
#    z -0.025320 -0.071200 1.823350 
# 
# From -- ./inp_files/545155.got.cif
#   From: 2010.05.17/outbox.cif.g08.bks.cpg/sg2_273_cif.got.tgz:545155.got - 2010.06.03 11:33:40.
