data_PCOD9010649
_publ_section_title
;
Structure prediction by ZEFSAII (Michael W. Deem and Ramdas Pophale) SiO2 
 PCOD9010649
Probable space group: P -1
;
_chemical_formula_sum "Si O2"
_cell_formula_units_Z 14
_cell_length_a 5.435979
_cell_length_b 13.073940
_cell_length_c 22.862208
_cell_angle_alpha 158.404621
_cell_angle_beta 77.899384
_cell_angle_gamma 97.215138
_cell_volume 573.773163
_symmetry_space_group_name_H-M "P -1"
_symmetry_group_IT_number 2
_symmetry_cell_setting 'triclinic'
loop_
_space_group_symop_operation_xyz
x,y,z
-x,-y,-z
loop_
_atom_site_type_symbol
_atom_site_label
_atom_site_fract_x
_atom_site_fract_y
_atom_site_fract_z
Si Si1 0.519690 0.557640 0.254154
Si Si2 0.872140 0.943997 0.415768
Si Si3 0.834623 0.717798 0.493965
Si Si4 0.110020 0.225518 0.301299
Si Si5 0.551490 0.796659 0.028278
Si Si6 0.760477 0.201593 0.147282
Si Si7 0.425024 0.911760 0.710740
O O1 0.379867 0.808520 0.435664
O O2 0.560173 0.287410 0.150431
O O3 0.776113 0.650711 0.267378
O O4 0.379196 0.481758 0.162215
O O5 0.035316 0.027801 0.399051
O O6 0.000000 0.000000 0.500000
O O7 0.566334 0.854217 0.611216
O O8 0.018660 0.496754 0.409772
O O9 0.143044 0.841992 0.690957
O O10 0.249466 0.937334 0.109040
O O11 0.347906 0.265271 0.352612
O O12 0.807425 0.505260 0.329170
O O13 0.682324 0.036486 0.119154
O O14 0.599292 0.793979 0.094129
O O15 0.000000 0.000000 0.000000
#
# Coordination Sequence:
#
# PCOD9010649 Si02
#       7
#     2   2   2   2   2   2   2
#     4  11  24  43  64  94 133 176 227 272 334 403
#     4  11  25  43  63  92 129 188 223 273 320 394
#     4  12  21  41  66  94 134 170 229 268 333 410
#     4  10  21  40  64 103 131 169 213 279 350 397
#     4  10  23  39  65  98 134 162 219 273 350 395
#     4  12  23  38  70 102 136 172 217 282 350 399
#     4  10  24  38  67 102 131 177 211 284 349 395
#
# _framework density 24.399887
#
# number of rings (size 3 to 8) (size 9 to 14) (size 15 to 20)
#    0.857    0.286    2.857    3.857    0.000    1.143 
#    0.000    0.714    0.000    1.714    0.000    0.000 
#    0.000    0.000    0.000    0.000    0.000    0.000 
#
# Total GULP energy -78102.005975 kJ/mol
# GULP energy per Si atom -5578.714713 kJ/mol
# Density = 2.434435 g / cm^3
# Si number density = 24.399887 Si / 1000 Ang^3
#
#
#
# Elastic Constant Matrix: (Units=GPa)
#
#
# Indices 1 2 3 4 5 6 
#
# 1 102.2390 34.7679 -3.1303 -2.2878 -8.1738 21.9996
# 2 34.7679 84.9500 19.6777 -2.6266 -8.1625 36.4488
# 3 -3.1303 19.6777 92.8025 -23.5455 4.9748 12.6931
# 4 -2.2878 -2.6266 -23.5455 38.2642 12.6269 -2.5594
# 5 -8.1738 -8.1625 4.9748 12.6269 28.3712 -5.2542
# 6 21.9996 36.4488 12.6931 -2.5594 -5.2542 42.2833
#
#
#
# Elastic Compliance Matrix: (Units=1/GPa)
#
#
# Indices 1 2 3 4 5 6 
#
# 1 0.011938 -0.003761 0.001885 0.001087 0.000921 -0.003355
# 2 -0.003761 0.020655 -0.003645 -0.003455 0.004365 -0.014421
# 3 0.001885 -0.003645 0.015650 0.012364 -0.009297 -0.002944
# 4 0.001087 -0.003455 0.012364 0.040441 -0.021120 -0.001476
# 5 0.000921 0.004365 -0.009297 -0.021120 0.048407 0.003286
# 6 -0.003355 -0.014421 -0.002944 -0.001476 0.003286 0.039029
#
#
# Mechanical properties :
#
#
# Convention : Reuss Voigt Hill
#
# Bulk Modulus (GPa) = 26.87999 42.51356 34.69677
# Shear Modulus (GPa) = 25.05506 37.02882 31.04194
#
# Velocity S-wave (km/s) = 3.20793 3.89984 3.57068
# Velocity P-wave (km/s) = 4.97609 6.14328 5.59023
#
# Compressibility (1/GPa) = 0.03720240
#
# Stress axis : x y z
#
# Youngs Moduli (GPa) = 83.76919 48.41402 63.89796
#
# Poissons Ratio (x) = 0.18208 -0.12048
# Poissons Ratio (y) = 0.31505 0.23288
# Poissons Ratio (z) = -0.15794 0.17645
#
# Static dielectric constant tensor:
#      x y z
#    x 2.042450 -0.022020 -0.017340 
#    y -0.022020 1.955130 -0.065900 
#    z -0.017340 -0.065900 2.062000 
# 
# From -- ./inp_files/604775.got.cif
#   From: 2010.05.17/outbox.cif.g08.bks.cpg/sg2_303_cif.got.tgz:604775.got - 2010.06.03 11:33:40.
