data_PCOD9010328
_publ_section_title
;
Structure prediction by ZEFSAII (Michael W. Deem and Ramdas Pophale) SiO2 
 PCOD9010328
Probable space group: P -1
;
_chemical_formula_sum "Si O2"
_cell_formula_units_Z 16
_cell_length_a 8.728927
_cell_length_b 16.514064
_cell_length_c 11.805398
_cell_angle_alpha 64.417167
_cell_angle_beta 99.910597
_cell_angle_gamma 144.319974
_cell_volume 842.050866
_symmetry_space_group_name_H-M "P -1"
_symmetry_group_IT_number 2
_symmetry_cell_setting 'triclinic'
loop_
_space_group_symop_operation_xyz
x,y,z
-x,-y,-z
loop_
_atom_site_type_symbol
_atom_site_label
_atom_site_fract_x
_atom_site_fract_y
_atom_site_fract_z
Si Si1 0.420570 0.878167 0.483922
Si Si2 0.948473 0.760851 0.366047
Si Si3 0.057970 0.936003 0.710008
Si Si4 0.701370 0.399925 0.030776
Si Si5 0.502917 0.422825 0.390229
Si Si6 0.523329 0.280329 0.326086
Si Si7 0.895776 0.972687 0.876581
Si Si8 0.703123 0.597002 0.860539
O O1 0.358521 0.763479 0.626181
O O2 0.182755 0.806561 0.417993
O O3 0.500000 0.000000 0.500000
O O4 0.667127 0.951695 0.395493
O O5 0.743208 0.600819 0.362456
O O6 0.756136 0.704028 0.479740
O O7 0.066026 0.904323 0.227908
O O8 0.811188 0.869332 0.648765
O O9 0.070035 0.997629 0.790883
O O10 0.948762 0.782678 0.813011
O O11 0.646103 0.386696 0.165887
O O12 0.427886 0.214206 0.066228
O O13 0.744299 0.511994 0.900703
O O14 0.000000 0.500000 0.000000
O O15 0.594996 0.367798 0.397012
O O16 0.405202 0.418152 0.262619
O O17 0.000000 0.000000 0.000000
O O18 0.500000 0.500000 0.000000
#
# Coordination Sequence:
#
# PCOD9010328 Si02
#       8
#     2   2   2   2   2   2   2   2
#     4  12  23  38  62  95 125 159 210 269 311 366
#     4  11  25  39  65  93 126 161 214 259 315 378
#     4  10  22  38  63  90 122 164 211 256 313 375
#     4  11  24  37  60  96 123 158 214 263 307 366
#     4  10  22  44  63  89 124 172 207 256 317 381
#     4  10  21  40  63  84 125 167 208 256 314 375
#     4  11  23  45  64  90 127 174 208 255 323 389
#     4  11  19  39  65  86 117 167 212 247 305 378
#
# _framework density 19.001227
#
# number of rings (size 3 to 8) (size 9 to 14) (size 15 to 20)
#    0.000    1.250    3.750    4.875    5.250    0.500 
#    2.250    0.625    0.000    0.000    0.000    0.000 
#    0.000    0.000    0.000    0.000    0.000    0.000 
#
# Total GULP energy -89175.946862 kJ/mol
# GULP energy per Si atom -5573.496679 kJ/mol
# Density = 1.895798 g / cm^3
# Si number density = 19.001227 Si / 1000 Ang^3
#
#
#
# Elastic Constant Matrix: (Units=GPa)
#
#
# Indices 1 2 3 4 5 6 
#
# 1 109.0370 55.3311 40.7535 3.7448 15.0669 -7.6919
# 2 55.3311 55.4426 32.5015 10.1591 -0.8220 -8.5809
# 3 40.7535 32.5015 89.9142 4.9337 18.2753 -10.7241
# 4 3.7448 10.1591 4.9337 27.8154 -10.4946 -2.3454
# 5 15.0669 -0.8220 18.2753 -10.4946 49.1111 -3.2378
# 6 -7.6919 -8.5809 -10.7241 -2.3454 -3.2378 26.4470
#
#
#
# Elastic Compliance Matrix: (Units=1/GPa)
#
#
# Indices 1 2 3 4 5 6 
#
# 1 0.020823 -0.021047 -0.000973 0.002685 -0.005914 -0.001653
# 2 -0.021047 0.046265 -0.007722 -0.008946 0.008590 0.006017
# 3 -0.000973 -0.007722 0.016016 -0.001924 -0.006017 0.002799
# 4 0.002685 -0.008946 -0.001924 0.042767 0.009013 0.001994
# 5 -0.005914 0.008590 -0.006017 0.009013 0.026663 0.002690
# 6 -0.001653 0.006017 0.002799 0.001994 0.002690 0.040924
#
#
# Mechanical properties :
#
#
# Convention : Reuss Voigt Hill
#
# Bulk Modulus (GPa) = 42.33204 56.84067 49.58635
# Shear Modulus (GPa) = 19.17063 29.06190 24.11627
#
# Velocity S-wave (km/s) = 3.17979 3.91509 3.56644
# Velocity P-wave (km/s) = 5.98401 7.10045 6.56600
#
# Compressibility (1/GPa) = 0.02362277
#
# Stress axis : x y z
#
# Youngs Moduli (GPa) = 48.02297 21.61438 62.43662
#
# Poissons Ratio (x) = 0.45491 0.06074
# Poissons Ratio (y) = 1.01073 0.48211
# Poissons Ratio (z) = 0.04672 0.16690
#
# Static dielectric constant tensor:
#      x y z
#    x 1.641730 0.018970 -0.269810 
#    y 0.018970 1.676460 -0.042960 
#    z -0.269810 -0.042960 1.849170 
# 
# From -- ./inp_files/402041.got.cif
#   From: 2010.05.17/outbox.cif.g08.bks.cpg/sg2_202_cif.got.tgz:402041.got - 2010.06.03 11:33:40.
