data_PCOD9010032
_publ_section_title
;
Structure prediction by ZEFSAII (Michael W. Deem and Ramdas Pophale) SiO2 
 PCOD9010032
Probable space group: P -1
;
_chemical_formula_sum "Si O2"
_cell_formula_units_Z 16
_cell_length_a 8.630842
_cell_length_b 17.359976
_cell_length_c 23.409947
_cell_angle_alpha 21.552551
_cell_angle_beta 36.412501
_cell_angle_gamma 41.259867
_cell_volume 764.768890
_symmetry_space_group_name_H-M "P -1"
_symmetry_group_IT_number 2
_symmetry_cell_setting 'triclinic'
loop_
_space_group_symop_operation_xyz
x,y,z
-x,-y,-z
loop_
_atom_site_type_symbol
_atom_site_label
_atom_site_fract_x
_atom_site_fract_y
_atom_site_fract_z
Si Si1 0.638376 0.606837 0.270114
Si Si2 0.253451 0.980439 0.763554
Si Si3 0.098818 0.887340 0.991819
Si Si4 0.313582 0.150084 0.134626
Si Si5 0.845492 0.842543 0.695374
Si Si6 0.897679 0.612754 0.075101
Si Si7 0.959352 0.364615 0.548346
Si Si8 0.271290 0.660153 0.475557
O O1 0.664731 0.598196 0.200274
O O2 0.348466 0.691174 0.312842
O O3 0.716400 0.382479 0.430570
O O4 0.863018 0.748579 0.133892
O O5 0.168309 0.037532 0.814383
O O6 0.545473 0.896450 0.733091
O O7 0.175492 0.182877 0.611743
O O8 0.078770 0.793134 0.922059
O O9 0.385178 0.785229 0.988333
O O10 0.000000 0.000000 0.000000
O O11 0.149345 0.141538 0.247966
O O12 0.314108 0.905963 0.282890
O O13 0.194526 0.306040 0.015229
O O14 0.946152 0.606128 0.818093
O O15 0.000000 0.000000 0.500000
O O16 0.956388 0.425038 0.440001
O O17 0.000000 0.500000 0.500000
O O18 0.500000 0.500000 0.500000
#
# Coordination Sequence:
#
# PCOD9010032 Si02
#       8
#     2   2   2   2   2   2   2   2
#     4  10  24  39  63  96 134 174 211 262 330 391
#     4  10  24  42  65  94 131 177 213 270 330 383
#     4  10  22  36  62  94 135 171 207 253 329 395
#     4  11  23  42  68  98 130 172 219 270 325 386
#     4  11  25  45  71  91 127 173 226 272 329 386
#     4  11  23  44  67  97 132 167 225 274 321 385
#     4  11  24  37  66  97 135 170 221 267 323 390
#     4  10  21  40  61  91 135 176 208 260 324 386
#
# _framework density 20.921354000000001
#
# number of rings (size 3 to 8) (size 9 to 14) (size 15 to 20)
#    0.000    1.500    1.250    3.000   12.250    1.000 
#    0.000    0.625    0.000    0.000    0.000    0.000 
#    0.000    0.000    0.000    0.000    0.000    0.000 
#
# Total GULP energy -89125.678902 kJ/mol
# GULP energy per Si atom -5570.354931 kJ/mol
# Density = 2.087374 g / cm^3
# Si number density = 20.921354 Si / 1000 Ang^3
#
#
#
# Elastic Constant Matrix: (Units=GPa)
#
#
# Indices 1 2 3 4 5 6 
#
# 1 107.3296 11.4284 25.2149 6.5935 24.2796 -0.9722
# 2 11.4284 64.1695 7.6988 1.2873 8.9654 7.7052
# 3 25.2149 7.6988 56.2302 -5.6867 20.4562 -4.5624
# 4 6.5935 1.2873 -5.6867 41.0220 1.2384 3.1421
# 5 24.2796 8.9654 20.4562 1.2384 44.2592 -2.8941
# 6 -0.9722 7.7052 -4.5624 3.1421 -2.8941 31.4978
#
#
#
# Elastic Compliance Matrix: (Units=1/GPa)
#
#
# Indices 1 2 3 4 5 6 
#
# 1 0.011379 -0.000928 -0.003632 -0.002163 -0.004324 -0.000129
# 2 -0.000928 0.016819 -0.001333 -0.000137 -0.002576 -0.004559
# 3 -0.003632 -0.001333 0.023258 0.003919 -0.008439 0.002417
# 4 -0.002163 -0.000137 0.003919 0.025480 -0.001450 -0.002141
# 5 -0.004324 -0.002576 -0.008439 -0.001450 0.029568 0.002136
# 6 -0.000129 -0.004559 0.002417 -0.002141 0.002136 0.033619
#
#
# Mechanical properties :
#
#
# Convention : Reuss Voigt Hill
#
# Bulk Modulus (GPa) = 25.20827 35.15705 30.18266
# Shear Modulus (GPa) = 30.27872 35.58163 32.93017
#
# Velocity S-wave (km/s) = 3.80842 4.12847 3.97167
# Velocity P-wave (km/s) = 5.60482 6.29019 5.95737
#
# Compressibility (1/GPa) = 0.03966951
#
# Stress axis : x y z
#
# Youngs Moduli (GPa) = 87.88220 59.45646 42.99672
#
# Poissons Ratio (x) = 0.05516 0.15616
# Poissons Ratio (y) = 0.08154 0.05733
# Poissons Ratio (z) = 0.31917 0.07927
#
# Static dielectric constant tensor:
#      x y z
#    x 1.821320 0.061220 0.035640 
#    y 0.061220 1.767390 0.056430 
#    z 0.035640 0.056430 1.843520 
# 
# From -- ./inp_files/608376.got.cif
#   From: 2010.05.17/outbox.cif.g08.bks.cpg/sg2_305_cif.got.tgz:608376.got - 2010.06.03 11:33:40.
