data_PCOD9010057
_publ_section_title
;
Structure prediction by ZEFSAII (Michael W. Deem and Ramdas Pophale) SiO2 
 PCOD9010057
Probable space group: P -1
;
_chemical_formula_sum "Si O2"
_cell_formula_units_Z 12
_cell_length_a 13.391523
_cell_length_b 7.286577
_cell_length_c 5.050072
_cell_angle_alpha 77.252047
_cell_angle_beta 88.184902
_cell_angle_gamma 99.041715
_cell_volume 473.531162
_symmetry_space_group_name_H-M "P -1"
_symmetry_group_IT_number 2
_symmetry_cell_setting 'triclinic'
loop_
_space_group_symop_operation_xyz
x,y,z
-x,-y,-z
loop_
_atom_site_type_symbol
_atom_site_label
_atom_site_fract_x
_atom_site_fract_y
_atom_site_fract_z
Si Si1 0.554930 0.818451 0.535678
Si Si2 0.240633 0.473818 0.278265
Si Si3 0.215727 0.054615 0.470170
Si Si4 0.382269 0.479801 0.757102
Si Si5 0.963857 0.175136 0.598615
Si Si6 0.100611 0.736604 0.937555
O O1 0.666147 0.900698 0.607037
O O2 0.479512 0.644347 0.731703
O O3 0.582012 0.713618 0.293232
O O4 0.500000 0.000000 0.500000
O O5 0.185074 0.263091 0.434785
O O6 0.311418 0.543141 0.504316
O O7 0.161135 0.594423 0.129489
O O8 0.315801 0.455781 0.032667
O O9 0.152233 0.929975 0.292087
O O10 0.181132 0.918611 0.764926
O O11 0.993079 0.230675 0.874892
O O12 0.950427 0.327176 0.325112
O O13 0.000000 0.000000 0.500000
#
# Coordination Sequence:
#
# PCOD9010057 Si02
#       6
#     2   2   2   2   2   2
#     4  10  21  40  61  94 129 175 216 260 315 379
#     4  11  22  43  64  91 133 170 210 265 313 376
#     4   9  24  38  65  91 124 167 213 256 317 370
#     4  10  24  40  59  93 136 169 216 270 306 367
#     4  10  22  43  66  92 127 158 207 268 317 382
#     4  10  22  39  66  92 121 168 206 257 325 377
#
# _framework density 25.341525000000001
#
# number of rings (size 3 to 8) (size 9 to 14) (size 15 to 20)
#    1.000    1.000    0.000    2.500    7.000    6.000 
#    0.000    6.667    0.000    0.000    0.000    0.000 
#    0.000    0.000    0.000    0.000    0.000    0.000 
#
# Total GULP energy -66906.335590 kJ/mol
# GULP energy per Si atom -5575.527966 kJ/mol
# Density = 2.528385 g / cm^3
# Si number density = 25.341525 Si / 1000 Ang^3
#
#
#
# Elastic Constant Matrix: (Units=GPa)
#
#
# Indices 1 2 3 4 5 6 
#
# 1 68.8606 35.6428 35.7657 -18.7121 1.8756 -14.5270
# 2 35.6428 78.7087 16.3154 -38.2468 -9.2587 -0.4668
# 3 35.7657 16.3154 143.0326 -1.0676 -2.5412 -1.3038
# 4 -18.7121 -38.2468 -1.0676 40.7344 -12.2010 3.1172
# 5 1.8756 -9.2587 -2.5412 -12.2010 45.3422 -9.4410
# 6 -14.5270 -0.4668 -1.3038 3.1172 -9.4410 36.5053
#
#
#
# Elastic Compliance Matrix: (Units=1/GPa)
#
#
# Indices 1 2 3 4 5 6 
#
# 1 0.024187 -0.009491 -0.004895 0.001068 -0.001059 0.008964
# 2 -0.009491 0.035899 -0.001190 0.034412 0.016493 -0.002033
# 3 -0.004895 -0.001190 0.008298 -0.003262 -0.000785 -0.001591
# 4 0.001068 0.034412 -0.003262 0.064476 0.024477 0.001573
# 5 -0.001059 0.016493 -0.000785 0.024477 0.033318 0.006288
# 6 0.008964 -0.002033 -0.001591 0.001573 0.006288 0.032369
#
#
# Mechanical properties :
#
#
# Convention : Reuss Voigt Hill
#
# Bulk Modulus (GPa) = 26.85775 51.78329 39.32052
# Shear Modulus (GPa) = 20.65179 38.04157 29.34668
#
# Velocity S-wave (km/s) = 2.85781 3.87868 3.40670
# Velocity P-wave (km/s) = 4.63797 6.36690 5.56993
#
# Compressibility (1/GPa) = 0.03723320
#
# Stress axis : x y z
#
# Youngs Moduli (GPa) = 41.34484 27.85571 120.50648
#
# Poissons Ratio (x) = 0.26437 0.58982
# Poissons Ratio (y) = 0.39239 0.14346
# Poissons Ratio (z) = 0.20236 0.03316
#
# Static dielectric constant tensor:
#      x y z
#    x 2.194200 -0.099520 0.026320 
#    y -0.099520 2.150540 0.067530 
#    z 0.026320 0.067530 2.003150 
# 
# From -- ./inp_files/87050.got.cif
#   From: 2010.05.17/outbox.cif.g08.bks.cpg/sg2_44_cif.got.tgz:87050.got - 2010.06.03 11:33:40.
