data_PCOD9010377
_publ_section_title
;
Structure prediction by ZEFSAII (Michael W. Deem and Ramdas Pophale) SiO2 
 PCOD9010377
Probable space group: P -1
;
_chemical_formula_sum "Si O2"
_cell_formula_units_Z 16
_cell_length_a 9.067089
_cell_length_b 12.669113
_cell_length_c 14.155513
_cell_angle_alpha 45.428778
_cell_angle_beta 72.517664
_cell_angle_gamma 106.552885
_cell_volume 755.621897
_symmetry_space_group_name_H-M "P -1"
_symmetry_group_IT_number 2
_symmetry_cell_setting 'triclinic'
loop_
_space_group_symop_operation_xyz
x,y,z
-x,-y,-z
loop_
_atom_site_type_symbol
_atom_site_label
_atom_site_fract_x
_atom_site_fract_y
_atom_site_fract_z
Si Si1 0.414536 0.008433 0.412418
Si Si2 0.063340 0.055482 0.749913
Si Si3 0.846704 0.528332 0.544877
Si Si4 0.119586 0.640796 0.983585
Si Si5 0.922154 0.622439 0.687597
Si Si6 0.753811 0.600696 0.170374
Si Si7 0.731740 0.798549 0.579643
Si Si8 0.465129 0.643272 0.446299
O O1 0.631034 0.130172 0.230843
O O2 0.341699 0.123290 0.384717
O O3 0.500000 0.000000 0.500000
O O4 0.192949 0.793860 0.537662
O O5 0.071256 0.242395 0.635627
O O6 0.097111 0.040063 0.641238
O O7 0.288907 0.142386 0.698354
O O8 0.853150 0.834609 0.984044
O O9 0.832799 0.515517 0.668787
O O10 0.624815 0.346866 0.637795
O O11 0.000000 0.500000 0.500000
O O12 0.163686 0.539181 0.111057
O O13 0.000000 0.500000 0.000000
O O14 0.940639 0.630030 0.066216
O O15 0.844774 0.737085 0.646090
O O16 0.503677 0.415622 0.290079
O O17 0.716640 0.502913 0.342545
O O18 0.500000 0.500000 0.500000
#
# Coordination Sequence:
#
# PCOD9010377 Si02
#       8
#     2   2   2   2   2   2   2   2
#     4  12  23  41  66  91 128 173 221 259 315 390
#     4   9  21  38  66  96 123 169 215 251 316 389
#     4  10  21  40  63  88 127 162 205 268 322 364
#     4  12  24  41  62  94 127 172 212 264 320 379
#     4  11  25  42  62  93 128 169 219 264 324 387
#     4  11  21  40  67  97 132 166 219 262 311 389
#     4  10  22  40  63  94 136 171 205 271 319 372
#     4   9  20  40  64  91 124 170 213 261 317 369
#
# _framework density 21.174612
#
# number of rings (size 3 to 8) (size 9 to 14) (size 15 to 20)
#    0.000    1.500    2.500    2.625    0.000    7.500 
#    0.000    1.250    0.000   16.500    0.000    0.000 
#    0.000    0.000    0.000    0.000    0.000    0.000 
#
# Total GULP energy -89225.825277 kJ/mol
# GULP energy per Si atom -5576.614080 kJ/mol
# Density = 2.112642 g / cm^3
# Si number density = 21.174612 Si / 1000 Ang^3
#
#
#
# Elastic Constant Matrix: (Units=GPa)
#
#
# Indices 1 2 3 4 5 6 
#
# 1 126.6841 30.8235 15.8510 16.3341 3.8702 5.7817
# 2 30.8235 68.5421 24.8153 15.4361 7.4675 0.0528
# 3 15.8510 24.8153 88.3352 6.7672 -8.8962 18.3158
# 4 16.3341 15.4361 6.7672 16.0072 -0.7995 0.6620
# 5 3.8702 7.4675 -8.8962 -0.7995 34.7609 10.0033
# 6 5.7817 0.0528 18.3158 0.6620 10.0033 48.0153
#
#
#
# Elastic Compliance Matrix: (Units=1/GPa)
#
#
# Indices 1 2 3 4 5 6 
#
# 1 0.009518 -0.002476 -0.000354 -0.007170 -0.000555 -0.000794
# 2 -0.002476 0.022786 -0.006389 -0.017334 -0.007980 0.004612
# 3 -0.000354 -0.006389 0.015417 0.000685 0.007504 -0.007404
# 4 -0.007170 -0.017334 0.000685 0.086665 0.007293 -0.002094
# 5 -0.000555 -0.007980 0.007504 0.007293 0.035597 -0.010304
# 6 -0.000794 0.004612 -0.007404 -0.002094 -0.010304 0.025917
#
#
# Mechanical properties :
#
#
# Convention : Reuss Voigt Hill
#
# Bulk Modulus (GPa) = 34.14992 47.39343 40.77167
# Shear Modulus (GPa) = 22.31147 33.89480 28.10313
#
# Velocity S-wave (km/s) = 3.24958 4.00525 3.64704
# Velocity P-wave (km/s) = 5.49932 6.61968 6.08534
#
# Compressibility (1/GPa) = 0.02928265
#
# Stress axis : x y z
#
# Youngs Moduli (GPa) = 105.06308 43.88700 64.86251
#
# Poissons Ratio (x) = 0.10868 0.02298
# Poissons Ratio (y) = 0.26017 0.41438
# Poissons Ratio (z) = 0.03723 0.28038
#
# Static dielectric constant tensor:
#      x y z
#    x 1.737290 -0.010830 0.026270 
#    y -0.010830 1.749150 -0.010430 
#    z 0.026270 -0.010430 1.744750 
# 
# From -- ./inp_files/505268.got.cif
#   From: 2010.05.17/outbox.cif.g08.bks.cpg/sg2_253_cif.got.tgz:505268.got - 2010.06.03 11:33:40.
