data_PCOD9010584
_publ_section_title
;
Structure prediction by ZEFSAII (Michael W. Deem and Ramdas Pophale) SiO2 
 PCOD9010584
Probable space group: P -1
;
_chemical_formula_sum "Si O2"
_cell_formula_units_Z 16
_cell_length_a 12.452471
_cell_length_b 14.225928
_cell_length_c 8.758370
_cell_angle_alpha 149.150872
_cell_angle_beta 100.884172
_cell_angle_gamma 89.043205
_cell_volume 747.995566
_symmetry_space_group_name_H-M "P -1"
_symmetry_group_IT_number 2
_symmetry_cell_setting 'triclinic'
loop_
_space_group_symop_operation_xyz
x,y,z
-x,-y,-z
loop_
_atom_site_type_symbol
_atom_site_label
_atom_site_fract_x
_atom_site_fract_y
_atom_site_fract_z
Si Si1 0.599050 0.927617 0.345201
Si Si2 0.781766 0.575165 0.132424
Si Si3 0.193157 0.115121 0.189649
Si Si4 0.021185 0.836276 0.938472
Si Si5 0.576655 0.867462 0.892863
Si Si6 0.163856 0.746431 0.124005
Si Si7 0.989952 0.836863 0.398805
Si Si8 0.553461 0.495787 0.840718
O O1 0.500000 0.000000 0.500000
O O2 0.723063 0.076784 0.624258
O O3 0.583788 0.902899 0.124893
O O4 0.586076 0.713174 0.096535
O O5 0.758561 0.755837 0.467634
O O6 0.880313 0.656851 0.146340
O O7 0.805666 0.444186 0.091431
O O8 0.671521 0.449382 0.839943
O O9 0.295128 0.090262 0.079411
O O10 0.108844 0.226029 0.241944
O O11 0.116892 0.904434 0.929945
O O12 0.072506 0.732368 0.941097
O O13 0.016618 0.041511 0.286740
O O14 0.518304 0.654025 0.510477
O O15 0.500000 0.000000 0.000000
O O16 0.100610 0.776662 0.305195
O O17 0.000000 0.000000 0.500000
O O18 0.500000 0.500000 0.000000
#
# Coordination Sequence:
#
# PCOD9010584 Si02
#       8
#     2   2   2   2   2   2   2   2
#     4  12  27  45  71 100 138 185 233 292 353 420
#     4  11  22  38  66  98 138 182 223 290 344 420
#     4  10  21  40  63  95 136 180 230 283 350 413
#     4   9  20  37  64  92 131 180 224 285 346 416
#     4  12  26  44  71 104 138 183 238 289 355 419
#     4  11  22  39  65  98 134 179 234 280 354 415
#     4   9  18  36  61  90 125 171 225 272 337 401
#     4  12  24  46  69  99 138 183 231 288 349 418
#
# _framework density 21.390501
#
# number of rings (size 3 to 8) (size 9 to 14) (size 15 to 20)
#    0.000    1.250    1.250    6.000    1.750    1.500 
#    0.000    1.250    0.000    0.000    0.000    0.000 
#    0.000    0.000    0.000    0.000    0.000    0.000 
#
# Total GULP energy -89115.932089 kJ/mol
# GULP energy per Si atom -5569.745756 kJ/mol
# Density = 2.134182 g / cm^3
# Si number density = 21.390501 Si / 1000 Ang^3
#
#
#
# Elastic Constant Matrix: (Units=GPa)
#
#
# Indices 1 2 3 4 5 6 
#
# 1 145.9828 57.4828 49.5938 -7.8433 12.2796 20.1596
# 2 57.4828 130.7489 23.4581 1.7005 4.2313 -3.4888
# 3 49.5938 23.4581 67.8518 -1.6364 1.6525 4.9410
# 4 -7.8433 1.7005 -1.6364 32.4940 -1.8791 -1.2814
# 5 12.2796 4.2313 1.6525 -1.8791 29.3544 -3.4902
# 6 20.1596 -3.4888 4.9410 -1.2814 -3.4902 41.1451
#
#
#
# Elastic Compliance Matrix: (Units=1/GPa)
#
#
# Indices 1 2 3 4 5 6 
#
# 1 0.012110 -0.004133 -0.006834 0.002300 -0.004626 -0.005784
# 2 -0.004133 0.009644 -0.000575 -0.001380 0.000630 0.002922
# 3 -0.006834 -0.000575 0.019795 -0.000469 0.001924 0.001071
# 4 0.002300 -0.001380 -0.000469 0.031448 0.001264 -0.000101
# 5 -0.004626 0.000630 0.001924 0.001264 0.036505 0.005225
# 6 -0.005784 0.002922 0.001071 -0.000101 0.005225 0.027698
#
#
# Mechanical properties :
#
#
# Convention : Reuss Voigt Hill
#
# Bulk Modulus (GPa) = 54.14977 67.29476 60.72226
# Shear Modulus (GPa) = 30.04127 34.86861 32.45494
#
# Velocity S-wave (km/s) = 3.75163 4.04183 3.89943
# Velocity P-wave (km/s) = 6.64350 7.30139 6.98020
#
# Compressibility (1/GPa) = 0.01846730
#
# Stress axis : x y z
#
# Youngs Moduli (GPa) = 82.57322 103.69303 50.51706
#
# Poissons Ratio (x) = 0.42854 0.34521
# Poissons Ratio (y) = 0.34126 0.02904
# Poissons Ratio (z) = 0.56427 0.05961
#
# Static dielectric constant tensor:
#      x y z
#    x 1.688150 0.327130 0.072530 
#    y 0.327130 1.202780 0.001480 
#    z 0.072530 0.001480 2.308360 
# 
# From -- ./inp_files/274908.got.cif
#   From: 2010.05.17/outbox.cif.g08.bks.cpg/sg2_138_cif.got.tgz:274908.got - 2010.06.03 11:33:40.
