data_PCOD9010816
_publ_section_title
;
Structure prediction by ZEFSAII (Michael W. Deem and Ramdas Pophale) SiO2 
 PCOD9010816
Probable space group: P -1
;
_chemical_formula_sum "Si O2"
_cell_formula_units_Z 16
_cell_length_a 7.378437
_cell_length_b 20.358019
_cell_length_c 17.201078
_cell_angle_alpha 161.083734
_cell_angle_beta 63.792850
_cell_angle_gamma 124.460063
_cell_volume 646.858936
_symmetry_space_group_name_H-M "P -1"
_symmetry_group_IT_number 2
_symmetry_cell_setting 'triclinic'
loop_
_space_group_symop_operation_xyz
x,y,z
-x,-y,-z
loop_
_atom_site_type_symbol
_atom_site_label
_atom_site_fract_x
_atom_site_fract_y
_atom_site_fract_z
Si Si1 0.921061 0.913359 0.830619
Si Si2 0.404225 0.246099 0.516290
Si Si3 0.361188 0.752920 0.944981
Si Si4 0.403754 0.729106 0.733781
Si Si5 0.244891 0.381338 0.239180
Si Si6 0.144633 0.262690 0.729247
Si Si7 0.716394 0.232329 0.679679
Si Si8 0.000324 0.292109 0.553528
O O1 0.648034 0.730474 0.684477
O O2 0.036171 0.796097 0.626661
O O3 0.000000 0.000000 0.000000
O O4 0.993445 0.148722 0.030971
O O5 0.646475 0.471163 0.693983
O O6 0.336864 0.266191 0.639033
O O7 0.192177 0.234472 0.490560
O O8 0.413549 0.013424 0.238974
O O9 0.307174 0.685286 0.789259
O O10 0.576937 0.712917 0.879196
O O11 0.142138 0.574564 0.839901
O O12 0.254517 0.556153 0.499741
O O13 0.500000 0.000000 0.000000
O O14 0.946690 0.270956 0.724178
O O15 0.268699 0.514199 0.033106
O O16 0.000000 0.000000 0.500000
O O17 0.768093 0.188282 0.532340
O O18 0.500000 0.000000 0.500000
#
# Coordination Sequence:
#
# PCOD9010816 Si02
#       8
#     2   2   2   2   2   2   2   2
#     4  12  23  39  63  95 126 168 216 260 311 373
#     4  10  21  40  64  93 124 169 209 259 322 382
#     4  11  19  39  64  86 124 168 209 257 314 368
#     4  12  22  42  62  87 127 172 211 261 314 371
#     4  11  23  38  63  88 126 165 214 260 311 373
#     4  10  22  43  69  97 130 166 215 271 329 393
#     4  10  23  43  70  97 130 173 214 267 335 392
#     4  10  22  41  64  93 128 170 209 262 320 381
#
# _framework density 24.734915000000001
#
# number of rings (size 3 to 8) (size 9 to 14) (size 15 to 20)
#    0.000    1.250    5.000    1.875    1.750    2.000 
#    0.000    2.500    0.000    0.000    0.000    0.000 
#    0.000    0.000    0.000    0.000    0.000    0.000 
#
# Total GULP energy -89506.840720 kJ/mol
# GULP energy per Si atom -5594.177545 kJ/mol
# Density = 2.467862 g / cm^3
# Si number density = 24.734915 Si / 1000 Ang^3
#
#
#
# Elastic Constant Matrix: (Units=GPa)
#
#
# Indices 1 2 3 4 5 6 
#
# 1 60.7481 24.9784 15.4275 1.4501 -12.6149 12.6956
# 2 24.9784 201.2452 80.1511 8.4942 -6.0598 20.6291
# 3 15.4275 80.1511 167.0611 18.0277 -23.4739 6.4159
# 4 1.4501 8.4942 18.0277 51.3980 -0.5764 2.0149
# 5 -12.6149 -6.0598 -23.4739 -0.5764 40.0889 8.7690
# 6 12.6956 20.6291 6.4159 2.0149 8.7690 26.7549
#
#
#
# Elastic Compliance Matrix: (Units=1/GPa)
#
#
# Indices 1 2 3 4 5 6 
#
# 1 0.021451 -0.001281 0.000446 0.000044 0.009537 -0.012427
# 2 -0.001281 0.006694 -0.003011 0.000129 -0.000337 -0.003731
# 3 0.000446 -0.003011 0.008373 -0.002346 0.004840 -0.001307
# 4 0.000044 0.000129 -0.002346 0.020278 -0.000874 -0.000798
# 5 0.009537 -0.000337 0.004840 -0.000874 0.034352 -0.016620
# 6 -0.012427 -0.003731 -0.001307 -0.000798 -0.016620 0.051971
#
#
# Mechanical properties :
#
#
# Convention : Reuss Voigt Hill
#
# Bulk Modulus (GPa) = 34.69073 74.46317 54.57695
# Shear Modulus (GPa) = 31.16823 44.21484 37.69154
#
# Velocity S-wave (km/s) = 3.55363 4.23253 3.90785
# Velocity P-wave (km/s) = 5.55816 7.35225 6.51723
#
# Compressibility (1/GPa) = 0.02882615
#
# Stress axis : x y z
#
# Youngs Moduli (GPa) = 46.61714 149.38126 119.43379
#
# Poissons Ratio (x) = 0.19136 -0.05329
# Poissons Ratio (y) = 0.05972 0.35965
# Poissons Ratio (z) = -0.02080 0.44983
#
# Static dielectric constant tensor:
#      x y z
#    x 2.064490 -0.007350 -0.027460 
#    y -0.007350 1.963880 -0.004020 
#    z -0.027460 -0.004020 1.970750 
# 
# From -- ./inp_files/562775.got.cif
#   From: 2010.05.17/outbox.cif.g08.bks.cpg/sg2_282_cif.got.tgz:562775.got - 2010.06.03 11:33:40.
