data_PCOD9010290
_publ_section_title
;
Structure prediction by ZEFSAII (Michael W. Deem and Ramdas Pophale) SiO2 
 PCOD9010290
Probable space group: P -1
;
_chemical_formula_sum "Si O2"
_cell_formula_units_Z 14
_cell_length_a 8.051971
_cell_length_b 7.502299
_cell_length_c 15.209539
_cell_angle_alpha 49.336410
_cell_angle_beta 118.166023
_cell_angle_gamma 93.284026
_cell_volume 569.751575
_symmetry_space_group_name_H-M "P -1"
_symmetry_group_IT_number 2
_symmetry_cell_setting 'triclinic'
loop_
_space_group_symop_operation_xyz
x,y,z
-x,-y,-z
loop_
_atom_site_type_symbol
_atom_site_label
_atom_site_fract_x
_atom_site_fract_y
_atom_site_fract_z
Si Si1 0.344420 0.002366 0.137859
Si Si2 0.754010 0.658005 0.550834
Si Si3 0.871942 0.322122 0.537103
Si Si4 0.823862 0.705862 0.833385
Si Si5 0.269792 0.912631 0.728103
Si Si6 0.522136 0.587171 0.680671
Si Si7 0.887850 0.503593 0.185609
O O1 0.250944 0.055459 0.196470
O O2 0.548363 0.062722 0.178066
O O3 0.389988 0.718167 0.210734
O O4 0.202745 0.215048 0.967464
O O5 0.726457 0.464359 0.535095
O O6 0.741560 0.914031 0.416521
O O7 0.600895 0.701394 0.579573
O O8 0.983664 0.516093 0.688712
O O9 0.719989 0.318713 0.422552
O O10 0.000000 0.500000 0.500000
O O11 0.056644 0.058492 0.678179
O O12 0.625841 0.646941 0.774513
O O13 0.938513 0.669491 0.781939
O O14 0.000000 0.500000 0.000000
O O15 0.273611 0.631767 0.803755
#
# Coordination Sequence:
#
# PCOD9010290 Si02
#       7
#     2   2   2   2   2   2   2
#     4  11  23  43  67  97 133 172 218 271 332 390
#     4  10  22  39  65  95 124 175 218 269 330 376
#     4  10  21  40  62  96 132 167 219 267 323 383
#     4   9  23  42  64  97 130 171 216 265 330 387
#     4  11  23  41  65  91 138 174 220 270 319 396
#     4  11  22  42  71  99 130 168 224 274 326 392
#     4  10  23  42  62  96 129 174 220 268 332 386
#
# _framework density 24.572112000000001
#
# number of rings (size 3 to 8) (size 9 to 14) (size 15 to 20)
#    0.000    1.714    2.857    1.286    2.000    8.571 
#    2.571    3.571    0.000    0.000    0.000    0.000 
#    0.000    0.000    0.000    0.000    0.000    0.000 
#
# Total GULP energy -78206.637625 kJ/mol
# GULP energy per Si atom -5586.188402 kJ/mol
# Density = 2.451618 g / cm^3
# Si number density = 24.572112 Si / 1000 Ang^3
#
#
#
# Elastic Constant Matrix: (Units=GPa)
#
#
# Indices 1 2 3 4 5 6 
#
# 1 81.1576 -5.6419 10.1873 7.1851 9.6379 3.7236
# 2 -5.6419 81.7063 25.2597 15.2269 -3.1537 -2.3467
# 3 10.1873 25.2597 48.5105 15.1957 9.5142 -3.3348
# 4 7.1851 15.2269 15.1957 43.5589 5.8850 10.4621
# 5 9.6379 -3.1537 9.5142 5.8850 35.0724 -2.2191
# 6 3.7236 -2.3467 -3.3348 10.4621 -2.2191 27.9272
#
#
#
# Elastic Compliance Matrix: (Units=1/GPa)
#
#
# Indices 1 2 3 4 5 6 
#
# 1 0.013323 0.001911 -0.003096 -0.000998 -0.002597 -0.001818
# 2 0.001911 0.015797 -0.007986 -0.004039 0.003862 0.001939
# 3 -0.003096 -0.007986 0.029351 -0.007423 -0.006234 0.005532
# 4 -0.000998 -0.004039 -0.007423 0.030782 -0.004059 -0.012947
# 5 -0.002597 0.003862 -0.006234 -0.004059 0.032199 0.004006
# 6 -0.001818 0.001939 0.005532 -0.012947 0.004006 0.042042
#
#
# Mechanical properties :
#
#
# Convention : Reuss Voigt Hill
#
# Bulk Modulus (GPa) = 24.91952 30.10942 27.51447
# Shear Modulus (GPa) = 25.61312 33.41631 29.51472
#
# Velocity S-wave (km/s) = 3.23207 3.69172 3.46952
# Velocity P-wave (km/s) = 4.90834 5.51832 5.22224
#
# Compressibility (1/GPa) = 0.04012918
#
# Stress axis : x y z
#
# Youngs Moduli (GPa) = 75.05637 63.30231 34.07065
#
# Poissons Ratio (x) = -0.12094 0.10547
# Poissons Ratio (y) = -0.14340 0.27209
# Poissons Ratio (z) = 0.23235 0.50553
#
# Static dielectric constant tensor:
#      x y z
#    x 2.063860 -0.039630 -0.026160 
#    y -0.039630 2.066070 0.048500 
#    z -0.026160 0.048500 1.962670 
# 
# From -- ./inp_files/556811.got.cif
#   From: 2010.05.17/outbox.cif.g08.bks.cpg/sg2_279_cif.got.tgz:556811.got - 2010.06.03 11:33:40.
