data_PCOD9010232
_publ_section_title
;
Structure prediction by ZEFSAII (Michael W. Deem and Ramdas Pophale) SiO2 
 PCOD9010232
Probable space group: P -1
;
_chemical_formula_sum "Si O2"
_cell_formula_units_Z 16
_cell_length_a 20.377590
_cell_length_b 11.190690
_cell_length_c 21.394302
_cell_angle_alpha 29.160835
_cell_angle_beta 20.381738
_cell_angle_gamma 29.433125
_cell_volume 787.552864
_symmetry_space_group_name_H-M "P -1"
_symmetry_group_IT_number 2
_symmetry_cell_setting 'triclinic'
loop_
_space_group_symop_operation_xyz
x,y,z
-x,-y,-z
loop_
_atom_site_type_symbol
_atom_site_label
_atom_site_fract_x
_atom_site_fract_y
_atom_site_fract_z
Si Si1 0.565394 0.246885 0.347666
Si Si2 0.463613 0.807383 0.341793
Si Si3 0.285297 0.539595 0.363301
Si Si4 0.462629 0.959656 0.955588
Si Si5 0.851279 0.522189 0.955035
Si Si6 0.566462 0.014732 0.578765
Si Si7 0.927441 0.757807 0.659556
Si Si8 0.227754 0.433072 0.728386
O O1 0.393603 0.476934 0.363199
O O2 0.500000 0.000000 0.500000
O O3 0.610815 0.202780 0.400974
O O4 0.765936 0.287871 0.124874
O O5 0.317142 0.650844 0.520836
O O6 0.668748 0.611365 0.275653
O O7 0.520514 0.979876 0.160204
O O8 0.365749 0.958465 0.423286
O O9 0.359226 0.274029 0.380126
O O10 0.052910 0.627782 0.546492
O O11 0.353544 0.754942 0.167707
O O12 0.691474 0.852210 0.820011
O O13 0.336768 0.228225 0.976788
O O14 0.967500 0.570173 0.768948
O O15 0.997835 0.498047 0.893538
O O16 0.329446 0.153370 0.733249
O O17 0.000000 0.000000 0.500000
#
# Coordination Sequence:
#
# PCOD9010232 Si02
#       8
#     2   2   2   2   2   2   2   2
#     4  10  21  40  62  92 133 166 212 274 326 386
#     4   9  21  42  66  92 133 170 219 274 316 394
#     4  11  23  42  64  94 135 173 211 275 330 392
#     4  12  24  40  64  98 132 170 222 266 328 393
#     4  12  22  39  69  99 129 169 223 278 329 382
#     4   9  20  44  63  89 131 172 211 270 326 378
#     4  12  23  40  63  98 131 172 218 266 332 389
#     4   9  20  41  67  94 121 172 221 270 325 371
#
# _framework density 20.316096000000002
#
# number of rings (size 3 to 8) (size 9 to 14) (size 15 to 20)
#    0.750    0.750    2.500    3.375    0.000    1.000 
#    4.500    4.375    0.000    0.000    0.000    0.000 
#    0.000    0.000    0.000    0.000    0.000    0.000 
#
# Total GULP energy -89077.129139 kJ/mol
# GULP energy per Si atom -5567.320571 kJ/mol
# Density = 2.026986 g / cm^3
# Si number density = 20.316096 Si / 1000 Ang^3
#
#
#
# Elastic Constant Matrix: (Units=GPa)
#
#
# Indices 1 2 3 4 5 6 
#
# 1 67.0029 27.5183 49.1128 -0.6093 8.7660 4.0987
# 2 27.5183 85.6755 27.2138 8.8531 -7.3523 21.4433
# 3 49.1128 27.2138 98.7741 -0.6905 -2.5586 6.6911
# 4 -0.6093 8.8531 -0.6905 32.2251 -8.7572 0.8770
# 5 8.7660 -7.3523 -2.5586 -8.7572 42.0115 3.2849
# 6 4.0987 21.4433 6.6911 0.8770 3.2849 32.8737
#
#
#
# Elastic Compliance Matrix: (Units=1/GPa)
#
#
# Indices 1 2 3 4 5 6 
#
# 1 0.027473 -0.006629 -0.012329 -0.000217 -0.008018 0.004215
# 2 -0.006629 0.017461 -0.000691 -0.003413 0.004529 -0.010784
# 3 -0.012329 -0.000691 0.016680 0.001426 0.003908 -0.001836
# 4 -0.000217 -0.003413 0.001426 0.033762 0.006541 0.000409
# 5 -0.008018 0.004529 0.003908 0.006541 0.028320 -0.005754
# 6 0.004215 -0.010784 -0.001836 0.000409 -0.005754 0.037866
#
#
# Mechanical properties :
#
#
# Convention : Reuss Voigt Hill
#
# Bulk Modulus (GPa) = 44.80749 51.01581 47.91165
# Shear Modulus (GPa) = 24.00405 31.26258 27.63331
#
# Velocity S-wave (km/s) = 3.44107 3.92702 3.69205
# Velocity P-wave (km/s) = 6.15556 6.76221 6.46601
#
# Compressibility (1/GPa) = 0.02231770
#
# Stress axis : x y z
#
# Youngs Moduli (GPa) = 36.39893 57.27111 59.95132
#
# Poissons Ratio (x) = 0.37963 0.73913
# Poissons Ratio (y) = 0.24128 0.04142
# Poissons Ratio (z) = 0.44876 0.03956
#
# Static dielectric constant tensor:
#      x y z
#    x 1.788470 -0.006490 0.034720 
#    y -0.006490 1.759440 0.003860 
#    z 0.034720 0.003860 1.728820 
# 
# From -- ./inp_files/601375.got.cif
#   From: 2010.05.17/outbox.cif.g08.bks.cpg/sg2_301_cif.got.tgz:601375.got - 2010.06.03 11:33:40.
