data_PCOD9010973
_publ_section_title
;
Structure prediction by ZEFSAII (Michael W. Deem and Ramdas Pophale) SiO2 
 PCOD9010973
Probable space group: P -1
;
_chemical_formula_sum "Si O2"
_cell_formula_units_Z 16
_cell_length_a 14.701676
_cell_length_b 17.740018
_cell_length_c 8.597833
_cell_angle_alpha 33.021982
_cell_angle_beta 37.155455
_cell_angle_gamma 40.867613
_cell_volume 711.220607
_symmetry_space_group_name_H-M "P -1"
_symmetry_group_IT_number 2
_symmetry_cell_setting 'triclinic'
loop_
_space_group_symop_operation_xyz
x,y,z
-x,-y,-z
loop_
_atom_site_type_symbol
_atom_site_label
_atom_site_fract_x
_atom_site_fract_y
_atom_site_fract_z
Si Si1 0.353171 0.258127 0.394811
Si Si2 0.981209 0.633453 0.408076
Si Si3 0.583546 0.363417 0.725919
Si Si4 0.844467 0.467385 0.339916
Si Si5 0.995376 0.934630 0.790145
Si Si6 0.630934 0.753830 0.261208
Si Si7 0.652316 0.049176 0.052052
Si Si8 0.313567 0.953552 0.362721
O O1 0.203998 0.315462 0.387056
O O2 0.287498 0.273673 0.633649
O O3 0.419455 0.085403 0.584701
O O4 0.474813 0.351458 0.042132
O O5 0.000000 0.500000 0.500000
O O6 0.092817 0.600172 0.462384
O O7 0.016984 0.765833 0.039977
O O8 0.500000 0.500000 0.500000
O O9 0.756616 0.371850 0.523308
O O10 0.580284 0.214560 0.903706
O O11 0.705965 0.613554 0.303612
O O12 0.000000 0.500000 0.000000
O O13 0.142438 0.955783 0.646681
O O14 0.000000 0.000000 0.500000
O O15 0.824897 0.003623 0.972409
O O16 0.448658 0.809922 0.462499
O O17 0.653991 0.895456 0.898547
O O18 0.680906 0.043528 0.837640
#
# Coordination Sequence:
#
# PCOD9010973 Si02
#       8
#     2   2   2   2   2   2   2   2
#     4  10  22  43  69  93 131 177 230 279 336 402
#     4  11  23  43  67  99 134 179 225 283 340 406
#     4  12  26  43  66  98 139 186 221 278 352 407
#     4  12  28  43  66 102 147 180 229 281 355 410
#     4   9  20  36  65  96 128 171 230 270 338 397
#     4  10  21  40  64  98 132 173 225 282 336 396
#     4   9  20  41  64  94 130 177 223 271 339 405
#     4   9  19  36  67  96 124 173 228 278 328 394
#
# _framework density 22.496537
#
# number of rings (size 3 to 8) (size 9 to 14) (size 15 to 20)
#    0.000    1.750    1.250    2.625    3.500    4.500 
#    0.000    6.250    0.000    0.000    0.000    0.000 
#    0.000    0.000    0.000    0.000    0.000    0.000 
#
# Total GULP energy -89213.457239 kJ/mol
# GULP energy per Si atom -5575.841077 kJ/mol
# Density = 2.244533 g / cm^3
# Si number density = 22.496537 Si / 1000 Ang^3
#
#
#
# Elastic Constant Matrix: (Units=GPa)
#
#
# Indices 1 2 3 4 5 6 
#
# 1 77.1636 0.8490 34.6400 -4.9934 -3.6993 -25.2408
# 2 0.8490 52.2737 26.5164 -32.1512 10.8129 -6.1685
# 3 34.6400 26.5164 136.6160 -17.7825 -3.4941 -10.6981
# 4 -4.9934 -32.1512 -17.7825 30.7093 -10.4894 -5.3346
# 5 -3.6993 10.8129 -3.4941 -10.4894 30.8361 -0.1372
# 6 -25.2408 -6.1685 -10.6981 -5.3346 -0.1372 39.3801
#
#
#
# Elastic Compliance Matrix: (Units=1/GPa)
#
#
# Indices 1 2 3 4 5 6 
#
# 1 0.023783 0.020945 -0.004621 0.028411 0.004744 0.021134
# 2 0.020945 0.085557 -0.006009 0.098011 0.005342 0.038490
# 3 -0.004621 -0.006009 0.009465 -0.001042 0.002264 -0.001465
# 4 0.028411 0.098011 -0.001042 0.156292 0.022330 0.054529
# 5 0.004744 0.005342 0.002264 0.022330 0.039012 0.007653
# 6 0.021134 0.038490 -0.001465 0.054529 0.007653 0.051984
#
#
# Mechanical properties :
#
#
# Convention : Reuss Voigt Hill
#
# Bulk Modulus (GPa) = 7.17182 43.34045 25.25613
# Shear Modulus (GPa) = 12.75705 33.78830 23.27267
#
# Velocity S-wave (km/s) = 2.38390 3.87968 3.21985
# Velocity P-wave (km/s) = 3.28210 6.27507 5.00743
#
# Compressibility (1/GPa) = 0.13943467
#
# Stress axis : x y z
#
# Youngs Moduli (GPa) = 42.04759 11.68814 105.64978
#
# Poissons Ratio (x) = -0.24481 0.48822
# Poissons Ratio (y) = -0.88068 0.63481
# Poissons Ratio (z) = 0.19431 0.07023
#
# Static dielectric constant tensor:
#      x y z
#    x 1.871850 -0.029800 -0.025500 
#    y -0.029800 1.888520 0.040470 
#    z -0.025500 0.040470 1.848030 
# 
# From -- ./inp_files/317920.got.cif
#   From: 2010.05.17/outbox.cif.g08.bks.cpg/sg2_159_cif.got.tgz:317920.got - 2010.06.03 11:33:40.
