data_PCOD9010773
_publ_section_title
;
Structure prediction by ZEFSAII (Michael W. Deem and Ramdas Pophale) SiO2 
 PCOD9010773
Probable space group: P -1
;
_chemical_formula_sum "Si O2"
_cell_formula_units_Z 10
_cell_length_a 20.101308
_cell_length_b 5.272534
_cell_length_c 10.846620
_cell_angle_alpha 91.076198
_cell_angle_beta 160.201218
_cell_angle_gamma 94.184973
_cell_volume 375.107948
_symmetry_space_group_name_H-M "P -1"
_symmetry_group_IT_number 2
_symmetry_cell_setting 'triclinic'
loop_
_space_group_symop_operation_xyz
x,y,z
-x,-y,-z
loop_
_atom_site_type_symbol
_atom_site_label
_atom_site_fract_x
_atom_site_fract_y
_atom_site_fract_z
Si Si1 0.505313 0.796344 0.615078
Si Si2 0.360016 0.219937 0.671016
Si Si3 0.739341 0.052138 0.272972
Si Si4 0.916756 0.714882 0.285136
Si Si5 0.797586 0.349851 0.720858
O O1 0.275769 0.672797 0.263970
O O2 0.500000 0.000000 0.500000
O O3 0.671902 0.641533 0.864165
O O4 0.619341 0.949955 0.937074
O O5 0.348774 0.477491 0.583609
O O6 0.259948 0.177294 0.631397
O O7 0.242971 0.953957 0.393170
O O8 0.595002 0.211133 0.086346
O O9 0.963943 0.222168 0.635370
O O10 0.000000 0.500000 0.500000
O O11 0.000000 0.000000 0.500000
O O12 0.000000 0.500000 0.000000
#
# Coordination Sequence:
#
# PCOD9010773 Si02
#       5
#     2   2   2   2   2
#     4  10  23  43  68 101 139 173 219 279 336 394
#     4  10  22  41  69  96 126 175 223 274 314 397
#     4   9  21  41  68  96 129 171 225 268 328 388
#     4  10  21  40  64  91 129 172 218 263 323 393
#     4  11  24  43  67  96 136 171 220 269 335 385
#
# _framework density 26.658994
#
# number of rings (size 3 to 8) (size 9 to 14) (size 15 to 20)
#    0.000    2.000    0.000    1.800    2.800   10.400 
#    3.600    8.000    0.000    0.000    0.000    0.000 
#    0.000    0.000    0.000    0.000    0.000    0.000 
#
# Total GULP energy -55897.622846 kJ/mol
# GULP energy per Si atom -5589.762285 kJ/mol
# Density = 2.659832 g / cm^3
# Si number density = 26.658994 Si / 1000 Ang^3
#
#
#
# Elastic Constant Matrix: (Units=GPa)
#
#
# Indices 1 2 3 4 5 6 
#
# 1 144.5469 64.7148 38.8444 16.1550 31.3667 50.7700
# 2 64.7148 171.0872 42.0703 -2.9653 5.8837 19.6186
# 3 38.8444 42.0703 103.7022 25.3665 40.9193 10.1186
# 4 16.1550 -2.9653 25.3665 68.7855 15.2569 -2.9507
# 5 31.3667 5.8837 40.9193 15.2569 53.4817 11.5387
# 6 50.7700 19.6186 10.1186 -2.9507 11.5387 61.6011
#
#
#
# Elastic Compliance Matrix: (Units=1/GPa)
#
#
# Indices 1 2 3 4 5 6 
#
# 1 0.012965 -0.003775 -0.000060 -0.002557 -0.004526 -0.008748
# 2 -0.003775 0.008040 -0.003760 0.001858 0.003548 0.000593
# 3 -0.000060 -0.003760 0.016472 -0.003720 -0.011192 0.000460
# 4 -0.002557 0.001858 -0.003720 0.017041 -0.001412 0.003207
# 5 -0.004526 0.003548 -0.011192 -0.001412 0.030205 -0.001287
# 6 -0.008748 0.000593 0.000460 0.003207 -0.001287 0.023574
#
#
# Mechanical properties :
#
#
# Convention : Reuss Voigt Hill
#
# Bulk Modulus (GPa) = 44.86979 78.95505 61.91242
# Shear Modulus (GPa) = 38.19238 55.02077 46.60658
#
# Velocity S-wave (km/s) = 3.78911 4.54792 4.18574
# Velocity P-wave (km/s) = 6.00089 7.56697 6.82897
#
# Compressibility (1/GPa) = 0.02228671
#
# Stress axis : x y z
#
# Youngs Moduli (GPa) = 77.13227 124.38390 60.70781
#
# Poissons Ratio (x) = 0.46952 0.00365
# Poissons Ratio (y) = 0.29116 0.22827
# Poissons Ratio (z) = 0.00464 0.46769
#
# Static dielectric constant tensor:
#      x y z
#    x 2.156540 -0.036170 0.032890 
#    y -0.036170 2.034710 0.085410 
#    z 0.032890 0.085410 2.156800 
# 
# From -- ./inp_files/21422.got.cif
#   From: 2010.05.17/outbox.cif.g08.bks.cpg/sg2_11_cif.got.tgz:21422.got - 2010.06.03 11:33:40.
