data_PCOD9010807
_publ_section_title
;
Structure prediction by ZEFSAII (Michael W. Deem and Ramdas Pophale) SiO2 
 PCOD9010807
Probable space group: P -1
;
_chemical_formula_sum "Si O2"
_cell_formula_units_Z 16
_cell_length_a 8.803806
_cell_length_b 5.217702
_cell_length_c 18.645411
_cell_angle_alpha 121.040496
_cell_angle_beta 94.172004
_cell_angle_gamma 91.801488
_cell_volume 729.511264
_symmetry_space_group_name_H-M "P -1"
_symmetry_group_IT_number 2
_symmetry_cell_setting 'triclinic'
loop_
_space_group_symop_operation_xyz
x,y,z
-x,-y,-z
loop_
_atom_site_type_symbol
_atom_site_label
_atom_site_fract_x
_atom_site_fract_y
_atom_site_fract_z
Si Si1 0.324491 0.543470 0.483456
Si Si2 0.240458 0.678926 0.205178
Si Si3 0.691700 0.485630 0.267744
Si Si4 0.666921 0.990529 0.088200
Si Si5 0.832126 0.850418 0.452265
Si Si6 0.086906 0.316570 0.033116
Si Si7 0.658945 0.631116 0.704118
Si Si8 0.453492 0.431914 0.864554
O O1 0.500000 0.500000 0.500000
O O2 0.226577 0.348551 0.510484
O O3 0.305467 0.432319 0.385783
O O4 0.277712 0.884080 0.530299
O O5 0.254157 0.601670 0.277916
O O6 0.381533 0.508902 0.154764
O O7 0.276608 0.023358 0.233577
O O8 0.101399 0.514030 0.134156
O O9 0.809992 0.639068 0.350400
O O10 0.524806 0.409018 0.290157
O O11 0.648464 0.685334 0.225479
O O12 0.745878 0.194559 0.185639
O O13 0.762346 0.771522 0.015489
O O14 0.544939 0.788160 0.101046
O O15 0.391177 0.750016 0.926042
O O16 0.000000 0.000000 0.500000
O O17 0.000000 0.500000 0.000000
O O18 0.000000 0.000000 0.000000
#
# Coordination Sequence:
#
# PCOD9010807 Si02
#       8
#     2   2   2   2   2   2   2   2
#     4  12  26  44  75 103 139 191 239 296 352 421
#     4  11  22  42  67  97 131 168 213 292 327 402
#     4   9  22  39  70  91 139 168 220 282 346 411
#     4  10  21  40  64  93 121 168 212 268 338 384
#     4  12  27  46  66 106 146 190 234 291 358 426
#     4  12  27  46  63  91 136 181 222 264 337 416
#     4  11  22  42  69 103 133 166 235 282 354 388
#     4   9  19  36  65  99 114 160 213 272 332 376
#
# _framework density 21.932492
#
# number of rings (size 3 to 8) (size 9 to 14) (size 15 to 20)
#    0.750    0.500    2.500    3.000    5.250    1.000 
#    6.750    0.000    0.000    0.000    0.000    0.000 
#    0.000    0.000    0.000    0.000    0.000    0.000 
#
# Total GULP energy -89237.000218 kJ/mol
# GULP energy per Si atom -5577.312514 kJ/mol
# Density = 2.188257 g / cm^3
# Si number density = 21.932492 Si / 1000 Ang^3
#
#
#
# Elastic Constant Matrix: (Units=GPa)
#
#
# Indices 1 2 3 4 5 6 
#
# 1 -5.5161 -2.6628 9.3587 -6.8706 9.2892 3.3721
# 2 -2.6628 114.6258 8.9078 -10.8388 7.8327 5.0005
# 3 9.3587 8.9078 111.0967 -5.9375 18.5321 13.5670
# 4 -6.8706 -10.8388 -5.9375 37.2210 -0.8694 -5.7129
# 5 9.2892 7.8327 18.5321 -0.8694 35.5856 5.9505
# 6 3.3721 5.0005 13.5670 -5.7129 5.9505 29.7570
#
#
#
# Elastic Compliance Matrix: (Units=1/GPa)
#
#
# Indices 1 2 3 4 5 6 
#
# 1 -0.103336 -0.006368 0.003625 -0.019403 0.025634 0.002277
# 2 -0.006368 0.008729 -0.000014 0.001290 -0.000143 -0.000463
# 3 0.003625 -0.000014 0.010156 0.001600 -0.005589 -0.003614
# 4 -0.019403 0.001290 0.001600 0.024812 0.003671 0.005282
# 5 0.025634 -0.000143 -0.005589 0.003671 0.025223 -0.004672
# 6 0.002277 -0.000463 -0.003614 0.005282 -0.004672 0.037021
#
#
# Mechanical properties :
#
#
# Convention : Reuss Voigt Hill
#
# Bulk Modulus (GPa) = -11.11532 27.93488 8.40978
# Shear Modulus (GPa) = -228.64346 34.15290 -97.24528
#
# Velocity S-wave (km/s) = -10.22130 3.95040 -6.66594
# Velocity P-wave (km/s) = 12.01578 5.79413 7.44336
#
# Compressibility (1/GPa) = -0.08996593
#
# Stress axis : x y z
#
# Youngs Moduli (GPa) = -9.67717 114.55908 98.46336
#
# Poissons Ratio (x) = 0.72950 -0.35688
# Poissons Ratio (y) = -0.06162 0.00140
# Poissons Ratio (z) = 0.03508 0.00163
#
# Static dielectric constant tensor:
#      x y z
#    x 2.015840 -0.028190 0.046990 
#    y -0.028190 1.805730 -0.013780 
#    z 0.046990 -0.013780 1.871270 
# 
# From -- ./inp_files/553959.got.cif
#   From: 2010.05.17/outbox.cif.g08.bks.cpg/sg2_277_cif.got.tgz:553959.got - 2010.06.03 11:33:40.
