data_PCOD9010027
_publ_section_title
;
Structure prediction by ZEFSAII (Michael W. Deem and Ramdas Pophale) SiO2 
 PCOD9010027
Probable space group: P -1
;
_chemical_formula_sum "Si O2"
_cell_formula_units_Z 16
_cell_length_a 8.816332
_cell_length_b 13.348840
_cell_length_c 10.997116
_cell_angle_alpha 110.922519
_cell_angle_beta 39.372814
_cell_angle_gamma 106.044259
_cell_volume 766.876297
_symmetry_space_group_name_H-M "P -1"
_symmetry_group_IT_number 2
_symmetry_cell_setting 'triclinic'
loop_
_space_group_symop_operation_xyz
x,y,z
-x,-y,-z
loop_
_atom_site_type_symbol
_atom_site_label
_atom_site_fract_x
_atom_site_fract_y
_atom_site_fract_z
Si Si1 0.544508 0.022437 0.139604
Si Si2 0.261454 0.443013 0.670562
Si Si3 0.729075 0.533828 0.037232
Si Si4 0.146736 0.848584 0.336729
Si Si5 0.339525 0.923962 0.650631
Si Si6 0.118594 0.145315 0.242456
Si Si7 0.544800 0.668797 0.982967
Si Si8 0.675233 0.794321 0.530165
O O1 0.688271 0.018043 0.176792
O O2 0.465728 0.147577 0.244941
O O3 0.307961 0.953152 0.279273
O O4 0.699375 0.956428 0.919033
O O5 0.500000 0.500000 0.500000
O O6 0.280587 0.431119 0.800437
O O7 0.266775 0.328941 0.550491
O O8 0.007283 0.500811 0.827502
O O9 0.642485 0.620808 0.029191
O O10 0.555055 0.430920 0.077770
O O11 0.008242 0.840028 0.544731
O O12 0.319933 0.747754 0.173107
O O13 0.932085 0.849997 0.373613
O O14 0.094826 0.886535 0.729146
O O15 0.501733 0.820665 0.537745
O O16 0.500000 0.000000 0.500000
O O17 0.254859 0.253449 0.165296
#
# Coordination Sequence:
#
# PCOD9010027 Si02
#       8
#     2   2   2   2   2   2   2   2
#     4   9  22  38  63  90 130 159 214 255 316 385
#     4  11  25  44  69  96 132 168 219 265 329 384
#     4  10  24  46  64  95 130 169 217 277 318 378
#     4  11  21  41  62  96 129 168 210 262 318 391
#     4  10  21  40  61  91 127 167 208 260 315 380
#     4  11  22  38  66  94 126 170 216 258 318 396
#     4  10  24  41  67  94 130 169 219 268 321 378
#     4  10  23  39  63  92 130 167 208 264 321 375
#
# _framework density 20.863859999999999
#
# number of rings (size 3 to 8) (size 9 to 14) (size 15 to 20)
#    0.750    1.000    2.500    0.750    5.250    0.500 
#    0.000    8.750    0.000    0.000    0.000    0.000 
#    0.000    0.000    0.000    0.000    0.000    0.000 
#
# Total GULP energy -89262.123770 kJ/mol
# GULP energy per Si atom -5578.882736 kJ/mol
# Density = 2.081637 g / cm^3
# Si number density = 20.863860 Si / 1000 Ang^3
#
#
#
# Elastic Constant Matrix: (Units=GPa)
#
#
# Indices 1 2 3 4 5 6 
#
# 1 80.8282 23.0727 32.9916 -6.1723 -21.7331 3.6238
# 2 23.0727 88.5389 45.5645 1.7048 -5.1851 6.5275
# 3 32.9916 45.5645 116.1028 -6.6095 -9.7849 1.7110
# 4 -6.1723 1.7048 -6.6095 39.8762 6.2298 -8.6851
# 5 -21.7331 -5.1851 -9.7849 6.2298 45.8780 -1.0467
# 6 3.6238 6.5275 1.7110 -8.6851 -1.0467 31.0800
#
#
#
# Elastic Compliance Matrix: (Units=1/GPa)
#
#
# Indices 1 2 3 4 5 6 
#
# 1 0.016141 -0.002175 -0.003115 0.000872 0.006599 -0.000788
# 2 -0.002175 0.014888 -0.005339 -0.002542 -0.000216 -0.003297
# 3 -0.003115 -0.005339 0.011700 0.001961 0.000182 0.001395
# 4 0.000872 -0.002542 0.001961 0.027868 -0.003057 0.008009
# 5 0.006599 -0.000216 0.000182 -0.003057 0.025336 -0.000735
# 6 -0.000788 -0.003297 0.001395 0.008009 -0.000735 0.035096
#
#
# Mechanical properties :
#
#
# Convention : Reuss Voigt Hill
#
# Bulk Modulus (GPa) = 46.57745 54.30305 50.44025
# Shear Modulus (GPa) = 31.35867 35.62292 33.49080
#
# Velocity S-wave (km/s) = 3.88108 4.13655 4.01085
# Velocity P-wave (km/s) = 6.51587 6.99275 6.75852
#
# Compressibility (1/GPa) = 0.02146961
#
# Stress axis : x y z
#
# Youngs Moduli (GPa) = 61.95465 67.16648 85.46930
#
# Poissons Ratio (x) = 0.14610 0.26628
# Poissons Ratio (y) = 0.13476 0.45634
# Poissons Ratio (z) = 0.19302 0.35862
#
# Static dielectric constant tensor:
#      x y z
#    x 1.848990 0.065610 -0.019360 
#    y 0.065610 1.826360 -0.008990 
#    z -0.019360 -0.008990 1.740500 
# 
# From -- ./inp_files/399232.got.cif
#   From: 2010.05.17/outbox.cif.g08.bks.cpg/sg2_200_cif.got.tgz:399232.got - 2010.06.03 11:33:40.
