data_PCOD9010095
_publ_section_title
;
Structure prediction by ZEFSAII (Michael W. Deem and Ramdas Pophale) SiO2 
 PCOD9010095
Probable space group: P -1
;
_chemical_formula_sum "Si O2"
_cell_formula_units_Z 14
_cell_length_a 15.882889
_cell_length_b 13.633451
_cell_length_c 12.350548
_cell_angle_alpha 31.124148
_cell_angle_beta 32.985949
_cell_angle_gamma 31.933517
_cell_volume 666.645343
_symmetry_space_group_name_H-M "P -1"
_symmetry_group_IT_number 2
_symmetry_cell_setting 'triclinic'
loop_
_space_group_symop_operation_xyz
x,y,z
-x,-y,-z
loop_
_atom_site_type_symbol
_atom_site_label
_atom_site_fract_x
_atom_site_fract_y
_atom_site_fract_z
Si Si1 0.407413 0.366591 0.272205
Si Si2 0.451546 0.058242 0.870162
Si Si3 0.194327 0.965983 0.337098
Si Si4 0.739446 0.485204 0.315915
Si Si5 0.086189 0.373217 0.187148
Si Si6 0.992229 0.377910 0.516843
Si Si7 0.359448 0.050890 0.450001
O O1 0.384053 0.216885 0.346795
O O2 0.213494 0.544573 0.350676
O O3 0.527433 0.189605 0.398727
O O4 0.500000 0.500000 0.000000
O O5 0.415342 0.301382 0.671925
O O6 0.563012 0.934262 0.764613
O O7 0.500000 0.000000 0.000000
O O8 0.265880 0.051197 0.080071
O O9 0.302214 0.711208 0.464915
O O10 0.181072 0.114231 0.313530
O O11 0.000000 0.000000 0.500000
O O12 0.903442 0.436962 0.263250
O O13 0.803237 0.536644 0.084151
O O14 0.052238 0.446824 0.276802
O O15 0.149425 0.135172 0.591182
O O16 0.000000 0.500000 0.500000
#
# Coordination Sequence:
#
# PCOD9010095 Si02
#       7
#     2   2   2   2   2   2   2
#     4  10  23  42  65  89 114 154 204 250 297 348
#     4  11  22  36  55  85 123 156 190 238 293 352
#     4   9  19  34  55  85 113 147 194 235 283 348
#     4   9  18  33  56  83 115 154 192 235 288 341
#     4   9  17  34  57  84 116 151 193 238 286 346
#     4  10  21  40  62  85 119 158 196 243 299 353
#     4  10  22  41  62  88 122 156 196 247 297 350
#
# _framework density 21.000671000000001
#
# number of rings (size 3 to 8) (size 9 to 14) (size 15 to 20)
#    0.000    2.286    0.000    3.429    0.000    4.571 
#    0.000   10.000    0.000    0.000    0.000    0.000 
#    0.000    0.000    0.000    0.000    0.000    0.000 
#
# Total GULP energy -77942.061754 kJ/mol
# GULP energy per Si atom -5567.290125 kJ/mol
# Density = 2.095287 g / cm^3
# Si number density = 21.000671 Si / 1000 Ang^3
#
#
#
# Elastic Constant Matrix: (Units=GPa)
#
#
# Indices 1 2 3 4 5 6 
#
# 1 58.9577 31.5906 36.3002 9.3926 20.9532 -6.2992
# 2 31.5906 130.5143 46.0781 10.5251 6.2692 -12.6922
# 3 36.3002 46.0781 83.3846 4.7448 5.3792 6.1128
# 4 9.3926 10.5251 4.7448 46.4494 8.2620 -2.6801
# 5 20.9532 6.2692 5.3792 8.2620 31.0040 10.1354
# 6 -6.2992 -12.6922 6.1128 -2.6801 10.1354 39.9405
#
#
#
# Elastic Compliance Matrix: (Units=1/GPa)
#
#
# Indices 1 2 3 4 5 6 
#
# 1 0.038894 -0.001015 -0.015664 -0.000100 -0.028371 0.015402
# 2 -0.001015 0.010422 -0.005470 -0.001063 -0.001603 0.004324
# 3 -0.015664 -0.005470 0.021892 -0.000472 0.011451 -0.010497
# 4 -0.000100 -0.001063 -0.000472 0.023222 -0.006806 0.003004
# 5 -0.028371 -0.001603 0.011451 -0.006806 0.058809 -0.022116
# 6 0.015402 0.004324 -0.010497 0.003004 -0.022116 0.036261
#
#
# Mechanical properties :
#
#
# Convention : Reuss Voigt Hill
#
# Bulk Modulus (GPa) = 37.16242 55.64381 46.40311
# Shear Modulus (GPa) = 20.59569 34.07129 27.33349
#
# Velocity S-wave (km/s) = 3.13504 4.03226 3.61162
# Velocity P-wave (km/s) = 5.55327 6.94497 6.28774
#
# Compressibility (1/GPa) = 0.02690891
#
# Stress axis : x y z
#
# Youngs Moduli (GPa) = 25.71100 95.94755 45.67821
#
# Poissons Ratio (x) = 0.09743 0.71550
# Poissons Ratio (y) = 0.02611 0.24988
# Poissons Ratio (z) = 0.40273 0.52488
#
# Static dielectric constant tensor:
#      x y z
#    x 1.847120 -0.130780 -0.019910 
#    y -0.130780 1.911100 0.010900 
#    z -0.019910 0.010900 1.754200 
# 
# From -- ./inp_files/242160.got.cif
#   From: 2010.05.17/outbox.cif.g08.bks.cpg/sg2_122_cif.got.tgz:242160.got - 2010.06.03 11:33:40.
