data_PCOD9010355
_publ_section_title
;
Structure prediction by ZEFSAII (Michael W. Deem and Ramdas Pophale) SiO2 
 PCOD9010355
Probable space group: P -1
;
_chemical_formula_sum "Si O2"
_cell_formula_units_Z 10
_cell_length_a 11.371913
_cell_length_b 6.913694
_cell_length_c 8.934722
_cell_angle_alpha 107.704380
_cell_angle_beta 61.152888
_cell_angle_gamma 135.146974
_cell_volume 433.144050
_symmetry_space_group_name_H-M "P -1"
_symmetry_group_IT_number 2
_symmetry_cell_setting 'triclinic'
loop_
_space_group_symop_operation_xyz
x,y,z
-x,-y,-z
loop_
_atom_site_type_symbol
_atom_site_label
_atom_site_fract_x
_atom_site_fract_y
_atom_site_fract_z
Si Si1 0.298400 0.365255 0.136944
Si Si2 0.215312 0.499751 0.936991
Si Si3 0.492306 0.254755 0.414261
Si Si4 0.242820 0.656924 0.474579
Si Si5 0.930041 0.235891 0.780678
O O1 0.291513 0.564136 0.283533
O O2 0.197186 0.089032 0.228919
O O3 0.500000 0.500000 0.000000
O O4 0.197664 0.311851 0.030387
O O5 0.415877 0.692557 0.789257
O O6 0.074582 0.334457 0.847945
O O7 0.180608 0.683029 0.074322
O O8 0.500000 0.500000 0.500000
O O9 0.624275 0.284592 0.461156
O O10 0.299647 0.946865 0.476451
O O11 0.043520 0.415124 0.606702
#
# Coordination Sequence:
#
# PCOD9010355 Si02
#       5
#     2   2   2   2   2
#     4  12  24  39  64  95 126 160 203 256 308 358
#     4  10  23  41  64  89 122 164 208 248 302 367
#     4  10  21  40  63  87 122 164 202 248 306 365
#     4  10  23  39  60  92 123 158 206 251 302 365
#     4  10  23  43  63  89 127 165 203 250 303 366
#
# _framework density 23.087007
#
# number of rings (size 3 to 8) (size 9 to 14) (size 15 to 20)
#    0.000    1.600    0.000    3.600    0.000   15.200 
#    0.000    0.000    0.000    0.000    0.000    0.000 
#    0.000    0.000    0.000    0.000    0.000    0.000 
#
# Total GULP energy -55973.864726 kJ/mol
# GULP energy per Si atom -5597.386473 kJ/mol
# Density = 2.303446 g / cm^3
# Si number density = 23.087007 Si / 1000 Ang^3
#
#
#
# Elastic Constant Matrix: (Units=GPa)
#
#
# Indices 1 2 3 4 5 6 
#
# 1 54.9654 38.6818 27.2849 -8.1290 -0.8465 -10.0780
# 2 38.6818 198.4296 62.0695 -22.6208 -19.2279 -17.2086
# 3 27.2849 62.0695 138.2495 -18.4787 -12.8120 -4.7511
# 4 -8.1290 -22.6208 -18.4787 34.1224 -5.7122 5.6483
# 5 -0.8465 -19.2279 -12.8120 -5.7122 28.4987 4.4485
# 6 -10.0780 -17.2086 -4.7511 5.6483 4.4485 22.7745
#
#
#
# Elastic Compliance Matrix: (Units=1/GPa)
#
#
# Indices 1 2 3 4 5 6 
#
# 1 0.023555 -0.003317 -0.003355 -0.000505 -0.004429 0.008207
# 2 -0.003317 0.007190 -0.001626 0.003526 0.004434 0.001885
# 3 -0.003355 -0.001626 0.009540 0.004472 0.004409 -0.002694
# 4 -0.000505 0.003526 0.004472 0.037573 0.013237 -0.008530
# 5 -0.004429 0.004434 0.004409 0.013237 0.044080 -0.009583
# 6 0.008207 0.001885 -0.002694 -0.008530 -0.009583 0.052390
#
#
# Mechanical properties :
#
#
# Convention : Reuss Voigt Hill
#
# Bulk Modulus (GPa) = 42.21782 71.96854 57.09318
# Shear Modulus (GPa) = 25.14805 34.65301 29.90053
#
# Velocity S-wave (km/s) = 3.30399 3.87844 3.60269
# Velocity P-wave (km/s) = 5.73422 7.16218 6.48761
#
# Compressibility (1/GPa) = 0.02368668
#
# Stress axis : x y z
#
# Youngs Moduli (GPa) = 42.45310 139.08131 104.82711
#
# Poissons Ratio (x) = 0.46137 0.35174
# Poissons Ratio (y) = 0.14083 0.17050
# Poissons Ratio (z) = 0.14245 0.22621
#
# Static dielectric constant tensor:
#      x y z
#    x 1.888150 0.021700 0.027720 
#    y 0.021700 1.849940 -0.029420 
#    z 0.027720 -0.029420 1.824720 
# 
# From -- ./inp_files/15261.got.cif
#   From: 2010.05.17/outbox.cif.g08.bks.cpg/sg2_8_cif.got.tgz:15261.got - 2010.06.03 11:33:40.
