data_PCOD9010996
_publ_section_title
;
Structure prediction by ZEFSAII (Michael W. Deem and Ramdas Pophale) SiO2 
 PCOD9010996
Probable space group: P -1
;
_chemical_formula_sum "Si O2"
_cell_formula_units_Z 16
_cell_length_a 5.042605
_cell_length_b 10.203808
_cell_length_c 14.192783
_cell_angle_alpha 109.193756
_cell_angle_beta 65.373445
_cell_angle_gamma 115.537254
_cell_volume 589.011619
_symmetry_space_group_name_H-M "P -1"
_symmetry_group_IT_number 2
_symmetry_cell_setting 'triclinic'
loop_
_space_group_symop_operation_xyz
x,y,z
-x,-y,-z
loop_
_atom_site_type_symbol
_atom_site_label
_atom_site_fract_x
_atom_site_fract_y
_atom_site_fract_z
Si Si1 0.507763 0.700235 0.030350
Si Si2 0.996277 0.553675 0.391254
Si Si3 0.527614 0.147504 0.474430
Si Si4 0.671299 0.693853 0.607266
Si Si5 0.838317 0.749533 0.313145
Si Si6 0.535886 0.488286 0.824871
Si Si7 0.035743 0.067848 0.270957
Si Si8 0.161137 0.894825 0.057680
O O1 0.393418 0.587440 0.108133
O O2 0.290911 0.798641 0.086034
O O3 0.876866 0.790215 0.012489
O O4 0.463169 0.622168 0.916156
O O5 0.923672 0.617780 0.519499
O O6 0.655207 0.431515 0.391737
O O7 0.023099 0.686142 0.343868
O O8 0.220366 0.475943 0.289643
O O9 0.275878 0.174843 0.447979
O O10 0.488827 0.258913 0.588254
O O11 0.790353 0.141490 0.360633
O O12 0.500000 0.000000 0.500000
O O13 0.661123 0.789905 0.723047
O O14 0.738828 0.640122 0.214749
O O15 0.995570 0.920457 0.303458
O O16 0.007171 0.002816 0.156730
O O17 0.500000 0.000000 0.000000
#
# Coordination Sequence:
#
# PCOD9010996 Si02
#       8
#     2   2   2   2   2   2   2   2
#     4  11  28  47  72 104 137 183 240 296 344 417
#     4  10  23  41  65  96 138 176 225 283 352 418
#     4   9  21  37  63  96 133 170 224 272 348 410
#     4  10  23  40  62 101 136 176 224 283 349 428
#     4  10  21  40  65 100 128 175 227 284 339 423
#     4  11  24  42  73  91 137 177 238 288 354 408
#     4  11  23  40  69  92 135 176 225 287 348 413
#     4  12  28  48  71 104 143 182 237 292 353 417
#
# _framework density 27.164151
#
# number of rings (size 3 to 8) (size 9 to 14) (size 15 to 20)
#    0.000    1.500    1.250    1.875    5.250    9.500 
#    0.000    3.750    0.000    0.000    0.000    0.000 
#    0.000    0.000    0.000    0.000    0.000    0.000 
#
# Total GULP energy -89208.451155 kJ/mol
# GULP energy per Si atom -5575.528197 kJ/mol
# Density = 2.710232 g / cm^3
# Si number density = 27.164151 Si / 1000 Ang^3
#
#
#
# Elastic Constant Matrix: (Units=GPa)
#
#
# Indices 1 2 3 4 5 6 
#
# 1 59.9951 15.3945 2.7162 15.6461 -12.8316 1.7084
# 2 15.3945 82.8014 39.1123 6.6462 -8.7017 7.0967
# 3 2.7162 39.1123 165.6708 31.5911 -7.3127 27.7567
# 4 15.6461 6.6462 31.5911 56.6687 10.1975 -3.6613
# 5 -12.8316 -8.7017 -7.3127 10.1975 39.8632 -6.7369
# 6 1.7084 7.0967 27.7567 -3.6613 -6.7369 31.4144
#
#
#
# Elastic Compliance Matrix: (Units=1/GPa)
#
#
# Indices 1 2 3 4 5 6 
#
# 1 0.021692 -0.003613 0.002933 -0.008894 0.008646 -0.002138
# 2 -0.003613 0.014432 -0.003598 0.001141 0.001118 0.000488
# 3 0.002933 -0.003598 0.009557 -0.006642 0.002245 -0.008084
# 4 -0.008894 0.001141 -0.006642 0.025792 -0.009227 0.007122
# 5 0.008646 0.001118 0.002245 -0.009227 0.031383 0.002949
# 6 -0.002138 0.000488 -0.008084 0.007122 0.002949 0.040444
#
#
# Mechanical properties :
#
#
# Convention : Reuss Voigt Hill
#
# Bulk Modulus (GPa) = 26.93497 46.99038 36.96268
# Shear Modulus (GPa) = 30.44492 42.33889 36.39191
#
# Velocity S-wave (km/s) = 3.35143 3.95223 3.66417
# Velocity P-wave (km/s) = 4.99132 6.17763 5.61589
#
# Compressibility (1/GPa) = 0.03712645
#
# Stress axis : x y z
#
# Youngs Moduli (GPa) = 46.10032 69.28847 104.63034
#
# Poissons Ratio (x) = 0.25032 -0.30688
# Poissons Ratio (y) = 0.16655 0.37646
# Poissons Ratio (z) = -0.13521 0.24930
#
# Static dielectric constant tensor:
#      x y z
#    x 2.649680 -0.699620 1.145340 
#    y -0.699620 3.950880 -2.500040 
#    z 1.145340 -2.500040 5.507580 
# 
# From -- ./inp_files/288904.got.cif
#   From: 2010.05.17/outbox.cif.g08.bks.cpg/sg2_145_cif.got.tgz:288904.got - 2010.06.03 11:33:40.
