data_PCOD9010911
_publ_section_title
;
Structure prediction by ZEFSAII (Michael W. Deem and Ramdas Pophale) SiO2 
 PCOD9010911
Probable space group: P -1
;
_chemical_formula_sum "Si O2"
_cell_formula_units_Z 16
_cell_length_a 16.385622
_cell_length_b 6.127657
_cell_length_c 8.642814
_cell_angle_alpha 98.324795
_cell_angle_beta 56.500513
_cell_angle_gamma 98.119783
_cell_volume 714.032902
_symmetry_space_group_name_H-M "P -1"
_symmetry_group_IT_number 2
_symmetry_cell_setting 'triclinic'
loop_
_space_group_symop_operation_xyz
x,y,z
-x,-y,-z
loop_
_atom_site_type_symbol
_atom_site_label
_atom_site_fract_x
_atom_site_fract_y
_atom_site_fract_z
Si Si1 0.445832 0.310180 0.140261
Si Si2 0.358980 0.914541 0.046994
Si Si3 0.214582 0.610663 0.951857
Si Si4 0.289478 0.424553 0.562615
Si Si5 0.227253 0.736176 0.432922
Si Si6 0.897589 0.599109 0.668300
Si Si7 0.886221 0.877190 0.444809
Si Si8 0.029477 0.767926 0.035150
O O1 0.532872 0.166287 0.092532
O O2 0.386453 0.375195 0.361069
O O3 0.500000 0.500000 0.000000
O O4 0.373556 0.177880 0.078471
O O5 0.285820 0.782467 0.992636
O O6 0.314531 0.852835 0.255845
O O7 0.276352 0.453535 0.762283
O O8 0.140919 0.455570 0.124885
O O9 0.144598 0.758385 0.939543
O O10 0.265748 0.663321 0.546680
O O11 0.204135 0.251913 0.567387
O O12 0.188786 0.523324 0.355723
O O13 0.132719 0.874005 0.548272
O O14 0.895048 0.839847 0.616000
O O15 0.000000 0.500000 0.500000
O O16 0.980236 0.797391 0.255643
O O17 0.000000 0.500000 0.000000
O O18 0.000000 0.000000 0.000000
#
# Coordination Sequence:
#
# PCOD9010911 Si02
#       8
#     2   2   2   2   2   2   2   2
#     4  11  22  44  74  96 127 186 231 292 368 455
#     4  10  23  43  68 101 137 173 242 291 365 435
#     4  11  24  46  66 111 144 183 237 309 352 420
#     4  11  22  41  70  98 138 179 235 288 364 429
#     4  10  21  40  64  95 133 181 234 280 350 435
#     4  10  22  40  61  95 139 182 238 285 345 417
#     4  11  22  40  67  96 136 195 233 283 349 434
#     4  12  26  47  70 107 152 202 244 295 365 440
#
# _framework density 22.407933
#
# number of rings (size 3 to 8) (size 9 to 14) (size 15 to 20)
#    0.000    1.250    5.000    0.750    1.750    1.000 
#    6.750    0.625    0.000    0.000    0.000    0.000 
#    0.000    0.000    0.000    0.000    0.000    0.000 
#
# Total GULP energy -89079.574237 kJ/mol
# GULP energy per Si atom -5567.473390 kJ/mol
# Density = 2.235693 g / cm^3
# Si number density = 22.407933 Si / 1000 Ang^3
#
#
#
# Elastic Constant Matrix: (Units=GPa)
#
#
# Indices 1 2 3 4 5 6 
#
# 1 71.1123 33.0505 37.9999 8.2352 -2.5492 7.9638
# 2 33.0505 92.1899 33.7499 4.9322 8.3131 6.2892
# 3 37.9999 33.7499 179.1198 17.7803 -10.6021 4.3209
# 4 8.2352 4.9322 17.7803 30.8257 -6.4427 -12.3386
# 5 -2.5492 8.3131 -10.6021 -6.4427 34.1684 0.4987
# 6 7.9638 6.2892 4.3209 -12.3386 0.4987 32.3230
#
#
#
# Elastic Compliance Matrix: (Units=1/GPa)
#
#
# Indices 1 2 3 4 5 6 
#
# 1 0.019010 -0.005471 -0.002347 -0.004632 0.001222 -0.005093
# 2 -0.005471 0.013982 -0.001554 -0.001497 -0.004550 -0.001666
# 3 -0.002347 -0.001554 0.006826 -0.003214 0.001734 -0.001285
# 4 -0.004632 -0.001497 -0.003214 0.044826 0.007198 0.018862
# 5 0.001222 -0.004550 0.001734 0.007198 0.032322 0.002602
# 6 -0.005093 -0.001666 -0.001285 0.018862 0.002602 0.039849
#
#
# Mechanical properties :
#
#
# Convention : Reuss Voigt Hill
#
# Bulk Modulus (GPa) = 47.45365 61.33585 54.39475
# Shear Modulus (GPa) = 27.38483 35.30487 31.34485
#
# Velocity S-wave (km/s) = 3.49965 3.97363 3.74415
# Velocity P-wave (km/s) = 6.12807 6.96310 6.55889
#
# Compressibility (1/GPa) = 0.02107319
#
# Stress axis : x y z
#
# Youngs Moduli (GPa) = 52.60496 71.52306 146.49211
#
# Poissons Ratio (x) = 0.39128 0.34382
# Poissons Ratio (y) = 0.28779 0.22770
# Poissons Ratio (z) = 0.12347 0.11117
#
# Static dielectric constant tensor:
#      x y z
#    x 1.836530 -0.033730 0.007800 
#    y -0.033730 2.045180 0.012900 
#    z 0.007800 0.012900 1.722750 
# 
# From -- ./inp_files/323830.got.cif
#   From: 2010.05.17/outbox.cif.g08.bks.cpg/sg2_162_cif.got.tgz:323830.got - 2010.06.03 11:33:40.
