data_PCOD9010498
_publ_section_title
;
Structure prediction by ZEFSAII (Michael W. Deem and Ramdas Pophale) SiO2 
 PCOD9010498
Probable space group: P -1
;
_chemical_formula_sum "Si O2"
_cell_formula_units_Z 16
_cell_length_a 5.624893
_cell_length_b 15.390311
_cell_length_c 15.328573
_cell_angle_alpha 39.308914
_cell_angle_beta 103.440994
_cell_angle_gamma 85.280685
_cell_volume 739.937208
_symmetry_space_group_name_H-M "P -1"
_symmetry_group_IT_number 2
_symmetry_cell_setting 'triclinic'
loop_
_space_group_symop_operation_xyz
x,y,z
-x,-y,-z
loop_
_atom_site_type_symbol
_atom_site_label
_atom_site_fract_x
_atom_site_fract_y
_atom_site_fract_z
Si Si1 0.801125 0.970416 0.578348
Si Si2 0.095079 0.756370 0.175672
Si Si3 0.122997 0.623565 0.913223
Si Si4 0.371390 0.512647 0.834142
Si Si5 0.601002 0.054230 0.881013
Si Si6 0.045627 0.266314 0.623882
Si Si7 0.626652 0.235623 0.492186
Si Si8 0.086087 0.474805 0.322649
O O1 0.925281 0.797844 0.754684
O O2 0.500000 0.000000 0.500000
O O3 0.747967 0.080916 0.570283
O O4 0.000000 0.000000 0.500000
O O5 0.310629 0.816768 0.178486
O O6 0.196888 0.600964 0.251562
O O7 0.982034 0.720744 0.284535
O O8 0.862622 0.902211 0.994291
O O9 0.271078 0.589616 0.858991
O O10 0.322808 0.598989 0.030950
O O11 0.000000 0.500000 0.000000
O O12 0.346252 0.643225 0.664744
O O13 0.169992 0.451721 0.820672
O O14 0.343672 0.131881 0.736440
O O15 0.500000 0.000000 0.000000
O O16 0.016528 0.415733 0.453611
O O17 0.809060 0.225042 0.599743
O O18 0.308799 0.319440 0.421169
#
# Coordination Sequence:
#
# PCOD9010498 Si02
#       8
#     2   2   2   2   2   2   2   2
#     4  12  26  46  74 103 139 183 232 284 360 420
#     4  10  21  40  63  92 128 176 221 273 341 400
#     4  11  23  43  71  98 132 177 227 281 348 417
#     4  10  22  41  64  93 132 170 221 275 342 405
#     4   9  20  39  62  86 123 171 224 275 330 401
#     4  10  22  39  63  93 130 172 221 277 338 402
#     4  11  24  42  63  97 135 173 225 286 335 419
#     4  11  23  39  64  96 135 172 222 278 338 408
#
# _framework density 21.623455
#
# number of rings (size 3 to 8) (size 9 to 14) (size 15 to 20)
#    0.000    1.500    1.250    3.375    3.500    7.000 
#    0.000    8.750    0.000    0.000    0.000    0.000 
#    0.000    0.000    0.000    0.000    0.000    0.000 
#
# Total GULP energy -89256.912284 kJ/mol
# GULP energy per Si atom -5578.557018 kJ/mol
# Density = 2.157424 g / cm^3
# Si number density = 21.623455 Si / 1000 Ang^3
#
#
#
# Elastic Constant Matrix: (Units=GPa)
#
#
# Indices 1 2 3 4 5 6 
#
# 1 85.8688 22.8758 38.6652 -6.8114 12.7147 12.3834
# 2 22.8758 78.1790 56.7289 -18.3195 0.8815 3.3899
# 3 38.6652 56.7289 129.8843 -7.0440 31.5504 19.2133
# 4 -6.8114 -18.3195 -7.0440 35.4790 5.7709 0.9176
# 5 12.7147 0.8815 31.5504 5.7709 39.0537 6.2139
# 6 12.3834 3.3899 19.2133 0.9176 6.2139 20.8870
#
#
#
# Elastic Compliance Matrix: (Units=1/GPa)
#
#
# Indices 1 2 3 4 5 6 
#
# 1 0.014395 -0.002275 -0.001684 0.001831 -0.002603 -0.005922
# 2 -0.002275 0.023693 -0.011996 0.007998 0.007781 0.005872
# 3 -0.001684 -0.011996 0.017713 -0.000826 -0.011810 -0.009799
# 4 0.001831 0.007998 -0.000826 0.033322 -0.004767 -0.001669
# 5 -0.002603 0.007781 -0.011810 -0.004767 0.036442 0.000512
# 6 -0.005922 0.005872 -0.009799 -0.001669 0.000512 0.059370
#
#
# Mechanical properties :
#
#
# Convention : Reuss Voigt Hill
#
# Bulk Modulus (GPa) = 41.85580 58.94131 50.39856
# Shear Modulus (GPa) = 22.24117 30.79475 26.51796
#
# Velocity S-wave (km/s) = 3.21061 3.77787 3.50573
# Velocity P-wave (km/s) = 5.75697 6.80786 6.30435
#
# Compressibility (1/GPa) = 0.02389155
#
# Stress axis : x y z
#
# Youngs Moduli (GPa) = 69.47001 42.20576 56.45412
#
# Poissons Ratio (x) = 0.09601 0.09506
# Poissons Ratio (y) = 0.15804 0.67724
# Poissons Ratio (z) = 0.11698 0.50631
#
# Static dielectric constant tensor:
#      x y z
#    x 1.888850 0.000040 0.076390 
#    y 0.000040 1.754430 -0.039780 
#    z 0.076390 -0.039780 1.757590 
# 
# From -- ./inp_files/351024.got.cif
#   From: 2010.05.17/outbox.cif.g08.bks.cpg/sg2_176_cif.got.tgz:351024.got - 2010.06.03 11:33:40.
