data_PCOD9010010
_publ_section_title
;
Structure prediction by ZEFSAII (Michael W. Deem and Ramdas Pophale) SiO2 
 PCOD9010010
Probable space group: P -1
;
_chemical_formula_sum "Si O2"
_cell_formula_units_Z 14
_cell_length_a 5.312152
_cell_length_b 12.948949
_cell_length_c 18.589216
_cell_angle_alpha 25.942608
_cell_angle_beta 80.215698
_cell_angle_gamma 75.690681
_cell_volume 537.892376
_symmetry_space_group_name_H-M "P -1"
_symmetry_group_IT_number 2
_symmetry_cell_setting 'triclinic'
loop_
_space_group_symop_operation_xyz
x,y,z
-x,-y,-z
loop_
_atom_site_type_symbol
_atom_site_label
_atom_site_fract_x
_atom_site_fract_y
_atom_site_fract_z
Si Si1 0.689468 0.031019 0.579782
Si Si2 0.827592 0.607294 0.364371
Si Si3 0.180752 0.733388 0.153383
Si Si4 0.436554 0.094304 0.062408
Si Si5 0.844545 0.715340 0.632993
Si Si6 0.041393 0.888963 0.294824
Si Si7 0.550613 0.236338 0.127577
O O1 0.417301 0.183696 0.464332
O O2 0.912318 0.183119 0.471292
O O3 0.785019 0.812546 0.655341
O O4 0.637381 0.915251 0.730082
O O5 0.763308 0.342567 0.534499
O O6 0.094206 0.602727 0.309338
O O7 0.863785 0.728256 0.363540
O O8 0.601625 0.820544 0.211031
O O9 0.094692 0.571265 0.196459
O O10 0.470570 0.757799 0.100100
O O11 0.000000 0.000000 0.000000
O O12 0.514028 0.219939 0.053661
O O13 0.165644 0.032234 0.138959
O O14 0.842918 0.088024 0.224275
O O15 0.500000 0.500000 0.000000
#
# Coordination Sequence:
#
# PCOD9010010 Si02
#       7
#     2   2   2   2   2   2   2
#     4  10  23  43  72  94 132 172 230 271 330 387
#     4   9  20  39  62  88 125 163 217 265 322 394
#     4  10  21  41  62  95 134 170 218 269 338 392
#     4  10  22  39  60  93 126 166 211 269 326 393
#     4  10  22  46  66 101 128 175 220 281 320 402
#     4  10  21  40  61  90 124 165 217 265 328 390
#     4  11  24  40  61  91 127 169 216 272 330 391
#
# _framework density 26.027512999999999
#
# number of rings (size 3 to 8) (size 9 to 14) (size 15 to 20)
#    0.000    2.000    0.000    2.143    4.000    1.143 
#   25.714    0.000    0.000    0.000    0.000    0.000 
#    0.000    0.000    0.000    0.000    0.000    0.000 
#
# Total GULP energy -78250.126346 kJ/mol
# GULP energy per Si atom -5589.294739 kJ/mol
# Density = 2.596827 g / cm^3
# Si number density = 26.027513 Si / 1000 Ang^3
#
#
#
# Elastic Constant Matrix: (Units=GPa)
#
#
# Indices 1 2 3 4 5 6 
#
# 1 90.6574 43.2125 42.5755 -1.2883 -28.7662 -21.7779
# 2 43.2125 151.8589 86.5294 -1.4100 -5.9581 -19.4819
# 3 42.5755 86.5294 171.2739 -19.0017 -26.3935 -19.4033
# 4 -1.2883 -1.4100 -19.0017 72.4607 -2.5802 -8.2689
# 5 -28.7662 -5.9581 -26.3935 -2.5802 26.6100 8.1527
# 6 -21.7779 -19.4819 -19.4033 -8.2689 8.1527 47.6330
#
#
#
# Elastic Compliance Matrix: (Units=1/GPa)
#
#
# Indices 1 2 3 4 5 6 
#
# 1 0.020889 -0.005415 0.001645 0.002001 0.021777 0.004626
# 2 -0.005415 0.011213 -0.005864 -0.001635 -0.009652 0.001090
# 3 0.001645 -0.005864 0.010578 0.003231 0.010852 0.001366
# 4 0.002001 -0.001635 0.003231 0.015220 0.005477 0.003267
# 5 0.021777 -0.009652 0.010852 0.005477 0.070464 -0.000680
# 6 0.004626 0.001090 0.001366 0.003267 -0.000680 0.024794
#
#
# Mechanical properties :
#
#
# Convention : Reuss Voigt Hill
#
# Bulk Modulus (GPa) = 42.71398 84.26945 63.49171
# Shear Modulus (GPa) = 27.74224 45.43894 36.59059
#
# Velocity S-wave (km/s) = 3.26833 4.18281 3.75352
# Velocity P-wave (km/s) = 5.53979 7.46828 6.57513
#
# Compressibility (1/GPa) = 0.02341154
#
# Stress axis : x y z
#
# Youngs Moduli (GPa) = 47.87258 89.17870 94.53557
#
# Poissons Ratio (x) = 0.48290 -0.15552
# Poissons Ratio (y) = 0.25923 0.55440
# Poissons Ratio (z) = -0.07875 0.52299
#
# Static dielectric constant tensor:
#      x y z
#    x 2.215280 0.070520 0.118740 
#    y 0.070520 2.039400 0.040240 
#    z 0.118740 0.040240 2.103400 
# 
# From -- ./inp_files/117013.got.cif
#   From: 2010.05.17/outbox.cif.g08.bks.cpg/sg2_59_cif.got.tgz:117013.got - 2010.06.03 11:33:40.
