data_PCOD9010048
_publ_section_title
;
Structure prediction by ZEFSAII (Michael W. Deem and Ramdas Pophale) SiO2 
 PCOD9010048
Probable space group: P -1
;
_chemical_formula_sum "Si O2"
_cell_formula_units_Z 14
_cell_length_a 13.915338
_cell_length_b 20.976141
_cell_length_c 5.013869
_cell_angle_alpha 122.978369
_cell_angle_beta 113.385014
_cell_angle_gamma 30.431721
_cell_volume 612.740791
_symmetry_space_group_name_H-M "P -1"
_symmetry_group_IT_number 2
_symmetry_cell_setting 'triclinic'
loop_
_space_group_symop_operation_xyz
x,y,z
-x,-y,-z
loop_
_atom_site_type_symbol
_atom_site_label
_atom_site_fract_x
_atom_site_fract_y
_atom_site_fract_z
Si Si1 0.419123 0.172878 0.194707
Si Si2 0.908105 0.399977 0.500043
Si Si3 0.682939 0.897249 0.663369
Si Si4 0.019661 0.415062 0.139232
Si Si5 0.204659 0.878876 0.806813
Si Si6 0.410574 0.784226 0.307231
Si Si7 0.495056 0.414233 0.345852
O O1 0.344781 0.156531 0.289125
O O2 0.250159 0.271619 0.014933
O O3 0.441258 0.244377 0.487818
O O4 0.627865 0.012623 0.989279
O O5 0.702948 0.486581 0.502253
O O6 0.090026 0.242305 0.463076
O O7 0.949900 0.393124 0.222310
O O8 0.912423 0.470441 0.866542
O O9 0.500000 0.000000 0.500000
O O10 0.000000 0.500000 0.500000
O O11 0.234681 0.886391 0.555448
O O12 0.315792 0.730590 0.618813
O O13 0.335479 0.851973 0.085001
O O14 0.000000 0.000000 0.000000
O O15 0.494610 0.648616 0.043236
O O16 0.500000 0.500000 0.500000
#
# Coordination Sequence:
#
# PCOD9010048 Si02
#       7
#     2   2   2   2   2   2   2
#     4  10  22  39  63  99 131 176 218 269 326 407
#     4  11  24  41  61  96 130 175 218 263 335 391
#     4  10  21  40  61  93 139 176 214 267 329 402
#     4  11  23  38  65  93 134 168 214 267 327 399
#     4  10  24  46  69  96 130 171 228 283 336 391
#     4  10  24  42  72  97 131 170 227 272 342 396
#     4  10  26  46  69  98 136 177 229 286 335 394
#
# _framework density 22.848161000000001
#
# number of rings (size 3 to 8) (size 9 to 14) (size 15 to 20)
#    0.857    0.857    1.429    1.714    6.000    2.857 
#    0.000    0.000    0.000    0.000    0.000    0.000 
#    0.000    0.000    0.000    0.000    0.000    0.000 
#
# Total GULP energy -78016.226192 kJ/mol
# GULP energy per Si atom -5572.587585 kJ/mol
# Density = 2.279616 g / cm^3
# Si number density = 22.848161 Si / 1000 Ang^3
#
#
#
# Elastic Constant Matrix: (Units=GPa)
#
#
# Indices 1 2 3 4 5 6 
#
# 1 72.7631 24.1281 38.7825 17.3393 11.2323 -8.3820
# 2 24.1281 85.5324 15.5579 22.8111 -4.4606 -15.1129
# 3 38.7825 15.5579 87.1247 12.5761 -5.3663 1.0161
# 4 17.3393 22.8111 12.5761 45.0307 -3.2011 -13.5398
# 5 11.2323 -4.4606 -5.3663 -3.2011 39.0930 1.0216
# 6 -8.3820 -15.1129 1.0161 -13.5398 1.0216 32.3480
#
#
#
# Elastic Compliance Matrix: (Units=1/GPa)
#
#
# Indices 1 2 3 4 5 6 
#
# 1 0.022536 -0.003488 -0.009402 -0.003956 -0.008569 0.003120
# 2 -0.003488 0.014809 -0.000325 -0.004717 0.002157 0.003982
# 3 -0.009402 -0.000325 0.016298 -0.001600 0.004873 -0.003924
# 4 -0.003956 -0.004717 -0.001600 0.029479 0.002555 0.009079
# 5 -0.008569 0.002157 0.004873 0.002555 0.029198 -0.001218
# 6 0.003120 0.003982 -0.003924 0.009079 -0.001218 0.037545
#
#
# Mechanical properties :
#
#
# Convention : Reuss Voigt Hill
#
# Bulk Modulus (GPa) = 36.74577 44.70635 40.72606
# Shear Modulus (GPa) = 26.97405 34.42445 30.69925
#
# Velocity S-wave (km/s) = 3.43968 3.88579 3.66952
# Velocity P-wave (km/s) = 5.64736 6.30410 5.98475
#
# Compressibility (1/GPa) = 0.02721402
#
# Stress axis : x y z
#
# Youngs Moduli (GPa) = 44.37378 67.52861 61.35797
#
# Poissons Ratio (x) = 0.23551 0.57688
# Poissons Ratio (y) = 0.15476 0.01992
# Poissons Ratio (z) = 0.41720 0.02192
#
# Static dielectric constant tensor:
#      x y z
#    x 1.819190 -0.000550 -0.007600 
#    y -0.000550 1.965010 0.057570 
#    z -0.007600 0.057570 2.013730 
# 
# From -- ./inp_files/100816.got.cif
#   From: 2010.05.17/outbox.cif.g08.bks.cpg/sg2_51_cif.got.tgz:100816.got - 2010.06.03 11:33:40.
