data_PCOD9010982
_publ_section_title
;
Structure prediction by ZEFSAII (Michael W. Deem and Ramdas Pophale) SiO2 
 PCOD9010982
Probable space group: P -1
;
_chemical_formula_sum "Si O2"
_cell_formula_units_Z 16
_cell_length_a 4.985489
_cell_length_b 16.490750
_cell_length_c 24.655351
_cell_angle_alpha 20.828537
_cell_angle_beta 122.037089
_cell_angle_gamma 117.245255
_cell_volume 606.112278
_symmetry_space_group_name_H-M "P -1"
_symmetry_group_IT_number 2
_symmetry_cell_setting 'triclinic'
loop_
_space_group_symop_operation_xyz
x,y,z
-x,-y,-z
loop_
_atom_site_type_symbol
_atom_site_label
_atom_site_fract_x
_atom_site_fract_y
_atom_site_fract_z
Si Si1 0.765650 0.405195 0.409898
Si Si2 0.839045 0.014005 0.327995
Si Si3 0.689920 0.258910 0.604251
Si Si4 0.756162 0.377484 0.181274
Si Si5 0.094700 0.545025 0.212042
Si Si6 0.126912 0.676460 0.961936
Si Si7 0.470723 0.841811 0.995159
Si Si8 0.220236 0.733405 0.268502
O O1 0.904193 0.212194 0.503027
O O2 0.898460 0.311203 0.541915
O O3 0.384722 0.429619 0.351572
O O4 0.896363 0.648662 0.265895
O O5 0.519173 0.931577 0.320645
O O6 0.783900 0.140137 0.300396
O O7 0.948339 0.188469 0.185897
O O8 0.471135 0.503241 0.435383
O O9 0.825303 0.197468 0.716388
O O10 0.010235 0.389213 0.249712
O O11 0.841906 0.566863 0.028230
O O12 0.412374 0.471817 0.109072
O O13 0.241868 0.764427 0.065117
O O14 0.762442 0.637847 0.145817
O O15 0.268188 0.841128 0.918014
O O16 0.633019 0.072949 0.870610
#
# Coordination Sequence:
#
# PCOD9010982 Si02
#       8
#     2   2   2   2   2   2   2   2
#     4  11  26  40  63  92 131 174 214 261 314 389
#     4  11  23  38  65  95 125 170 208 264 326 376
#     4  10  23  41  62  95 130 158 218 263 325 383
#     4  10  23  41  66  95 130 167 210 264 317 375
#     4  10  25  44  63  95 133 169 220 259 306 386
#     4  10  21  40  64  99 126 159 215 268 319 379
#     4  10  22  42  69  91 127 172 213 268 318 368
#     4  10  22  42  64  94 123 167 214 269 326 372
#
# _framework density 26.397748
#
# number of rings (size 3 to 8) (size 9 to 14) (size 15 to 20)
#    0.000    1.750    1.250    1.125    8.750    2.500 
#    0.000    0.625    0.000    0.000    0.000    0.000 
#    0.000    0.000    0.000    0.000    0.000    0.000 
#
# Total GULP energy -89771.641183 kJ/mol
# GULP energy per Si atom -5610.727574 kJ/mol
# Density = 2.633767 g / cm^3
# Si number density = 26.397748 Si / 1000 Ang^3
#
#
#
# Elastic Constant Matrix: (Units=GPa)
#
#
# Indices 1 2 3 4 5 6 
#
# 1 79.1368 19.1658 17.8666 -8.3389 2.7754 -3.0320
# 2 19.1658 140.3248 56.6429 -13.0971 0.1179 -3.2393
# 3 17.8666 56.6429 68.7157 -5.6152 8.2370 -4.2459
# 4 -8.3389 -13.0971 -5.6152 39.1561 -5.4679 -1.3510
# 5 2.7754 0.1179 8.2370 -5.4679 39.7425 -0.9770
# 6 -3.0320 -3.2393 -4.2459 -1.3510 -0.9770 42.2616
#
#
#
# Elastic Compliance Matrix: (Units=1/GPa)
#
#
# Indices 1 2 3 4 5 6 
#
# 1 0.013688 -0.000436 -0.002961 0.002370 0.000003 0.000727
# 2 -0.000436 0.011098 -0.009086 0.002631 0.002244 0.000042
# 3 -0.002961 -0.009086 0.023381 -0.000929 -0.004708 0.001302
# 4 0.002370 0.002631 -0.000929 0.027366 0.003815 0.001241
# 5 0.000003 0.002244 -0.004708 0.003815 0.026667 0.000438
# 6 0.000727 0.000042 0.001302 0.001241 0.000438 0.023898
#
#
# Mechanical properties :
#
#
# Convention : Reuss Voigt Hill
#
# Bulk Modulus (GPa) = 43.10298 52.83641 47.96969
# Shear Modulus (GPa) = 31.48629 37.19884 34.34257
#
# Velocity S-wave (km/s) = 3.45739 3.75796 3.61080
# Velocity P-wave (km/s) = 5.68346 6.23608 5.96617
#
# Compressibility (1/GPa) = 0.02320025
#
# Stress axis : x y z
#
# Youngs Moduli (GPa) = 73.05656 90.10368 42.76896
#
# Poissons Ratio (x) = 0.03931 0.12665
# Poissons Ratio (y) = 0.03187 0.38861
# Poissons Ratio (z) = 0.21633 0.81871
#
# Static dielectric constant tensor:
#      x y z
#    x 2.056350 -0.023750 -0.014610 
#    y -0.023750 2.032460 0.013520 
#    z -0.014610 0.013520 2.095950 
# 
# From -- ./inp_files/615792.got.cif
#   From: 2010.05.17/outbox.cif.g08.bks.cpg/sg2_308_cif.got.tgz:615792.got - 2010.06.03 11:33:40.
