data_PCOD9010247
_publ_section_title
;
Structure prediction by ZEFSAII (Michael W. Deem and Ramdas Pophale) SiO2 
 PCOD9010247
Probable space group: P -1
;
_chemical_formula_sum "Si O2"
_cell_formula_units_Z 14
_cell_length_a 19.457193
_cell_length_b 12.500662
_cell_length_c 8.924609
_cell_angle_alpha 108.254132
_cell_angle_beta 110.703373
_cell_angle_gamma 19.282092
_cell_volume 669.048766
_symmetry_space_group_name_H-M "P -1"
_symmetry_group_IT_number 2
_symmetry_cell_setting 'triclinic'
loop_
_space_group_symop_operation_xyz
x,y,z
-x,-y,-z
loop_
_atom_site_type_symbol
_atom_site_label
_atom_site_fract_x
_atom_site_fract_y
_atom_site_fract_z
Si Si1 0.025444 0.558153 0.917251
Si Si2 0.096060 0.844476 0.166399
Si Si3 0.145902 0.013967 0.434090
Si Si4 0.641372 0.745830 0.865548
Si Si5 0.348050 0.907719 0.355784
Si Si6 0.176043 0.824588 0.639377
Si Si7 0.243609 0.268709 0.636033
O O1 0.164240 0.340142 0.772756
O O2 0.146517 0.485483 0.063163
O O3 0.795264 0.911109 0.821044
O O4 0.000000 0.500000 0.000000
O O5 0.295145 0.474945 0.158430
O O6 0.148046 0.890813 0.297725
O O7 0.913853 0.043118 0.206788
O O8 0.000000 0.000000 0.000000
O O9 0.924530 0.395807 0.397912
O O10 0.318131 0.848299 0.422815
O O11 0.176715 0.939825 0.598972
O O12 0.479838 0.980341 0.705503
O O13 0.500000 0.000000 0.000000
O O14 0.594975 0.561390 0.359363
O O15 0.257196 0.147683 0.475990
O O16 0.000000 0.000000 0.500000
#
# Coordination Sequence:
#
# PCOD9010247 Si02
#       7
#     2   2   2   2   2   2   2
#     4  10  22  38  60  95 129 156 203 262 312 361
#     4  11  22  40  61  87 125 165 202 250 310 375
#     4  10  21  40  62  93 126 159 205 261 308 359
#     4  10  22  41  63  90 122 162 204 249 309 374
#     4  11  22  42  65  92 125 167 212 258 306 365
#     4  10  23  39  59  89 122 159 206 254 307 367
#     4  10  21  40  67  92 123 168 210 254 307 367
#
# _framework density 20.925229999999999
#
# number of rings (size 3 to 8) (size 9 to 14) (size 15 to 20)
#    0.000    1.714    0.000    6.429    0.000    6.857 
#    0.000    8.571    0.000    0.000    0.000    0.000 
#    0.000    0.000    0.000    0.000    0.000    0.000 
#
# Total GULP energy -78102.783915 kJ/mol
# GULP energy per Si atom -5578.770280 kJ/mol
# Density = 2.087760 g / cm^3
# Si number density = 20.925230 Si / 1000 Ang^3
#
#
#
# Elastic Constant Matrix: (Units=GPa)
#
#
# Indices 1 2 3 4 5 6 
#
# 1 89.4179 41.0263 41.9955 7.4206 3.7123 12.2954
# 2 41.0263 150.3857 35.1847 2.1416 8.0640 2.1882
# 3 41.9955 35.1847 68.5053 -1.6829 -8.0292 -2.3487
# 4 7.4206 2.1416 -1.6829 34.9423 2.9867 17.3807
# 5 3.7123 8.0640 -8.0292 2.9867 47.6652 -4.0047
# 6 12.2954 2.1882 -2.3487 17.3807 -4.0047 32.4708
#
#
#
# Elastic Compliance Matrix: (Units=1/GPa)
#
#
# Indices 1 2 3 4 5 6 
#
# 1 0.018623 -0.002197 -0.010991 0.000015 -0.003616 -0.008153
# 2 -0.002197 0.008041 -0.002988 0.000060 -0.001711 -0.000169
# 3 -0.010991 -0.002988 0.023803 -0.000328 0.005980 0.006998
# 4 0.000015 0.000060 -0.000328 0.039877 -0.004407 -0.021922
# 5 -0.003616 -0.001711 0.005980 -0.004407 0.023436 0.007167
# 6 -0.008153 -0.000169 0.006998 -0.021922 0.007167 0.047020
#
#
# Mechanical properties :
#
#
# Convention : Reuss Voigt Hill
#
# Bulk Modulus (GPa) = 55.20297 60.52466 57.86381
# Shear Modulus (GPa) = 25.10143 35.68915 30.39529
#
# Velocity S-wave (km/s) = 3.46725 4.13432 3.81539
# Velocity P-wave (km/s) = 6.51670 7.19563 6.86457
#
# Compressibility (1/GPa) = 0.01811497
#
# Stress axis : x y z
#
# Youngs Moduli (GPa) = 53.69576 124.35744 42.01158
#
# Poissons Ratio (x) = 0.27318 0.46177
# Poissons Ratio (y) = 0.11795 0.12554
# Poissons Ratio (z) = 0.59019 0.37162
#
# Static dielectric constant tensor:
#      x y z
#    x 1.765700 -0.023210 0.022180 
#    y -0.023210 1.867180 0.058580 
#    z 0.022180 0.058580 1.859740 
# 
# From -- ./inp_files/279715.got.cif
#   From: 2010.05.17/outbox.cif.g08.bks.cpg/sg2_140_cif.got.tgz:279715.got - 2010.06.03 11:33:40.
