data_PCOD9010605
_publ_section_title
;
Structure prediction by ZEFSAII (Michael W. Deem and Ramdas Pophale) SiO2 
 PCOD9010605
Probable space group: P -1
;
_chemical_formula_sum "Si O2"
_cell_formula_units_Z 16
_cell_length_a 19.063306
_cell_length_b 12.873135
_cell_length_c 6.531983
_cell_angle_alpha 50.660218
_cell_angle_beta 137.760375
_cell_angle_gamma 138.933874
_cell_volume 697.402141
_symmetry_space_group_name_H-M "P -1"
_symmetry_group_IT_number 2
_symmetry_cell_setting 'triclinic'
loop_
_space_group_symop_operation_xyz
x,y,z
-x,-y,-z
loop_
_atom_site_type_symbol
_atom_site_label
_atom_site_fract_x
_atom_site_fract_y
_atom_site_fract_z
Si Si1 0.384250 0.260174 0.106165
Si Si2 0.105280 0.085807 0.789800
Si Si3 0.115716 0.836856 0.361580
Si Si4 0.063956 0.363365 0.451619
Si Si5 0.550140 0.443184 0.864764
Si Si6 0.176782 0.725655 0.226166
Si Si7 0.658410 0.078127 0.008596
Si Si8 0.442983 0.770454 0.146109
O O1 0.386954 0.412352 0.018963
O O2 0.464080 0.229298 0.481207
O O3 0.238942 0.126493 0.948235
O O4 0.445257 0.302390 0.960437
O O5 0.111939 0.246063 0.668473
O O6 0.000000 0.000000 0.500000
O O7 0.074040 0.955454 0.058509
O O8 0.167522 0.785391 0.352005
O O9 0.229554 0.931680 0.647512
O O10 0.000871 0.679524 0.413282
O O11 0.159406 0.552718 0.395415
O O12 0.947183 0.306863 0.117283
O O13 0.500000 0.500000 0.500000
O O14 0.616990 0.378038 0.954206
O O15 0.302485 0.861107 0.213218
O O16 0.528601 0.921860 0.992476
O O17 0.656201 0.216677 0.955049
#
# Coordination Sequence:
#
# PCOD9010605 Si02
#       8
#     2   2   2   2   2   2   2   2
#     4  10  22  41  65  93 134 169 214 269 320 387
#     4  12  24  42  67  98 130 177 218 265 324 386
#     4  11  22  42  65  93 127 171 216 267 325 382
#     4  10  23  41  62  91 129 169 219 265 315 384
#     4   9  21  41  65  93 132 170 213 265 328 383
#     4  10  22  42  64  91 129 169 214 269 318 385
#     4  10  23  38  66  94 127 163 216 266 326 386
#     4  10  21  40  63  97 126 166 213 270 324 387
#
# _framework density 22.942285999999999
#
# number of rings (size 3 to 8) (size 9 to 14) (size 15 to 20)
#    0.000    1.750    2.500    0.750    1.750    5.000 
#    4.500    2.500    0.000    0.000    0.000    0.000 
#    0.000    0.000    0.000    0.000    0.000    0.000 
#
# Total GULP energy -89346.849256 kJ/mol
# GULP energy per Si atom -5584.178079 kJ/mol
# Density = 2.289007 g / cm^3
# Si number density = 22.942286 Si / 1000 Ang^3
#
#
#
# Elastic Constant Matrix: (Units=GPa)
#
#
# Indices 1 2 3 4 5 6 
#
# 1 99.6368 6.8958 35.6454 0.3337 -24.1388 -10.2435
# 2 6.8958 30.4915 19.0206 -14.4465 -5.8795 -9.5771
# 3 35.6454 19.0206 102.3897 -1.9074 0.9513 8.1455
# 4 0.3337 -14.4465 -1.9074 25.4913 6.1589 1.6328
# 5 -24.1388 -5.8795 0.9513 6.1589 33.6267 -7.0547
# 6 -10.2435 -9.5771 8.1455 1.6328 -7.0547 47.5512
#
#
#
# Elastic Compliance Matrix: (Units=1/GPa)
#
#
# Indices 1 2 3 4 5 6 
#
# 1 0.017188 0.006003 -0.007969 -0.001783 0.015760 0.008676
# 2 0.006003 0.063129 -0.014784 0.030098 0.013940 0.017575
# 3 -0.007969 -0.014784 0.015998 -0.004140 -0.009836 -0.008752
# 4 -0.001783 0.030098 -0.004140 0.057125 -0.005609 0.003593
# 5 0.015760 0.013940 -0.009836 -0.005609 0.047983 0.015199
# 6 0.008676 0.017575 -0.008752 0.003593 0.015199 0.030069
#
#
# Mechanical properties :
#
#
# Convention : Reuss Voigt Hill
#
# Bulk Modulus (GPa) = 15.91972 39.51574 27.71773
# Shear Modulus (GPa) = 17.48682 32.73091 25.10887
#
# Velocity S-wave (km/s) = 2.76381 3.78122 3.31182
# Velocity P-wave (km/s) = 4.13992 6.02701 5.17029
#
# Compressibility (1/GPa) = 0.06281519
#
# Stress axis : x y z
#
# Youngs Moduli (GPa) = 58.18027 15.84060 62.50884
#
# Poissons Ratio (x) = -0.09510 0.49812
# Poissons Ratio (y) = -0.34927 0.92414
# Poissons Ratio (z) = 0.46363 0.23419
#
# Static dielectric constant tensor:
#      x y z
#    x 1.839670 -0.002070 0.001380 
#    y -0.002070 1.909690 -0.038650 
#    z 0.001380 -0.038650 1.867490 
# 
# From -- ./inp_files/109606.got.cif
#   From: 2010.05.17/outbox.cif.g08.bks.cpg/sg2_55_cif.got.tgz:109606.got - 2010.06.03 11:33:40.
