data_PCOD9010952
_publ_section_title
;
Structure prediction by ZEFSAII (Michael W. Deem and Ramdas Pophale) SiO2 
 PCOD9010952
Probable space group: P -1
;
_chemical_formula_sum "Si O2"
_cell_formula_units_Z 14
_cell_length_a 17.690977
_cell_length_b 16.198431
_cell_length_c 9.718235
_cell_angle_alpha 30.461099
_cell_angle_beta 32.859814
_cell_angle_gamma 24.911082
_cell_volume 572.143019
_symmetry_space_group_name_H-M "P -1"
_symmetry_group_IT_number 2
_symmetry_cell_setting 'triclinic'
loop_
_space_group_symop_operation_xyz
x,y,z
-x,-y,-z
loop_
_atom_site_type_symbol
_atom_site_label
_atom_site_fract_x
_atom_site_fract_y
_atom_site_fract_z
Si Si1 0.603241 0.632946 0.303634
Si Si2 0.019761 0.793547 0.752087
Si Si3 0.713698 0.975368 0.326146
Si Si4 0.889564 0.364291 0.851885
Si Si5 0.744009 0.139711 0.303649
Si Si6 0.173390 0.242951 0.113212
Si Si7 0.519399 0.800435 0.887884
O O1 0.794340 0.383288 0.368746
O O2 0.442383 0.692574 0.561816
O O3 0.660899 0.766658 0.080824
O O4 0.531356 0.699258 0.160369
O O5 0.066523 0.682219 0.987236
O O6 0.843442 0.840325 0.885449
O O7 0.000000 0.000000 0.500000
O O8 0.564198 0.954905 0.626045
O O9 0.703686 0.135012 0.213868
O O10 0.662775 0.070631 0.112918
O O11 0.916121 0.729608 0.376416
O O12 0.864892 0.203501 0.057273
O O13 0.691339 0.608062 0.802036
O O14 0.835971 0.899645 0.561575
O O15 0.000000 0.500000 0.000000
#
# Coordination Sequence:
#
# PCOD9010952 Si02
#       7
#     2   2   2   2   2   2   2
#     4  10  23  42  68  95 131 164 220 277 315 390
#     4  10  21  40  66 100 125 167 216 271 333 378
#     4  11  25  44  68  92 133 177 217 264 323 397
#     4  11  25  43  65  95 136 171 218 267 325 393
#     4  12  24  43  65  98 132 170 217 269 329 382
#     4  10  21  40  64  97 129 168 213 266 328 381
#     4  10  24  46  67  96 126 175 222 266 328 381
#
# _framework density 24.469405999999999
#
# number of rings (size 3 to 8) (size 9 to 14) (size 15 to 20)
#    0.000    1.429    2.857    1.286    2.000    5.143 
#    5.143    0.000    0.000    0.000    0.000    0.000 
#    0.000    0.000    0.000    0.000    0.000    0.000 
#
# Total GULP energy -78317.536457 kJ/mol
# GULP energy per Si atom -5594.109747 kJ/mol
# Density = 2.441371 g / cm^3
# Si number density = 24.469406 Si / 1000 Ang^3
#
#
#
# Elastic Constant Matrix: (Units=GPa)
#
#
# Indices 1 2 3 4 5 6 
#
# 1 142.8796 13.9651 23.1897 4.7785 -2.7308 11.7456
# 2 13.9651 135.9000 8.7042 4.3479 -0.1974 3.7110
# 3 23.1897 8.7042 47.5067 -1.6197 -18.7240 2.7881
# 4 4.7785 4.3479 -1.6197 30.4706 10.9193 1.0053
# 5 -2.7308 -0.1974 -18.7240 10.9193 29.5760 -3.4751
# 6 11.7456 3.7110 2.7881 1.0053 -3.4751 30.4881
#
#
#
# Elastic Compliance Matrix: (Units=1/GPa)
#
#
# Indices 1 2 3 4 5 6 
#
# 1 0.007993 -0.000437 -0.004583 -0.000512 -0.002313 -0.002854
# 2 -0.000437 0.007538 -0.001418 -0.000823 -0.000662 -0.000668
# 3 -0.004583 -0.001418 0.031906 -0.005294 0.021920 0.001693
# 4 -0.000512 -0.000823 -0.005294 0.039357 -0.018240 -0.002595
# 5 -0.002313 -0.000662 0.021920 -0.018240 0.054889 0.005825
# 6 -0.002854 -0.000668 0.001693 -0.002595 0.005825 0.034575
#
#
# Mechanical properties :
#
#
# Convention : Reuss Voigt Hill
#
# Bulk Modulus (GPa) = 28.93388 46.44495 37.68941
# Shear Modulus (GPa) = 24.91863 36.80208 30.86035
#
# Velocity S-wave (km/s) = 3.19464 3.88236 3.55516
# Velocity P-wave (km/s) = 5.04557 6.25451 5.68228
#
# Compressibility (1/GPa) = 0.03456156
#
# Stress axis : x y z
#
# Youngs Moduli (GPa) = 125.11006 132.66735 31.34194
#
# Poissons Ratio (x) = 0.05796 0.14364
# Poissons Ratio (y) = 0.05466 0.04443
# Poissons Ratio (z) = 0.57339 0.18807
#
# Static dielectric constant tensor:
#      x y z
#    x 1.955400 0.009880 -0.004350 
#    y 0.009880 2.005640 0.035910 
#    z -0.004350 0.035910 1.917500 
# 
# From -- ./inp_files/314438.got.cif
#   From: 2010.05.17/outbox.cif.g08.bks.cpg/sg2_158_cif.got.tgz:314438.got - 2010.06.03 11:33:40.
