data_PCOD9010801
_publ_section_title
;
Structure prediction by ZEFSAII (Michael W. Deem and Ramdas Pophale) SiO2 
 PCOD9010801
Probable space group: P -1
;
_chemical_formula_sum "Si O2"
_cell_formula_units_Z 16
_cell_length_a 7.670011
_cell_length_b 8.309346
_cell_length_c 12.782501
_cell_angle_alpha 58.376143
_cell_angle_beta 86.958754
_cell_angle_gamma 68.183494
_cell_volume 633.563888
_symmetry_space_group_name_H-M "P -1"
_symmetry_group_IT_number 2
_symmetry_cell_setting 'triclinic'
loop_
_space_group_symop_operation_xyz
x,y,z
-x,-y,-z
loop_
_atom_site_type_symbol
_atom_site_label
_atom_site_fract_x
_atom_site_fract_y
_atom_site_fract_z
Si Si1 0.384143 0.150390 0.596550
Si Si2 0.571009 0.686411 0.676385
Si Si3 0.344499 0.245321 0.787749
Si Si4 0.161665 0.682775 0.644001
Si Si5 0.295436 0.537363 0.047948
Si Si6 0.601977 0.833003 0.957014
Si Si7 0.008488 0.912000 0.362408
Si Si8 0.054858 0.043122 0.098344
O O1 0.361080 0.296511 0.448128
O O2 0.427058 0.247166 0.668477
O O3 0.186845 0.122219 0.624059
O O4 0.533855 0.914605 0.647987
O O5 0.370028 0.665753 0.676981
O O6 0.690513 0.505370 0.814093
O O7 0.155175 0.457680 0.724822
O O8 0.394829 0.997402 0.870491
O O9 0.416342 0.256224 0.899639
O O10 0.132826 0.757262 0.499882
O O11 0.024037 0.863924 0.662081
O O12 0.277162 0.340278 0.067283
O O13 0.500000 0.500000 0.000000
O O14 0.123894 0.740574 0.945926
O O15 0.741937 0.948004 0.924225
O O16 0.075151 0.897833 0.246372
O O17 0.000000 0.000000 0.000000
#
# Coordination Sequence:
#
# PCOD9010801 Si02
#       8
#     2   2   2   2   2   2   2   2
#     4  10  21  40  64  92 133 171 220 282 331 405
#     4  10  22  39  65  97 125 178 225 266 336 405
#     4  11  23  41  68  99 133 177 229 280 345 395
#     4  10  23  41  68  94 130 175 224 279 333 412
#     4  12  25  46  75  99 140 184 225 278 349 414
#     4  11  26  43  68  99 139 179 229 282 341 416
#     4  10  23  45  65  95 136 178 220 278 350 395
#     4  12  28  43  69 105 139 178 227 290 337 407
#
# _framework density 25.253962999999999
#
# number of rings (size 3 to 8) (size 9 to 14) (size 15 to 20)
#    0.000    1.250    1.250    4.125    7.000    5.000 
#    0.000    0.000    0.000    0.000    0.000    0.000 
#    0.000    0.000    0.000    0.000    0.000    0.000 
#
# Total GULP energy -89247.752346 kJ/mol
# GULP energy per Si atom -5577.984522 kJ/mol
# Density = 2.519648 g / cm^3
# Si number density = 25.253963 Si / 1000 Ang^3
#
#
#
# Elastic Constant Matrix: (Units=GPa)
#
#
# Indices 1 2 3 4 5 6 
#
# 1 54.2432 -3.9743 15.8143 0.9715 -12.5256 -5.9624
# 2 -3.9743 59.5705 32.0973 -2.8068 2.0776 -7.8215
# 3 15.8143 32.0973 184.1927 19.1980 11.0140 -2.3829
# 4 0.9715 -2.8068 19.1980 45.7867 -4.4031 8.1543
# 5 -12.5256 2.0776 11.0140 -4.4031 32.2469 -0.5546
# 6 -5.9624 -7.8215 -2.3829 8.1543 -0.5546 17.6812
#
#
#
# Elastic Compliance Matrix: (Units=1/GPa)
#
#
# Indices 1 2 3 4 5 6 
#
# 1 0.022996 0.004159 -0.003220 0.000425 0.009982 0.009278
# 2 0.004159 0.020479 -0.004074 0.001411 0.002041 0.009326
# 3 -0.003220 -0.004074 0.006993 -0.003394 -0.003849 -0.000501
# 4 0.000425 0.001411 -0.003394 0.025820 0.004562 -0.011455
# 5 0.009982 0.002041 -0.003849 0.004562 0.036742 0.002799
# 6 0.009278 0.009326 -0.000501 -0.011455 0.002799 0.069114
#
#
# Mechanical properties :
#
#
# Convention : Reuss Voigt Hill
#
# Bulk Modulus (GPa) = 22.62525 42.87569 32.75047
# Shear Modulus (GPa) = 24.61255 36.08091 30.34673
#
# Velocity S-wave (km/s) = 3.12525 3.78395 3.47026
# Velocity P-wave (km/s) = 4.69057 6.00880 5.39013
#
# Compressibility (1/GPa) = 0.04419840
#
# Stress axis : x y z
#
# Youngs Moduli (GPa) = 43.48515 48.82957 142.99928
#
# Poissons Ratio (x) = -0.20310 0.46051
# Poissons Ratio (y) = -0.18087 0.58262
# Poissons Ratio (z) = 0.14004 0.19895
#
# Static dielectric constant tensor:
#      x y z
#    x 2.086680 0.171680 -0.009550 
#    y 0.171680 2.264090 -0.030350 
#    z -0.009550 -0.030350 1.974740 
# 
# From -- ./inp_files/381350.got.cif
#   From: 2010.05.17/outbox.cif.g08.bks.cpg/sg2_191_cif.got.tgz:381350.got - 2010.06.03 11:33:40.
