data_PCOD9010508
_publ_section_title
;
Structure prediction by ZEFSAII (Michael W. Deem and Ramdas Pophale) SiO2 
 PCOD9010508
Probable space group: P -1
;
_chemical_formula_sum "Si O2"
_cell_formula_units_Z 14
_cell_length_a 8.142419
_cell_length_b 8.235147
_cell_length_c 12.856008
_cell_angle_alpha 114.639562
_cell_angle_beta 119.352571
_cell_angle_gamma 55.512024
_cell_volume 607.557007
_symmetry_space_group_name_H-M "P -1"
_symmetry_group_IT_number 2
_symmetry_cell_setting 'triclinic'
loop_
_space_group_symop_operation_xyz
x,y,z
-x,-y,-z
loop_
_atom_site_type_symbol
_atom_site_label
_atom_site_fract_x
_atom_site_fract_y
_atom_site_fract_z
Si Si1 0.541141 0.420073 0.819695
Si Si2 0.131208 0.217899 0.140994
Si Si3 0.119004 0.981122 0.262934
Si Si4 0.220921 0.836899 0.476074
Si Si5 0.292134 0.394679 0.913276
Si Si6 0.580401 0.588488 0.676113
Si Si7 0.745315 0.943907 0.077962
O O1 0.769451 0.237736 0.815733
O O2 0.413403 0.329907 0.823709
O O3 0.464435 0.517900 0.708864
O O4 0.559606 0.580809 0.945729
O O5 0.282488 0.322157 0.199660
O O6 0.892852 0.385474 0.104559
O O7 0.165815 0.123177 0.239709
O O8 0.176583 0.068266 0.019441
O O9 0.225406 0.945779 0.399066
O O10 0.867333 0.048119 0.204661
O O11 0.414339 0.762083 0.597077
O O12 0.258406 0.613250 0.390194
O O13 0.000000 0.000000 0.500000
O O14 0.190091 0.260238 0.891049
O O15 0.500000 0.000000 0.000000
#
# Coordination Sequence:
#
# PCOD9010508 Si02
#       7
#     2   2   2   2   2   2   2
#     4  10  21  40  63  92 133 168 215 260 329 390
#     4  12  24  40  66  99 135 169 214 267 334 399
#     4  11  25  43  63  95 134 172 217 275 319 392
#     4  10  24  45  74  91 126 176 231 276 331 385
#     4  11  22  36  63  96 130 173 206 260 328 398
#     4  10  23  46  69  97 132 176 217 281 331 385
#     4  12  25  39  64  97 135 177 214 262 329 400
#
# _framework density 23.043106000000002
#
# number of rings (size 3 to 8) (size 9 to 14) (size 15 to 20)
#    0.000    1.143    2.857    3.429    8.000    0.571 
#    2.571    0.714    0.000    0.000    0.000    0.000 
#    0.000    0.000    0.000    0.000    0.000    0.000 
#
# Total GULP energy -78119.345353 kJ/mol
# GULP energy per Si atom -5579.953240 kJ/mol
# Density = 2.299066 g / cm^3
# Si number density = 23.043106 Si / 1000 Ang^3
#
#
#
# Elastic Constant Matrix: (Units=GPa)
#
#
# Indices 1 2 3 4 5 6 
#
# 1 88.0413 29.7168 28.4006 -17.1515 -31.0587 -1.3486
# 2 29.7168 87.3666 21.6639 -21.0800 -16.8184 -18.6254
# 3 28.4006 21.6639 85.4360 -29.2427 -24.8693 -10.7581
# 4 -17.1515 -21.0800 -29.2427 42.2088 6.7631 -1.9870
# 5 -31.0587 -16.8184 -24.8693 6.7631 36.9914 -8.1870
# 6 -1.3486 -18.6254 -10.7581 -1.9870 -8.1870 39.8435
#
#
#
# Elastic Compliance Matrix: (Units=1/GPa)
#
#
# Indices 1 2 3 4 5 6 
#
# 1 0.017767 -0.001558 0.000812 0.004820 0.014612 0.003335
# 2 -0.001558 0.017951 0.003872 0.009930 0.010296 0.011995
# 3 0.000812 0.003872 0.022359 0.015552 0.017334 0.012212
# 4 0.004820 0.009930 0.015552 0.039662 0.014873 0.014038
# 5 0.014612 0.010296 0.017334 0.014873 0.057926 0.022632
# 6 0.003335 0.011995 0.012212 0.014038 0.022632 0.039466
#
#
# Mechanical properties :
#
#
# Convention : Reuss Voigt Hill
#
# Bulk Modulus (GPa) = 15.54480 46.71182 31.12831
# Shear Modulus (GPa) = 23.77306 35.87960 29.82633
#
# Velocity S-wave (km/s) = 3.21546 3.95025 3.60164
# Velocity P-wave (km/s) = 4.53279 6.41260 5.55282
#
# Compressibility (1/GPa) = 0.06433020
#
# Stress axis : x y z
#
# Youngs Moduli (GPa) = 56.28420 55.70798 44.72385
#
# Poissons Ratio (x) = 0.08678 -0.03632
# Poissons Ratio (y) = 0.08767 -0.17318
# Poissons Ratio (z) = -0.04570 -0.21571
#
# Static dielectric constant tensor:
#      x y z
#    x 1.864310 -0.015480 -0.036400 
#    y -0.015480 1.914460 -0.011130 
#    z -0.036400 -0.011130 1.872240 
# 
# From -- ./inp_files/171170.got.cif
#   From: 2010.05.17/outbox.cif.g08.bks.cpg/sg2_86_cif.got.tgz:171170.got - 2010.06.03 11:33:40.
