data_PCOD9010829
_publ_section_title
;
Structure prediction by ZEFSAII (Michael W. Deem and Ramdas Pophale) SiO2 
 PCOD9010829
Probable space group: P -1
;
_chemical_formula_sum "Si O2"
_cell_formula_units_Z 12
_cell_length_a 14.726877
_cell_length_b 16.830104
_cell_length_c 9.517550
_cell_angle_alpha 151.464954
_cell_angle_beta 139.042480
_cell_angle_gamma 25.090423
_cell_volume 468.232574
_symmetry_space_group_name_H-M "P -1"
_symmetry_group_IT_number 2
_symmetry_cell_setting 'triclinic'
loop_
_space_group_symop_operation_xyz
x,y,z
-x,-y,-z
loop_
_atom_site_type_symbol
_atom_site_label
_atom_site_fract_x
_atom_site_fract_y
_atom_site_fract_z
Si Si1 0.733812 0.310132 0.088583
Si Si2 0.586213 0.115650 0.403794
Si Si3 0.084434 0.191904 0.465655
Si Si4 0.040166 0.826753 0.151743
Si Si5 0.696303 0.699251 0.207257
Si Si6 0.603637 0.032362 0.967606
O O1 0.507424 0.613723 0.272850
O O2 0.859900 0.312621 0.351905
O O3 0.880282 0.177957 0.912564
O O4 0.740890 0.115495 0.852399
O O5 0.826074 0.862555 0.356269
O O6 0.584633 0.084512 0.190266
O O7 0.421636 0.144723 0.338200
O O8 0.112172 0.342768 0.658211
O O9 0.823959 0.919676 0.008469
O O10 0.216743 0.531915 0.958785
O O11 0.000000 0.000000 0.500000
O O12 0.500000 0.000000 0.500000
O O13 0.598840 0.720908 0.980507
#
# Coordination Sequence:
#
# PCOD9010829 Si02
#       6
#     2   2   2   2   2   2
#     4  11  23  40  65  93 128 170 212 260 320 384
#     4  10  21  40  64  93 128 169 214 263 318 380
#     4  10  22  39  63  92 121 164 216 259 309 377
#     4  12  26  43  65  98 134 167 212 271 325 377
#     4  11  24  43  68  96 130 173 217 262 320 387
#     4  10  23  40  64  96 130 169 215 267 321 379
#
# _framework density 25.628288999999999
#
# number of rings (size 3 to 8) (size 9 to 14) (size 15 to 20)
#    0.000    1.333    0.000    5.500    0.000    8.000 
#    0.000    7.500    0.000    0.000    0.000    0.000 
#    0.000    0.000    0.000    0.000    0.000    0.000 
#
# Total GULP energy -67111.629454 kJ/mol
# GULP energy per Si atom -5592.635788 kJ/mol
# Density = 2.556996 g / cm^3
# Si number density = 25.628289 Si / 1000 Ang^3
#
#
#
# Elastic Constant Matrix: (Units=GPa)
#
#
# Indices 1 2 3 4 5 6 
#
# 1 81.0507 40.9597 44.7177 -13.5785 10.8815 -1.1445
# 2 40.9597 105.9537 40.4117 -9.2941 13.0001 9.3316
# 3 44.7177 40.4117 116.6760 -8.0603 1.9499 8.0281
# 4 -13.5785 -9.2941 -8.0603 52.2332 1.8087 5.6477
# 5 10.8815 13.0001 1.9499 1.8087 42.9110 -13.5015
# 6 -1.1445 9.3316 8.0281 5.6477 -13.5015 39.8520
#
#
#
# Elastic Compliance Matrix: (Units=1/GPa)
#
#
# Indices 1 2 3 4 5 6 
#
# 1 0.018532 -0.004634 -0.005326 0.003126 -0.002774 0.001307
# 2 -0.004634 0.013116 -0.002305 0.001384 -0.004115 -0.004330
# 3 -0.005326 -0.002305 0.011512 0.000120 0.001015 -0.001605
# 4 0.003126 0.001384 0.000120 0.020817 -0.003475 -0.004386
# 5 -0.002774 -0.004115 0.001015 -0.003475 0.028792 0.010926
# 6 0.001307 -0.004330 -0.001605 -0.004386 0.010926 0.030791
#
#
# Mechanical properties :
#
#
# Convention : Reuss Voigt Hill
#
# Bulk Modulus (GPa) = 53.66878 61.76207 57.71542
# Shear Modulus (GPa) = 32.40461 38.83867 35.62164
#
# Velocity S-wave (km/s) = 3.55971 3.89712 3.73223
# Velocity P-wave (km/s) = 6.15484 6.66345 6.41419
#
# Compressibility (1/GPa) = 0.01863281
#
# Stress axis : x y z
#
# Youngs Moduli (GPa) = 53.95936 76.24276 86.86697
#
# Poissons Ratio (x) = 0.35328 0.46261
# Poissons Ratio (y) = 0.25003 0.20019
# Poissons Ratio (z) = 0.28736 0.17571
#
# Static dielectric constant tensor:
#      x y z
#    x 2.060630 0.000130 -0.008620 
#    y 0.000130 2.048720 -0.106460 
#    z -0.008620 -0.106460 2.107010 
# 
# From -- ./inp_files/159629.got.cif
#   From: 2010.05.17/outbox.cif.g08.bks.cpg/sg2_80_cif.got.tgz:159629.got - 2010.06.03 11:33:40.
