data_PCOD9010675
_publ_section_title
;
Structure prediction by ZEFSAII (Michael W. Deem and Ramdas Pophale) SiO2 
 PCOD9010675
Probable space group: P -1
;
_chemical_formula_sum "Si O2"
_cell_formula_units_Z 16
_cell_length_a 10.714442
_cell_length_b 20.420106
_cell_length_c 5.473990
_cell_angle_alpha 66.925916
_cell_angle_beta 98.452814
_cell_angle_gamma 140.793930
_cell_volume 670.726310
_symmetry_space_group_name_H-M "P -1"
_symmetry_group_IT_number 2
_symmetry_cell_setting 'triclinic'
loop_
_space_group_symop_operation_xyz
x,y,z
-x,-y,-z
loop_
_atom_site_type_symbol
_atom_site_label
_atom_site_fract_x
_atom_site_fract_y
_atom_site_fract_z
Si Si1 0.763134 0.687649 0.570250
Si Si2 0.909996 0.083086 0.957398
Si Si3 0.063015 0.374546 0.485217
Si Si4 0.267522 0.221274 0.197720
Si Si5 0.386392 0.160638 0.661362
Si Si6 0.645143 0.169522 0.441183
Si Si7 0.255922 0.852974 0.999877
Si Si8 0.413564 0.631405 0.304098
O O1 0.784251 0.615340 0.609715
O O2 0.746665 0.703971 0.821565
O O3 0.572294 0.643366 0.450222
O O4 0.980371 0.819268 0.354792
O O5 0.811742 0.095643 0.100507
O O6 0.098924 0.130561 0.080687
O O7 0.741063 0.949537 0.043915
O O8 0.191340 0.499318 0.418745
O O9 0.874754 0.303303 0.349309
O O10 0.950029 0.285970 0.810370
O O11 0.241061 0.155699 0.509011
O O12 0.491683 0.312612 0.016548
O O13 0.481789 0.157015 0.475545
O O14 0.559437 0.282747 0.670095
O O15 0.633246 0.111295 0.758751
O O16 0.635219 0.127216 0.239710
#
# Coordination Sequence:
#
# PCOD9010675 Si02
#       8
#     2   2   2   2   2   2   2   2
#     4   9  19  38  60  92 118 154 209 265 318 366
#     4  10  21  40  64  87 126 160 209 265 318 369
#     4   9  20  39  64  90 124 162 208 266 314 365
#     4  10  22  37  59  91 125 162 210 254 317 380
#     4  11  25  39  58  89 128 172 207 253 311 385
#     4  10  23  42  65  95 128 163 214 258 314 373
#     4   9  22  43  67  96 121 162 213 266 317 360
#     4  10  22  38  58  91 124 164 208 254 313 376
#
# _framework density 23.854737
#
# number of rings (size 3 to 8) (size 9 to 14) (size 15 to 20)
#    0.750    1.500    0.000    1.500    1.750    9.500 
#    0.000    1.250    0.000    0.000    0.000    0.000 
#    0.000    0.000    0.000    0.000    0.000    0.000 
#
# Total GULP energy -89341.969667 kJ/mol
# GULP energy per Si atom -5583.873104 kJ/mol
# Density = 2.380044 g / cm^3
# Si number density = 23.854737 Si / 1000 Ang^3
#
#
#
# Elastic Constant Matrix: (Units=GPa)
#
#
# Indices 1 2 3 4 5 6 
#
# 1 25.1410 15.5722 7.2060 1.0381 -13.5981 -11.3083
# 2 15.5722 115.4417 40.4961 -17.8011 1.4511 -18.4471
# 3 7.2060 40.4961 67.4063 10.4833 -16.3135 -18.2897
# 4 1.0381 -17.8011 10.4833 36.4217 -10.5126 -3.7120
# 5 -13.5981 1.4511 -16.3135 -10.5126 33.1273 8.7554
# 6 -11.3083 -18.4471 -18.2897 -3.7120 8.7554 35.8111
#
#
#
# Elastic Compliance Matrix: (Units=1/GPa)
#
#
# Indices 1 2 3 4 5 6 
#
# 1 0.064643 -0.010475 0.009824 -0.000293 0.028279 0.013090
# 2 -0.010475 0.015865 -0.011253 0.009141 -0.008181 0.002065
# 3 0.009824 -0.011253 0.027017 -0.009061 0.013115 0.006958
# 4 -0.000293 0.009141 -0.009061 0.036505 0.005992 0.002307
# 5 0.028279 -0.008181 0.013115 0.005992 0.050602 -0.000337
# 6 0.013090 0.002065 0.006958 0.002307 -0.000337 0.036997
#
#
# Mechanical properties :
#
#
# Convention : Reuss Voigt Hill
#
# Bulk Modulus (GPa) = 11.94493 37.17085 24.55789
# Shear Modulus (GPa) = 17.64648 30.71966 24.18307
#
# Velocity S-wave (km/s) = 2.72278 3.59246 3.18742
# Velocity P-wave (km/s) = 3.86043 5.72920 4.88501
#
# Compressibility (1/GPa) = 0.08371750
#
# Stress axis : x y z
#
# Youngs Moduli (GPa) = 15.46950 63.03124 37.01378
#
# Poissons Ratio (x) = 0.66025 -0.36362
# Poissons Ratio (y) = 0.16204 0.41651
# Poissons Ratio (z) = -0.15197 0.70928
#
# Static dielectric constant tensor:
#      x y z
#    x 1.942200 0.024460 0.005520 
#    y 0.024460 1.912050 -0.000970 
#    z 0.005520 -0.000970 1.953190 
# 
# From -- ./inp_files/83197.got.cif
#   From: 2010.05.17/outbox.cif.g08.bks.cpg/sg2_42_cif.got.tgz:83197.got - 2010.06.03 11:33:40.
