data_PCOD9010856
_publ_section_title
;
Structure prediction by ZEFSAII (Michael W. Deem and Ramdas Pophale) SiO2 
 PCOD9010856
Probable space group: P -1
;
_chemical_formula_sum "Si O2"
_cell_formula_units_Z 13
_cell_length_a 4.887995
_cell_length_b 9.173606
_cell_length_c 14.704016
_cell_angle_alpha 82.689579
_cell_angle_beta 56.534566
_cell_angle_gamma 98.687110
_cell_volume 525.702533
_symmetry_space_group_name_H-M "P -1"
_symmetry_group_IT_number 2
_symmetry_cell_setting 'triclinic'
loop_
_space_group_symop_operation_xyz
x,y,z
-x,-y,-z
loop_
_atom_site_type_symbol
_atom_site_label
_atom_site_fract_x
_atom_site_fract_y
_atom_site_fract_z
Si Si1 0.804407 0.561928 0.758959
Si Si2 0.289897 0.259484 0.907647
Si Si3 0.868842 0.891924 0.402269
Si Si4 0.605703 0.989986 0.184440
Si Si5 0.500000 0.000000 0.000000
Si Si6 0.168326 0.685927 0.859845
Si Si7 0.130437 0.786607 0.533980
O O1 0.583749 0.390000 0.798308
O O2 0.533043 0.660068 0.812129
O O3 0.003157 0.576245 0.816144
O O4 0.032294 0.638376 0.626180
O O5 0.151202 0.123969 0.867452
O O6 0.058935 0.335797 0.005914
O O7 0.440633 0.162760 0.960216
O O8 0.515219 0.820647 0.422524
O O9 0.226025 0.904588 0.288308
O O10 0.871978 0.792219 0.500164
O O11 0.872272 0.063627 0.417670
O O12 0.567673 0.061401 0.087930
O O13 0.774711 0.138460 0.200009
#
# Coordination Sequence:
#
# PCOD9010856 Si02
#       7
#     2   2   2   2   1   2   2
#     4  12  25  44  68 101 137 173 221 281 329 383
#     4  10  24  44  65 101 138 179 213 276 331 405
#     4  10  21  40  64  94 125 174 216 276 319 389
#     4  10  22  43  68  99 132 175 218 271 328 400
#     4   8  22  42  68  90 138 168 222 244 340 398
#     4  12  24  43  69 101 134 176 222 270 331 400
#     4  10  22  38  64  95 127 166 228 269 324 380
#
# _framework density 24.728812000000001
#
# number of rings (size 3 to 8) (size 9 to 14) (size 15 to 20)
#    0.923    0.615    1.538    3.231    4.308    1.231 
#    0.000    1.538    0.000    0.000    0.000    0.000 
#    0.000    0.000    0.000    0.000    0.000    0.000 
#
# Total GULP energy -72467.985104 kJ/mol
# GULP energy per Si atom -5574.460393 kJ/mol
# Density = 2.467253 g / cm^3
# Si number density = 24.728812 Si / 1000 Ang^3
#
#
#
# Elastic Constant Matrix: (Units=GPa)
#
#
# Indices 1 2 3 4 5 6 
#
# 1 63.2294 -12.9337 -7.1778 0.7953 3.7407 -9.3972
# 2 -12.9337 72.5267 13.6561 -12.1709 -7.5937 -0.7011
# 3 -7.1778 13.6561 95.1262 -14.5762 -20.2453 -9.3022
# 4 0.7953 -12.1709 -14.5762 32.0961 -4.7018 -8.9881
# 5 3.7407 -7.5937 -20.2453 -4.7018 33.3358 9.5283
# 6 -9.3972 -0.7011 -9.3022 -8.9881 9.5283 25.3279
#
#
#
# Elastic Compliance Matrix: (Units=1/GPa)
#
#
# Indices 1 2 3 4 5 6 
#
# 1 0.018322 0.003453 0.002025 0.004241 -0.002302 0.010008
# 2 0.003453 0.016023 0.000153 0.007443 0.003519 0.003098
# 3 0.002025 0.000153 0.014459 0.009556 0.008105 0.006408
# 4 0.004241 0.007443 0.009556 0.044447 0.008148 0.017997
# 5 -0.002302 0.003519 0.008105 0.008148 0.039966 -0.009923
# 6 0.010008 0.003098 0.006408 0.017997 -0.009923 0.055754
#
#
# Mechanical properties :
#
#
# Convention : Reuss Voigt Hill
#
# Bulk Modulus (GPa) = 16.64810 24.21907 20.43358
# Shear Modulus (GPa) = 25.28708 33.97448 29.63078
#
# Velocity S-wave (km/s) = 3.20124 3.71061 3.46530
# Velocity P-wave (km/s) = 4.51783 5.30786 4.92870
#
# Compressibility (1/GPa) = 0.06006693
#
# Stress axis : x y z
#
# Youngs Moduli (GPa) = 54.57921 62.41216 69.16059
#
# Poissons Ratio (x) = -0.21554 -0.14008
# Poissons Ratio (y) = -0.18849 -0.01057
# Poissons Ratio (z) = -0.11054 -0.00954
#
# Static dielectric constant tensor:
#      x y z
#    x 1.733050 0.040840 0.117910 
#    y 0.040840 2.566160 -0.020730 
#    z 0.117910 -0.020730 1.897070 
# 
# From -- ./inp_files/546174.got.cif
#   From: 2010.05.17/outbox.cif.g08.bks.cpg/sg2_274_cif.got.tgz:546174.got - 2010.06.03 11:33:40.
