data_PCOD9010769
_publ_section_title
;
Structure prediction by ZEFSAII (Michael W. Deem and Ramdas Pophale) SiO2 
 PCOD9010769
Probable space group: P -1
;
_chemical_formula_sum "Si O2"
_cell_formula_units_Z 12
_cell_length_a 14.089993
_cell_length_b 16.368734
_cell_length_c 19.008367
_cell_angle_alpha 21.988412
_cell_angle_beta 19.498771
_cell_angle_gamma 21.710414
_cell_volume 492.017645
_symmetry_space_group_name_H-M "P -1"
_symmetry_group_IT_number 2
_symmetry_cell_setting 'triclinic'
loop_
_space_group_symop_operation_xyz
x,y,z
-x,-y,-z
loop_
_atom_site_type_symbol
_atom_site_label
_atom_site_fract_x
_atom_site_fract_y
_atom_site_fract_z
Si Si1 0.645749 0.608051 0.192336
Si Si2 0.351082 0.831542 0.981246
Si Si3 0.132035 0.076019 0.135618
Si Si4 0.497457 0.309988 0.312710
Si Si5 0.763011 0.094231 0.525178
Si Si6 0.362810 0.881771 0.781452
O O1 0.568312 0.384387 0.439501
O O2 0.391599 0.801322 0.163723
O O3 0.677905 0.763917 0.110635
O O4 0.000000 0.500000 0.000000
O O5 0.486205 0.743386 0.878305
O O6 0.559893 0.943926 0.782298
O O7 0.346744 0.593792 0.208264
O O8 0.002667 0.041356 0.041683
O O9 0.868283 0.195761 0.165525
O O10 0.949226 0.066334 0.343181
O O11 0.448511 0.259190 0.306213
O O12 0.376221 0.139732 0.574752
O O13 0.000000 0.000000 0.500000
#
# Coordination Sequence:
#
# PCOD9010769 Si02
#       6
#     2   2   2   2   2   2
#     4   9  21  40  62  89 125 165 210 258 318 384
#     4  11  23  43  65  96 133 166 213 267 316 376
#     4  10  21  40  64  91 127 170 211 264 319 379
#     4  11  22  42  67  93 127 169 217 261 321 376
#     4  11  23  39  62  95 130 166 212 263 324 381
#     4  10  24  42  63  97 127 172 216 260 319 374
#
# _framework density 24.389368999999999
#
# number of rings (size 3 to 8) (size 9 to 14) (size 15 to 20)
#    0.000    1.667    1.667    2.000    0.000    8.667 
#   12.000    0.000    0.000    0.000    0.000    0.000 
#    0.000    0.000    0.000    0.000    0.000    0.000 
#
# Total GULP energy -67129.024527 kJ/mol
# GULP energy per Si atom -5594.085377 kJ/mol
# Density = 2.433386 g / cm^3
# Si number density = 24.389369 Si / 1000 Ang^3
#
#
#
# Elastic Constant Matrix: (Units=GPa)
#
#
# Indices 1 2 3 4 5 6 
#
# 1 105.8320 14.8343 24.5854 -6.9159 -14.6979 -5.5563
# 2 14.8343 81.1896 19.6026 -24.8778 -13.9261 -10.3385
# 3 24.5854 19.6026 115.2298 -29.3935 -25.6629 12.8020
# 4 -6.9159 -24.8778 -29.3935 42.3480 -0.2141 -6.8092
# 5 -14.6979 -13.9261 -25.6629 -0.2141 40.9835 8.4867
# 6 -5.5563 -10.3385 12.8020 -6.8092 8.4867 21.6115
#
#
#
# Elastic Compliance Matrix: (Units=1/GPa)
#
#
# Indices 1 2 3 4 5 6 
#
# 1 0.010413 -0.000608 -0.001962 0.000480 0.001672 0.003043
# 2 -0.000608 0.018302 -0.000322 0.012258 0.003530 0.011266
# 3 -0.001962 -0.000322 0.014871 0.008068 0.010858 -0.011190
# 4 0.000480 0.012258 0.008068 0.038189 0.007453 0.010314
# 5 0.001672 0.003530 0.010858 0.007453 0.036405 -0.016261
# 6 0.003043 0.011266 -0.011190 0.010314 -0.016261 0.068707
#
#
# Mechanical properties :
#
#
# Convention : Reuss Voigt Hill
#
# Bulk Modulus (GPa) = 26.45325 46.69957 36.57641
# Shear Modulus (GPa) = 24.35798 37.20385 30.78092
#
# Velocity S-wave (km/s) = 3.16367 3.90989 3.55641
# Velocity P-wave (km/s) = 4.92086 6.29063 5.64743
#
# Compressibility (1/GPa) = 0.03780254
#
# Stress axis : x y z
#
# Youngs Moduli (GPa) = 96.03232 54.63924 67.24451
#
# Poissons Ratio (x) = 0.03320 0.13192
# Poissons Ratio (y) = 0.05836 0.02168
# Poissons Ratio (z) = 0.18839 0.01761
#
# Static dielectric constant tensor:
#      x y z
#    x 1.996470 0.065340 0.043840 
#    y 0.065340 1.989770 0.020760 
#    z 0.043840 0.020760 1.939320 
# 
# From -- ./inp_files/88233.got.cif
#   From: 2010.05.17/outbox.cif.g08.bks.cpg/sg2_45_cif.got.tgz:88233.got - 2010.06.03 11:33:40.
