data_PCOD9010120
_publ_section_title
;
Structure prediction by ZEFSAII (Michael W. Deem and Ramdas Pophale) SiO2 
 PCOD9010120
Probable space group: P -1
;
_chemical_formula_sum "Si O2"
_cell_formula_units_Z 16
_cell_length_a 14.236100
_cell_length_b 12.334300
_cell_length_c 8.774271
_cell_angle_alpha 97.865312
_cell_angle_beta 33.820329
_cell_angle_gamma 107.181633
_cell_volume 802.008142
_symmetry_space_group_name_H-M "P -1"
_symmetry_group_IT_number 2
_symmetry_cell_setting 'triclinic'
loop_
_space_group_symop_operation_xyz
x,y,z
-x,-y,-z
loop_
_atom_site_type_symbol
_atom_site_label
_atom_site_fract_x
_atom_site_fract_y
_atom_site_fract_z
Si Si1 0.974738 0.079089 0.185615
Si Si2 0.622360 0.921246 0.802058
Si Si3 0.358108 0.685131 0.033372
Si Si4 0.007165 0.688744 0.329325
Si Si5 0.008048 0.302300 0.996468
Si Si6 0.774370 0.431227 0.498875
Si Si7 0.582498 0.542169 0.559928
Si Si8 0.141593 0.122458 0.279499
O O1 0.956155 0.193354 0.156784
O O2 0.130761 0.118761 0.110592
O O3 0.799453 0.000557 0.494709
O O4 0.000000 0.000000 0.000000
O O5 0.679455 0.877026 0.876100
O O6 0.511499 0.808576 0.836309
O O7 0.500000 0.000000 0.000000
O O8 0.183147 0.684192 0.176776
O O9 0.303000 0.657483 0.277826
O O10 0.445397 0.591935 0.839869
O O11 0.871074 0.557770 0.468188
O O12 0.920986 0.773036 0.550688
O O13 0.051397 0.732269 0.104073
O O14 0.917392 0.392204 0.202198
O O15 0.222359 0.361699 0.709671
O O16 0.624952 0.446006 0.588716
O O17 0.500000 0.500000 0.500000
O O18 0.000000 0.000000 0.500000
#
# Coordination Sequence:
#
# PCOD9010120 Si02
#       8
#     2   2   2   2   2   2   2   2
#     4  11  23  42  65  89 119 162 207 247 300 369
#     4  11  23  41  62  91 122 153 200 258 303 349
#     4  12  23  39  62  91 121 157 203 258 304 350
#     4  11  22  40  64  90 123 165 203 244 301 372
#     4  11  22  41  63  88 123 166 204 245 302 372
#     4  11  23  40  61  90 124 165 205 243 302 375
#     4  11  23  39  59  90 126 158 199 255 304 353
#     4  10  21  40  62  87 119 162 201 242 299 364
#
# _framework density 19.949919999999999
#
# number of rings (size 3 to 8) (size 9 to 14) (size 15 to 20)
#    0.000    1.000    0.000   10.500    0.000    2.000 
#    0.000    5.000    0.000    0.000    0.000    0.000 
#    0.000    0.000    0.000    0.000    0.000    0.000 
#
# Total GULP energy -89434.420381 kJ/mol
# GULP energy per Si atom -5589.651274 kJ/mol
# Density = 1.990451 g / cm^3
# Si number density = 19.949920 Si / 1000 Ang^3
#
#
#
# Elastic Constant Matrix: (Units=GPa)
#
#
# Indices 1 2 3 4 5 6 
#
# 1 188.8032 47.3103 60.0737 11.7777 -5.5124 -11.4463
# 2 47.3103 82.6433 19.1454 24.3186 0.0663 -9.5273
# 3 60.0737 19.1454 79.1766 21.7439 3.6132 -7.0314
# 4 11.7777 24.3186 21.7439 48.0670 -6.1099 4.0753
# 5 -5.5124 0.0663 3.6132 -6.1099 35.9871 3.2599
# 6 -11.4463 -9.5273 -7.0314 4.0753 3.2599 32.4039
#
#
#
# Elastic Compliance Matrix: (Units=1/GPa)
#
#
# Indices 1 2 3 4 5 6 
#
# 1 0.008196 -0.004270 -0.006248 0.003328 0.002491 -0.000385
# 2 -0.004270 0.017534 0.002324 -0.009751 -0.003091 0.005688
# 3 -0.006248 0.002324 0.020134 -0.009785 -0.005059 0.004585
# 4 0.003328 -0.009751 -0.009785 0.031026 0.007546 -0.008476
# 5 0.002491 -0.003091 -0.005059 0.007546 0.030429 -0.005137
# 6 -0.000385 0.005688 0.004585 -0.008476 -0.005137 0.034975
#
#
# Mechanical properties :
#
#
# Convention : Reuss Voigt Hill
#
# Bulk Modulus (GPa) = 33.92582 67.07579 50.50081
# Shear Modulus (GPa) = 29.67228 38.23118 33.95173
#
# Velocity S-wave (km/s) = 3.86079 4.38237 4.12982
# Velocity P-wave (km/s) = 6.07591 7.70078 6.93609
#
# Compressibility (1/GPa) = 0.02947607
#
# Stress axis : x y z
#
# Youngs Moduli (GPa) = 122.00564 57.03211 49.66816
#
# Poissons Ratio (x) = 0.24354 0.31033
# Poissons Ratio (y) = 0.52100 -0.11545
# Poissons Ratio (z) = 0.76229 -0.13256
#
# Static dielectric constant tensor:
#      x y z
#    x 1.717190 -0.004310 -0.003430 
#    y -0.004310 1.655000 -0.067200 
#    z -0.003430 -0.067200 1.609980 
# 
# From -- ./inp_files/217851.got.cif
#   From: 2010.05.17/outbox.cif.g08.bks.cpg/sg2_109_cif.got.tgz:217851.got - 2010.06.03 11:33:40.
