data_PCOD9010876
_publ_section_title
;
Structure prediction by ZEFSAII (Michael W. Deem and Ramdas Pophale) SiO2 
 PCOD9010876
Probable space group: P -1
;
_chemical_formula_sum "Si O2"
_cell_formula_units_Z 16
_cell_length_a 8.948360
_cell_length_b 19.107198
_cell_length_c 9.942534
_cell_angle_alpha 134.738654
_cell_angle_beta 104.825085
_cell_angle_gamma 41.188199
_cell_volume 644.702468
_symmetry_space_group_name_H-M "P -1"
_symmetry_group_IT_number 2
_symmetry_cell_setting 'triclinic'
loop_
_space_group_symop_operation_xyz
x,y,z
-x,-y,-z
loop_
_atom_site_type_symbol
_atom_site_label
_atom_site_fract_x
_atom_site_fract_y
_atom_site_fract_z
Si Si1 0.045131 0.748840 0.143609
Si Si2 0.325601 0.350282 0.031577
Si Si3 0.622215 0.292714 0.453370
Si Si4 0.259559 0.985675 0.930052
Si Si5 0.736951 0.564650 0.170776
Si Si6 0.645233 0.363784 0.193946
Si Si7 0.805536 0.940840 0.604915
Si Si8 0.493863 0.987946 0.770197
O O1 0.887494 0.903623 0.417834
O O2 0.817146 0.819694 0.089736
O O3 0.171910 0.596368 0.057553
O O4 0.260298 0.684990 0.007818
O O5 0.361109 0.339434 0.863093
O O6 0.555494 0.148754 0.856416
O O7 0.402426 0.411817 0.204944
O O8 0.011353 0.480917 0.162657
O O9 0.464709 0.347429 0.630117
O O10 0.456814 0.469448 0.580969
O O11 0.921963 0.176066 0.406846
O O12 0.673353 0.161689 0.215156
O O13 0.434029 0.919712 0.744309
O O14 0.371643 0.005646 0.088217
O O15 0.930213 0.180146 0.087610
O O16 0.690514 0.894063 0.558420
#
# Coordination Sequence:
#
# PCOD9010876 Si02
#       8
#     2   2   2   2   2   2   2   2
#     4  10  21  40  64  94 134 169 213 271 327 385
#     4  11  22  37  62  99 139 172 211 269 328 386
#     4  11  24  42  69  99 129 177 216 267 329 386
#     4  10  23  46  70  91 130 179 218 267 329 380
#     4  10  23  38  59  96 141 171 210 271 324 390
#     4  10  22  43  65  98 135 169 220 271 318 387
#     4  12  23  38  70 101 129 175 215 266 335 390
#     4  10  23  42  67  96 130 170 221 275 317 387
#
# _framework density 24.81765
#
# number of rings (size 3 to 8) (size 9 to 14) (size 15 to 20)
#    0.000    1.500    2.500    1.875    3.500    5.500 
#    0.000   10.625    2.750    0.000    0.000    0.000 
#    0.000    0.000    0.000    0.000    0.000    0.000 
#
# Total GULP energy -89523.893173 kJ/mol
# GULP energy per Si atom -5595.243323 kJ/mol
# Density = 2.476116 g / cm^3
# Si number density = 24.817650 Si / 1000 Ang^3
#
#
#
# Elastic Constant Matrix: (Units=GPa)
#
#
# Indices 1 2 3 4 5 6 
#
# 1 134.0955 50.6429 39.5551 15.7414 -2.6008 -11.2200
# 2 50.6429 105.4676 24.1315 14.8351 3.6082 -4.0275
# 3 39.5551 24.1315 80.5710 17.5185 9.9916 0.1021
# 4 15.7414 14.8351 17.5185 25.3561 2.7839 -1.1090
# 5 -2.6008 3.6082 9.9916 2.7839 42.1865 2.2616
# 6 -11.2200 -4.0275 0.1021 -1.1090 2.2616 48.7363
#
#
#
# Elastic Compliance Matrix: (Units=1/GPa)
#
#
# Indices 1 2 3 4 5 6 
#
# 1 0.010461 -0.003897 -0.003840 -0.001683 0.001893 0.001968
# 2 -0.003897 0.012124 -0.000727 -0.004077 -0.000839 0.000052
# 3 -0.003840 -0.000727 0.016791 -0.008447 -0.003540 -0.001007
# 4 -0.001683 -0.004077 -0.008447 0.048834 -0.001001 0.000451
# 5 0.001893 -0.000839 -0.003540 -0.001001 0.024840 -0.000802
# 6 0.001968 0.000052 -0.001007 0.000451 -0.000802 0.021026
#
#
# Mechanical properties :
#
#
# Convention : Reuss Voigt Hill
#
# Bulk Modulus (GPa) = 44.54987 60.97702 52.76345
# Shear Modulus (GPa) = 31.54844 36.97607 34.26225
#
# Velocity S-wave (km/s) = 3.56927 3.86412 3.71962
# Velocity P-wave (km/s) = 5.91406 6.67323 6.30508
#
# Compressibility (1/GPa) = 0.02244675
#
# Stress axis : x y z
#
# Youngs Moduli (GPa) = 95.59468 82.48400 59.55500
#
# Poissons Ratio (x) = 0.32147 0.22867
# Poissons Ratio (y) = 0.37257 0.04332
# Poissons Ratio (z) = 0.36705 0.06000
#
# Static dielectric constant tensor:
#      x y z
#    x 1.969940 0.045050 -0.021220 
#    y 0.045050 1.935620 -0.034830 
#    z -0.021220 -0.034830 1.970770 
# 
# From -- ./inp_files/333395.got.cif
#   From: 2010.05.17/outbox.cif.g08.bks.cpg/sg2_167_cif.got.tgz:333395.got - 2010.06.03 11:33:40.
