data_PCOD9010112
_publ_section_title
;
Structure prediction by ZEFSAII (Michael W. Deem and Ramdas Pophale) SiO2 
 PCOD9010112
Probable space group: P -1
;
_chemical_formula_sum "Si O2"
_cell_formula_units_Z 14
_cell_length_a 7.123716
_cell_length_b 19.915118
_cell_length_c 5.223643
_cell_angle_alpha 114.928079
_cell_angle_beta 132.779215
_cell_angle_gamma 80.531466
_cell_volume 484.935800
_symmetry_space_group_name_H-M "P -1"
_symmetry_group_IT_number 2
_symmetry_cell_setting 'triclinic'
loop_
_space_group_symop_operation_xyz
x,y,z
-x,-y,-z
loop_
_atom_site_type_symbol
_atom_site_label
_atom_site_fract_x
_atom_site_fract_y
_atom_site_fract_z
Si Si1 0.333029 0.719280 0.731973
Si Si2 0.274759 0.825473 0.452606
Si Si3 0.194520 0.311309 0.685755
Si Si4 0.798996 0.902129 0.260402
Si Si5 0.352950 0.059181 0.324947
Si Si6 0.099566 0.441214 0.189573
Si Si7 0.370496 0.581955 0.883683
O O1 0.278271 0.741427 0.427339
O O2 0.320020 0.631885 0.666430
O O3 0.090503 0.735711 0.702806
O O4 0.626153 0.745079 0.138857
O O5 0.433642 0.866505 0.428440
O O6 0.995938 0.849271 0.260513
O O7 0.490026 0.865117 0.926271
O O8 0.163088 0.371079 0.976860
O O9 0.354070 0.364398 0.701813
O O10 0.858867 0.925073 0.642834
O O11 0.776842 0.961612 0.106781
O O12 0.500000 0.000000 0.500000
O O13 0.647772 0.503769 0.363803
O O14 0.870364 0.420635 0.153205
O O15 0.000000 0.500000 0.000000
#
# Coordination Sequence:
#
# PCOD9010112 Si02
#       7
#     2   2   2   2   2   2   2
#     4  10  21  45  59  90 125 169 212 271 316 405
#     4  10  24  43  67  95 144 174 235 272 345 396
#     4  10  21  40  62  86 123 157 219 259 335 378
#     4  10  24  42  71 101 138 185 221 285 332 400
#     4  10  24  45  72 108 141 182 229 280 337 399
#     4  11  19  41  59  90 117 165 203 274 324 392
#     4   9  23  37  60  87 123 154 215 262 327 382
#
# _framework density 28.869802
#
# number of rings (size 3 to 8) (size 9 to 14) (size 15 to 20)
#    1.714    0.286    1.429    1.714    2.000    1.714 
#   10.286    0.000    0.000    0.000    0.000    0.000 
#    0.000    0.000    0.000    0.000    0.000    0.000 
#
# Total GULP energy -78138.352370 kJ/mol
# GULP energy per Si atom -5581.310884 kJ/mol
# Density = 2.880409 g / cm^3
# Si number density = 28.869802 Si / 1000 Ang^3
#
#
#
# Elastic Constant Matrix: (Units=GPa)
#
#
# Indices 1 2 3 4 5 6 
#
# 1 174.0899 58.1035 32.6940 -10.8407 7.7064 15.8151
# 2 58.1035 147.7887 18.1858 -25.6388 -16.9045 23.1602
# 3 32.6940 18.1858 97.0409 -16.2719 14.3451 6.9331
# 4 -10.8407 -25.6388 -16.2719 49.1936 3.0209 -2.1413
# 5 7.7064 -16.9045 14.3451 3.0209 68.3897 -10.3444
# 6 15.8151 23.1602 6.9331 -2.1413 -10.3444 62.5161
#
#
#
# Elastic Compliance Matrix: (Units=1/GPa)
#
#
# Indices 1 2 3 4 5 6 
#
# 1 0.007048 -0.002628 -0.001703 -0.000342 -0.001197 -0.000830
# 2 -0.002628 0.009088 -0.000333 0.003822 0.002113 -0.002184
# 3 -0.001703 -0.000333 0.012020 0.003547 -0.002736 -0.001110
# 4 -0.000342 0.003822 0.003547 0.023429 -0.000959 -0.001079
# 5 -0.001197 0.002113 -0.002736 -0.000959 0.016271 0.002483
# 6 -0.000830 -0.002184 -0.001110 -0.001079 0.002483 0.017512
#
#
# Mechanical properties :
#
#
# Convention : Reuss Voigt Hill
#
# Bulk Modulus (GPa) = 53.11430 70.76512 61.93971
# Shear Modulus (GPa) = 49.51877 56.68230 53.10054
#
# Velocity S-wave (km/s) = 4.14604 4.43581 4.29337
# Velocity P-wave (km/s) = 6.43097 7.12743 6.78814
#
# Compressibility (1/GPa) = 0.01882732
#
# Stress axis : x y z
#
# Youngs Moduli (GPa) = 141.88228 110.04085 83.19692
#
# Poissons Ratio (x) = 0.28914 0.14171
# Poissons Ratio (y) = 0.37280 0.02772
# Poissons Ratio (z) = 0.24167 0.03666
#
# Static dielectric constant tensor:
#      x y z
#    x 2.309870 0.102420 0.105670 
#    y 0.102420 2.350210 0.098450 
#    z 0.105670 0.098450 2.621880 
# 
# From -- ./inp_files/13492.got.cif
#   From: 2010.05.17/outbox.cif.g08.bks.cpg/sg2_7_cif.got.tgz:13492.got - 2010.06.03 11:33:40.
