data_PCOD9010410
_publ_section_title
;
Structure prediction by ZEFSAII (Michael W. Deem and Ramdas Pophale) SiO2 
 PCOD9010410
Probable space group: P -1
;
_chemical_formula_sum "Si O2"
_cell_formula_units_Z 16
_cell_length_a 13.624147
_cell_length_b 26.027208
_cell_length_c 17.172633
_cell_angle_alpha 21.316400
_cell_angle_beta 33.643357
_cell_angle_gamma 21.713113
_cell_volume 793.926120
_symmetry_space_group_name_H-M "P -1"
_symmetry_group_IT_number 2
_symmetry_cell_setting 'triclinic'
loop_
_space_group_symop_operation_xyz
x,y,z
-x,-y,-z
loop_
_atom_site_type_symbol
_atom_site_label
_atom_site_fract_x
_atom_site_fract_y
_atom_site_fract_z
Si Si1 0.774122 0.129727 0.534720
Si Si2 0.869256 0.370351 0.201602
Si Si3 0.506559 0.939924 0.799276
Si Si4 0.455097 0.878289 0.744756
Si Si5 0.094919 0.740464 0.486978
Si Si6 0.609906 0.630233 0.289561
Si Si7 0.747844 0.742085 0.355354
Si Si8 0.646344 0.040014 0.888069
O O1 0.731878 0.316283 0.328954
O O2 0.516847 0.193663 0.583569
O O3 0.835528 0.009529 0.745698
O O4 0.000000 0.000000 0.500000
O O5 0.899079 0.334721 0.325945
O O6 0.182908 0.189830 0.221742
O O7 0.693476 0.616875 0.950136
O O8 0.430288 0.932187 0.775619
O O9 0.305394 0.178634 0.632443
O O10 0.525145 0.793290 0.049710
O O11 0.500000 0.000000 0.500000
O O12 0.169572 0.004460 0.716600
O O13 0.365234 0.668850 0.406214
O O14 0.127118 0.607650 0.583158
O O15 0.597352 0.716248 0.259012
O O16 0.000000 0.500000 0.500000
O O17 0.784409 0.871913 0.104719
O O18 0.500000 0.000000 0.000000
#
# Coordination Sequence:
#
# PCOD9010410 Si02
#       8
#     2   2   2   2   2   2   2   2
#     4  11  22  43  68  94 126 175 225 268 332 397
#     4  12  23  44  69  94 135 174 217 278 334 390
#     4  11  22  42  65  90 132 174 216 275 333 394
#     4  12  25  40  66 100 129 174 220 267 335 397
#     4  11  23  41  65  95 133 169 218 272 331 390
#     4  10  21  40  63  89 130 175 209 274 332 390
#     4  10  23  43  65  97 131 171 221 276 331 391
#     4   9  20  38  64  89 125 173 215 260 330 396
#
# _framework density 20.153008
#
# number of rings (size 3 to 8) (size 9 to 14) (size 15 to 20)
#    0.000    1.250    5.000    1.125    0.000    4.500 
#    2.250    0.625    0.000    0.000    0.000    0.000 
#    0.000    0.000    0.000    0.000    0.000    0.000 
#
# Total GULP energy -89110.109458 kJ/mol
# GULP energy per Si atom -5569.381841 kJ/mol
# Density = 2.010714 g / cm^3
# Si number density = 20.153008 Si / 1000 Ang^3
#
#
#
# Elastic Constant Matrix: (Units=GPa)
#
#
# Indices 1 2 3 4 5 6 
#
# 1 55.8857 24.9709 21.4583 -3.8744 -11.4440 20.9541
# 2 24.9709 125.9586 52.4994 5.8647 1.7316 19.5927
# 3 21.4583 52.4994 106.2996 -7.6657 1.6997 22.2528
# 4 -3.8744 5.8647 -7.6657 61.9547 -2.6800 -13.5681
# 5 -11.4440 1.7316 1.6997 -2.6800 34.8438 0.5475
# 6 20.9541 19.5927 22.2528 -13.5681 0.5475 40.8968
#
#
#
# Elastic Compliance Matrix: (Units=1/GPa)
#
#
# Indices 1 2 3 4 5 6 
#
# 1 0.025752 -0.002775 -0.001650 -0.000407 0.008821 -0.011221
# 2 -0.002775 0.010801 -0.004488 -0.002258 -0.001371 -0.002042
# 3 -0.001650 -0.004488 0.012801 0.001082 -0.000803 -0.003600
# 4 -0.000407 -0.002258 0.001082 0.017971 0.001204 0.006647
# 5 0.008821 -0.001371 -0.000803 0.001204 0.031851 -0.003453
# 6 -0.011221 -0.002042 -0.003600 0.006647 -0.003453 0.035390
#
#
# Mechanical properties :
#
#
# Convention : Reuss Voigt Hill
#
# Bulk Modulus (GPa) = 31.71529 54.00013 42.85771
# Shear Modulus (GPa) = 30.69353 40.15342 35.42347
#
# Velocity S-wave (km/s) = 3.90683 4.46850 4.19707
# Velocity P-wave (km/s) = 6.01020 7.31277 6.69325
#
# Compressibility (1/GPa) = 0.03153053
#
# Stress axis : x y z
#
# Youngs Moduli (GPa) = 38.83170 92.58142 78.11593
#
# Poissons Ratio (x) = 0.25689 0.12886
# Poissons Ratio (y) = 0.10775 0.35058
# Poissons Ratio (z) = 0.06406 0.41550
#
# Static dielectric constant tensor:
#      x y z
#    x 1.783790 0.029520 0.003120 
#    y 0.029520 1.739470 -0.014730 
#    z 0.003120 -0.014730 1.760220 
# 
# From -- ./inp_files/574506.got.cif
#   From: 2010.05.17/outbox.cif.g08.bks.cpg/sg2_288_cif.got.tgz:574506.got - 2010.06.03 11:33:40.
