data_PCOD9010785
_publ_section_title
;
Structure prediction by ZEFSAII (Michael W. Deem and Ramdas Pophale) SiO2 
 PCOD9010785
Probable space group: P -1
;
_chemical_formula_sum "Si O2"
_cell_formula_units_Z 12
_cell_length_a 9.126572
_cell_length_b 20.650812
_cell_length_c 7.467834
_cell_angle_alpha 44.027238
_cell_angle_beta 118.761985
_cell_angle_gamma 149.058123
_cell_volume 465.387333
_symmetry_space_group_name_H-M "P -1"
_symmetry_group_IT_number 2
_symmetry_cell_setting 'triclinic'
loop_
_space_group_symop_operation_xyz
x,y,z
-x,-y,-z
loop_
_atom_site_type_symbol
_atom_site_label
_atom_site_fract_x
_atom_site_fract_y
_atom_site_fract_z
Si Si1 0.648829 0.515030 0.394418
Si Si2 0.322664 0.698462 0.851694
Si Si3 0.444790 0.963685 0.254384
Si Si4 0.592159 0.674227 0.823781
Si Si5 0.069489 0.134748 0.706778
Si Si6 0.071429 0.669791 0.081885
O O1 0.500000 0.500000 0.500000
O O2 0.397207 0.320712 0.600027
O O3 0.973639 0.615992 0.341492
O O4 0.661418 0.605883 0.080480
O O5 0.563403 0.737404 0.837167
O O6 0.372785 0.823534 0.543382
O O7 0.299088 0.708880 0.028556
O O8 0.000000 0.500000 0.000000
O O9 0.735591 0.143669 0.173238
O O10 0.165768 0.899271 0.284110
O O11 0.500000 0.000000 0.000000
O O12 0.857883 0.828271 0.535947
O O13 0.253251 0.500799 0.875135
O O14 0.000000 0.000000 0.000000
#
# Coordination Sequence:
#
# PCOD9010785 Si02
#       6
#     2   2   2   2   2   2
#     4  11  23  43  66  92 128 173 215 264 324 385
#     4  10  21  40  64  92 124 168 213 260 318 379
#     4  12  24  41  64  96 132 165 212 271 320 381
#     4  10  22  44  67  91 129 173 218 264 318 389
#     4  11  23  42  65  94 129 170 214 266 321 383
#     4  10  22  40  65  91 124 171 213 259 322 377
#
# _framework density 25.784973999999998
#
# number of rings (size 3 to 8) (size 9 to 14) (size 15 to 20)
#    0.000    1.333    0.000    7.500    0.000    1.333 
#    0.000   15.000    0.000    0.000    0.000    0.000 
#    0.000    0.000    0.000    0.000    0.000    0.000 
#
# Total GULP energy -67002.046182 kJ/mol
# GULP energy per Si atom -5583.503848 kJ/mol
# Density = 2.572629 g / cm^3
# Si number density = 25.784974 Si / 1000 Ang^3
#
#
#
# Elastic Constant Matrix: (Units=GPa)
#
#
# Indices 1 2 3 4 5 6 
#
# 1 255.9854 45.4548 107.1616 9.4735 -24.6272 -38.3343
# 2 45.4548 57.3827 43.4649 -17.6793 0.3786 -9.7371
# 3 107.1616 43.4649 225.7650 -17.3844 9.3535 -2.8245
# 4 9.4735 -17.6793 -17.3844 41.5626 -13.8729 0.8207
# 5 -24.6272 0.3786 9.3535 -13.8729 65.3242 4.2637
# 6 -38.3343 -9.7371 -2.8245 0.8207 4.2637 44.3698
#
#
#
# Elastic Compliance Matrix: (Units=1/GPa)
#
#
# Indices 1 2 3 4 5 6 
#
# 1 0.006748 -0.003552 -0.002822 -0.003699 0.001873 0.004760
# 2 -0.003552 0.025883 -0.002460 0.011110 0.001082 0.002145
# 3 -0.002822 -0.002460 0.006413 0.001857 -0.001413 -0.002468
# 4 -0.003699 0.011110 0.001857 0.032183 0.005223 -0.001736
# 5 0.001873 0.001082 -0.001413 0.005223 0.017319 0.000005
# 6 0.004760 0.002145 -0.002468 -0.001736 0.000005 0.026995
#
#
# Mechanical properties :
#
#
# Convention : Reuss Voigt Hill
#
# Bulk Modulus (GPa) = 46.77915 103.47728 75.12821
# Shear Modulus (GPa) = 35.62862 53.12143 44.37503
#
# Velocity S-wave (km/s) = 3.72123 4.54383 4.15295
# Velocity P-wave (km/s) = 6.05350 8.23083 7.22466
#
# Compressibility (1/GPa) = 0.02137705
#
# Stress axis : x y z
#
# Youngs Moduli (GPa) = 148.18110 38.63478 155.93063
#
# Poissons Ratio (x) = 0.13724 0.44007
# Poissons Ratio (y) = 0.52637 0.38352
# Poissons Ratio (z) = 0.41820 0.09503
#
# Static dielectric constant tensor:
#      x y z
#    x 2.431570 -0.230020 -0.268010 
#    y -0.230020 2.270300 0.218340 
#    z -0.268010 0.218340 2.127960 
# 
# From -- ./inp_files/152356.got.cif
#   From: 2010.05.17/outbox.cif.g08.bks.cpg/sg2_77_cif.got.tgz:152356.got - 2010.06.03 11:33:40.
