data_PCOD9010789
_publ_section_title
;
Structure prediction by ZEFSAII (Michael W. Deem and Ramdas Pophale) SiO2 
 PCOD9010789
Probable space group: P -1
;
_chemical_formula_sum "Si O2"
_cell_formula_units_Z 12
_cell_length_a 15.438936
_cell_length_b 6.710595
_cell_length_c 10.221217
_cell_angle_alpha 44.909570
_cell_angle_beta 48.749653
_cell_angle_gamma 53.497605
_cell_volume 545.526119
_symmetry_space_group_name_H-M "P -1"
_symmetry_group_IT_number 2
_symmetry_cell_setting 'triclinic'
loop_
_space_group_symop_operation_xyz
x,y,z
-x,-y,-z
loop_
_atom_site_type_symbol
_atom_site_label
_atom_site_fract_x
_atom_site_fract_y
_atom_site_fract_z
Si Si1 0.946829 0.402434 0.227775
Si Si2 0.396873 0.154306 0.758835
Si Si3 0.993580 0.245725 0.526958
Si Si4 0.272442 0.820200 0.243264
Si Si5 0.288604 0.213355 0.583083
Si Si6 0.332745 0.847354 0.464703
O O1 0.028408 0.344864 0.303144
O O2 0.831198 0.634610 0.287608
O O3 0.933302 0.077501 0.360796
O O4 0.000000 0.500000 0.000000
O O5 0.376056 0.043757 0.685253
O O6 0.344787 0.504530 0.638806
O O7 0.533936 0.106455 0.680765
O O8 0.328079 0.002561 0.001232
O O9 0.858454 0.206421 0.661576
O O10 0.000000 0.500000 0.500000
O O11 0.337744 0.478596 0.351886
O O12 0.285789 0.931435 0.325844
O O13 0.265617 0.026758 0.570511
#
# Coordination Sequence:
#
# PCOD9010789 Si02
#       6
#     2   2   2   2   2   2
#     4  10  22  42  63  89 122 158 208 259 308 366
#     4  10  21  40  64  92 126 162 204 251 304 370
#     4  10  23  42  63  89 123 160 206 258 307 364
#     4  10  22  40  62  91 123 161 207 253 304 369
#     4  10  22  38  61  92 125 160 204 254 305 366
#     4  10  22  40  63  92 127 163 202 254 308 363
#
# _framework density 21.997111
#
# number of rings (size 3 to 8) (size 9 to 14) (size 15 to 20)
#    0.000    2.000    0.000    2.000    0.000   13.333 
#    0.000   10.000    0.000    0.000    0.000    0.000 
#    0.000    0.000    0.000    0.000    0.000    0.000 
#
# Total GULP energy -66959.762099 kJ/mol
# GULP energy per Si atom -5579.980175 kJ/mol
# Density = 2.194705 g / cm^3
# Si number density = 21.997111 Si / 1000 Ang^3
#
#
#
# Elastic Constant Matrix: (Units=GPa)
#
#
# Indices 1 2 3 4 5 6 
#
# 1 141.8008 53.7553 62.1828 13.6817 14.1160 25.3625
# 2 53.7553 115.5491 40.1475 27.1725 11.1727 28.7888
# 3 62.1828 40.1475 191.3080 10.2109 19.9987 6.4731
# 4 13.6817 27.1725 10.2109 17.6530 -0.4398 8.7660
# 5 14.1160 11.1727 19.9987 -0.4398 21.4929 11.9654
# 6 25.3625 28.7888 6.4731 8.7660 11.9654 41.8799
#
#
#
# Elastic Compliance Matrix: (Units=1/GPa)
#
#
# Indices 1 2 3 4 5 6 
#
# 1 0.009880 -0.002731 -0.002401 -0.000414 -0.000966 -0.003372
# 2 -0.002731 0.016578 -0.000898 -0.020993 -0.004184 -0.004014
# 3 -0.002401 -0.000898 0.006873 -0.002542 -0.006257 0.003328
# 4 -0.000414 -0.020993 -0.002542 0.097009 0.021936 -0.011498
# 5 -0.000966 -0.004184 -0.006257 0.021936 0.066233 -0.019087
# 6 -0.003372 -0.004014 0.003328 -0.011498 -0.019087 0.036024
#
#
# Mechanical properties :
#
#
# Convention : Reuss Voigt Hill
#
# Bulk Modulus (GPa) = 47.01136 84.53656 65.77396
# Shear Modulus (GPa) = 19.86125 35.70997 27.78561
#
# Velocity S-wave (km/s) = 3.00809 4.03351 3.55794
# Velocity P-wave (km/s) = 5.78644 7.75928 6.84431
#
# Compressibility (1/GPa) = 0.02127145
#
# Stress axis : x y z
#
# Youngs Moduli (GPa) = 101.21924 60.32076 145.49588
#
# Poissons Ratio (x) = 0.16474 0.34932
# Poissons Ratio (y) = 0.27643 0.13061
# Poissons Ratio (z) = 0.24302 0.05415
#
# Static dielectric constant tensor:
#      x y z
#    x 1.928070 -0.074030 -0.001060 
#    y -0.074030 1.873770 0.012490 
#    z -0.001060 0.012490 1.769090 
# 
# From -- ./inp_files/321503.got.cif
#   From: 2010.05.17/outbox.cif.g08.bks.cpg/sg2_161_cif.got.tgz:321503.got - 2010.06.03 11:33:40.
