data_PCOD9010128
_publ_section_title
;
Structure prediction by ZEFSAII (Michael W. Deem and Ramdas Pophale) SiO2 
 PCOD9010128
Probable space group: P -1
;
_chemical_formula_sum "Si O2"
_cell_formula_units_Z 16
_cell_length_a 16.261409
_cell_length_b 11.263328
_cell_length_c 8.829636
_cell_angle_alpha 46.779451
_cell_angle_beta 100.318154
_cell_angle_gamma 64.102028
_cell_volume 725.118794
_symmetry_space_group_name_H-M "P -1"
_symmetry_group_IT_number 2
_symmetry_cell_setting 'triclinic'
loop_
_space_group_symop_operation_xyz
x,y,z
-x,-y,-z
loop_
_atom_site_type_symbol
_atom_site_label
_atom_site_fract_x
_atom_site_fract_y
_atom_site_fract_z
Si Si1 0.751117 0.374661 0.256141
Si Si2 0.183529 0.258327 0.159923
Si Si3 0.019336 0.192172 0.243936
Si Si4 0.200088 0.369194 0.768119
Si Si5 0.901466 0.268580 0.820834
Si Si6 0.579579 0.189914 0.736288
Si Si7 0.679605 0.367814 0.564977
Si Si8 0.486048 0.694342 0.736667
O O1 0.786766 0.486506 0.255784
O O2 0.720276 0.307735 0.453646
O O3 0.871509 0.117809 0.418345
O O4 0.615889 0.594141 0.924013
O O5 0.115560 0.203362 0.255518
O O6 0.343519 0.997354 0.462213
O O7 0.156249 0.301567 0.932944
O O8 0.108595 0.534180 0.953387
O O9 0.957652 0.223933 0.039741
O O10 0.111361 0.547645 0.440836
O O11 0.344062 0.095276 0.996250
O O12 0.764711 0.373850 0.676206
O O13 0.000000 0.000000 0.000000
O O14 0.686411 0.174729 0.801436
O O15 0.474257 0.356019 0.691496
O O16 0.514441 0.319685 0.434713
O O17 0.500000 0.500000 0.000000
#
# Coordination Sequence:
#
# PCOD9010128 Si02
#       8
#     2   2   2   2   2   2   2   2
#     4  11  21  39  65  86 126 163 201 255 317 367
#     4  10  24  41  63  93 123 162 209 263 302 369
#     4  11  22  43  62  90 128 164 208 251 313 375
#     4  10  23  40  61  91 121 160 204 260 312 357
#     4  11  23  41  62  88 123 173 198 246 314 374
#     4  10  22  40  62  94 121 154 211 263 303 367
#     4  10  21  40  62  87 125 160 203 253 312 364
#     4  11  20  39  66  86 119 164 204 255 309 363
#
# _framework density 22.065353000000002
#
# number of rings (size 3 to 8) (size 9 to 14) (size 15 to 20)
#    0.000    1.500    5.000    0.750    0.000    8.000 
#    2.250    0.000    0.000    0.000    0.000    0.000 
#    0.000    0.000    0.000    0.000    0.000    0.000 
#
# Total GULP energy -89223.529084 kJ/mol
# GULP energy per Si atom -5576.470568 kJ/mol
# Density = 2.201513 g / cm^3
# Si number density = 22.065353 Si / 1000 Ang^3
#
#
#
# Elastic Constant Matrix: (Units=GPa)
#
#
# Indices 1 2 3 4 5 6 
#
# 1 -4.7304 16.8457 22.8528 -15.1558 -2.9240 -4.2431
# 2 16.8457 109.4061 34.8958 -37.9522 15.4804 -4.3010
# 3 22.8528 34.8958 112.2387 -15.0998 10.2236 -6.1687
# 4 -15.1558 -37.9522 -15.0998 46.0533 7.8569 3.6552
# 5 -2.9240 15.4804 10.2236 7.8569 24.2442 -2.5224
# 6 -4.2431 -4.3010 -6.1687 3.6552 -2.5224 28.8299
#
#
#
# Elastic Compliance Matrix: (Units=1/GPa)
#
#
# Indices 1 2 3 4 5 6 
#
# 1 -0.074777 0.004048 0.012860 -0.014261 -0.013132 -0.006991
# 2 0.004048 0.017671 -0.002557 0.017788 -0.015578 -0.000933
# 3 0.012860 -0.002557 0.008005 0.004806 -0.001491 0.002484
# 4 -0.014261 0.017788 0.004806 0.038522 -0.028189 -0.005767
# 5 -0.013132 -0.015578 -0.001491 -0.028189 0.059814 0.004231
# 6 -0.006991 -0.000933 0.002484 -0.005767 0.004231 0.035151
#
#
# Mechanical properties :
#
#
# Convention : Reuss Voigt Hill
#
# Bulk Modulus (GPa) = -49.02145 40.67811 -4.17167
# Shear Modulus (GPa) = 102.28105 29.31349 65.79727
#
# Velocity S-wave (km/s) = 6.81574 3.64879 5.46663
# Velocity P-wave (km/s) = 6.29876 6.01888 6.16041
#
# Compressibility (1/GPa) = -0.02039923
#
# Stress axis : x y z
#
# Youngs Moduli (GPa) = -13.37311 56.59122 124.91773
#
# Poissons Ratio (x) = -0.22910 -1.60645
# Poissons Ratio (y) = 0.05414 0.31948
# Poissons Ratio (z) = 0.17198 0.14473
#
# Static dielectric constant tensor:
#      x y z
#    x 1.910890 -0.036970 0.001050 
#    y -0.036970 1.829110 -0.036940 
#    z 0.001050 -0.036940 1.841590 
# 
# From -- ./inp_files/270481.got.cif
#   From: 2010.05.17/outbox.cif.g08.bks.cpg/sg2_136_cif.got.tgz:270481.got - 2010.06.03 11:33:40.
