data_PCOD9010406
_publ_section_title
;
Structure prediction by ZEFSAII (Michael W. Deem and Ramdas Pophale) SiO2 
 PCOD9010406
Probable space group: P -1
;
_chemical_formula_sum "Si O2"
_cell_formula_units_Z 16
_cell_length_a 14.447251
_cell_length_b 7.428639
_cell_length_c 16.941703
_cell_angle_alpha 82.374277
_cell_angle_beta 150.709913
_cell_angle_gamma 114.719925
_cell_volume 689.155541
_symmetry_space_group_name_H-M "P -1"
_symmetry_group_IT_number 2
_symmetry_cell_setting 'triclinic'
loop_
_space_group_symop_operation_xyz
x,y,z
-x,-y,-z
loop_
_atom_site_type_symbol
_atom_site_label
_atom_site_fract_x
_atom_site_fract_y
_atom_site_fract_z
Si Si1 0.310295 0.058061 0.234740
Si Si2 0.311280 0.349344 0.800830
Si Si3 0.775450 0.114833 0.218708
Si Si4 0.182525 0.336747 0.189849
Si Si5 0.412392 0.131853 0.586587
Si Si6 0.455470 0.302859 0.169388
Si Si7 0.186967 0.792312 0.575964
Si Si8 0.993235 0.154062 0.224427
O O1 0.505322 0.011637 0.384253
O O2 0.284292 0.188382 0.277601
O O3 0.355148 0.228437 0.186398
O O4 0.055956 0.814252 0.034215
O O5 0.204572 0.088649 0.744946
O O6 0.453670 0.461562 0.818165
O O7 0.086103 0.346519 0.646146
O O8 0.500000 0.500000 0.000000
O O9 0.817327 0.201882 0.333534
O O10 0.942820 0.248029 0.258596
O O11 0.500000 0.000000 0.000000
O O12 0.372279 0.596106 0.283897
O O13 0.099171 0.325923 0.218249
O O14 0.174010 0.096257 0.382290
O O15 0.353955 0.038295 0.639124
O O16 0.694127 0.324794 0.350734
O O17 0.260624 0.085470 0.980624
#
# Coordination Sequence:
#
# PCOD9010406 Si02
#       8
#     2   2   2   2   2   2   2   2
#     4   9  22  41  64  94 127 166 226 278 326 400
#     4  12  22  39  63  93 128 171 216 271 331 394
#     4  12  24  42  62  93 134 174 216 271 330 398
#     4  10  22  42  65  93 130 173 219 275 335 395
#     4  11  22  40  67  95 129 173 218 274 338 390
#     4  10  21  40  63  89 128 167 213 276 332 386
#     4  11  23  40  65  94 130 171 219 272 329 405
#     4  11  22  42  62  91 136 168 218 278 323 397
#
# _framework density 23.216819999999998
#
# number of rings (size 3 to 8) (size 9 to 14) (size 15 to 20)
#    0.000    1.250    3.750    1.500    1.750    0.500 
#    0.000    2.500    0.000    0.000    0.000    0.000 
#    0.000    0.000    0.000    0.000    0.000    0.000 
#
# Total GULP energy -89362.326429 kJ/mol
# GULP energy per Si atom -5585.145402 kJ/mol
# Density = 2.316398 g / cm^3
# Si number density = 23.216820 Si / 1000 Ang^3
#
#
#
# Elastic Constant Matrix: (Units=GPa)
#
#
# Indices 1 2 3 4 5 6 
#
# 1 119.8000 25.8142 27.7624 4.2326 10.4831 23.0345
# 2 25.8142 92.3103 14.7821 13.3683 8.5562 29.7121
# 3 27.7624 14.7821 97.0833 -15.4482 25.6710 10.7959
# 4 4.2326 13.3683 -15.4482 33.6292 0.4077 16.9804
# 5 10.4831 8.5562 25.6710 0.4077 27.2395 -3.0765
# 6 23.0345 29.7121 10.7959 16.9804 -3.0765 38.5867
#
#
#
# Elastic Compliance Matrix: (Units=1/GPa)
#
#
# Indices 1 2 3 4 5 6 
#
# 1 0.010176 -0.000523 -0.000780 0.001955 -0.003793 -0.006617
# 2 -0.000523 0.015513 0.001486 0.001367 -0.007590 -0.013256
# 3 -0.000780 0.001486 0.020390 0.016993 -0.021394 -0.015567
# 4 0.001955 0.001367 0.016993 0.053236 -0.021622 -0.032125
# 5 -0.003793 -0.007590 -0.021394 -0.021622 0.064287 0.028735
# 6 -0.006617 -0.013256 -0.015567 -0.032125 0.028735 0.060856
#
#
# Mechanical properties :
#
#
# Convention : Reuss Voigt Hill
#
# Bulk Modulus (GPa) = 21.53114 49.54565 35.53840
# Shear Modulus (GPa) = 20.87046 35.94672 28.40859
#
# Velocity S-wave (km/s) = 3.00148 3.93912 3.50182
# Velocity P-wave (km/s) = 4.61583 6.48657 5.62946
#
# Compressibility (1/GPa) = 0.04644436
#
# Stress axis : x y z
#
# Youngs Moduli (GPa) = 98.27301 64.46020 49.04446
#
# Poissons Ratio (x) = 0.03368 0.03827
# Poissons Ratio (y) = 0.05135 -0.07286
# Poissons Ratio (z) = 0.07669 -0.09577
#
# Static dielectric constant tensor:
#      x y z
#    x 1.943010 0.002070 0.019160 
#    y 0.002070 1.884250 0.011130 
#    z 0.019160 0.011130 1.869690 
# 
# From -- ./inp_files/206082.got.cif
#   From: 2010.05.17/outbox.cif.g08.bks.cpg/sg2_104_cif.got.tgz:206082.got - 2010.06.03 11:33:40.
