data_PCOD9010629
_publ_section_title
;
Structure prediction by ZEFSAII (Michael W. Deem and Ramdas Pophale) SiO2 
 PCOD9010629
Probable space group: P -1
;
_chemical_formula_sum "Si O2"
_cell_formula_units_Z 16
_cell_length_a 11.235307
_cell_length_b 11.666800
_cell_length_c 11.389901
_cell_angle_alpha 122.357273
_cell_angle_beta 67.856383
_cell_angle_gamma 149.378171
_cell_volume 630.148894
_symmetry_space_group_name_H-M "P -1"
_symmetry_group_IT_number 2
_symmetry_cell_setting 'triclinic'
loop_
_space_group_symop_operation_xyz
x,y,z
-x,-y,-z
loop_
_atom_site_type_symbol
_atom_site_label
_atom_site_fract_x
_atom_site_fract_y
_atom_site_fract_z
Si Si1 0.563244 0.280295 0.152638
Si Si2 0.239669 0.244701 0.900754
Si Si3 0.152914 0.930320 0.934337
Si Si4 0.139481 0.215338 0.660441
Si Si5 0.919397 0.443646 0.223605
Si Si6 0.261169 0.920302 0.271623
Si Si7 0.544246 0.878375 0.441254
Si Si8 0.055875 0.395905 0.454992
O O1 0.633984 0.489680 0.296457
O O2 0.788364 0.380328 0.120172
O O3 0.419032 0.061831 0.177984
O O4 0.405286 0.169481 0.038237
O O5 0.223142 0.219459 0.752159
O O6 0.144242 0.026823 0.883395
O O7 0.500000 0.500000 0.000000
O O8 0.064498 0.213185 0.982033
O O9 0.133092 0.752558 0.822320
O O10 0.945831 0.159044 0.728360
O O11 0.000000 0.000000 0.500000
O O12 0.875761 0.516562 0.383684
O O13 0.189563 0.707885 0.228248
O O14 0.382204 0.086621 0.433562
O O15 0.281864 0.567373 0.375675
O O16 0.500000 0.000000 0.500000
O O17 0.798688 0.090572 0.392475
O O18 0.000000 0.500000 0.500000
#
# Coordination Sequence:
#
# PCOD9010629 Si02
#       8
#     2   2   2   2   2   2   2   2
#     4  11  21  42  71  98 140 176 227 299 358 428
#     4  11  24  49  71  95 141 188 238 305 347 418
#     4  11  24  43  72 100 137 187 240 284 361 435
#     4  11  25  47  69 103 134 184 246 295 361 426
#     4  10  22  38  62 104 136 177 230 285 366 439
#     4  10  21  40  63  98 142 180 221 301 357 433
#     4   9  17  33  55  83 129 183 216 271 352 430
#     4   9  17  33  54  82 134 178 220 278 345 427
#
# _framework density 25.390823999999999
#
# number of rings (size 3 to 8) (size 9 to 14) (size 15 to 20)
#    0.000    1.750    3.750    0.375    0.000    2.000 
#    9.000    1.250    0.000    0.000    0.000    0.000 
#    0.000    0.000    0.000    0.000    0.000    0.000 
#
# Total GULP energy -89069.043422 kJ/mol
# GULP energy per Si atom -5566.815214 kJ/mol
# Density = 2.533303 g / cm^3
# Si number density = 25.390824 Si / 1000 Ang^3
#
#
#
# Elastic Constant Matrix: (Units=GPa)
#
#
# Indices 1 2 3 4 5 6 
#
# 1 113.9100 21.1655 33.6274 7.2535 24.9302 -10.6051
# 2 21.1655 145.8529 41.2212 12.4689 -8.0308 -6.8559
# 3 33.6274 41.2212 107.9311 9.5964 8.0051 -3.8904
# 4 7.2535 12.4689 9.5964 26.6459 -9.5196 9.0931
# 5 24.9302 -8.0308 8.0051 -9.5196 44.3685 -1.2426
# 6 -10.6051 -6.8559 -3.8904 9.0931 -1.2426 42.0609
#
#
#
# Elastic Compliance Matrix: (Units=1/GPa)
#
#
# Indices 1 2 3 4 5 6 
#
# 1 0.012010 -0.000854 -0.002160 -0.006145 -0.007726 0.003789
# 2 -0.000854 0.008128 -0.002722 -0.002373 0.001973 0.001429
# 3 -0.002160 -0.002722 0.011439 -0.003218 -0.002014 0.000706
# 4 -0.006145 -0.002373 -0.003218 0.050909 0.014168 -0.012821
# 5 -0.007726 0.001973 -0.002014 0.014168 0.030528 -0.003973
# 6 0.003789 0.001429 0.000706 -0.012821 -0.003973 0.027683
#
#
# Mechanical properties :
#
#
# Convention : Reuss Voigt Hill
#
# Bulk Modulus (GPa) = 49.73914 62.19136 55.96525
# Shear Modulus (GPa) = 31.47214 40.72705 36.09959
#
# Velocity S-wave (km/s) = 3.52448 4.00935 3.77471
# Velocity P-wave (km/s) = 6.01619 6.78085 6.40994
#
# Compressibility (1/GPa) = 0.02010489
#
# Stress axis : x y z
#
# Youngs Moduli (GPa) = 83.26329 123.02811 87.42356
#
# Poissons Ratio (x) = 0.10512 0.18880
# Poissons Ratio (y) = 0.07114 0.23796
# Poissons Ratio (z) = 0.17982 0.33488
#
# Static dielectric constant tensor:
#      x y z
#    x 2.060330 0.225090 0.066060 
#    y 0.225090 2.432900 0.084660 
#    z 0.066060 0.084660 2.137990 
# 
# From -- ./inp_files/428709.got.cif
#   From: 2010.05.17/outbox.cif.g08.bks.cpg/sg2_215_cif.got.tgz:428709.got - 2010.06.03 11:33:40.
