data_PCOD9010168
_publ_section_title
;
Structure prediction by ZEFSAII (Michael W. Deem and Ramdas Pophale) SiO2 
 PCOD9010168
Probable space group: P -1
;
_chemical_formula_sum "Si O2"
_cell_formula_units_Z 16
_cell_length_a 26.973279
_cell_length_b 8.944968
_cell_length_c 6.216418
_cell_angle_alpha 88.008472
_cell_angle_beta 91.745360
_cell_angle_gamma 27.962013
_cell_volume 696.831522
_symmetry_space_group_name_H-M "P -1"
_symmetry_group_IT_number 2
_symmetry_cell_setting 'triclinic'
loop_
_space_group_symop_operation_xyz
x,y,z
-x,-y,-z
loop_
_atom_site_type_symbol
_atom_site_label
_atom_site_fract_x
_atom_site_fract_y
_atom_site_fract_z
Si Si1 0.759456 0.805807 0.727649
Si Si2 0.244593 0.842617 0.299656
Si Si3 0.412155 0.749303 0.664025
Si Si4 0.801753 0.230565 0.322945
Si Si5 0.057692 0.186098 0.021841
Si Si6 0.385273 0.286391 0.075408
Si Si7 0.576667 0.128719 0.929991
Si Si8 0.080986 0.862447 0.352208
O O1 0.857163 0.430766 0.757868
O O2 0.786895 0.904550 0.766856
O O3 0.700828 0.963386 0.478898
O O4 0.668909 0.996081 0.872831
O O5 0.222730 0.854475 0.540680
O O6 0.169307 0.932188 0.156447
O O7 0.357260 0.490685 0.231791
O O8 0.500000 0.500000 0.500000
O O9 0.456904 0.498342 0.835850
O O10 0.418076 0.878761 0.810065
O O11 0.701943 0.505703 0.135536
O O12 0.827549 0.294823 0.489358
O O13 0.910393 0.936862 0.211187
O O14 0.024380 0.134643 0.170316
O O15 0.000000 0.500000 0.000000
O O16 0.500000 0.000000 0.000000
O O17 0.393861 0.098289 0.185494
O O18 0.000000 0.000000 0.500000
#
# Coordination Sequence:
#
# PCOD9010168 Si02
#       8
#     2   2   2   2   2   2   2   2
#     4  11  23  41  65  94 134 168 222 277 333 398
#     4  10  25  42  65 100 131 178 223 272 343 402
#     4   9  21  36  63  92 124 171 213 270 334 378
#     4  10  23  46  66  93 140 178 218 275 337 397
#     4  10  24  46  71  99 136 174 220 278 343 402
#     4  11  25  41  66  96 134 181 227 273 331 405
#     4  10  21  40  62  89 135 169 224 277 325 391
#     4  11  26  45  71 105 131 174 229 275 342 403
#
# _framework density 22.961072999999999
#
# number of rings (size 3 to 8) (size 9 to 14) (size 15 to 20)
#    0.000    1.750    0.000    3.000   10.500    4.000 
#    2.250    0.000    0.000    0.000    0.000    0.000 
#    0.000    0.000    0.000    0.000    0.000    0.000 
#
# Total GULP energy -89182.080264 kJ/mol
# GULP energy per Si atom -5573.880016 kJ/mol
# Density = 2.290881 g / cm^3
# Si number density = 22.961073 Si / 1000 Ang^3
#
#
#
# Elastic Constant Matrix: (Units=GPa)
#
#
# Indices 1 2 3 4 5 6 
#
# 1 101.6084 28.3535 26.4543 11.0074 -23.3034 17.1318
# 2 28.3535 79.2377 37.3725 18.9754 -20.3258 21.5201
# 3 26.4543 37.3725 79.5549 16.3102 -10.2855 9.4366
# 4 11.0074 18.9754 16.3102 28.3025 -3.9946 7.2807
# 5 -23.3034 -20.3258 -10.2855 -3.9946 37.9596 -1.6938
# 6 17.1318 21.5201 9.4366 7.2807 -1.6938 42.8583
#
#
#
# Elastic Compliance Matrix: (Units=1/GPa)
#
#
# Indices 1 2 3 4 5 6 
#
# 1 0.012962 -0.000282 -0.002540 -0.001408 0.006793 -0.003973
# 2 -0.000282 0.022031 -0.006648 -0.007586 0.008674 -0.007855
# 3 -0.002540 -0.006648 0.017283 -0.004992 -0.000900 0.001360
# 4 -0.001408 -0.007586 -0.004992 0.044138 -0.001728 -0.002096
# 5 0.006793 0.008674 -0.000900 -0.001728 0.034500 -0.005216
# 6 -0.003973 -0.007855 0.001360 -0.002096 -0.005216 0.028715
#
#
# Mechanical properties :
#
#
# Convention : Reuss Voigt Hill
#
# Bulk Modulus (GPa) = 29.99560 49.41796 39.70678
# Shear Modulus (GPa) = 26.36016 33.03878 29.69947
#
# Velocity S-wave (km/s) = 3.39195 3.79740 3.60039
# Velocity P-wave (km/s) = 5.33221 6.38719 5.88340
#
# Compressibility (1/GPa) = 0.03333822
#
# Stress axis : x y z
#
# Youngs Moduli (GPa) = 77.14947 45.39020 57.85993
#
# Poissons Ratio (x) = 0.01278 0.14695
# Poissons Ratio (y) = 0.02172 0.38463
# Poissons Ratio (z) = 0.19594 0.30174
#
# Static dielectric constant tensor:
#      x y z
#    x 1.967650 0.027390 -0.010920 
#    y 0.027390 1.950940 -0.009210 
#    z -0.010920 -0.009210 1.961740 
# 
# From -- ./inp_files/126445.got.cif
#   From: 2010.05.17/outbox.cif.g08.bks.cpg/sg2_64_cif.got.tgz:126445.got - 2010.06.03 11:33:40.
