data_PCOD9010258
_publ_section_title
;
Structure prediction by ZEFSAII (Michael W. Deem and Ramdas Pophale) SiO2 
 PCOD9010258
Probable space group: P -1
;
_chemical_formula_sum "Si O2"
_cell_formula_units_Z 14
_cell_length_a 27.081192
_cell_length_b 7.941082
_cell_length_c 5.237816
_cell_angle_alpha 62.156227
_cell_angle_beta 126.799211
_cell_angle_gamma 145.053315
_cell_volume 515.953140
_symmetry_space_group_name_H-M "P -1"
_symmetry_group_IT_number 2
_symmetry_cell_setting 'triclinic'
loop_
_space_group_symop_operation_xyz
x,y,z
-x,-y,-z
loop_
_atom_site_type_symbol
_atom_site_label
_atom_site_fract_x
_atom_site_fract_y
_atom_site_fract_z
Si Si1 0.104747 0.802567 0.702267
Si Si2 0.752953 0.088583 0.303302
Si Si3 0.537053 0.300411 0.906853
Si Si4 0.313485 0.442878 0.437363
Si Si5 0.427444 0.087614 0.220359
Si Si6 0.116164 0.164157 0.132758
Si Si7 0.911263 0.571579 0.783371
O O1 0.183317 0.882135 0.716866
O O2 0.000000 0.500000 0.500000
O O3 0.111396 0.037632 0.480020
O O4 0.102137 0.688181 0.043817
O O5 0.826483 0.408801 0.438964
O O6 0.706720 0.818195 0.542227
O O7 0.665418 0.999447 0.977709
O O8 0.500575 0.294925 0.531329
O O9 0.644796 0.518741 0.180300
O O10 0.500000 0.000000 0.000000
O O11 0.480225 0.254779 0.001539
O O12 0.388672 0.775047 0.326200
O O13 0.214313 0.321478 0.211922
O O14 0.112426 0.371227 0.069568
O O15 0.022326 0.888637 0.871913
#
# Coordination Sequence:
#
# PCOD9010258 Si02
#       7
#     2   2   2   2   2   2   2
#     4   9  20  39  58  89 131 168 218 272 332 394
#     4  11  25  39  67 101 131 181 226 280 341 410
#     4  10  23  46  73  99 140 179 228 287 349 406
#     4  10  22  43  66  99 131 177 231 274 349 406
#     4  11  25  46  72 101 141 179 227 290 344 410
#     4   9  20  39  66  92 130 179 217 276 339 408
#     4  10  21  40  62  93 136 169 223 275 337 400
#
# _framework density 27.134246999999998
#
# number of rings (size 3 to 8) (size 9 to 14) (size 15 to 20)
#    0.000    2.000    0.000    2.571    6.000    7.429 
#   10.286   10.000    0.000    0.000    0.000    0.000 
#    0.000    0.000    0.000    0.000    0.000    0.000 
#
# Total GULP energy -78212.465112 kJ/mol
# GULP energy per Si atom -5586.604651 kJ/mol
# Density = 2.707249 g / cm^3
# Si number density = 27.134247 Si / 1000 Ang^3
#
#
#
# Elastic Constant Matrix: (Units=GPa)
#
#
# Indices 1 2 3 4 5 6 
#
# 1 96.1495 37.9035 47.2555 2.3613 17.5755 7.6663
# 2 37.9035 148.7374 51.4720 15.7534 11.1356 -4.7874
# 3 47.2555 51.4720 151.2135 22.1479 19.9922 13.6687
# 4 2.3613 15.7534 22.1479 63.1727 5.8467 11.3747
# 5 17.5755 11.1356 19.9922 5.8467 43.6588 2.7439
# 6 7.6663 -4.7874 13.6687 11.3747 2.7439 47.8417
#
#
#
# Elastic Compliance Matrix: (Units=1/GPa)
#
#
# Indices 1 2 3 4 5 6 
#
# 1 0.013602 -0.002384 -0.003070 0.001813 -0.003594 -0.001766
# 2 -0.002384 0.008283 -0.002011 -0.001651 -0.000149 0.002186
# 3 -0.003070 -0.002011 0.008969 -0.002044 -0.001980 -0.001672
# 4 0.001813 -0.001651 -0.002044 0.017750 -0.001498 -0.004006
# 5 -0.003594 -0.000149 -0.001980 -0.001498 0.025495 0.000020
# 6 -0.001766 0.002186 -0.001672 -0.004006 0.000020 0.022833
#
#
# Mechanical properties :
#
#
# Convention : Reuss Voigt Hill
#
# Bulk Modulus (GPa) = 62.79252 74.37361 68.58306
# Shear Modulus (GPa) = 42.67275 48.23259 45.45267
#
# Velocity S-wave (km/s) = 3.96997 4.22068 4.09724
# Velocity P-wave (km/s) = 6.64875 7.15690 6.90750
#
# Compressibility (1/GPa) = 0.01592546
#
# Stress axis : x y z
#
# Youngs Moduli (GPa) = 73.51700 120.73048 111.49105
#
# Poissons Ratio (x) = 0.28778 0.34230
# Poissons Ratio (y) = 0.17524 0.22417
# Poissons Ratio (z) = 0.22571 0.24275
#
# Static dielectric constant tensor:
#      x y z
#    x 2.088770 0.022080 0.009170 
#    y 0.022080 2.202550 -0.050590 
#    z 0.009170 -0.050590 2.316950 
# 
# From -- ./inp_files/128216.got.cif
#   From: 2010.05.17/outbox.cif.g08.bks.cpg/sg2_65_cif.got.tgz:128216.got - 2010.06.03 11:33:40.
