data_PCOD9010089
_publ_section_title
;
Structure prediction by ZEFSAII (Michael W. Deem and Ramdas Pophale) SiO2 
 PCOD9010089
Probable space group: P -1
;
_chemical_formula_sum "Si O2"
_cell_formula_units_Z 12
_cell_length_a 11.701452
_cell_length_b 15.649342
_cell_length_c 10.242678
_cell_angle_alpha 142.156092
_cell_angle_beta 127.072229
_cell_angle_gamma 25.420648
_cell_volume 448.458564
_symmetry_space_group_name_H-M "P -1"
_symmetry_group_IT_number 2
_symmetry_cell_setting 'triclinic'
loop_
_space_group_symop_operation_xyz
x,y,z
-x,-y,-z
loop_
_atom_site_type_symbol
_atom_site_label
_atom_site_fract_x
_atom_site_fract_y
_atom_site_fract_z
Si Si1 0.251784 0.908733 0.806312
Si Si2 0.376670 0.430101 0.889305
Si Si3 0.428669 0.045699 0.190553
Si Si4 0.909699 0.614636 0.362095
Si Si5 0.541454 0.486511 0.701229
Si Si6 0.134922 0.136403 0.604019
O O1 0.436457 0.879969 0.954887
O O2 0.292336 0.751922 0.751098
O O3 0.384634 0.734517 0.553469
O O4 0.921995 0.242459 0.967343
O O5 0.266757 0.371585 0.793757
O O6 0.611835 0.189509 0.651349
O O7 0.521017 0.405169 0.067505
O O8 0.263273 0.193062 0.394057
O O9 0.222233 0.298783 0.250078
O O10 0.731533 0.868184 0.205845
O O11 0.919334 0.727983 0.400640
O O12 0.847519 0.304169 0.657471
#
# Coordination Sequence:
#
# PCOD9010089 Si02
#       6
#     2   2   2   2   2   2
#     4  10  22  41  59  83 122 159 189 235 296 345
#     4  10  21  40  62  84 118 157 193 238 289 344
#     4   9  18  36  61  85 116 153 192 239 287 342
#     4   9  18  34  59  90 117 148 191 241 294 339
#     4  11  24  40  59  87 121 154 193 240 288 345
#     4  11  22  37  64  92 112 149 200 242 286 342
#
# _framework density 26.758324999999999
#
# number of rings (size 3 to 8) (size 9 to 14) (size 15 to 20)
#    0.000    2.000    0.000    5.500    0.000    4.667 
#    0.000   10.833    0.000    0.000    0.000    0.000 
#    0.000    0.000    0.000    0.000    0.000    0.000 
#
# Total GULP energy -67393.885732 kJ/mol
# GULP energy per Si atom -5616.157144 kJ/mol
# Density = 2.669742 g / cm^3
# Si number density = 26.758325 Si / 1000 Ang^3
#
#
#
# Elastic Constant Matrix: (Units=GPa)
#
#
# Indices 1 2 3 4 5 6 
#
# 1 74.6685 -1.0741 41.4335 -11.0682 5.4819 -0.9967
# 2 -1.0741 113.7942 53.2692 -7.7028 3.8395 11.7715
# 3 41.4335 53.2692 180.1746 -17.4564 9.8637 5.0184
# 4 -11.0682 -7.7028 -17.4564 66.4831 -9.4154 10.3710
# 5 5.4819 3.8395 9.8637 -9.4154 40.8315 -0.7844
# 6 -0.9967 11.7715 5.0184 10.3710 -0.7844 25.4730
#
#
#
# Elastic Compliance Matrix: (Units=1/GPa)
#
#
# Indices 1 2 3 4 5 6 
#
# 1 0.016044 0.002273 -0.004127 0.001770 -0.000970 -0.000360
# 2 0.002273 0.011068 -0.003500 0.001477 -0.000255 -0.004945
# 3 -0.004127 -0.003500 0.007674 0.000881 -0.000776 -0.000438
# 4 0.001770 0.001477 0.000881 0.017416 0.003277 -0.007777
# 5 -0.000970 -0.000255 -0.000776 0.003277 0.025582 -0.000314
# 6 -0.000360 -0.004945 -0.000438 -0.007777 -0.000314 0.044771
#
#
# Mechanical properties :
#
#
# Convention : Reuss Voigt Hill
#
# Bulk Modulus (GPa) = 41.53198 61.76606 51.64902
# Shear Modulus (GPa) = 35.38838 44.89144 40.13991
#
# Velocity S-wave (km/s) = 3.64059 4.10037 3.87730
# Velocity P-wave (km/s) = 5.76426 6.74911 6.27603
#
# Compressibility (1/GPa) = 0.02407783
#
# Stress axis : x y z
#
# Youngs Moduli (GPa) = 62.32854 90.35123 130.30818
#
# Poissons Ratio (x) = -0.20538 0.53779
# Poissons Ratio (y) = -0.14168 0.45610
# Poissons Ratio (z) = 0.25723 0.31625
#
# Static dielectric constant tensor:
#      x y z
#    x 2.086900 0.027340 -0.002130 
#    y 0.027340 2.060450 -0.007610 
#    z -0.002130 -0.007610 2.071620 
# 
# From -- ./inp_files/433353.got.cif
#   From: 2010.05.17/outbox.cif.g08.bks.cpg/sg2_217_cif.got.tgz:433353.got - 2010.06.03 11:33:40.
