data_PCOD9010307
_publ_section_title
;
Structure prediction by ZEFSAII (Michael W. Deem and Ramdas Pophale) SiO2 
 PCOD9010307
Probable space group: P -1
;
_chemical_formula_sum "Si O2"
_cell_formula_units_Z 16
_cell_length_a 12.912837
_cell_length_b 8.824227
_cell_length_c 21.623536
_cell_angle_alpha 132.478898
_cell_angle_beta 151.688501
_cell_angle_gamma 38.707163
_cell_volume 730.171363
_symmetry_space_group_name_H-M "P -1"
_symmetry_group_IT_number 2
_symmetry_cell_setting 'triclinic'
loop_
_space_group_symop_operation_xyz
x,y,z
-x,-y,-z
loop_
_atom_site_type_symbol
_atom_site_label
_atom_site_fract_x
_atom_site_fract_y
_atom_site_fract_z
Si Si1 0.735442 0.607177 0.352204
Si Si2 0.447471 0.395503 0.300496
Si Si3 0.146458 0.228916 0.882068
Si Si4 0.597776 0.746777 0.516808
Si Si5 0.246896 0.846736 0.719598
Si Si6 0.512451 0.228155 0.989650
Si Si7 0.810953 0.506018 0.222332
Si Si8 0.339651 0.916465 0.550309
O O1 0.656695 0.413695 0.270250
O O2 0.772397 0.610353 0.299356
O O3 0.000000 0.500000 0.500000
O O4 0.574413 0.889383 0.361908
O O5 0.580001 0.556142 0.411170
O O6 0.551211 0.218300 0.247324
O O7 0.537496 0.241905 0.368493
O O8 0.141422 0.580646 0.196244
O O9 0.299302 0.343900 0.964363
O O10 0.180064 0.043211 0.792881
O O11 0.305761 0.052167 0.973527
O O12 0.420234 0.774384 0.489098
O O13 0.882205 0.639951 0.663972
O O14 0.500000 0.000000 0.500000
O O15 0.968536 0.946411 0.568890
O O16 0.347615 0.297502 0.859519
O O17 0.695948 0.333914 0.112681
#
# Coordination Sequence:
#
# PCOD9010307 Si02
#       8
#     2   2   2   2   2   2   2   2
#     4  10  21  40  62  98 135 172 215 274 341 404
#     4  12  25  40  69 107 134 173 225 284 351 406
#     4  11  23  46  69  96 134 179 231 279 337 395
#     4  12  22  38  67 103 138 175 220 278 349 416
#     4  11  22  41  67  97 140 175 216 276 350 408
#     4  10  24  42  69  93 130 188 231 277 323 400
#     4  11  22  41  69  96 133 180 232 272 337 402
#     4  11  23  38  62 104 144 169 210 285 354 405
#
# _framework density 21.912662999999998
#
# number of rings (size 3 to 8) (size 9 to 14) (size 15 to 20)
#    0.000    1.000    2.500    6.000    3.500    0.000 
#    0.000    2.500    5.500    3.000    0.000    0.000 
#    0.000    0.000    0.000    0.000    0.000    0.000 
#
# Total GULP energy -89381.022156 kJ/mol
# GULP energy per Si atom -5586.313885 kJ/mol
# Density = 2.186279 g / cm^3
# Si number density = 21.912663 Si / 1000 Ang^3
#
#
#
# Elastic Constant Matrix: (Units=GPa)
#
#
# Indices 1 2 3 4 5 6 
#
# 1 124.0812 48.7998 48.6423 -24.7518 -13.7760 -3.5499
# 2 48.7998 88.9113 49.0291 -16.2460 -2.2133 -1.5564
# 3 48.6423 49.0291 124.4167 -31.9526 -1.2439 -2.2431
# 4 -24.7518 -16.2460 -31.9526 43.3740 3.2700 -2.8100
# 5 -13.7760 -2.2133 -1.2439 3.2700 46.9034 -6.7379
# 6 -3.5499 -1.5564 -2.2431 -2.8100 -6.7379 45.1150
#
#
#
# Elastic Compliance Matrix: (Units=1/GPa)
#
#
# Indices 1 2 3 4 5 6 
#
# 1 0.011674 -0.004700 -0.001771 0.003450 0.003113 0.001348
# 2 -0.004700 0.016357 -0.004590 0.000112 -0.000758 -0.000140
# 3 -0.001771 -0.004590 0.012167 0.006330 -0.000771 0.000586
# 4 0.003450 0.000112 0.006330 0.029924 -0.000559 0.002370
# 5 0.003113 -0.000758 -0.000771 -0.000559 0.022726 0.003540
# 6 0.001348 -0.000140 0.000586 0.002370 0.003540 0.022972
#
#
# Mechanical properties :
#
#
# Convention : Reuss Voigt Hill
#
# Bulk Modulus (GPa) = 55.31747 70.03909 62.67828
# Shear Modulus (GPa) = 34.73035 39.80767 37.26901
#
# Velocity S-wave (km/s) = 3.98545 4.26684 4.12855
# Velocity P-wave (km/s) = 6.81746 7.50379 7.16884
#
# Compressibility (1/GPa) = 0.01807747
#
# Stress axis : x y z
#
# Youngs Moduli (GPa) = 85.65989 61.13744 82.18989
#
# Poissons Ratio (x) = 0.28732 0.14554
# Poissons Ratio (y) = 0.40256 0.37724
# Poissons Ratio (z) = 0.15168 0.28061
#
# Static dielectric constant tensor:
#      x y z
#    x 1.830790 -0.004220 0.018560 
#    y -0.004220 1.839190 0.053800 
#    z 0.018560 0.053800 1.813760 
# 
# From -- ./inp_files/594208.got.cif
#   From: 2010.05.17/outbox.cif.g08.bks.cpg/sg2_298_cif.got.tgz:594208.got - 2010.06.03 11:33:40.
