data_PCOD9010866
_publ_section_title
;
Structure prediction by ZEFSAII (Michael W. Deem and Ramdas Pophale) SiO2 
 PCOD9010866
Probable space group: P -1
;
_chemical_formula_sum "Si O2"
_cell_formula_units_Z 14
_cell_length_a 11.713665
_cell_length_b 8.199599
_cell_length_c 16.144402
_cell_angle_alpha 147.674457
_cell_angle_beta 136.380325
_cell_angle_gamma 54.376733
_cell_volume 570.209067
_symmetry_space_group_name_H-M "P -1"
_symmetry_group_IT_number 2
_symmetry_cell_setting 'triclinic'
loop_
_space_group_symop_operation_xyz
x,y,z
-x,-y,-z
loop_
_atom_site_type_symbol
_atom_site_label
_atom_site_fract_x
_atom_site_fract_y
_atom_site_fract_z
Si Si1 0.300376 0.517182 0.816875
Si Si2 0.385827 0.158842 0.942710
Si Si3 0.274489 0.777642 0.228367
Si Si4 0.965192 0.088723 0.152799
Si Si5 0.897822 0.824664 0.298111
Si Si6 0.832910 0.582555 0.747259
Si Si7 0.414179 0.896258 0.535530
O O1 0.224576 0.429791 0.828853
O O2 0.157237 0.695851 0.773524
O O3 0.334879 0.205052 0.654997
O O4 0.473240 0.718735 0.996075
O O5 0.227465 0.987410 0.740178
O O6 0.303472 0.442268 0.065034
O O7 0.500000 0.000000 0.000000
O O8 0.351084 0.803582 0.370937
O O9 0.089431 0.882739 0.176577
O O10 0.390867 0.008634 0.329897
O O11 0.084513 0.295617 0.242296
O O12 0.842275 0.866802 0.936267
O O13 0.035497 0.649285 0.248104
O O14 0.000000 0.000000 0.500000
O O15 0.660377 0.380415 0.565372
#
# Coordination Sequence:
#
# PCOD9010866 Si02
#       7
#     2   2   2   2   2   2   2
#     4  10  23  43  66  98 134 173 225 275 339 391
#     4  11  25  45  67  99 136 181 223 273 339 406
#     4  10  23  44  63  89 139 180 216 272 337 398
#     4  10  22  40  66  95 128 175 221 275 329 402
#     4  11  21  44  70  99 131 173 223 284 326 393
#     4  10  21  40  64  94 129 168 225 268 336 390
#     4  10  22  42  62  93 135 175 219 271 335 391
#
# _framework density 24.552399999999999
#
# number of rings (size 3 to 8) (size 9 to 14) (size 15 to 20)
#    0.000    1.714    2.857    0.429    2.000    2.857 
#   15.429    0.000    0.000    0.000    0.000    0.000 
#    0.000    0.000    0.000    0.000    0.000    0.000 
#
# Total GULP energy -78243.929317 kJ/mol
# GULP energy per Si atom -5588.852094 kJ/mol
# Density = 2.449652 g / cm^3
# Si number density = 24.552400 Si / 1000 Ang^3
#
#
#
# Elastic Constant Matrix: (Units=GPa)
#
#
# Indices 1 2 3 4 5 6 
#
# 1 72.7172 23.9125 15.0812 1.7126 9.9825 -18.5584
# 2 23.9125 136.4375 41.3956 -26.4360 14.3084 -32.5604
# 3 15.0812 41.3956 89.2826 -6.4554 10.8455 -11.7845
# 4 1.7126 -26.4360 -6.4554 32.3751 -0.5093 6.0534
# 5 9.9825 14.3084 10.8455 -0.5093 28.0779 2.5990
# 6 -18.5584 -32.5604 -11.7845 6.0534 2.5990 37.1320
#
#
#
# Elastic Compliance Matrix: (Units=1/GPa)
#
#
# Indices 1 2 3 4 5 6 
#
# 1 0.017359 -0.000641 -0.000944 -0.003377 -0.006357 0.008810
# 2 -0.000641 0.012713 -0.003355 0.008002 -0.005629 0.008852
# 3 -0.000944 -0.003355 0.013440 -0.000271 -0.003255 0.001123
# 4 -0.003377 0.008002 -0.000271 0.037656 -0.002019 -0.000755
# 5 -0.006357 -0.005629 -0.003255 -0.002019 0.043059 -0.011830
# 6 0.008810 0.008852 0.001123 -0.000755 -0.011830 0.040404
#
#
# Mechanical properties :
#
#
# Convention : Reuss Voigt Hill
#
# Bulk Modulus (GPa) = 29.73524 51.02397 40.37960
# Shear Modulus (GPa) = 26.92196 34.05354 30.48775
#
# Velocity S-wave (km/s) = 3.31495 3.72825 3.52766
# Velocity P-wave (km/s) = 5.17582 6.27375 5.75104
#
# Compressibility (1/GPa) = 0.03363013
#
# Stress axis : x y z
#
# Youngs Moduli (GPa) = 57.60654 78.65938 74.40735
#
# Poissons Ratio (x) = 0.05045 0.07025
# Poissons Ratio (y) = 0.03695 0.24966
# Poissons Ratio (z) = 0.05439 0.26393
#
# Static dielectric constant tensor:
#      x y z
#    x 1.953260 0.062330 0.022070 
#    y 0.062330 2.037140 -0.004420 
#    z 0.022070 -0.004420 1.983830 
# 
# From -- ./inp_files/152252.got.cif
#   From: 2010.05.17/outbox.cif.g08.bks.cpg/sg2_77_cif.got.tgz:152252.got - 2010.06.03 11:33:40.
