data_PCOD9010958
_publ_section_title
;
Structure prediction by ZEFSAII (Michael W. Deem and Ramdas Pophale) SiO2 
 PCOD9010958
Probable space group: P -1
;
_chemical_formula_sum "Si O2"
_cell_formula_units_Z 15
_cell_length_a 11.864486
_cell_length_b 15.009865
_cell_length_c 7.693615
_cell_angle_alpha 98.747324
_cell_angle_beta 84.091654
_cell_angle_gamma 154.219490
_cell_volume 587.119264
_symmetry_space_group_name_H-M "P -1"
_symmetry_group_IT_number 2
_symmetry_cell_setting 'triclinic'
loop_
_space_group_symop_operation_xyz
x,y,z
-x,-y,-z
loop_
_atom_site_type_symbol
_atom_site_label
_atom_site_fract_x
_atom_site_fract_y
_atom_site_fract_z
Si Si1 0.484502 0.779461 0.610645
Si Si2 0.500000 0.000000 0.500000
Si Si3 0.781689 0.261055 0.157430
Si Si4 0.617319 0.800431 0.955162
Si Si5 0.051836 0.350691 0.402122
Si Si6 0.943370 0.837476 0.524806
Si Si7 0.684307 0.260338 0.820011
Si Si8 0.863366 0.855480 0.193835
O O1 0.416462 0.834979 0.698719
O O2 0.278524 0.586249 0.458605
O O3 0.770838 0.974265 0.547520
O O4 0.471507 0.707548 0.766190
O O5 0.083195 0.730748 0.787903
O O6 0.176368 0.782672 0.470744
O O7 0.018044 0.501900 0.190312
O O8 0.682543 0.187448 0.956813
O O9 0.470014 0.765901 0.086938
O O10 0.650559 0.736823 0.054036
O O11 0.914051 0.035693 0.920249
O O12 0.141654 0.314863 0.415884
O O13 0.523939 0.107534 0.643676
O O14 0.777494 0.744215 0.351192
O O15 0.985430 0.948668 0.688114
#
# Coordination Sequence:
#
# PCOD9010958 Si02
#       8
#     2   1   2   2   2   2   2   2
#     4  10  21  40  64  97 133 175 212 264 326 399
#     4  12  24  38  64 102 134 164 218 264 320 388
#     4  10  22  41  63  92 140 177 211 254 326 399
#     4   9  19  38  70  87 124 179 218 262 335 380
#     4  12  24  37  63 100 132 171 218 263 318 398
#     4  10  22  40  66  94 128 165 224 276 325 378
#     4  10  22  41  67  95 131 176 212 265 323 394
#     4   9  19  41  67  92 121 173 221 279 328 378
#
# _framework density 25.548473000000001
#
# number of rings (size 3 to 8) (size 9 to 14) (size 15 to 20)
#    0.000    1.867    1.333    2.000    3.733    0.533 
#    0.000   10.667    0.000    0.000    0.000    0.000 
#    0.000    0.000    0.000    0.000    0.000    0.000 
#
# Total GULP energy -83725.622471 kJ/mol
# GULP energy per Si atom -5581.708165 kJ/mol
# Density = 2.549032 g / cm^3
# Si number density = 25.548473 Si / 1000 Ang^3
#
#
#
# Elastic Constant Matrix: (Units=GPa)
#
#
# Indices 1 2 3 4 5 6 
#
# 1 98.6592 2.6502 11.9902 2.1909 27.0355 9.2071
# 2 2.6502 58.5640 -1.7486 -16.5452 -16.8466 1.9828
# 3 11.9902 -1.7486 100.5975 0.7925 9.4916 16.6414
# 4 2.1909 -16.5452 0.7925 20.3150 7.3687 4.1024
# 5 27.0355 -16.8466 9.4916 7.3687 62.2148 -3.9337
# 6 9.2071 1.9828 16.6414 4.1024 -3.9337 33.4710
#
#
#
# Elastic Compliance Matrix: (Units=1/GPa)
#
#
# Indices 1 2 3 4 5 6 
#
# 1 0.012264 -0.002236 -0.000295 -0.000149 -0.006112 -0.003795
# 2 -0.002236 0.023940 0.000516 0.018450 0.005017 -0.002731
# 3 -0.000295 0.000516 0.011150 0.001964 -0.002044 -0.005974
# 4 -0.000149 0.018450 0.001964 0.067806 -0.003953 -0.010804
# 5 -0.006112 0.005017 -0.002044 -0.003953 0.021208 0.005377
# 6 -0.003795 -0.002731 -0.005974 -0.010804 0.005377 0.036009
#
#
# Mechanical properties :
#
#
# Convention : Reuss Voigt Hill
#
# Bulk Modulus (GPa) = 23.08143 31.51159 27.29651
# Shear Modulus (GPa) = 26.19872 39.52874 32.86373
#
# Velocity S-wave (km/s) = 3.20574 3.93772 3.59043
# Velocity P-wave (km/s) = 4.77036 5.74761 5.28164
#
# Compressibility (1/GPa) = 0.04332487
#
# Stress axis : x y z
#
# Youngs Moduli (GPa) = 81.53879 41.77075 89.68317
#
# Poissons Ratio (x) = 0.09338 0.02646
# Poissons Ratio (y) = 0.18228 -0.04625
# Poissons Ratio (z) = 0.02406 -0.02154
#
# Static dielectric constant tensor:
#      x y z
#    x 2.022040 -0.017860 0.062590 
#    y -0.017860 1.936490 -0.030320 
#    z 0.062590 -0.030320 1.984400 
# 
# From -- ./inp_files/273143.got.cif
#   From: 2010.05.17/outbox.cif.g08.bks.cpg/sg2_137_cif.got.tgz:273143.got - 2010.06.03 11:33:40.
