data_PCOD9010263
_publ_section_title
;
Structure prediction by ZEFSAII (Michael W. Deem and Ramdas Pophale) SiO2 
 PCOD9010263
Probable space group: P -1
;
_chemical_formula_sum "Si O2"
_cell_formula_units_Z 16
_cell_length_a 16.258541
_cell_length_b 5.418515
_cell_length_c 8.025792
_cell_angle_alpha 106.266221
_cell_angle_beta 67.519818
_cell_angle_gamma 91.882263
_cell_volume 624.968539
_symmetry_space_group_name_H-M "P -1"
_symmetry_group_IT_number 2
_symmetry_cell_setting 'triclinic'
loop_
_space_group_symop_operation_xyz
x,y,z
-x,-y,-z
loop_
_atom_site_type_symbol
_atom_site_label
_atom_site_fract_x
_atom_site_fract_y
_atom_site_fract_z
Si Si1 0.435506 0.970986 0.270666
Si Si2 0.734098 0.125082 0.801030
Si Si3 0.829177 0.956225 0.017062
Si Si4 0.532650 0.471194 0.277895
Si Si5 0.845720 0.675860 0.426565
Si Si6 0.878314 0.447874 0.680913
Si Si7 0.698157 0.697515 0.313923
Si Si8 0.013751 0.761127 0.138716
O O1 0.367736 0.891642 0.167062
O O2 0.487061 0.710650 0.252479
O O3 0.497948 0.193779 0.208472
O O4 0.370553 0.107194 0.490994
O O5 0.764322 0.106270 0.963340
O O6 0.776569 0.370669 0.737916
O O7 0.788300 0.884152 0.621635
O O8 0.916516 0.106795 0.008487
O O9 0.874673 0.707100 0.838437
O O10 0.762912 0.860352 0.186767
O O11 0.500000 0.500000 0.500000
O O12 0.636647 0.523910 0.220158
O O13 0.902870 0.491845 0.478294
O O14 0.770456 0.546274 0.352708
O O15 0.912645 0.828904 0.291430
O O16 0.934733 0.253429 0.723667
O O17 0.000000 0.500000 0.000000
#
# Coordination Sequence:
#
# PCOD9010263 Si02
#       8
#     2   2   2   2   2   2   2   2
#     4  10  22  41  69  96 131 168 226 269 329 388
#     4   9  22  40  63  92 120 172 211 263 319 387
#     4  10  23  43  59  89 132 161 210 264 323 392
#     4  10  21  40  64 101 130 169 215 281 322 392
#     4  10  22  39  63  89 122 167 214 263 311 392
#     4  10  22  40  63  87 123 168 213 263 312 387
#     4  10  21  40  62  94 123 168 207 267 330 384
#     4  11  24  41  60  93 125 164 208 262 328 380
#
# _framework density 25.601289000000001
#
# number of rings (size 3 to 8) (size 9 to 14) (size 15 to 20)
#    0.000    2.000    0.000    2.625    7.000    9.500 
#   15.750    1.250    0.000    0.000    0.000    0.000 
#    0.000    0.000    0.000    0.000    0.000    0.000 
#
# Total GULP energy -89432.777053 kJ/mol
# GULP energy per Si atom -5589.548566 kJ/mol
# Density = 2.554302 g / cm^3
# Si number density = 25.601289 Si / 1000 Ang^3
#
#
#
# Elastic Constant Matrix: (Units=GPa)
#
#
# Indices 1 2 3 4 5 6 
#
# 1 206.0561 67.5297 58.7019 -21.0120 -2.1183 34.5145
# 2 67.5297 110.1992 16.8942 -26.7911 -3.4865 36.8106
# 3 58.7019 16.8942 97.3668 -33.1831 -22.5053 6.9704
# 4 -21.0120 -26.7911 -33.1831 36.2248 6.1845 -7.1069
# 5 -2.1183 -3.4865 -22.5053 6.1845 28.0322 -0.2932
# 6 34.5145 36.8106 6.9704 -7.1069 -0.2932 61.3206
#
#
#
# Elastic Compliance Matrix: (Units=1/GPa)
#
#
# Indices 1 2 3 4 5 6 
#
# 1 0.007882 -0.004471 -0.006160 -0.003988 -0.004042 -0.001534
# 2 -0.004471 0.016280 0.005323 0.012535 0.003128 -0.006394
# 3 -0.006160 0.005323 0.022775 0.018764 0.014341 -0.000074
# 4 -0.003988 0.012535 0.018764 0.050573 0.005149 -0.001527
# 5 -0.004042 0.003128 0.014341 0.005149 0.046130 -0.000416
# 6 -0.001534 -0.006394 -0.000074 -0.001527 -0.000416 0.020839
#
#
# Mechanical properties :
#
#
# Convention : Reuss Voigt Hill
#
# Bulk Modulus (GPa) = 27.53018 77.76376 52.64697
# Shear Modulus (GPa) = 26.70928 43.14861 34.92895
#
# Velocity S-wave (km/s) = 3.23349 4.10983 3.69771
# Velocity P-wave (km/s) = 4.97166 7.27748 6.23214
#
# Compressibility (1/GPa) = 0.03632378
#
# Stress axis : x y z
#
# Youngs Moduli (GPa) = 126.87701 61.42402 43.90703
#
# Poissons Ratio (x) = 0.27460 0.27045
# Poissons Ratio (y) = 0.56721 -0.23374
# Poissons Ratio (z) = 0.78151 -0.32699
#
# Static dielectric constant tensor:
#      x y z
#    x 2.023270 -0.047240 0.067280 
#    y -0.047240 2.083910 -0.054660 
#    z 0.067280 -0.054660 2.142620 
# 
# From -- ./inp_files/288802.got.cif
#   From: 2010.05.17/outbox.cif.g08.bks.cpg/sg2_145_cif.got.tgz:288802.got - 2010.06.03 11:33:40.
