data_PCOD9010107
_publ_section_title
;
Structure prediction by ZEFSAII (Michael W. Deem and Ramdas Pophale) SiO2 
 PCOD9010107
Probable space group: P -1
;
_chemical_formula_sum "Si O2"
_cell_formula_units_Z 16
_cell_length_a 20.505701
_cell_length_b 9.100729
_cell_length_c 5.292508
_cell_angle_alpha 77.092033
_cell_angle_beta 90.372929
_cell_angle_gamma 133.570545
_cell_volume 682.136227
_symmetry_space_group_name_H-M "P -1"
_symmetry_group_IT_number 2
_symmetry_cell_setting 'triclinic'
loop_
_space_group_symop_operation_xyz
x,y,z
-x,-y,-z
loop_
_atom_site_type_symbol
_atom_site_label
_atom_site_fract_x
_atom_site_fract_y
_atom_site_fract_z
Si Si1 0.622923 0.942274 0.255461
Si Si2 0.371191 0.667949 0.508780
Si Si3 0.775731 0.442711 0.139550
Si Si4 0.190012 0.160790 0.078087
Si Si5 0.522603 0.876862 0.796090
Si Si6 0.097012 0.744441 0.379376
Si Si7 0.289393 0.233286 0.544575
Si Si8 0.892505 0.366502 0.077916
O O1 0.570755 0.893607 0.534618
O O2 0.666580 0.850062 0.331700
O O3 0.556695 0.840898 0.050460
O O4 0.701133 0.200363 0.123215
O O5 0.416589 0.717406 0.769822
O O6 0.361345 0.489270 0.460406
O O7 0.436595 0.887239 0.275311
O O8 0.273278 0.590150 0.584753
O O9 0.800213 0.645494 0.945765
O O10 0.868188 0.494376 0.114221
O O11 0.255943 0.185777 0.272244
O O12 0.095468 0.916749 0.233309
O O13 0.217691 0.170522 0.786951
O O14 0.142543 0.793884 0.633241
O O15 0.000000 0.500000 0.500000
O O16 0.147659 0.740661 0.154764
O O17 0.000000 0.500000 0.000000
#
# Coordination Sequence:
#
# PCOD9010107 Si02
#       8
#     2   2   2   2   2   2   2   2
#     4  11  22  37  60  88 117 162 204 247 297 353
#     4   9  22  40  59  87 122 162 200 250 299 352
#     4  10  22  39  63  88 119 159 203 243 301 360
#     4  11  22  38  60  89 120 154 199 249 293 356
#     4  10  22  39  59  85 123 159 204 249 297 350
#     4  10  21  40  62  86 119 155 189 240 303 355
#     4  11  23  38  60  89 122 156 202 248 295 347
#     4  10  22  41  64  90 120 153 193 246 299 357
#
# _framework density 23.455727
#
# number of rings (size 3 to 8) (size 9 to 14) (size 15 to 20)
#    0.000    1.750    0.000    3.750    0.000   12.500 
#    0.000    5.000    0.000    0.000    0.000    0.000 
#    0.000    0.000    0.000    0.000    0.000    0.000 
#
# Total GULP energy -89273.758327 kJ/mol
# GULP energy per Si atom -5579.609895 kJ/mol
# Density = 2.340234 g / cm^3
# Si number density = 23.455727 Si / 1000 Ang^3
#
#
#
# Elastic Constant Matrix: (Units=GPa)
#
#
# Indices 1 2 3 4 5 6 
#
# 1 128.8190 24.3452 27.4882 -3.2755 -5.4780 -18.6579
# 2 24.3452 82.7148 21.2571 -6.9503 -9.1519 -15.8128
# 3 27.4882 21.2571 130.9098 11.2117 -0.5352 -3.0865
# 4 -3.2755 -6.9503 11.2117 40.9463 3.3196 7.8083
# 5 -5.4780 -9.1519 -0.5352 3.3196 22.2189 -0.6537
# 6 -18.6579 -15.8128 -3.0865 7.8083 -0.6537 32.2649
#
#
#
# Elastic Compliance Matrix: (Units=1/GPa)
#
#
# Indices 1 2 3 4 5 6 
#
# 1 0.009064 -0.001188 -0.001590 -0.000061 0.001850 0.004559
# 2 -0.001188 0.014927 -0.002121 0.001366 0.005783 0.006212
# 3 -0.001590 -0.002121 0.008531 -0.002671 -0.000676 -0.000510
# 4 -0.000061 0.001366 -0.002671 0.026863 -0.003713 -0.006197
# 5 0.001850 0.005783 -0.000676 -0.003713 0.048552 0.005722
# 6 0.004559 0.006212 -0.000510 -0.006197 0.005722 0.038242
#
#
# Mechanical properties :
#
#
# Convention : Reuss Voigt Hill
#
# Bulk Modulus (GPa) = 44.00728 54.29162 49.14945
# Shear Modulus (GPa) = 30.57138 37.04290 33.80714
#
# Velocity S-wave (km/s) = 3.61413 3.97831 3.80059
# Velocity P-wave (km/s) = 6.01818 6.65577 6.34499
#
# Compressibility (1/GPa) = 0.02272351
#
# Stress axis : x y z
#
# Youngs Moduli (GPa) = 110.32459 66.99379 117.21739
#
# Poissons Ratio (x) = 0.07958 0.18639
# Poissons Ratio (y) = 0.13106 0.24865
# Poissons Ratio (z) = 0.17543 0.14211
#
# Static dielectric constant tensor:
#      x y z
#    x 2.029810 0.243990 0.013580 
#    y 0.243990 2.312000 0.044160 
#    z 0.013580 0.044160 1.928330 
# 
# From -- ./inp_files/53306.got.cif
#   From: 2010.05.17/outbox.cif.g08.bks.cpg/sg2_27_cif.got.tgz:53306.got - 2010.06.03 11:33:40.
