data_PCOD9010852
_publ_section_title
;
Structure prediction by ZEFSAII (Michael W. Deem and Ramdas Pophale) SiO2 
 PCOD9010852
Probable space group: P -1
;
_chemical_formula_sum "Si O2"
_cell_formula_units_Z 16
_cell_length_a 14.400879
_cell_length_b 12.011834
_cell_length_c 14.406698
_cell_angle_alpha 28.815789
_cell_angle_beta 48.293849
_cell_angle_gamma 39.291919
_cell_volume 760.000970
_symmetry_space_group_name_H-M "P -1"
_symmetry_group_IT_number 2
_symmetry_cell_setting 'triclinic'
loop_
_space_group_symop_operation_xyz
x,y,z
-x,-y,-z
loop_
_atom_site_type_symbol
_atom_site_label
_atom_site_fract_x
_atom_site_fract_y
_atom_site_fract_z
Si Si1 0.046182 0.094520 0.627281
Si Si2 0.684969 0.707922 0.855859
Si Si3 0.388806 0.710934 0.702362
Si Si4 0.602681 0.300807 0.498554
Si Si5 0.972760 0.558915 0.188868
Si Si6 0.889656 0.113121 0.903307
Si Si7 0.092226 0.740671 0.693944
Si Si8 0.417322 0.376155 0.199526
O O1 0.220163 0.962556 0.622681
O O2 0.039212 0.859894 0.745273
O O3 0.981366 0.353980 0.412889
O O4 0.964748 0.163086 0.728893
O O5 0.860628 0.510720 0.876242
O O6 0.616595 0.771364 0.751504
O O7 0.653259 0.989391 0.714770
O O8 0.623791 0.544993 0.069168
O O9 0.464030 0.640406 0.603310
O O10 0.477795 0.766561 0.678519
O O11 0.500000 0.500000 0.500000
O O12 0.742245 0.331290 0.372115
O O13 0.928048 0.486126 0.174351
O O14 0.869080 0.868606 0.063248
O O15 0.739091 0.380503 0.837194
O O16 0.000000 0.000000 0.000000
O O17 0.000000 0.000000 0.500000
O O18 0.500000 0.500000 0.000000
#
# Coordination Sequence:
#
# PCOD9010852 Si02
#       8
#     2   2   2   2   2   2   2   2
#     4  10  21  40  64  94 122 159 212 254 305 365
#     4  11  20  42  66  85 125 169 196 256 321 351
#     4  10  21  41  63  93 126 165 205 251 309 375
#     4  11  24  41  63  93 128 162 208 253 304 374
#     4  11  21  40  67  93 124 162 206 258 314 353
#     4  12  23  40  64  93 123 161 212 257 298 369
#     4   9  19  38  61  89 121 158 202 256 298 362
#     4  10  23  42  63  90 128 163 205 255 308 372
#
# _framework density 21.052606000000001
#
# number of rings (size 3 to 8) (size 9 to 14) (size 15 to 20)
#    0.000    1.500    6.250    0.750    0.000    6.000 
#    0.000    0.000    0.000    0.000    0.000    0.000 
#    0.000    0.000    0.000    0.000    0.000    0.000 
#
# Total GULP energy -89369.252269 kJ/mol
# GULP energy per Si atom -5585.578267 kJ/mol
# Density = 2.100469 g / cm^3
# Si number density = 21.052606 Si / 1000 Ang^3
#
#
#
# Elastic Constant Matrix: (Units=GPa)
#
#
# Indices 1 2 3 4 5 6 
#
# 1 96.9169 12.9038 0.3042 3.3204 -3.6930 9.6979
# 2 12.9038 117.2492 16.4696 15.7644 -0.3879 17.9849
# 3 0.3042 16.4696 75.9904 10.6301 -6.8589 9.1798
# 4 3.3204 15.7644 10.6301 32.3891 9.8696 1.2714
# 5 -3.6930 -0.3879 -6.8589 9.8696 35.9952 -1.5435
# 6 9.6979 17.9849 9.1798 1.2714 -1.5435 22.1969
#
#
#
# Elastic Compliance Matrix: (Units=1/GPa)
#
#
# Indices 1 2 3 4 5 6 
#
# 1 0.010945 -0.000418 0.000956 -0.001512 0.001516 -0.004647
# 2 -0.000418 0.010501 -0.000570 -0.004871 0.000965 -0.007744
# 3 0.000956 -0.000570 0.015176 -0.005912 0.004365 -0.005590
# 4 -0.001512 -0.004871 -0.005912 0.038777 -0.011795 0.004011
# 5 0.001516 0.000965 0.004365 -0.011795 0.031998 -0.000349
# 6 -0.004647 -0.007744 -0.005590 0.004011 -0.000349 0.055414
#
#
# Mechanical properties :
#
#
# Convention : Reuss Voigt Hill
#
# Bulk Modulus (GPa) = 27.35323 38.83463 33.09393
# Shear Modulus (GPa) = 28.56158 35.48150 32.02154
#
# Velocity S-wave (km/s) = 3.68731 4.10978 3.90426
# Velocity P-wave (km/s) = 5.58116 6.40367 6.00651
#
# Compressibility (1/GPa) = 0.03655875
#
# Stress axis : x y z
#
# Youngs Moduli (GPa) = 91.36320 95.23019 65.89549
#
# Poissons Ratio (x) = 0.03979 -0.06303
# Poissons Ratio (y) = 0.03817 0.03757
# Poissons Ratio (z) = -0.08739 0.05430
#
# Static dielectric constant tensor:
#      x y z
#    x 1.755670 0.044170 -0.004220 
#    y 0.044170 1.709160 0.000590 
#    z -0.004220 0.000590 1.805680 
# 
# From -- ./inp_files/452357.got.cif
#   From: 2010.05.17/outbox.cif.g08.bks.cpg/sg2_227_cif.got.tgz:452357.got - 2010.06.03 11:33:40.
