data_PCOD9010998
_publ_section_title
;
Structure prediction by ZEFSAII (Michael W. Deem and Ramdas Pophale) SiO2 
 PCOD9010998
Probable space group: P -1
;
_chemical_formula_sum "Si O2"
_cell_formula_units_Z 15
_cell_length_a 7.273391
_cell_length_b 17.779552
_cell_length_c 6.734646
_cell_angle_alpha 120.773314
_cell_angle_beta 62.303640
_cell_angle_gamma 127.328695
_cell_volume 579.591874
_symmetry_space_group_name_H-M "P -1"
_symmetry_group_IT_number 2
_symmetry_cell_setting 'triclinic'
loop_
_space_group_symop_operation_xyz
x,y,z
-x,-y,-z
loop_
_atom_site_type_symbol
_atom_site_label
_atom_site_fract_x
_atom_site_fract_y
_atom_site_fract_z
Si Si1 0.891816 0.410009 0.136435
Si Si2 0.250402 0.435808 0.704354
Si Si3 0.476774 0.694913 0.138744
Si Si4 0.098222 0.232213 0.275515
Si Si5 0.137520 0.900281 0.422506
Si Si6 0.500000 0.500000 0.000000
Si Si7 0.654733 0.887683 0.533750
Si Si8 0.287938 0.794923 0.890815
O O1 0.842095 0.501728 0.294112
O O2 0.775285 0.364109 0.920697
O O3 0.761741 0.318987 0.225306
O O4 0.164698 0.437159 0.991043
O O5 0.174108 0.329400 0.508412
O O6 0.517143 0.501307 0.735794
O O7 0.666760 0.746023 0.934157
O O8 0.523447 0.617420 0.136170
O O9 0.479778 0.783113 0.381614
O O10 0.966576 0.138317 0.360990
O O11 0.908120 0.213445 0.176782
O O12 0.907373 0.890767 0.407772
O O13 0.325300 0.016646 0.458771
O O14 0.229381 0.831653 0.176038
O O15 0.546207 0.874879 0.790610
#
# Coordination Sequence:
#
# PCOD9010998 Si02
#       8
#     2   2   2   2   2   1   2   2
#     4  10  22  40  64  95 139 168 228 272 334 403
#     4  10  21  40  65 100 131 181 214 283 333 401
#     4  11  23  42  66 105 133 185 224 279 339 408
#     4  12  24  42  73  96 139 178 228 276 345 396
#     4  11  25  48  67 101 137 178 227 289 333 407
#     4  10  22  40  72  96 142 170 232 274 336 408
#     4  11  25  45  71  98 139 177 230 279 345 398
#     4  12  24  45  70 101 135 184 222 286 337 405
#
# _framework density 25.880275999999999
#
# number of rings (size 3 to 8) (size 9 to 14) (size 15 to 20)
#    0.000    1.067    2.667    3.600    0.000    4.800 
#    2.400    0.000    0.000    0.000    0.000    0.000 
#    0.000    0.000    0.000    0.000    0.000    0.000 
#
# Total GULP energy -83764.801141 kJ/mol
# GULP energy per Si atom -5584.320076 kJ/mol
# Density = 2.582137 g / cm^3
# Si number density = 25.880276 Si / 1000 Ang^3
#
#
#
# Elastic Constant Matrix: (Units=GPa)
#
#
# Indices 1 2 3 4 5 6 
#
# 1 68.3733 22.3149 22.2047 -6.8147 -2.2320 -9.4153
# 2 22.3149 165.5356 26.4873 -33.2341 -10.2894 -20.6366
# 3 22.2047 26.4873 73.3488 -17.4120 -27.4073 -1.4123
# 4 -6.8147 -33.2341 -17.4120 30.1950 10.7584 10.7989
# 5 -2.2320 -10.2894 -27.4073 10.7584 28.9550 -8.5390
# 6 -9.4153 -20.6366 -1.4123 10.7989 -8.5390 32.9706
#
#
#
# Elastic Compliance Matrix: (Units=1/GPa)
#
#
# Indices 1 2 3 4 5 6 
#
# 1 0.017355 -0.001370 -0.006396 -0.001017 -0.003897 0.003148
# 2 -0.001370 0.008103 -0.000707 0.007400 0.000013 0.002230
# 3 -0.006396 -0.000707 0.025253 0.002562 0.023396 0.004033
# 4 -0.001017 0.007400 0.002562 0.057776 -0.022476 -0.020293
# 5 -0.003897 0.000013 0.023396 -0.022476 0.072408 0.026012
# 6 0.003148 0.002230 0.004033 -0.020293 0.026012 0.046181
#
#
# Mechanical properties :
#
#
# Convention : Reuss Voigt Hill
#
# Bulk Modulus (GPa) = 29.61631 49.91907 39.76769
# Shear Modulus (GPa) = 19.58651 34.17418 26.88034
#
# Velocity S-wave (km/s) = 2.75401 3.63777 3.22629
# Velocity P-wave (km/s) = 4.64555 6.08069 5.41092
#
# Compressibility (1/GPa) = 0.03376518
#
# Stress axis : x y z
#
# Youngs Moduli (GPa) = 57.62095 123.40715 39.59911
#
# Poissons Ratio (x) = 0.16906 0.25327
# Poissons Ratio (y) = 0.07894 0.02800
# Poissons Ratio (z) = 0.36854 0.08727
#
# Static dielectric constant tensor:
#      x y z
#    x 2.630000 0.133370 -0.011570 
#    y 0.133370 2.062170 -0.058580 
#    z -0.011570 -0.058580 2.111200 
# 
# From -- ./inp_files/48863.got.cif
#   From: 2010.05.17/outbox.cif.g08.bks.cpg/sg2_25_cif.got.tgz:48863.got - 2010.06.03 11:33:40.
