data_PCOD9010126
_publ_section_title
;
Structure prediction by ZEFSAII (Michael W. Deem and Ramdas Pophale) SiO2 
 PCOD9010126
Probable space group: P -1
;
_chemical_formula_sum "Si O2"
_cell_formula_units_Z 14
_cell_length_a 26.656407
_cell_length_b 5.187934
_cell_length_c 5.240262
_cell_angle_alpha 118.391338
_cell_angle_beta 93.192885
_cell_angle_gamma 76.206734
_cell_volume 617.723224
_symmetry_space_group_name_H-M "P -1"
_symmetry_group_IT_number 2
_symmetry_cell_setting 'triclinic'
loop_
_space_group_symop_operation_xyz
x,y,z
-x,-y,-z
loop_
_atom_site_type_symbol
_atom_site_label
_atom_site_fract_x
_atom_site_fract_y
_atom_site_fract_z
Si Si1 0.979609 0.860899 0.177955
Si Si2 0.455748 0.686917 0.396310
Si Si3 0.305665 0.114783 0.416997
Si Si4 0.143740 0.912990 0.778059
Si Si5 0.655165 0.275777 0.256350
Si Si6 0.440415 0.327108 0.805295
Si Si7 0.183107 0.193709 0.425453
O O1 0.917517 0.952302 0.203910
O O2 0.000000 0.000000 0.500000
O O3 0.000000 0.500000 0.000000
O O4 0.000000 0.000000 0.000000
O O5 0.500000 0.500000 0.500000
O O6 0.496670 0.763941 0.227287
O O7 0.425380 0.014651 0.621835
O O8 0.425797 0.476388 0.143975
O O9 0.324527 0.903373 0.567000
O O10 0.319257 0.437321 0.614816
O O11 0.244105 0.163179 0.399337
O O12 0.330619 0.947066 0.086665
O O13 0.156009 0.549490 0.607803
O O14 0.171672 0.026458 0.599332
O O15 0.162718 0.040087 0.103931
O O16 0.593272 0.434397 0.289557
#
# Coordination Sequence:
#
# PCOD9010126 Si02
#       7
#     2   2   2   2   2   2   2
#     4  12  24  43  67 101 144 178 225 278 336 397
#     4  10  21  40  62  87 123 158 211 255 320 375
#     4  12  26  47  68 100 132 178 219 290 331 398
#     4  12  25  43  71 101 133 186 225 278 334 399
#     4  12  27  45  71 100 136 174 223 270 353 394
#     4  10  23  38  61  92 119 166 207 263 313 405
#     4  12  24  44  69  96 135 173 237 275 335 395
#
# _framework density 22.663874
#
# number of rings (size 3 to 8) (size 9 to 14) (size 15 to 20)
#    0.000    0.571    0.000    8.571    4.000    0.000 
#    0.000    0.000    0.000    0.000    0.000    0.000 
#    0.000    0.000    0.000    0.000    0.000    0.000 
#
# Total GULP energy -78372.614142 kJ/mol
# GULP energy per Si atom -5598.043867 kJ/mol
# Density = 2.261229 g / cm^3
# Si number density = 22.663874 Si / 1000 Ang^3
#
#
#
# Elastic Constant Matrix: (Units=GPa)
#
#
# Indices 1 2 3 4 5 6 
#
# 1 71.3398 -26.7264 -18.1384 -0.3739 -3.1294 -24.6223
# 2 -26.7264 124.8955 55.0438 10.8940 7.6078 1.6409
# 3 -18.1384 55.0438 182.0490 6.4457 16.8061 -6.9440
# 4 -0.3739 10.8940 6.4457 41.9902 -4.5695 2.6722
# 5 -3.1294 7.6078 16.8061 -4.5695 25.1642 -1.7302
# 6 -24.6223 1.6409 -6.9440 2.6722 -1.7302 47.7024
#
#
#
# Elastic Compliance Matrix: (Units=1/GPa)
#
#
# Indices 1 2 3 4 5 6 
#
# 1 0.019136 0.003506 0.001194 -0.001459 0.000948 0.010047
# 2 0.003506 0.010117 -0.002454 -0.002439 -0.001345 0.001192
# 3 0.001194 -0.002454 0.006788 -0.000899 -0.003696 0.001605
# 4 -0.001459 -0.002439 -0.000899 0.025312 0.005614 -0.002014
# 5 0.000948 -0.001345 -0.003696 0.005614 0.043839 0.001273
# 6 0.010047 0.001192 0.001605 -0.002014 0.001273 0.026501
#
#
# Mechanical properties :
#
#
# Convention : Reuss Voigt Hill
#
# Bulk Modulus (GPa) = 24.67059 44.29360 34.48209
# Shear Modulus (GPa) = 35.53356 47.51171 41.52263
#
# Velocity S-wave (km/s) = 3.96390 4.58357 4.28496
# Velocity P-wave (km/s) = 5.64439 6.89915 6.30307
#
# Compressibility (1/GPa) = 0.04053410
#
# Stress axis : x y z
#
# Youngs Moduli (GPa) = 52.25768 98.83944 147.31584
#
# Poissons Ratio (x) = -0.34656 -0.17586
# Poissons Ratio (y) = -0.18323 0.36147
# Poissons Ratio (z) = -0.06238 0.24252
#
# Static dielectric constant tensor:
#      x y z
#    x 1.948290 0.171570 0.054150 
#    y 0.171570 2.007900 0.177850 
#    z 0.054150 0.177850 2.211400 
# 
# From -- ./inp_files/125676.got.cif
#   From: 2010.05.17/outbox.cif.g08.bks.cpg/sg2_63_cif.got.tgz:125676.got - 2010.06.03 11:33:40.
