data_PCOD9010515
_publ_section_title
;
Structure prediction by ZEFSAII (Michael W. Deem and Ramdas Pophale) SiO2 
 PCOD9010515
Probable space group: P -1
;
_chemical_formula_sum "Si O2"
_cell_formula_units_Z 16
_cell_length_a 16.154529
_cell_length_b 6.564797
_cell_length_c 8.773922
_cell_angle_alpha 83.670280
_cell_angle_beta 98.133810
_cell_angle_gamma 134.868460
_cell_volume 652.754882
_symmetry_space_group_name_H-M "P -1"
_symmetry_group_IT_number 2
_symmetry_cell_setting 'triclinic'
loop_
_space_group_symop_operation_xyz
x,y,z
-x,-y,-z
loop_
_atom_site_type_symbol
_atom_site_label
_atom_site_fract_x
_atom_site_fract_y
_atom_site_fract_z
Si Si1 0.897871 0.476589 0.799466
Si Si2 0.510179 0.558423 0.759450
Si Si3 0.588810 0.338756 0.027896
Si Si4 0.684451 0.051396 0.371325
Si Si5 0.821210 0.498473 0.103525
Si Si6 0.267719 0.512156 0.453776
Si Si7 0.075869 0.052564 0.659836
Si Si8 0.253627 0.071794 0.341226
O O1 0.814746 0.485925 0.675110
O O2 0.852279 0.169041 0.777588
O O3 0.876865 0.493812 0.968816
O O4 0.024791 0.757913 0.744064
O O5 0.440624 0.619767 0.818084
O O6 0.630136 0.841903 0.695330
O O7 0.423447 0.285047 0.651432
O O8 0.555684 0.467999 0.898873
O O9 0.722251 0.495808 0.031007
O O10 0.500000 0.000000 0.000000
O O11 0.743533 0.214477 0.213863
O O12 0.652257 0.197230 0.450359
O O13 0.778653 0.092128 0.494560
O O14 0.916247 0.770573 0.214843
O O15 0.201235 0.281565 0.594094
O O16 0.296462 0.375031 0.360239
O O17 0.000000 0.000000 0.500000
#
# Coordination Sequence:
#
# PCOD9010515 Si02
#       8
#     2   2   2   2   2   2   2   2
#     4  10  21  40  63  93 125 158 211 262 315 369
#     4  11  24  39  61  92 129 168 212 254 308 364
#     4  11  23  40  62  92 131 166 208 254 311 370
#     4  10  23  39  58  92 124 170 205 259 304 366
#     4  11  21  41  68  90 126 169 207 258 317 372
#     4   9  21  41  63  90 125 164 211 255 318 367
#     4   9  20  40  67  92 123 163 206 264 319 369
#     4  11  23  39  62  91 128 167 209 257 305 377
#
# _framework density 24.511499000000001
#
# number of rings (size 3 to 8) (size 9 to 14) (size 15 to 20)
#    0.000    1.750    1.250    3.000    5.250    2.000 
#    0.000    0.000    0.000    5.250    0.000    0.000 
#    0.000    0.000    0.000    0.000    0.000    0.000 
#
# Total GULP energy -89330.591509 kJ/mol
# GULP energy per Si atom -5583.161969 kJ/mol
# Density = 2.445571 g / cm^3
# Si number density = 24.511499 Si / 1000 Ang^3
#
#
#
# Elastic Constant Matrix: (Units=GPa)
#
#
# Indices 1 2 3 4 5 6 
#
# 1 45.6464 17.4792 18.3265 11.1327 -5.1556 -10.9914
# 2 17.4792 150.1431 51.6063 23.4730 -23.3513 7.4756
# 3 18.3265 51.6063 122.1488 16.1116 -11.7390 -4.4643
# 4 11.1327 23.4730 16.1116 50.2728 -3.2234 -2.5235
# 5 -5.1556 -23.3513 -11.7390 -3.2234 34.8256 -1.1173
# 6 -10.9914 7.4756 -4.4643 -2.5235 -1.1173 27.2425
#
#
#
# Elastic Compliance Matrix: (Units=1/GPa)
#
#
# Indices 1 2 3 4 5 6 
#
# 1 0.027345 -0.002121 -0.002131 -0.003707 0.001918 0.011001
# 2 -0.002121 0.009254 -0.002930 -0.002821 0.004516 -0.003951
# 3 -0.002131 -0.002930 0.010064 -0.001242 0.001046 0.001521
# 4 -0.003707 -0.002821 -0.001242 0.022436 -0.000746 0.001123
# 5 0.001918 0.004516 0.001046 -0.000746 0.032341 0.000963
# 6 0.011001 -0.003951 0.001521 0.001123 0.000963 0.042623
#
#
# Mechanical properties :
#
#
# Convention : Reuss Voigt Hill
#
# Bulk Modulus (GPa) = 30.96037 54.75137 42.85587
# Shear Modulus (GPa) = 29.55187 37.83662 33.69425
#
# Velocity S-wave (km/s) = 3.47599 3.93316 3.71162
# Velocity P-wave (km/s) = 5.36362 6.55834 5.99084
#
# Compressibility (1/GPa) = 0.03229935
#
# Stress axis : x y z
#
# Youngs Moduli (GPa) = 36.56990 108.05668 99.36049
#
# Poissons Ratio (x) = 0.22916 0.21178
# Poissons Ratio (y) = 0.07756 0.29113
# Poissons Ratio (z) = 0.07794 0.31661
#
# Static dielectric constant tensor:
#      x y z
#    x 1.981740 -0.026710 0.004420 
#    y -0.026710 2.011560 0.031890 
#    z 0.004420 0.031890 2.004520 
# 
# From -- ./inp_files/323710.got.cif
#   From: 2010.05.17/outbox.cif.g08.bks.cpg/sg2_162_cif.got.tgz:323710.got - 2010.06.03 11:33:40.
