data_PCOD9010081
_publ_section_title
;
Structure prediction by ZEFSAII (Michael W. Deem and Ramdas Pophale) SiO2 
 PCOD9010081
Probable space group: P -1
;
_chemical_formula_sum "Si O2"
_cell_formula_units_Z 14
_cell_length_a 11.704471
_cell_length_b 5.540362
_cell_length_c 12.176663
_cell_angle_alpha 113.952061
_cell_angle_beta 94.152810
_cell_angle_gamma 116.963215
_cell_volume 610.460616
_symmetry_space_group_name_H-M "P -1"
_symmetry_group_IT_number 2
_symmetry_cell_setting 'triclinic'
loop_
_space_group_symop_operation_xyz
x,y,z
-x,-y,-z
loop_
_atom_site_type_symbol
_atom_site_label
_atom_site_fract_x
_atom_site_fract_y
_atom_site_fract_z
Si Si1 0.888082 0.138227 0.928126
Si Si2 0.083145 0.423465 0.614156
Si Si3 0.596400 0.163127 0.640478
Si Si4 0.589141 0.790636 0.780637
Si Si5 0.910198 0.016851 0.159110
Si Si6 0.803361 0.168777 0.506708
Si Si7 0.695120 0.609046 0.239318
O O1 0.956808 0.003963 0.829280
O O2 0.739904 0.059973 0.873761
O O3 0.000000 0.500000 0.000000
O O4 0.881509 0.022062 0.029970
O O5 0.137272 0.539682 0.517122
O O6 0.203562 0.453799 0.698830
O O7 0.928754 0.134292 0.542376
O O8 0.060581 0.679174 0.718857
O O9 0.604996 0.489342 0.717492
O O10 0.736175 0.209905 0.615574
O O11 0.500000 0.000000 0.500000
O O12 0.553758 0.924495 0.695414
O O13 0.459375 0.669376 0.827993
O O14 0.773814 0.744217 0.156341
O O15 0.702262 0.880304 0.367451
#
# Coordination Sequence:
#
# PCOD9010081 Si02
#       7
#     2   2   2   2   2   2   2
#     4  11  26  49  72 103 133 187 240 306 354 422
#     4  10  21  40  62 102 134 186 230 289 350 422
#     4  12  25  46  69 109 146 192 232 289 350 432
#     4  12  29  44  76 104 149 188 242 291 362 415
#     4  10  24  44  72  95 139 174 245 295 356 416
#     4  10  22  36  66  94 146 183 237 279 349 421
#     4  11  23  42  66 103 136 188 226 299 346 435
#
# _framework density 22.933506000000001
#
# number of rings (size 3 to 8) (size 9 to 14) (size 15 to 20)
#    0.000    1.143    1.429    3.429   12.000    0.571 
#    0.000    2.857    0.000    0.000    0.000    0.000 
#    0.000    0.000    0.000    0.000    0.000    0.000 
#
# Total GULP energy -78185.592295 kJ/mol
# GULP energy per Si atom -5584.685164 kJ/mol
# Density = 2.288131 g / cm^3
# Si number density = 22.933506 Si / 1000 Ang^3
#
#
#
# Elastic Constant Matrix: (Units=GPa)
#
#
# Indices 1 2 3 4 5 6 
#
# 1 114.4521 63.2682 30.9063 -9.5029 20.5285 32.5040
# 2 63.2682 103.4414 26.2546 -16.0198 2.3292 20.7648
# 3 30.9063 26.2546 43.4240 -6.1550 8.0306 14.0060
# 4 -9.5029 -16.0198 -6.1550 33.7561 11.1892 4.2420
# 5 20.5285 2.3292 8.0306 11.1892 43.7259 3.3852
# 6 32.5040 20.7648 14.0060 4.2420 3.3852 50.8217
#
#
#
# Elastic Compliance Matrix: (Units=1/GPa)
#
#
# Indices 1 2 3 4 5 6 
#
# 1 0.017682 -0.007667 -0.003684 0.004107 -0.007726 -0.006989
# 2 -0.007667 0.016137 -0.003799 0.004133 0.002469 -0.001152
# 3 -0.003684 -0.003799 0.031049 0.004968 -0.004674 -0.004752
# 4 0.004107 0.004133 0.004968 0.038760 -0.012352 -0.008097
# 5 -0.007726 0.002469 -0.004674 -0.012352 0.030056 0.004250
# 6 -0.006989 -0.001152 -0.004752 -0.008097 0.004250 0.026320
#
#
# Mechanical properties :
#
#
# Convention : Reuss Voigt Hill
#
# Bulk Modulus (GPa) = 28.92864 55.79729 42.36296
# Shear Modulus (GPa) = 24.77403 35.05332 29.91367
#
# Velocity S-wave (km/s) = 3.29029 3.91381 3.61552
# Velocity P-wave (km/s) = 5.20348 6.69379 5.99512
#
# Compressibility (1/GPa) = 0.03456783
#
# Stress axis : x y z
#
# Youngs Moduli (GPa) = 56.55484 61.97107 32.20747
#
# Poissons Ratio (x) = 0.47512 0.11866
# Poissons Ratio (y) = 0.43359 0.12235
# Poissons Ratio (z) = 0.20836 0.23541
#
# Static dielectric constant tensor:
#      x y z
#    x 1.933420 -0.037440 0.003160 
#    y -0.037440 1.925040 0.053090 
#    z 0.003160 0.053090 1.882210 
# 
# From -- ./inp_files/26987.got.cif
#   From: 2010.05.17/outbox.cif.g08.bks.cpg/sg2_14_cif.got.tgz:26987.got - 2010.06.03 11:33:40.
