data_PCOD9010766
_publ_section_title
;
Structure prediction by ZEFSAII (Michael W. Deem and Ramdas Pophale) SiO2 
 PCOD9010766
Probable space group: P -1
;
_chemical_formula_sum "Si O2"
_cell_formula_units_Z 16
_cell_length_a 6.273014
_cell_length_b 19.126211
_cell_length_c 8.500580
_cell_angle_alpha 134.905125
_cell_angle_beta 104.626176
_cell_angle_gamma 66.120279
_cell_volume 659.656829
_symmetry_space_group_name_H-M "P -1"
_symmetry_group_IT_number 2
_symmetry_cell_setting 'triclinic'
loop_
_space_group_symop_operation_xyz
x,y,z
-x,-y,-z
loop_
_atom_site_type_symbol
_atom_site_label
_atom_site_fract_x
_atom_site_fract_y
_atom_site_fract_z
Si Si1 0.034433 0.707159 0.035960
Si Si2 0.684188 0.001122 0.247767
Si Si3 0.425595 0.848953 0.819004
Si Si4 0.393222 0.173226 0.681727
Si Si5 0.163376 0.845868 0.058512
Si Si6 0.549044 0.620795 0.107702
Si Si7 0.289936 0.394945 0.545607
Si Si8 0.785848 0.532387 0.689519
O O1 0.098625 0.746197 0.944168
O O2 0.270819 0.661971 0.105243
O O3 0.854835 0.804441 0.248506
O O4 0.904170 0.623903 0.859272
O O5 0.667471 0.092713 0.266569
O O6 0.501968 0.063187 0.442820
O O7 0.956087 0.944417 0.241124
O O8 0.586657 0.913134 0.019758
O O9 0.576933 0.727961 0.641783
O O10 0.206005 0.857631 0.903095
O O11 0.586231 0.172472 0.845944
O O12 0.374036 0.274836 0.732072
O O13 0.629607 0.573967 0.220473
O O14 0.652615 0.550798 0.860788
O O15 0.009497 0.428207 0.561575
O O16 0.336718 0.448598 0.475813
#
# Coordination Sequence:
#
# PCOD9010766 Si02
#       8
#     2   2   2   2   2   2   2   2
#     4  10  22  42  66  96 131 167 213 267 322 387
#     4  11  23  41  62  92 126 168 215 260 318 384
#     4  11  24  41  60  91 131 164 213 263 317 382
#     4  10  21  40  64  91 126 165 213 261 319 379
#     4  11  22  39  64  89 127 169 208 266 317 378
#     4  10  21  42  66  96 133 170 213 267 325 385
#     4  11  21  43  68  95 131 172 214 268 327 384
#     4  10  23  42  69  97 132 168 215 267 325 391
#
# _framework density 24.255033999999998
#
# number of rings (size 3 to 8) (size 9 to 14) (size 15 to 20)
#    0.000    1.500    1.250    4.875    0.000    4.500 
#    4.500   10.625    0.000    0.000    0.000    0.000 
#    0.000    0.000    0.000    0.000    0.000    0.000 
#
# Total GULP energy -89527.712689 kJ/mol
# GULP energy per Si atom -5595.482043 kJ/mol
# Density = 2.419983 g / cm^3
# Si number density = 24.255034 Si / 1000 Ang^3
#
#
#
# Elastic Constant Matrix: (Units=GPa)
#
#
# Indices 1 2 3 4 5 6 
#
# 1 91.5484 62.8042 48.9144 -7.4461 -33.1588 -2.1566
# 2 62.8042 134.5739 49.4446 -7.5908 -21.0470 6.6252
# 3 48.9144 49.4446 132.3276 -1.7501 -34.2048 -7.3574
# 4 -7.4461 -7.5908 -1.7501 48.1553 -4.3575 -11.6497
# 5 -33.1588 -21.0470 -34.2048 -4.3575 36.3773 6.4518
# 6 -2.1566 6.6252 -7.3574 -11.6497 6.4518 36.6506
#
#
#
# Elastic Compliance Matrix: (Units=1/GPa)
#
#
# Indices 1 2 3 4 5 6 
#
# 1 0.022753 -0.007485 -0.001574 0.003884 0.015230 0.000930
# 2 -0.007485 0.011571 -0.002149 -0.000227 -0.001690 -0.002738
# 3 -0.001574 -0.002149 0.010966 0.000844 0.007477 0.001449
# 4 0.003884 -0.000227 0.000844 0.023557 0.005799 0.006906
# 5 0.015230 -0.001690 0.007477 0.005799 0.048838 -0.004051
# 6 0.000930 -0.002738 0.001449 0.006906 -0.004051 0.031033
#
#
# Mechanical properties :
#
#
# Convention : Reuss Voigt Hill
#
# Bulk Modulus (GPa) = 43.71673 75.64182 59.67927
# Shear Modulus (GPa) = 27.97046 37.38911 32.67979
#
# Velocity S-wave (km/s) = 3.39954 3.93045 3.67460
# Velocity P-wave (km/s) = 5.78550 7.20081 6.53160
#
# Compressibility (1/GPa) = 0.02287454
#
# Stress axis : x y z
#
# Youngs Moduli (GPa) = 43.95005 86.42078 91.18840
#
# Poissons Ratio (x) = 0.64687 0.14354
# Poissons Ratio (y) = 0.32897 0.19596
# Poissons Ratio (z) = 0.06918 0.18571
#
# Static dielectric constant tensor:
#      x y z
#    x 1.911760 0.028510 -0.005170 
#    y 0.028510 1.927390 -0.017950 
#    z -0.005170 -0.017950 1.969020 
# 
# From -- ./inp_files/141616.got.cif
#   From: 2010.05.17/outbox.cif.g08.bks.cpg/sg2_71_cif.got.tgz:141616.got - 2010.06.03 11:33:40.
