data_PCOD9010527
_publ_section_title
;
Structure prediction by ZEFSAII (Michael W. Deem and Ramdas Pophale) SiO2 
 PCOD9010527
Probable space group: P -1
;
_chemical_formula_sum "Si O2"
_cell_formula_units_Z 16
_cell_length_a 12.413564
_cell_length_b 12.800799
_cell_length_c 5.429780
_cell_angle_alpha 102.031475
_cell_angle_beta 85.647888
_cell_angle_gamma 125.673634
_cell_volume 684.376059
_symmetry_space_group_name_H-M "P -1"
_symmetry_group_IT_number 2
_symmetry_cell_setting 'triclinic'
loop_
_space_group_symop_operation_xyz
x,y,z
-x,-y,-z
loop_
_atom_site_type_symbol
_atom_site_label
_atom_site_fract_x
_atom_site_fract_y
_atom_site_fract_z
Si Si1 0.145788 0.560364 0.721880
Si Si2 0.469116 0.393989 0.248022
Si Si3 0.014431 0.267309 0.682590
Si Si4 0.417605 0.204937 0.534493
Si Si5 0.344755 0.936808 0.513508
Si Si6 0.703926 0.323550 0.747952
Si Si7 0.296455 0.348023 0.861754
Si Si8 0.122472 0.795558 0.826970
O O1 0.037513 0.407985 0.718033
O O2 0.219452 0.583989 0.458523
O O3 0.094362 0.652119 0.768005
O O4 0.241203 0.610693 0.967155
O O5 0.500000 0.500000 0.500000
O O6 0.467996 0.275326 0.297035
O O7 0.594341 0.493900 0.103893
O O8 0.323290 0.334710 0.135250
O O9 0.158379 0.304348 0.752198
O O10 0.955798 0.200645 0.394157
O O11 0.923846 0.187984 0.894919
O O12 0.549023 0.258945 0.699303
O O13 0.341082 0.262972 0.684195
O O14 0.333693 0.049038 0.464501
O O15 0.278447 0.795387 0.330195
O O16 0.277312 0.898395 0.776797
O O17 0.500000 0.000000 0.500000
#
# Coordination Sequence:
#
# PCOD9010527 Si02
#       8
#     2   2   2   2   2   2   2   2
#     4  11  22  41  66  96 131 170 211 263 329 387
#     4   9  20  37  63  89 135 160 221 264 318 368
#     4  12  25  40  68  93 137 175 212 257 329 387
#     4  10  21  40  63  93 130 171 211 269 324 378
#     4   9  21  46  67  93 123 165 216 274 323 374
#     4  10  22  38  66 101 128 162 219 267 326 381
#     4  10  23  38  61  99 130 172 212 266 318 385
#     4  11  24  44  64  96 130 170 218 268 314 390
#
# _framework density 23.378962000000001
#
# number of rings (size 3 to 8) (size 9 to 14) (size 15 to 20)
#    0.000    1.750    0.000    3.750   10.500    0.000 
#    6.750   10.000    0.000    0.000    0.000    0.000 
#    0.000    0.000    0.000    0.000    0.000    0.000 
#
# Total GULP energy -89351.910198 kJ/mol
# GULP energy per Si atom -5584.494387 kJ/mol
# Density = 2.332575 g / cm^3
# Si number density = 23.378962 Si / 1000 Ang^3
#
#
#
# Elastic Constant Matrix: (Units=GPa)
#
#
# Indices 1 2 3 4 5 6 
#
# 1 109.6532 29.5936 54.7281 -13.3983 15.7624 7.5825
# 2 29.5936 136.2942 36.8839 -17.5841 -9.1269 -4.0663
# 3 54.7281 36.8839 132.7459 -25.5798 29.0328 9.3939
# 4 -13.3983 -17.5841 -25.5798 25.2016 -1.3087 -0.5778
# 5 15.7624 -9.1269 29.0328 -1.3087 36.2512 2.3744
# 6 7.5825 -4.0663 9.3939 -0.5778 2.3744 38.2729
#
#
#
# Elastic Compliance Matrix: (Units=1/GPa)
#
#
# Indices 1 2 3 4 5 6 
#
# 1 0.011992 -0.001693 -0.003495 0.001473 -0.002690 -0.001509
# 2 -0.001693 0.009173 -0.002414 0.003347 0.004992 0.001643
# 3 -0.003495 -0.002414 0.013830 0.009943 -0.009661 -0.002209
# 4 0.001473 0.003347 0.009943 0.052562 -0.005783 -0.001224
# 5 -0.002690 0.004992 -0.009661 -0.005783 0.037473 0.001022
# 6 -0.001509 0.001643 -0.002209 -0.001224 0.001022 0.027062
#
#
# Mechanical properties :
#
#
# Convention : Reuss Voigt Hill
#
# Bulk Modulus (GPa) = 50.52756 69.01161 59.76958
# Shear Modulus (GPa) = 28.75349 37.11097 32.93223
#
# Velocity S-wave (km/s) = 3.51078 3.98850 3.75724
# Velocity P-wave (km/s) = 6.17199 7.12696 6.66660
#
# Compressibility (1/GPa) = 0.01979118
#
# Stress axis : x y z
#
# Youngs Moduli (GPa) = 83.39093 109.01431 72.30752
#
# Poissons Ratio (x) = 0.18458 0.25269
# Poissons Ratio (y) = 0.14120 0.17454
# Poissons Ratio (z) = 0.29143 0.26315
#
# Static dielectric constant tensor:
#      x y z
#    x 1.956240 0.020810 -0.013760 
#    y 0.020810 1.880550 -0.056020 
#    z -0.013760 -0.056020 2.002460 
# 
# From -- ./inp_files/71296.got.cif
#   From: 2010.05.17/outbox.cif.g08.bks.cpg/sg2_36_cif.got.tgz:71296.got - 2010.06.03 11:33:40.
