data_PCOD9010698
_publ_section_title
;
Structure prediction by ZEFSAII (Michael W. Deem and Ramdas Pophale) SiO2 
 PCOD9010698
Probable space group: P -1
;
_chemical_formula_sum "Si O2"
_cell_formula_units_Z 14
_cell_length_a 17.169541
_cell_length_b 8.777098
_cell_length_c 4.939725
_cell_angle_alpha 120.650707
_cell_angle_beta 111.378966
_cell_angle_gamma 64.899653
_cell_volume 569.332669
_symmetry_space_group_name_H-M "P -1"
_symmetry_group_IT_number 2
_symmetry_cell_setting 'triclinic'
loop_
_space_group_symop_operation_xyz
x,y,z
-x,-y,-z
loop_
_atom_site_type_symbol
_atom_site_label
_atom_site_fract_x
_atom_site_fract_y
_atom_site_fract_z
Si Si1 0.703347 0.414959 0.335458
Si Si2 0.879958 0.467925 0.437530
Si Si3 0.570540 0.773750 0.693534
Si Si4 0.079728 0.923815 0.825916
Si Si5 0.990606 0.687425 0.998063
Si Si6 0.256903 0.834350 0.313908
Si Si7 0.613175 0.963961 0.415233
O O1 0.777910 0.508698 0.413030
O O2 0.619642 0.566947 0.481808
O O3 0.742648 0.265661 0.489190
O O4 0.682501 0.312591 0.953506
O O5 0.915173 0.644700 0.659172
O O6 0.919407 0.369568 0.116064
O O7 0.918968 0.272948 0.486050
O O8 0.608817 0.905675 0.666676
O O9 0.467028 0.851910 0.583754
O O10 0.592412 0.808449 0.060402
O O11 0.166828 0.891002 0.083707
O O12 0.061488 0.105116 0.779452
O O13 0.000000 0.000000 0.000000
O O14 0.000000 0.500000 0.000000
O O15 0.297363 0.002787 0.532937
#
# Coordination Sequence:
#
# PCOD9010698 Si02
#       7
#     2   2   2   2   2   2   2
#     4  11  24  41  65  93 134 169 220 272 333 387
#     4   9  22  40  55  92 124 163 218 275 323 396
#     4  10  22  42  67  99 132 178 203 284 327 391
#     4   9  21  42  59  87 129 169 212 278 329 379
#     4  10  21  40  64  89 118 173 223 270 333 397
#     4  11  24  43  63  98 126 176 222 272 327 403
#     4  10  22  42  67  97 137 166 227 258 338 399
#
# _framework density 24.590191999999998
#
# number of rings (size 3 to 8) (size 9 to 14) (size 15 to 20)
#    0.000    2.000    0.000    1.714    8.000    1.714 
#   12.857    0.000    0.000    0.000    0.000    0.000 
#    0.000    0.000    0.000    0.000    0.000    0.000 
#
# Total GULP energy -78081.077594 kJ/mol
# GULP energy per Si atom -5577.219828 kJ/mol
# Density = 2.453422 g / cm^3
# Si number density = 24.590192 Si / 1000 Ang^3
#
#
#
# Elastic Constant Matrix: (Units=GPa)
#
#
# Indices 1 2 3 4 5 6 
#
# 1 59.6496 4.5617 16.8112 -7.1139 8.1520 11.8977
# 2 4.5617 68.6045 19.2561 8.8477 2.1007 5.4103
# 3 16.8112 19.2561 -21.7642 10.1798 -31.7774 -11.9269
# 4 -7.1139 8.8477 10.1798 43.0873 4.1761 -14.6265
# 5 8.1520 2.1007 -31.7774 4.1761 36.4670 -0.5373
# 6 11.8977 5.4103 -11.9269 -14.6265 -0.5373 24.7331
#
#
#
# Elastic Compliance Matrix: (Units=1/GPa)
#
#
# Indices 1 2 3 4 5 6 
#
# 1 0.015276 -0.002824 0.007016 0.000071 0.002805 -0.003244
# 2 -0.002824 0.014538 0.004010 -0.005895 0.003915 -0.003289
# 3 0.007016 0.004010 -0.012338 0.001170 -0.012829 -0.009788
# 4 0.000071 -0.005895 0.001170 0.031211 -0.001932 0.020235
# 5 0.002805 0.003915 -0.012829 -0.001932 0.015476 -0.009199
# 6 -0.003244 -0.003289 -0.009788 0.020235 -0.009199 0.049758
#
#
# Mechanical properties :
#
#
# Convention : Reuss Voigt Hill
#
# Bulk Modulus (GPa) = 29.51631 20.86087 25.18859
# Shear Modulus (GPa) = 45.95124 25.24821 35.59972
#
# Velocity S-wave (km/s) = 4.32751 3.20778 3.80902
# Velocity P-wave (km/s) = 6.08270 4.71399 5.44155
#
# Compressibility (1/GPa) = 0.03387957
#
# Stress axis : x y z
#
# Youngs Moduli (GPa) = 65.46424 68.78421 -81.05250
#
# Poissons Ratio (x) = 0.19425 0.56863
# Poissons Ratio (y) = 0.18488 0.32504
# Poissons Ratio (z) = -0.45927 -0.27584
#
# Static dielectric constant tensor:
#      x y z
#    x 2.458880 0.548870 0.189460 
#    y 0.548870 2.710480 -0.074490 
#    z 0.189460 -0.074490 2.350660 
# 
# From -- ./inp_files/105841.got.cif
#   From: 2010.05.17/outbox.cif.g08.bks.cpg/sg2_53_cif.got.tgz:105841.got - 2010.06.03 11:33:40.
