data_PCOD9010316
_publ_section_title
;
Structure prediction by ZEFSAII (Michael W. Deem and Ramdas Pophale) SiO2 
 PCOD9010316
Probable space group: P -1
;
_chemical_formula_sum "Si O2"
_cell_formula_units_Z 14
_cell_length_a 11.531759
_cell_length_b 5.093797
_cell_length_c 12.431530
_cell_angle_alpha 91.265790
_cell_angle_beta 128.867008
_cell_angle_gamma 99.626317
_cell_volume 552.829719
_symmetry_space_group_name_H-M "P -1"
_symmetry_group_IT_number 2
_symmetry_cell_setting 'triclinic'
loop_
_space_group_symop_operation_xyz
x,y,z
-x,-y,-z
loop_
_atom_site_type_symbol
_atom_site_label
_atom_site_fract_x
_atom_site_fract_y
_atom_site_fract_z
Si Si1 0.115603 0.899418 0.762304
Si Si2 0.393189 0.274332 0.828500
Si Si3 0.098366 0.501752 0.224308
Si Si4 0.576147 0.277623 0.485699
Si Si5 0.123957 0.239148 0.023004
Si Si6 0.545303 0.820564 0.830447
Si Si7 0.894561 0.635514 0.368573
O O1 0.280229 0.115927 0.854682
O O2 0.028213 0.078482 0.637690
O O3 0.158646 0.622551 0.744388
O O4 0.994218 0.780516 0.782099
O O5 0.487637 0.579945 0.880799
O O6 0.255263 0.297749 0.665280
O O7 0.498724 0.085988 0.847601
O O8 0.240636 0.640430 0.382928
O O9 0.163652 0.461408 0.143379
O O10 0.962131 0.650866 0.122667
O O11 0.500000 0.500000 0.500000
O O12 0.532568 0.249185 0.333695
O O13 0.500000 0.000000 0.500000
O O14 0.275038 0.144848 0.081657
O O15 0.000000 0.000000 0.000000
O O16 0.000000 0.500000 0.500000
#
# Coordination Sequence:
#
# PCOD9010316 Si02
#       7
#     2   2   2   2   2   2   2
#     4  10  23  41  69 102 150 186 244 291 367 436
#     4  10  23  43  68 108 146 191 235 293 374 436
#     4  11  27  47  73 109 144 198 244 314 359 442
#     4  12  26  46  70 109 147 186 246 300 368 424
#     4  11  27  49  76 103 144 197 258 298 374 432
#     4  12  24  46  75 104 149 191 236 306 367 437
#     4  10  21  40  63 101 147 190 233 284 356 440
#
# _framework density 25.324252999999999
#
# number of rings (size 3 to 8) (size 9 to 14) (size 15 to 20)
#    0.857    0.286    2.857    2.143    8.000    0.000 
#    0.000    1.429    0.000    0.000    0.000    0.000 
#    0.000    0.000    0.000    0.000    0.000    0.000 
#
# Total GULP energy -78157.554856 kJ/mol
# GULP energy per Si atom -5582.682490 kJ/mol
# Density = 2.526661 g / cm^3
# Si number density = 25.324253 Si / 1000 Ang^3
#
#
#
# Elastic Constant Matrix: (Units=GPa)
#
#
# Indices 1 2 3 4 5 6 
#
# 1 107.7200 32.9772 66.3976 -16.8460 36.6150 12.3187
# 2 32.9772 165.7540 50.1555 -41.7916 13.9157 19.5307
# 3 66.3976 50.1555 153.2612 -15.7727 35.4233 16.9084
# 4 -16.8460 -41.7916 -15.7727 48.3268 -3.7881 5.1427
# 5 36.6150 13.9157 35.4233 -3.7881 44.5737 -11.0133
# 6 12.3187 19.5307 16.9084 5.1427 -11.0133 61.9058
#
#
#
# Elastic Compliance Matrix: (Units=1/GPa)
#
#
# Indices 1 2 3 4 5 6 
#
# 1 0.016683 0.000550 -0.003641 0.004707 -0.011815 -0.004991
# 2 0.000550 0.008892 -0.001434 0.007611 -0.002323 -0.003568
# 3 -0.003641 -0.001434 0.010120 0.000660 -0.005181 -0.002563
# 4 0.004707 0.007611 0.000660 0.029408 -0.006005 -0.007029
# 5 -0.011815 -0.002323 -0.005181 -0.006005 0.039441 0.012014
# 6 -0.004991 -0.003568 -0.002563 -0.007029 0.012014 0.021694
#
#
# Mechanical properties :
#
#
# Convention : Reuss Voigt Hill
#
# Bulk Modulus (GPa) = 37.53418 80.64399 59.08908
# Shear Modulus (GPa) = 34.68136 49.44158 42.06147
#
# Velocity S-wave (km/s) = 3.70468 4.42332 4.07986
# Velocity P-wave (km/s) = 5.75788 7.61587 6.75110
#
# Compressibility (1/GPa) = 0.02664238
#
# Stress axis : x y z
#
# Youngs Moduli (GPa) = 59.94303 112.45990 98.81504
#
# Poissons Ratio (x) = -0.06182 0.35982
# Poissons Ratio (y) = -0.03295 0.14174
# Poissons Ratio (z) = 0.21828 0.16131
#
# Static dielectric constant tensor:
#      x y z
#    x 2.026570 -0.085460 -0.115260 
#    y -0.085460 2.000850 0.082360 
#    z -0.115260 0.082360 2.183410 
# 
# From -- ./inp_files/509779.got.cif
#   From: 2010.05.17/outbox.cif.g08.bks.cpg/sg2_255_cif.got.tgz:509779.got - 2010.06.03 11:33:40.
