data_PCOD9010294
_publ_section_title
;
Structure prediction by ZEFSAII (Michael W. Deem and Ramdas Pophale) SiO2 
 PCOD9010294
Probable space group: P -1
;
_chemical_formula_sum "Si O2"
_cell_formula_units_Z 16
_cell_length_a 12.326274
_cell_length_b 9.275214
_cell_length_c 7.577333
_cell_angle_alpha 69.967145
_cell_angle_beta 95.418809
_cell_angle_gamma 69.798475
_cell_volume 741.260274
_symmetry_space_group_name_H-M "P -1"
_symmetry_group_IT_number 2
_symmetry_cell_setting 'triclinic'
loop_
_space_group_symop_operation_xyz
x,y,z
-x,-y,-z
loop_
_atom_site_type_symbol
_atom_site_label
_atom_site_fract_x
_atom_site_fract_y
_atom_site_fract_z
Si Si1 0.295383 0.835857 0.377545
Si Si2 0.349270 0.506650 0.658843
Si Si3 0.892675 0.690934 0.116011
Si Si4 0.089335 0.804820 0.124768
Si Si5 0.500872 0.867224 0.198574
Si Si6 0.125124 0.159295 0.339726
Si Si7 0.129660 0.653459 0.814272
Si Si8 0.258304 0.279820 0.578369
O O1 0.384871 0.652924 0.535582
O O2 0.194644 0.808032 0.259700
O O3 0.374742 0.908709 0.249414
O O4 0.218995 0.968748 0.456534
O O5 0.450589 0.323821 0.792763
O O6 0.254481 0.592878 0.761073
O O7 0.272616 0.454605 0.523546
O O8 0.905894 0.506745 0.135993
O O9 0.791164 0.747870 0.226742
O O10 0.006377 0.709859 0.213744
O O11 0.871369 0.795087 0.886429
O O12 0.140181 0.715091 0.984771
O O13 0.000000 0.000000 0.000000
O O14 0.604816 0.851570 0.360823
O O15 0.500000 0.000000 0.000000
O O16 0.173259 0.269643 0.419084
O O17 0.988347 0.199216 0.346323
#
# Coordination Sequence:
#
# PCOD9010294 Si02
#       8
#     2   2   2   2   2   2   2   2
#     4  12  24  40  65  98 139 164 220 277 336 385
#     4   9  24  42  63  98 128 169 218 286 323 385
#     4  10  21  40  62  96 134 169 227 260 317 398
#     4  11  22  37  62  99 135 177 204 271 338 393
#     4  10  23  47  70  88 127 180 228 272 322 402
#     4  11  22  38  64 102 129 176 213 273 329 402
#     4  10  22  40  63  95 137 169 220 263 326 404
#     4   9  23  41  69  91 125 178 224 266 329 388
#
# _framework density 21.584861
#
# number of rings (size 3 to 8) (size 9 to 14) (size 15 to 20)
#    0.750    1.000    2.500    2.625    5.250    3.000 
#    0.000    0.625    0.000    0.000    0.000    0.000 
#    0.000    0.000    0.000    0.000    0.000    0.000 
#
# Total GULP energy -89203.259940 kJ/mol
# GULP energy per Si atom -5575.203746 kJ/mol
# Density = 2.153573 g / cm^3
# Si number density = 21.584861 Si / 1000 Ang^3
#
#
#
# Elastic Constant Matrix: (Units=GPa)
#
#
# Indices 1 2 3 4 5 6 
#
# 1 48.4679 -2.3579 4.1763 10.7958 -5.5014 -11.2504
# 2 -2.3579 91.7962 6.5794 -0.1614 -6.3130 -10.7520
# 3 4.1763 6.5794 22.8223 -7.1251 -1.3432 3.1255
# 4 10.7958 -0.1614 -7.1251 35.6180 5.1649 7.2835
# 5 -5.5014 -6.3130 -1.3432 5.1649 18.3696 -3.4498
# 6 -11.2504 -10.7520 3.1255 7.2835 -3.4498 35.7629
#
#
#
# Elastic Compliance Matrix: (Units=1/GPa)
#
#
# Indices 1 2 3 4 5 6 
#
# 1 0.033659 0.005658 -0.015633 -0.020284 0.020292 0.019744
# 2 0.005658 0.013177 -0.007401 -0.006185 0.009020 0.008518
# 3 -0.015633 -0.007401 0.057249 0.021589 -0.012441 -0.017743
# 4 -0.020284 -0.006185 0.021589 0.046438 -0.023787 -0.021879
# 5 0.020292 0.009020 -0.012441 -0.023787 0.073548 0.022122
# 6 0.019744 0.008518 -0.017743 -0.021879 0.022122 0.044875
#
#
# Mechanical properties :
#
#
# Convention : Reuss Voigt Hill
#
# Bulk Modulus (GPa) = 14.42317 19.98689 17.20503
# Shear Modulus (GPa) = 15.29955 28.26267 21.78111
#
# Velocity S-wave (km/s) = 2.66524 3.62245 3.18007
# Velocity P-wave (km/s) = 4.02093 5.17455 4.63378
#
# Compressibility (1/GPa) = 0.06933291
#
# Stress axis : x y z
#
# Youngs Moduli (GPa) = 29.70995 75.89204 17.46759
#
# Poissons Ratio (x) = -0.42936 0.27306
# Poissons Ratio (y) = -0.16808 0.12927
# Poissons Ratio (z) = 0.46444 0.56165
#
# Static dielectric constant tensor:
#      x y z
#    x 1.796000 -0.019130 0.000470 
#    y -0.019130 1.822470 -0.063170 
#    z 0.000470 -0.063170 1.813130 
# 
# From -- ./inp_files/243569.got.cif
#   From: 2010.05.17/outbox.cif.g08.bks.cpg/sg2_122_cif.got.tgz:243569.got - 2010.06.03 11:33:40.
