data_PCOD9010340
_publ_section_title
;
Structure prediction by ZEFSAII (Michael W. Deem and Ramdas Pophale) SiO2 
 PCOD9010340
Probable space group: P -1
;
_chemical_formula_sum "Si O2"
_cell_formula_units_Z 16
_cell_length_a 10.529804
_cell_length_b 9.043029
_cell_length_c 10.956305
_cell_angle_alpha 51.813478
_cell_angle_beta 126.234825
_cell_angle_gamma 124.241255
_cell_volume 628.598752
_symmetry_space_group_name_H-M "P -1"
_symmetry_group_IT_number 2
_symmetry_cell_setting 'triclinic'
loop_
_space_group_symop_operation_xyz
x,y,z
-x,-y,-z
loop_
_atom_site_type_symbol
_atom_site_label
_atom_site_fract_x
_atom_site_fract_y
_atom_site_fract_z
Si Si1 0.645033 0.700313 0.507668
Si Si2 0.663794 0.684454 0.001990
Si Si3 0.017106 0.789956 0.153217
Si Si4 0.295838 0.765686 0.956226
Si Si5 0.100857 0.713568 0.498554
Si Si6 0.953884 0.583445 0.744766
Si Si7 0.438014 0.911370 0.692662
Si Si8 0.638350 0.799820 0.186705
O O1 0.500000 0.500000 0.500000
O O2 0.804824 0.655444 0.675676
O O3 0.707257 0.781773 0.366163
O O4 0.575069 0.867367 0.442185
O O5 0.610982 0.861278 0.816889
O O6 0.500000 0.500000 0.000000
O O7 0.832035 0.650893 0.074785
O O8 0.704274 0.716451 0.151837
O O9 0.068550 0.831718 0.303243
O O10 0.114096 0.649702 0.217052
O O11 0.000000 0.000000 0.000000
O O12 0.372199 0.840953 0.827564
O O13 0.107184 0.641604 0.896147
O O14 0.316680 0.968546 0.935769
O O15 0.439827 0.690589 0.132468
O O16 0.298903 0.772205 0.596445
O O17 0.000000 0.500000 0.500000
O O18 0.028865 0.707465 0.598418
#
# Coordination Sequence:
#
# PCOD9010340 Si02
#       8
#     2   2   2   2   2   2   2   2
#     4  11  24  39  58  85 126 165 201 254 305 354
#     4  11  21  39  67  90 121 161 205 250 300 374
#     4  11  24  39  60  92 126 159 198 260 312 356
#     4   8  16  35  62  90 114 147 201 255 291 351
#     4   9  18  39  66  89 117 159 206 246 306 372
#     4  10  21  40  63  86 121 161 209 248 299 376
#     4   9  20  37  60  90 117 152 203 248 296 365
#     4   9  18  36  63  91 116 155 204 248 296 361
#
# _framework density 25.453438999999999
#
# number of rings (size 3 to 8) (size 9 to 14) (size 15 to 20)
#    0.000    2.250    0.000    4.500    1.750    6.500 
#    4.500    1.250    0.000    0.000    0.000    0.000 
#    0.000    0.000    0.000    0.000    0.000    0.000 
#
# Total GULP energy -89209.486572 kJ/mol
# GULP energy per Si atom -5575.592911 kJ/mol
# Density = 2.539551 g / cm^3
# Si number density = 25.453439 Si / 1000 Ang^3
#
#
#
# Elastic Constant Matrix: (Units=GPa)
#
#
# Indices 1 2 3 4 5 6 
#
# 1 39.1362 12.8546 19.9448 -2.9842 21.6861 5.5290
# 2 12.8546 85.3969 23.7706 9.6600 12.0450 -2.9651
# 3 19.9448 23.7706 108.0793 2.1910 12.7602 0.8985
# 4 -2.9842 9.6600 2.1910 45.1326 7.0478 8.8480
# 5 21.6861 12.0450 12.7602 7.0478 42.7240 -2.1783
# 6 5.5290 -2.9651 0.8985 8.8480 -2.1783 21.7127
#
#
#
# Elastic Compliance Matrix: (Units=1/GPa)
#
#
# Indices 1 2 3 4 5 6 
#
# 1 0.046165 -0.004243 -0.004865 0.011674 -0.023691 -0.019268
# 2 -0.004243 0.013575 -0.002144 -0.003966 -0.000143 0.004625
# 3 -0.004865 -0.002144 0.010624 -0.000524 0.000024 0.000723
# 4 0.011674 -0.003966 -0.000524 0.028560 -0.010186 -0.016153
# 5 -0.023691 -0.000143 0.000024 -0.010186 0.037857 0.013961
# 6 -0.019268 0.004625 0.000723 -0.016153 0.013961 0.059547
#
#
# Mechanical properties :
#
#
# Convention : Reuss Voigt Hill
#
# Bulk Modulus (GPa) = 20.89455 38.41695 29.65575
# Shear Modulus (GPa) = 21.29614 33.65001 27.47307
#
# Velocity S-wave (km/s) = 2.89566 3.63991 3.28890
# Velocity P-wave (km/s) = 4.40529 5.72634 5.10870
#
# Compressibility (1/GPa) = 0.04785938
#
# Stress axis : x y z
#
# Youngs Moduli (GPa) = 21.66147 73.66562 94.13038
#
# Poissons Ratio (x) = 0.31254 0.45799
# Poissons Ratio (y) = 0.09190 0.20180
# Poissons Ratio (z) = 0.10539 0.15792
#
# Static dielectric constant tensor:
#      x y z
#    x 2.107800 0.048780 -0.063330 
#    y 0.048780 2.062030 -0.086140 
#    z -0.063330 -0.086140 2.328840 
# 
# From -- ./inp_files/419027.got.cif
#   From: 2010.05.17/outbox.cif.g08.bks.cpg/sg2_210_cif.got.tgz:419027.got - 2010.06.03 11:33:40.
