data_PCOD9010280
_publ_section_title
;
Structure prediction by ZEFSAII (Michael W. Deem and Ramdas Pophale) SiO2 
 PCOD9010280
Probable space group: P -1
;
_chemical_formula_sum "Si O2"
_cell_formula_units_Z 14
_cell_length_a 9.210885
_cell_length_b 14.500807
_cell_length_c 9.557183
_cell_angle_alpha 129.484606
_cell_angle_beta 76.739692
_cell_angle_gamma 141.263068
_cell_volume 514.024734
_symmetry_space_group_name_H-M "P -1"
_symmetry_group_IT_number 2
_symmetry_cell_setting 'triclinic'
loop_
_space_group_symop_operation_xyz
x,y,z
-x,-y,-z
loop_
_atom_site_type_symbol
_atom_site_label
_atom_site_fract_x
_atom_site_fract_y
_atom_site_fract_z
Si Si1 0.577554 0.366319 0.394324
Si Si2 0.000000 0.000000 0.000000
Si Si3 0.861427 0.181922 0.247027
Si Si4 0.934711 0.207007 0.652659
Si Si5 0.000000 0.500000 0.000000
Si Si6 0.424856 0.247888 0.833980
Si Si7 0.322571 0.948124 0.142569
Si Si8 0.539126 0.507137 0.803818
O O1 0.500530 0.182837 0.287138
O O2 0.591629 0.464937 0.617140
O O3 0.902725 0.590696 0.496953
O O4 0.321559 0.230128 0.223941
O O5 0.081879 0.918937 0.856130
O O6 0.545967 0.999115 0.183482
O O7 0.851077 0.207502 0.106279
O O8 0.246403 0.373653 0.720678
O O9 0.763504 0.987891 0.401641
O O10 0.868075 0.151430 0.780776
O O11 0.867040 0.300692 0.737460
O O12 0.291210 0.621657 0.053953
O O13 0.508050 0.391736 0.825470
O O14 0.269330 0.244374 0.966089
#
# Coordination Sequence:
#
# PCOD9010280 Si02
#       8
#     2   1   2   2   1   2   2   2
#     4  11  22  43  71  99 133 179 226 292 336 410
#     4  10  24  46  68 100 136 174 232 284 354 396
#     4  10  23  44  66 100 131 177 232 285 335 412
#     4  11  22  43  65  96 143 177 225 282 332 421
#     4  10  24  40  58  96 140 180 224 266 344 404
#     4  10  21  40  62  95 138 175 219 276 331 416
#     4  10  23  41  70  97 132 182 232 277 342 401
#     4  10  23  38  68 101 127 177 232 269 347 404
#
# _framework density 27.236042000000001
#
# number of rings (size 3 to 8) (size 9 to 14) (size 15 to 20)
#    0.000    1.714    1.429    1.714    6.000    1.143 
#   12.857    0.000    0.000    0.000    0.000    0.000 
#    0.000    0.000    0.000    0.000    0.000    0.000 
#
# Total GULP energy -77972.945591 kJ/mol
# GULP energy per Si atom -5569.496114 kJ/mol
# Density = 2.717405 g / cm^3
# Si number density = 27.236042 Si / 1000 Ang^3
#
#
#
# Elastic Constant Matrix: (Units=GPa)
#
#
# Indices 1 2 3 4 5 6 
#
# 1 161.3419 44.5694 54.9869 20.9716 -12.3172 21.0162
# 2 44.5694 42.7650 51.9715 -11.8576 -1.7439 6.7834
# 3 54.9869 51.9715 176.2136 13.3399 -9.2908 14.5056
# 4 20.9716 -11.8576 13.3399 50.5352 10.5519 9.0496
# 5 -12.3172 -1.7439 -9.2908 10.5519 59.6333 3.8357
# 6 21.0162 6.7834 14.5056 9.0496 3.8357 35.2383
#
#
#
# Elastic Compliance Matrix: (Units=1/GPa)
#
#
# Indices 1 2 3 4 5 6 
#
# 1 0.012662 -0.019394 0.003081 -0.011102 0.004669 -0.002744
# 2 -0.019394 0.076609 -0.019442 0.033858 -0.010611 -0.002718
# 3 0.003081 -0.019442 0.011414 -0.009464 0.003569 -0.000752
# 4 -0.011102 0.033858 -0.009464 0.037578 -0.009127 -0.004657
# 5 0.004669 -0.010611 0.003569 -0.009127 0.019724 -0.002014
# 6 -0.002744 -0.002718 -0.000752 -0.004657 -0.002014 0.032263
#
#
# Mechanical properties :
#
#
# Convention : Reuss Voigt Hill
#
# Bulk Modulus (GPa) = 34.27379 75.93067 55.10223
# Shear Modulus (GPa) = 18.41728 44.33421 31.37575
#
# Velocity S-wave (km/s) = 2.60322 4.03895 3.39779
# Velocity P-wave (km/s) = 4.65263 7.04912 5.97231
#
# Compressibility (1/GPa) = 0.02917681
#
# Stress axis : x y z
#
# Youngs Moduli (GPa) = 78.97506 13.05328 87.61137
#
# Poissons Ratio (x) = 0.25315 -0.26995
# Poissons Ratio (y) = 1.53161 1.70333
# Poissons Ratio (z) = -0.24334 0.25378
#
# Static dielectric constant tensor:
#      x y z
#    x 2.203240 0.036280 -0.130280 
#    y 0.036280 2.286860 -0.112680 
#    z -0.130280 -0.112680 2.424990 
# 
# From -- ./inp_files/391791.got.cif
#   From: 2010.05.17/outbox.cif.g08.bks.cpg/sg2_196_cif.got.tgz:391791.got - 2010.06.03 11:33:40.
