data_PCOD9010045
_publ_section_title
;
Structure prediction by ZEFSAII (Michael W. Deem and Ramdas Pophale) SiO2 
 PCOD9010045
Probable space group: P -1
;
_chemical_formula_sum "Si O2"
_cell_formula_units_Z 14
_cell_length_a 10.823819
_cell_length_b 6.584974
_cell_length_c 11.976575
_cell_angle_alpha 44.135606
_cell_angle_beta 67.818581
_cell_angle_gamma 72.144967
_cell_volume 549.595692
_symmetry_space_group_name_H-M "P -1"
_symmetry_group_IT_number 2
_symmetry_cell_setting 'triclinic'
loop_
_space_group_symop_operation_xyz
x,y,z
-x,-y,-z
loop_
_atom_site_type_symbol
_atom_site_label
_atom_site_fract_x
_atom_site_fract_y
_atom_site_fract_z
Si Si1 0.619141 0.875364 0.085070
Si Si2 0.400414 0.252936 0.269225
Si Si3 0.149041 0.571599 0.851878
Si Si4 0.217866 0.459283 0.452703
Si Si5 0.652514 0.402499 0.421098
Si Si6 0.988976 0.025815 0.629976
Si Si7 0.681722 0.370614 0.039600
O O1 0.567379 0.630261 0.283844
O O2 0.759692 0.732193 0.044944
O O3 0.662978 0.133888 0.045338
O O4 0.500000 0.000000 0.000000
O O5 0.549124 0.364662 0.163656
O O6 0.316879 0.408353 0.335313
O O7 0.408198 0.906541 0.418859
O O8 0.326347 0.332878 0.146059
O O9 0.220177 0.668530 0.674385
O O10 0.193858 0.722647 0.889865
O O11 0.002594 0.709474 0.814613
O O12 0.297904 0.432374 0.552227
O O13 0.105778 0.225021 0.560426
O O14 0.142567 0.777903 0.367442
O O15 0.000000 0.000000 0.500000
#
# Coordination Sequence:
#
# PCOD9010045 Si02
#       7
#     2   2   2   2   2   2   2
#     4  10  21  40  61  93 130 180 218 268 332 396
#     4  11  24  43  65  99 135 182 231 271 330 399
#     4  10  22  41  64  99 132 176 222 271 337 399
#     4  11  21  40  71 103 134 168 230 280 336 397
#     4  10  23  41  67  99 138 171 231 276 325 406
#     4  11  20  40  72 104 133 170 218 290 342 394
#     4  11  25  43  64  89 146 186 219 275 339 389
#
# _framework density 25.473269999999999
#
# number of rings (size 3 to 8) (size 9 to 14) (size 15 to 20)
#    0.857    0.571    2.857    2.571    0.000    4.571 
#    0.000    1.429    0.000    4.286    0.000    0.000 
#    0.000    0.000    0.000    4.143    0.000    0.000 
#
# Total GULP energy -78200.719414 kJ/mol
# GULP energy per Si atom -5585.765672 kJ/mol
# Density = 2.541529 g / cm^3
# Si number density = 25.473270 Si / 1000 Ang^3
#
#
#
# Elastic Constant Matrix: (Units=GPa)
#
#
# Indices 1 2 3 4 5 6 
#
# 1 108.6279 59.0751 82.8655 3.8117 31.6372 -6.9239
# 2 59.0751 161.6177 66.1803 -1.0412 22.4219 -10.7301
# 3 82.8655 66.1803 148.3748 -14.1324 46.0098 10.9338
# 4 3.8117 -1.0412 -14.1324 49.1944 -3.6457 9.3063
# 5 31.6372 22.4219 46.0098 -3.6457 54.1752 -2.7316
# 6 -6.9239 -10.7301 10.9338 9.3063 -2.7316 45.3742
#
#
#
# Elastic Compliance Matrix: (Units=1/GPa)
#
#
# Indices 1 2 3 4 5 6 
#
# 1 0.019334 -0.002280 -0.010222 -0.005738 -0.001752 0.005946
# 2 -0.002280 0.008276 -0.002793 -0.000895 0.000343 0.002487
# 3 -0.010222 -0.002793 0.017261 0.006688 -0.007497 -0.008203
# 4 -0.005738 -0.000895 0.006688 0.024073 -0.000726 -0.007680
# 5 -0.001752 0.000343 -0.007497 -0.000726 0.025825 0.003324
# 6 0.005946 0.002487 -0.008203 -0.007680 0.003324 0.027286
#
#
# Mechanical properties :
#
#
# Convention : Reuss Voigt Hill
#
# Bulk Modulus (GPa) = 70.02763 92.76246 81.39504
# Shear Modulus (GPa) = 31.76468 43.78207 37.77337
#
# Velocity S-wave (km/s) = 3.53509 4.15027 3.85497
# Velocity P-wave (km/s) = 6.64927 7.71110 7.19979
#
# Compressibility (1/GPa) = 0.01428008
#
# Stress axis : x y z
#
# Youngs Moduli (GPa) = 51.72148 120.82618 57.93522
#
# Poissons Ratio (x) = 0.27554 0.59223
# Poissons Ratio (y) = 0.11795 0.16181
# Poissons Ratio (z) = 0.52871 0.33746
#
# Static dielectric constant tensor:
#      x y z
#    x 2.015230 -0.007960 -0.046290 
#    y -0.007960 2.073690 -0.027410 
#    z -0.046290 -0.027410 2.088620 
# 
# From -- ./inp_files/409052.got.cif
#   From: 2010.05.17/outbox.cif.g08.bks.cpg/sg2_205_cif.got.tgz:409052.got - 2010.06.03 11:33:40.
