data_PCOD9010692
_publ_section_title
;
Structure prediction by ZEFSAII (Michael W. Deem and Ramdas Pophale) SiO2 
 PCOD9010692
Probable space group: P -1
;
_chemical_formula_sum "Si O2"
_cell_formula_units_Z 14
_cell_length_a 9.272648
_cell_length_b 7.413607
_cell_length_c 10.175961
_cell_angle_alpha 85.064040
_cell_angle_beta 123.758691
_cell_angle_gamma 86.357670
_cell_volume 574.166739
_symmetry_space_group_name_H-M "P -1"
_symmetry_group_IT_number 2
_symmetry_cell_setting 'triclinic'
loop_
_space_group_symop_operation_xyz
x,y,z
-x,-y,-z
loop_
_atom_site_type_symbol
_atom_site_label
_atom_site_fract_x
_atom_site_fract_y
_atom_site_fract_z
Si Si1 0.052477 0.961114 0.805503
Si Si2 0.427325 0.907665 0.096369
Si Si3 0.989391 0.625487 0.290538
Si Si4 0.341359 0.992942 0.318080
Si Si5 0.492119 0.496232 0.838547
Si Si6 0.145196 0.704137 0.642859
Si Si7 0.331108 0.563262 0.321564
O O1 0.082503 0.887590 0.677119
O O2 0.228617 0.865988 0.970836
O O3 0.067499 0.177327 0.815324
O O4 0.858478 0.921862 0.752902
O O5 0.409211 0.036969 0.205568
O O6 0.545775 0.713222 0.195553
O O7 0.500000 0.000000 0.000000
O O8 0.039118 0.681812 0.459192
O O9 0.158409 0.522760 0.309070
O O10 0.869457 0.468437 0.257564
O O11 0.318002 0.780992 0.305265
O O12 0.500000 0.000000 0.500000
O O13 0.347080 0.661079 0.711167
O O14 0.647830 0.508157 0.812271
O O15 0.500000 0.500000 0.000000
O O16 0.500000 0.500000 0.500000
#
# Coordination Sequence:
#
# PCOD9010692 Si02
#       7
#     2   2   2   2   2   2   2
#     4  11  23  43  66  97 139 176 221 278 342 391
#     4  11  24  43  69  96 137 175 219 281 337 398
#     4  10  23  40  63  98 130 174 220 280 329 403
#     4  10  25  42  68  98 131 175 227 271 336 407
#     4  11  22  41  63  93 127 172 219 263 334 393
#     4  11  22  39  67  95 134 172 224 274 334 397
#     4  10  21  40  64  88 130 168 214 276 328 382
#
# _framework density 24.38316
#
# number of rings (size 3 to 8) (size 9 to 14) (size 15 to 20)
#    0.000    1.429    2.857    1.714    2.000    5.714 
#    0.000    0.714    0.000    0.000    0.000    0.000 
#    0.000    0.000    0.000    0.000    0.000    0.000 
#
# Total GULP energy -78148.722268 kJ/mol
# GULP energy per Si atom -5582.051591 kJ/mol
# Density = 2.432766 g / cm^3
# Si number density = 24.383160 Si / 1000 Ang^3
#
#
#
# Elastic Constant Matrix: (Units=GPa)
#
#
# Indices 1 2 3 4 5 6 
#
# 1 135.7650 42.2387 39.2661 9.4710 -1.2459 -24.7220
# 2 42.2387 90.4460 2.9683 2.4073 -4.3703 -18.7518
# 3 39.2661 2.9683 102.2784 19.4682 -5.9226 -14.7883
# 4 9.4710 2.4073 19.4682 35.6543 -6.4915 -4.9653
# 5 -1.2459 -4.3703 -5.9226 -6.4915 33.2833 4.4973
# 6 -24.7220 -18.7518 -14.7883 -4.9653 4.4973 39.2359
#
#
#
# Elastic Compliance Matrix: (Units=1/GPa)
#
#
# Indices 1 2 3 4 5 6 
#
# 1 0.010198 -0.004008 -0.003312 -0.000393 -0.001264 0.003357
# 2 -0.004008 0.013902 0.001892 -0.000005 0.001380 0.004673
# 3 -0.003312 0.001892 0.012491 -0.005525 0.000902 0.002723
# 4 -0.000393 -0.000005 -0.005525 0.032266 0.005137 0.001162
# 5 -0.001264 0.001380 0.000902 0.005137 0.031717 -0.002783
# 6 0.003357 0.004673 0.002723 0.001162 -0.002783 0.031327
#
#
# Mechanical properties :
#
#
# Convention : Reuss Voigt Hill
#
# Bulk Modulus (GPa) = 38.85890 55.27061 47.06476
# Shear Modulus (GPa) = 33.03910 37.90246 35.47078
#
# Velocity S-wave (km/s) = 3.68502 3.94693 3.81822
# Velocity P-wave (km/s) = 5.83757 6.59453 6.22756
#
# Compressibility (1/GPa) = 0.02573413
#
# Stress axis : x y z
#
# Youngs Moduli (GPa) = 98.06254 71.93361 80.05490
#
# Poissons Ratio (x) = 0.28833 0.26513
# Poissons Ratio (y) = 0.39307 -0.15145
# Poissons Ratio (z) = 0.32476 -0.13609
#
# Static dielectric constant tensor:
#      x y z
#    x 2.039930 -0.029370 -0.002420 
#    y -0.029370 1.946230 -0.033150 
#    z -0.002420 -0.033150 1.979370 
# 
# From -- ./inp_files/157485.got.cif
#   From: 2010.05.17/outbox.cif.g08.bks.cpg/sg2_79_cif.got.tgz:157485.got - 2010.06.03 11:33:40.
