data_PCOD9010189
_publ_section_title
;
Structure prediction by ZEFSAII (Michael W. Deem and Ramdas Pophale) SiO2 
 PCOD9010189
Probable space group: P -1
;
_chemical_formula_sum "Si O2"
_cell_formula_units_Z 13
_cell_length_a 7.606570
_cell_length_b 18.474030
_cell_length_c 5.907106
_cell_angle_alpha 105.118144
_cell_angle_beta 136.171955
_cell_angle_gamma 62.571735
_cell_volume 506.752125
_symmetry_space_group_name_H-M "P -1"
_symmetry_group_IT_number 2
_symmetry_cell_setting 'triclinic'
loop_
_space_group_symop_operation_xyz
x,y,z
-x,-y,-z
loop_
_atom_site_type_symbol
_atom_site_label
_atom_site_fract_x
_atom_site_fract_y
_atom_site_fract_z
Si Si1 0.061804 0.176950 0.250960
Si Si2 0.227745 0.668299 0.173864
Si Si3 0.160904 0.027640 0.980457
Si Si4 0.245062 0.271604 0.849716
Si Si5 0.500000 0.500000 0.500000
Si Si6 0.948090 0.422879 0.463098
Si Si7 0.732462 0.123454 0.276010
O O1 0.818632 0.249629 0.944843
O O2 0.913652 0.144221 0.273872
O O3 0.232077 0.219011 0.577641
O O4 0.254878 0.096346 0.222620
O O5 0.115206 0.618838 0.850974
O O6 0.486830 0.591485 0.457208
O O7 0.021303 0.706329 0.222407
O O8 0.926735 0.079243 0.626260
O O9 0.364923 0.944536 0.978316
O O10 0.000000 0.000000 0.000000
O O11 0.216817 0.357450 0.790361
O O12 0.496498 0.211824 0.183076
O O13 0.696535 0.452066 0.431741
O O14 0.000000 0.500000 0.500000
#
# Coordination Sequence:
#
# PCOD9010189 Si02
#       7
#     2   2   2   2   1   2   2
#     4  10  21  40  62  90 129 168 214 269 320 381
#     4  10  22  42  60  91 127 163 214 264 327 386
#     4   9  20  39  62  92 128 167 213 265 327 387
#     4  10  23  40  62  96 126 166 223 262 320 400
#     4  10  22  40  64  90 126 172 210 266 322 390
#     4  10  23  43  62  94 131 167 218 270 328 392
#     4  10  21  40  64  92 126 170 217 263 325 388
#
# _framework density 25.653565
#
# number of rings (size 3 to 8) (size 9 to 14) (size 15 to 20)
#    0.000    2.154    0.000    1.385    2.154    8.000 
#   11.077   10.769    0.000    0.000    0.000    0.000 
#    0.000    0.000    0.000    0.000    0.000    0.000 
#
# Total GULP energy -72388.221886 kJ/mol
# GULP energy per Si atom -5568.324760 kJ/mol
# Density = 2.559518 g / cm^3
# Si number density = 25.653565 Si / 1000 Ang^3
#
#
#
# Elastic Constant Matrix: (Units=GPa)
#
#
# Indices 1 2 3 4 5 6 
#
# 1 39.6237 31.2738 16.6157 -5.1882 -19.1047 17.3412
# 2 31.2738 151.6926 63.8475 -27.4613 -18.6578 18.1965
# 3 16.6157 63.8475 92.1666 -15.2174 -23.5383 16.5276
# 4 -5.1882 -27.4613 -15.2174 56.8321 7.8717 -14.9875
# 5 -19.1047 -18.6578 -23.5383 7.8717 29.6511 -16.8538
# 6 17.3412 18.1965 16.5276 -14.9875 -16.8538 43.0599
#
#
#
# Elastic Compliance Matrix: (Units=1/GPa)
#
#
# Indices 1 2 3 4 5 6 
#
# 1 0.043753 -0.007646 0.004112 -0.003986 0.022941 -0.008375
# 2 -0.007646 0.011144 -0.006880 0.003578 -0.003914 0.000724
# 3 0.004112 -0.006880 0.018157 -0.000028 0.012200 -0.000952
# 4 -0.003986 0.003578 -0.000028 0.020984 -0.002186 0.006552
# 5 0.022941 -0.003914 0.012200 -0.002186 0.062896 0.011590
# 6 -0.008375 0.000724 -0.000952 0.006552 0.011590 0.033473
#
#
# Mechanical properties :
#
#
# Convention : Reuss Voigt Hill
#
# Bulk Modulus (GPa) = 19.14829 56.32856 37.73842
# Shear Modulus (GPa) = 21.86815 37.35834 29.61325
#
# Velocity S-wave (km/s) = 2.92283 3.82024 3.40126
# Velocity P-wave (km/s) = 4.34407 6.43926 5.49249
#
# Compressibility (1/GPa) = 0.05222399
#
# Stress axis : x y z
#
# Youngs Moduli (GPa) = 22.85577 89.73530 55.07645
#
# Poissons Ratio (x) = 0.68613 -0.22646
# Poissons Ratio (y) = 0.17476 0.37894
# Poissons Ratio (z) = -0.09398 0.61740
#
# Static dielectric constant tensor:
#      x y z
#    x 2.003590 0.002050 0.043560 
#    y 0.002050 2.087490 -0.002690 
#    z 0.043560 -0.002690 2.095740 
# 
# From -- ./inp_files/6287.got.cif
#   From: 2010.05.17/outbox.cif.g08.bks.cpg/sg2_4_cif.got.tgz:6287.got - 2010.06.03 11:33:40.
