data_PCOD9010427
_publ_section_title
;
Structure prediction by ZEFSAII (Michael W. Deem and Ramdas Pophale) SiO2 
 PCOD9010427
Probable space group: P -1
;
_chemical_formula_sum "Si O2"
_cell_formula_units_Z 16
_cell_length_a 24.696789
_cell_length_b 24.809155
_cell_length_c 7.893775
_cell_angle_alpha 43.037146
_cell_angle_beta 41.669096
_cell_angle_gamma 11.242179
_cell_volume 626.821831
_symmetry_space_group_name_H-M "P -1"
_symmetry_group_IT_number 2
_symmetry_cell_setting 'triclinic'
loop_
_space_group_symop_operation_xyz
x,y,z
-x,-y,-z
loop_
_atom_site_type_symbol
_atom_site_label
_atom_site_fract_x
_atom_site_fract_y
_atom_site_fract_z
Si Si1 0.179876 0.188745 0.562377
Si Si2 0.837376 0.206523 0.535581
Si Si3 0.416838 0.995549 0.795978
Si Si4 0.231163 0.842219 0.907224
Si Si5 0.855497 0.897640 0.448861
Si Si6 0.206235 0.315250 0.783041
Si Si7 0.562727 0.298558 0.589768
Si Si8 0.293046 0.410522 0.791400
O O1 0.254055 0.100102 0.787628
O O2 0.084163 0.206021 0.626376
O O3 0.948085 0.474078 0.451814
O O4 0.469643 0.954679 0.336302
O O5 0.604829 0.487632 0.385172
O O6 0.679102 0.291802 0.833776
O O7 0.000000 0.000000 0.500000
O O8 0.100957 0.011739 0.447953
O O9 0.236908 0.199480 0.901050
O O10 0.500000 0.000000 0.500000
O O11 0.674317 0.706857 0.935533
O O12 0.461649 0.644469 0.677014
O O13 0.104849 0.044821 0.789168
O O14 0.000000 0.000000 0.000000
O O15 0.030018 0.698313 0.655892
O O16 0.527148 0.192625 0.593642
O O17 0.000000 0.500000 0.000000
O O18 0.415247 0.351970 0.791419
#
# Coordination Sequence:
#
# PCOD9010427 Si02
#       8
#     2   2   2   2   2   2   2   2
#     4  11  24  42  64  97 133 165 215 279 339 396
#     4  11  22  38  62  97 133 169 214 270 332 396
#     4  10  25  45  67  97 131 174 218 273 342 405
#     4   9  20  40  66  92 127 172 221 268 316 389
#     4  11  24  41  66  99 130 173 226 278 331 390
#     4  11  23  43  69  96 128 173 222 272 328 405
#     4  10  21  40  63  90 124 173 220 267 326 390
#     4  11  23  43  67  92 129 173 226 275 328 403
#
# _framework density 25.525592
#
# number of rings (size 3 to 8) (size 9 to 14) (size 15 to 20)
#    0.000    1.500    0.000    5.250    0.000   11.000 
#    0.000    3.750    0.000    0.000    0.000    0.000 
#    0.000    0.000    0.000    0.000    0.000    0.000 
#
# Total GULP energy -89483.392946 kJ/mol
# GULP energy per Si atom -5592.712059 kJ/mol
# Density = 2.546750 g / cm^3
# Si number density = 25.525592 Si / 1000 Ang^3
#
#
#
# Elastic Constant Matrix: (Units=GPa)
#
#
# Indices 1 2 3 4 5 6 
#
# 1 153.4880 22.6528 36.5850 -20.8492 -20.6468 15.2310
# 2 22.6528 110.1957 20.2755 -17.9818 -16.6506 5.4496
# 3 36.5850 20.2755 62.7324 -19.2969 -26.8684 8.3458
# 4 -20.8492 -17.9818 -19.2969 38.6015 11.6243 -0.1200
# 5 -20.6468 -16.6506 -26.8684 11.6243 40.8964 -1.7181
# 6 15.2310 5.4496 8.3458 -0.1200 -1.7181 40.1125
#
#
#
# Elastic Compliance Matrix: (Units=1/GPa)
#
#
# Indices 1 2 3 4 5 6 
#
# 1 0.007987 -0.000433 -0.003042 0.002246 0.001123 -0.002286
# 2 -0.000433 0.010287 -0.000881 0.003396 0.002386 -0.000938
# 3 -0.003042 -0.000881 0.026338 0.007116 0.013235 -0.003617
# 4 0.002246 0.003396 0.007116 0.032939 -0.002288 -0.002794
# 5 0.001123 0.002386 0.013235 -0.002288 0.035252 -0.002001
# 6 -0.002286 -0.000938 -0.003617 -0.002794 -0.002001 0.026584
#
#
# Mechanical properties :
#
#
# Convention : Reuss Voigt Hill
#
# Bulk Modulus (GPa) = 27.85445 53.93808 40.89627
# Shear Modulus (GPa) = 31.23725 40.38227 35.80976
#
# Velocity S-wave (km/s) = 3.50203 3.98179 3.74959
# Velocity P-wave (km/s) = 5.22382 6.50510 5.89935
#
# Compressibility (1/GPa) = 0.03590090
#
# Stress axis : x y z
#
# Youngs Moduli (GPa) = 125.20009 97.21034 37.96765
#
# Poissons Ratio (x) = 0.04208 0.11550
# Poissons Ratio (y) = 0.05420 0.03344
# Poissons Ratio (z) = 0.38086 0.08563
#
# Static dielectric constant tensor:
#      x y z
#    x 2.114820 -0.024380 0.000780 
#    y -0.024380 2.032260 0.051830 
#    z 0.000780 0.051830 2.076330 
# 
# From -- ./inp_files/357952.got.cif
#   From: 2010.05.17/outbox.cif.g08.bks.cpg/sg2_179_cif.got.tgz:357952.got - 2010.06.03 11:33:40.
