data_PCOD9010838
_publ_section_title
;
Structure prediction by ZEFSAII (Michael W. Deem and Ramdas Pophale) SiO2 
 PCOD9010838
Probable space group: P -1
;
_chemical_formula_sum "Si O2"
_cell_formula_units_Z 14
_cell_length_a 9.356196
_cell_length_b 23.503501
_cell_length_c 5.029437
_cell_angle_alpha 103.310798
_cell_angle_beta 101.288954
_cell_angle_gamma 29.661652
_cell_volume 532.604240
_symmetry_space_group_name_H-M "P -1"
_symmetry_group_IT_number 2
_symmetry_cell_setting 'triclinic'
loop_
_space_group_symop_operation_xyz
x,y,z
-x,-y,-z
loop_
_atom_site_type_symbol
_atom_site_label
_atom_site_fract_x
_atom_site_fract_y
_atom_site_fract_z
Si Si1 0.194553 0.584174 0.848640
Si Si2 0.764311 0.211824 0.546260
Si Si3 0.243843 0.677163 0.709460
Si Si4 0.269660 0.438280 0.908792
Si Si5 0.705570 0.106693 0.333808
Si Si6 0.765340 0.894015 0.167202
Si Si7 0.379266 0.176133 0.792246
O O1 0.189220 0.626979 0.629218
O O2 0.193932 0.514453 0.747061
O O3 0.913908 0.696634 0.045643
O O4 0.500000 0.500000 0.000000
O O5 0.786044 0.268241 0.483410
O O6 0.496670 0.311821 0.753120
O O7 0.703377 0.175783 0.317355
O O8 0.082417 0.099818 0.668235
O O9 0.557681 0.584156 0.835324
O O10 0.012883 0.779339 0.951222
O O11 0.000000 0.500000 0.000000
O O12 0.626562 0.099481 0.028177
O O13 0.466716 0.174900 0.545291
O O14 0.000000 0.000000 0.500000
O O15 0.665789 0.878045 0.316685
O O16 0.500000 0.000000 0.000000
#
# Coordination Sequence:
#
# PCOD9010838 Si02
#       7
#     2   2   2   2   2   2   2
#     4   9  20  44  66  96 140 179 229 289 350 413
#     4  11  25  41  69  99 135 177 233 291 339 419
#     4   9  22  39  60  97 132 168 230 282 342 407
#     4  10  21  40  64  93 133 177 227 278 347 410
#     4  12  28  47  72 102 147 187 230 294 359 415
#     4  10  23  42  69  94 133 178 232 288 343 412
#     4  11  26  47  71 106 138 187 239 283 352 430
#
# _framework density 26.285934999999998
#
# number of rings (size 3 to 8) (size 9 to 14) (size 15 to 20)
#    0.000    1.714    0.000    3.000   12.000    1.714 
#    5.143    0.000    0.000    0.000    0.000    0.000 
#    0.000    0.000    0.000    0.000    0.000    0.000 
#
# Total GULP energy -78321.944021 kJ/mol
# GULP energy per Si atom -5594.424573 kJ/mol
# Density = 2.622611 g / cm^3
# Si number density = 26.285935 Si / 1000 Ang^3
#
#
#
# Elastic Constant Matrix: (Units=GPa)
#
#
# Indices 1 2 3 4 5 6 
#
# 1 180.1822 53.7963 35.4723 -3.5629 4.6764 -13.2877
# 2 53.7963 71.5041 3.2771 -2.9975 -9.4226 -26.3385
# 3 35.4723 3.2771 77.0785 -4.2928 -12.5904 -10.4492
# 4 -3.5629 -2.9975 -4.2928 31.7793 -5.1622 -5.3288
# 5 4.6764 -9.4226 -12.5904 -5.1622 36.6959 1.4557
# 6 -13.2877 -26.3385 -10.4492 -5.3288 1.4557 44.6294
#
#
#
# Elastic Compliance Matrix: (Units=1/GPa)
#
#
# Indices 1 2 3 4 5 6 
#
# 1 0.009007 -0.008705 -0.005266 -0.002017 -0.005325 -0.003756
# 2 -0.008705 0.027870 0.007204 0.007118 0.011103 0.016031
# 3 -0.005266 0.007204 0.017837 0.005179 0.009085 0.007182
# 4 -0.002017 0.007118 0.005179 0.035463 0.008502 0.008769
# 5 -0.005325 0.011103 0.009085 0.008502 0.034817 0.006974
# 6 -0.003756 0.016031 0.007182 0.008769 0.006974 0.033250
#
#
# Mechanical properties :
#
#
# Convention : Reuss Voigt Hill
#
# Bulk Modulus (GPa) = 24.28295 57.09514 40.68904
# Shear Modulus (GPa) = 26.95337 38.36885 32.66111
#
# Velocity S-wave (km/s) = 3.20565 3.82471 3.52878
# Velocity P-wave (km/s) = 4.79162 6.42437 5.66710
#
# Compressibility (1/GPa) = 0.04118115
#
# Stress axis : x y z
#
# Youngs Moduli (GPa) = 111.02525 35.88029 56.06314
#
# Poissons Ratio (x) = 0.31233 0.29524
# Poissons Ratio (y) = 0.96644 -0.40390
# Poissons Ratio (z) = 0.58469 -0.25849
#
# Static dielectric constant tensor:
#      x y z
#    x 2.066930 0.069050 -0.064610 
#    y 0.069050 2.214680 -0.114120 
#    z -0.064610 -0.114120 2.132060 
# 
# From -- ./inp_files/26735.got.cif
#   From: 2010.05.17/outbox.cif.g08.bks.cpg/sg2_14_cif.got.tgz:26735.got - 2010.06.03 11:33:40.
