data_PCOD9010536
_publ_section_title
;
Structure prediction by ZEFSAII (Michael W. Deem and Ramdas Pophale) SiO2 
 PCOD9010536
Probable space group: P -1
;
_chemical_formula_sum "Si O2"
_cell_formula_units_Z 14
_cell_length_a 12.712782
_cell_length_b 5.081422
_cell_length_c 8.989866
_cell_angle_alpha 95.571202
_cell_angle_beta 80.073857
_cell_angle_gamma 74.083767
_cell_volume 543.688129
_symmetry_space_group_name_H-M "P -1"
_symmetry_group_IT_number 2
_symmetry_cell_setting 'triclinic'
loop_
_space_group_symop_operation_xyz
x,y,z
-x,-y,-z
loop_
_atom_site_type_symbol
_atom_site_label
_atom_site_fract_x
_atom_site_fract_y
_atom_site_fract_z
Si Si1 0.921643 0.104349 0.886351
Si Si2 0.299214 0.485181 0.078206
Si Si3 0.299688 0.649889 0.619370
Si Si4 0.604625 0.259652 0.700733
Si Si5 0.925951 0.886704 0.395875
Si Si6 0.375356 0.125652 0.765782
Si Si7 0.824577 0.750169 0.675229
O O1 0.797759 0.288101 0.974282
O O2 0.995080 0.239047 0.767962
O O3 0.898118 0.862552 0.779764
O O4 0.000000 0.000000 0.000000
O O5 0.399102 0.566700 0.137677
O O6 0.226091 0.457715 0.238547
O O7 0.340698 0.222098 0.948170
O O8 0.373102 0.591627 0.446707
O O9 0.302629 0.367097 0.686207
O O10 0.178172 0.861608 0.622604
O O11 0.358355 0.832726 0.716800
O O12 0.499708 0.143527 0.709256
O O13 0.716110 0.006302 0.680598
O O14 0.882588 0.678978 0.498091
O O15 0.000000 0.000000 0.500000
#
# Coordination Sequence:
#
# PCOD9010536 Si02
#       7
#     2   2   2   2   2   2   2
#     4  10  21  40  63  93 135 172 227 283 347 395
#     4  11  25  41  68  99 135 180 229 283 338 420
#     4  11  26  46  70 104 137 177 236 284 337 410
#     4  10  24  45  69  95 137 183 227 279 341 414
#     4   9  20  44  66  93 134 180 228 278 337 409
#     4  12  27  44  71 103 142 179 226 289 348 396
#     4   9  22  40  63  96 130 173 234 274 336 414
#
# _framework density 25.750057000000002
#
# number of rings (size 3 to 8) (size 9 to 14) (size 15 to 20)
#    0.000    1.714    0.000    3.000   12.000    1.714 
#    5.143    0.000    0.000    0.000    0.000    0.000 
#    0.000    0.000    0.000    0.000    0.000    0.000 
#
# Total GULP energy -78393.733379 kJ/mol
# GULP energy per Si atom -5599.552384 kJ/mol
# Density = 2.569145 g / cm^3
# Si number density = 25.750057 Si / 1000 Ang^3
#
#
#
# Elastic Constant Matrix: (Units=GPa)
#
#
# Indices 1 2 3 4 5 6 
#
# 1 80.9598 1.9384 40.1896 9.3511 15.1095 8.9900
# 2 1.9384 57.4587 7.9104 2.7199 1.3703 1.8686
# 3 40.1896 7.9104 115.0023 12.2745 -5.3660 -5.2887
# 4 9.3511 2.7199 12.2745 33.6729 7.3462 1.2839
# 5 15.1095 1.3703 -5.3660 7.3462 46.9139 -2.8097
# 6 8.9900 1.8686 -5.2887 1.2839 -2.8097 20.9167
#
#
#
# Elastic Compliance Matrix: (Units=1/GPa)
#
#
# Indices 1 2 3 4 5 6 
#
# 1 0.018660 0.000945 -0.007381 -0.000524 -0.007455 -0.010940
# 2 0.000945 0.017739 -0.001630 -0.000780 -0.001036 -0.002494
# 3 -0.007381 -0.001630 0.012339 -0.003653 0.004846 0.007313
# 4 -0.000524 -0.000780 -0.003653 0.032572 -0.005528 -0.003371
# 5 -0.007455 -0.001036 0.004846 -0.005528 0.025664 0.008309
# 6 -0.010940 -0.002494 0.007313 -0.003371 0.008309 0.055906
#
#
# Mechanical properties :
#
#
# Convention : Reuss Voigt Hill
#
# Bulk Modulus (GPa) = 30.66938 39.27749 34.97344
# Shear Modulus (GPa) = 26.33223 33.85955 30.09589
#
# Velocity S-wave (km/s) = 3.20129 3.63013 3.42244
# Velocity P-wave (km/s) = 5.05971 5.73210 5.40637
#
# Compressibility (1/GPa) = 0.03260581
#
# Stress axis : x y z
#
# Youngs Moduli (GPa) = 53.59108 56.37258 81.04179
#
# Poissons Ratio (x) = -0.05327 0.59817
# Poissons Ratio (y) = -0.05064 0.13212
# Poissons Ratio (z) = 0.39555 0.09190
#
# Static dielectric constant tensor:
#      x y z
#    x 2.063930 -0.000010 0.000280 
#    y -0.000010 2.049680 -0.071020 
#    z 0.000280 -0.071020 2.044440 
# 
# From -- ./inp_files/26733.got.cif
#   From: 2010.05.17/outbox.cif.g08.bks.cpg/sg2_14_cif.got.tgz:26733.got - 2010.06.03 11:33:40.
