data_PCOD9010399
_publ_section_title
;
Structure prediction by ZEFSAII (Michael W. Deem and Ramdas Pophale) SiO2 
 PCOD9010399
Probable space group: P -1
;
_chemical_formula_sum "Si O2"
_cell_formula_units_Z 14
_cell_length_a 10.190322
_cell_length_b 16.255721
_cell_length_c 9.050979
_cell_angle_alpha 32.113801
_cell_angle_beta 113.946428
_cell_angle_gamma 97.795195
_cell_volume 658.193015
_symmetry_space_group_name_H-M "P -1"
_symmetry_group_IT_number 2
_symmetry_cell_setting 'triclinic'
loop_
_space_group_symop_operation_xyz
x,y,z
-x,-y,-z
loop_
_atom_site_type_symbol
_atom_site_label
_atom_site_fract_x
_atom_site_fract_y
_atom_site_fract_z
Si Si1 0.166620 0.346471 0.353897
Si Si2 0.568734 0.503830 0.281532
Si Si3 0.192430 0.006672 0.754533
Si Si4 0.256837 0.574542 0.230278
Si Si5 0.562777 0.111936 0.455300
Si Si6 0.132482 0.953305 0.483319
Si Si7 0.484115 0.780072 0.415957
O O1 0.150307 0.171853 0.587483
O O2 0.203978 0.423624 0.402871
O O3 0.327456 0.304314 0.396575
O O4 0.000000 0.500000 0.000000
O O5 0.416804 0.529714 0.275640
O O6 0.710685 0.426337 0.580732
O O7 0.572833 0.370898 0.360795
O O8 0.542711 0.687428 0.932391
O O9 0.048755 0.950854 0.798216
O O10 0.181008 0.029251 0.536399
O O11 0.372578 0.881321 0.073172
O O12 0.150376 0.765075 0.831471
O O13 0.740448 0.069156 0.549107
O O14 0.555170 0.095255 0.652486
O O15 0.500000 0.000000 0.500000
#
# Coordination Sequence:
#
# PCOD9010399 Si02
#       7
#     2   2   2   2   2   2   2
#     4  11  22  36  61  93 127 153 203 260 302 349
#     4   9  19  36  60  85 117 155 206 245 297 362
#     4  11  22  38  64  94 119 159 210 254 296 359
#     4   9  17  35  61  88 112 156 201 251 299 346
#     4  11  24  39  60  91 127 163 200 251 308 363
#     4  10  21  40  63  89 125 158 201 255 303 357
#     4  11  23  39  63  91 121 166 204 244 306 371
#
# _framework density 21.270357000000001
#
# number of rings (size 3 to 8) (size 9 to 14) (size 15 to 20)
#    0.000    1.714    2.857    1.714    4.000    0.571 
#    0.000    0.000    0.000    1.714    0.000    0.000 
#    0.000    0.000    0.000    0.000    0.000    0.000 
#
# Total GULP energy -77991.425837 kJ/mol
# GULP energy per Si atom -5570.816131 kJ/mol
# Density = 2.122194 g / cm^3
# Si number density = 21.270357 Si / 1000 Ang^3
#
#
#
# Elastic Constant Matrix: (Units=GPa)
#
#
# Indices 1 2 3 4 5 6 
#
# 1 76.7649 31.0243 27.4641 11.6445 26.0132 0.0446
# 2 31.0243 149.7542 24.2674 -1.3034 6.6755 20.6910
# 3 27.4641 24.2674 65.0818 -2.6019 23.4686 10.1603
# 4 11.6445 -1.3034 -2.6019 35.2037 1.3135 0.1756
# 5 26.0132 6.6755 23.4686 1.3135 27.5998 -7.5248
# 6 0.0446 20.6910 10.1603 0.1756 -7.5248 30.1944
#
#
#
# Elastic Compliance Matrix: (Units=1/GPa)
#
#
# Indices 1 2 3 4 5 6 
#
# 1 0.022521 -0.003359 -0.001007 -0.006896 -0.019856 -0.002301
# 2 -0.003359 0.008237 -0.000982 0.001350 0.000531 -0.005185
# 3 -0.001007 -0.000982 0.028847 0.003549 -0.027874 -0.016000
# 4 -0.006896 0.001350 0.003549 0.030967 0.001135 -0.002006
# 5 -0.019856 0.000531 -0.027874 0.001135 0.086830 0.030677
# 6 -0.002301 -0.005185 -0.016000 -0.002006 0.030677 0.049716
#
#
# Mechanical properties :
#
#
# Convention : Reuss Voigt Hill
#
# Bulk Modulus (GPa) = 20.44659 50.79030 35.61844
# Shear Modulus (GPa) = 19.67589 32.52258 26.09924
#
# Velocity S-wave (km/s) = 3.04474 3.91450 3.50669
# Velocity P-wave (km/s) = 4.68980 6.66043 5.76001
#
# Compressibility (1/GPa) = 0.04890791
#
# Stress axis : x y z
#
# Youngs Moduli (GPa) = 44.40311 121.40184 34.66508
#
# Poissons Ratio (x) = 0.40784 0.03492
# Poissons Ratio (y) = 0.14917 0.03404
# Poissons Ratio (z) = 0.04473 0.11921
#
# Static dielectric constant tensor:
#      x y z
#    x 1.771600 0.028320 0.009890 
#    y 0.028320 1.825430 -0.035830 
#    z 0.009890 -0.035830 1.836830 
# 
# From -- ./inp_files/269500.got.cif
#   From: 2010.05.17/outbox.cif.g08.bks.cpg/sg2_135_cif.got.tgz:269500.got - 2010.06.03 11:33:40.
