data_PCOD9010955
_publ_section_title
;
Structure prediction by ZEFSAII (Michael W. Deem and Ramdas Pophale) SiO2 
 PCOD9010955
Probable space group: P -1
;
_chemical_formula_sum "Si O2"
_cell_formula_units_Z 16
_cell_length_a 11.205587
_cell_length_b 17.354725
_cell_length_c 7.720792
_cell_angle_alpha 33.128842
_cell_angle_beta 71.335710
_cell_angle_gamma 60.319757
_cell_volume 698.618928
_symmetry_space_group_name_H-M "P -1"
_symmetry_group_IT_number 2
_symmetry_cell_setting 'triclinic'
loop_
_space_group_symop_operation_xyz
x,y,z
-x,-y,-z
loop_
_atom_site_type_symbol
_atom_site_label
_atom_site_fract_x
_atom_site_fract_y
_atom_site_fract_z
Si Si1 0.264470 0.676132 0.943891
Si Si2 0.405727 0.828209 0.333424
Si Si3 0.994782 0.238839 0.340668
Si Si4 0.706633 0.806480 0.269069
Si Si5 0.455771 0.388500 0.618584
Si Si6 0.062344 0.913514 0.814977
Si Si7 0.784747 0.679328 0.084999
Si Si8 0.000273 0.345304 0.501727
O O1 0.340726 0.742914 0.649522
O O2 0.124871 0.689796 0.884916
O O3 0.217872 0.790405 0.918637
O O4 0.357715 0.503179 0.296012
O O5 0.560000 0.800235 0.379556
O O6 0.424646 0.752911 0.275205
O O7 0.318433 0.015807 0.018105
O O8 0.942337 0.336990 0.355263
O O9 0.031740 0.056025 0.689623
O O10 0.140675 0.237343 0.217494
O O11 0.749403 0.760049 0.136756
O O12 0.840451 0.682469 0.542501
O O13 0.500000 0.500000 0.500000
O O14 0.359607 0.327206 0.887279
O O15 0.000000 0.000000 0.500000
O O16 0.993254 0.804413 0.116870
O O17 0.902988 0.499491 0.360975
#
# Coordination Sequence:
#
# PCOD9010955 Si02
#       8
#     2   2   2   2   2   2   2   2
#     4  11  22  41  64  93 130 174 217 270 324 393
#     4  10  23  42  64  95 129 177 219 263 327 392
#     4  11  25  38  66 100 135 168 217 276 333 387
#     4  10  22  41  68  92 131 173 220 267 325 390
#     4  11  26  43  67  93 130 176 220 269 324 397
#     4  10  21  40  64  97 131 173 212 266 331 389
#     4  11  24  44  65  97 132 171 220 274 331 381
#     4  12  23  40  67 101 132 170 218 276 329 389
#
# _framework density 22.902327
#
# number of rings (size 3 to 8) (size 9 to 14) (size 15 to 20)
#    0.000    1.250    1.250    5.250    5.250    2.000 
#    0.000    0.000    0.000    6.000    0.000    0.000 
#    0.000    0.000    0.000    0.000    0.000    0.000 
#
# Total GULP energy -89449.116586 kJ/mol
# GULP energy per Si atom -5590.569787 kJ/mol
# Density = 2.285020 g / cm^3
# Si number density = 22.902327 Si / 1000 Ang^3
#
#
#
# Elastic Constant Matrix: (Units=GPa)
#
#
# Indices 1 2 3 4 5 6 
#
# 1 56.7802 48.5348 3.3190 1.5384 -14.6592 -5.5034
# 2 48.5348 122.0856 22.6668 -32.8091 -2.0706 -4.8300
# 3 3.3190 22.6668 55.6529 -22.2841 -14.0543 -0.4367
# 4 1.5384 -32.8091 -22.2841 46.3464 -3.6993 -4.7142
# 5 -14.6592 -2.0706 -14.0543 -3.6993 30.3592 4.4008
# 6 -5.5034 -4.8300 -0.4367 -4.7142 4.4008 34.1455
#
#
#
# Elastic Compliance Matrix: (Units=1/GPa)
#
#
# Indices 1 2 3 4 5 6 
#
# 1 0.038546 -0.018894 0.006067 -0.010251 0.018917 -0.000236
# 2 -0.018894 0.019687 -0.004196 0.012111 -0.008605 0.002467
# 3 0.006067 -0.004196 0.028428 0.011889 0.017228 0.000169
# 4 -0.010251 0.012111 0.011889 0.037098 0.005225 0.004661
# 5 0.018917 -0.008605 0.017228 0.005225 0.050643 -0.003753
# 6 -0.000236 0.002467 0.000169 0.004661 -0.003753 0.030727
#
#
# Mechanical properties :
#
#
# Convention : Reuss Voigt Hill
#
# Bulk Modulus (GPa) = 19.00548 42.61777 30.81163
# Shear Modulus (GPa) = 19.47695 32.83677 26.15686
#
# Velocity S-wave (km/s) = 2.91939 3.79063 3.38317
# Velocity P-wave (km/s) = 4.43624 6.14877 5.36133
#
# Compressibility (1/GPa) = 0.05261640
#
# Stress axis : x y z
#
# Youngs Moduli (GPa) = 25.94295 50.79375 35.17621
#
# Poissons Ratio (x) = 0.95969 -0.21342
# Poissons Ratio (y) = 0.49016 0.14760
# Poissons Ratio (z) = -0.15740 0.21313
#
# Static dielectric constant tensor:
#      x y z
#    x 1.900480 0.007910 0.005980 
#    y 0.007910 1.862560 -0.030500 
#    z 0.005980 -0.030500 1.866210 
# 
# From -- ./inp_files/277228.got.cif
#   From: 2010.05.17/outbox.cif.g08.bks.cpg/sg2_139_cif.got.tgz:277228.got - 2010.06.03 11:33:40.
