data_PCOD9010857
_publ_section_title
;
Structure prediction by ZEFSAII (Michael W. Deem and Ramdas Pophale) SiO2 
 PCOD9010857
Probable space group: P -1
;
_chemical_formula_sum "Si O2"
_cell_formula_units_Z 16
_cell_length_a 11.426708
_cell_length_b 17.041056
_cell_length_c 17.469484
_cell_angle_alpha 155.106673
_cell_angle_beta 144.633404
_cell_angle_gamma 30.185476
_cell_volume 711.998948
_symmetry_space_group_name_H-M "P -1"
_symmetry_group_IT_number 2
_symmetry_cell_setting 'triclinic'
loop_
_space_group_symop_operation_xyz
x,y,z
-x,-y,-z
loop_
_atom_site_type_symbol
_atom_site_label
_atom_site_fract_x
_atom_site_fract_y
_atom_site_fract_z
Si Si1 0.752701 0.005065 0.362006
Si Si2 0.351193 0.416693 0.254379
Si Si3 0.245165 0.862483 0.676941
Si Si4 0.646124 0.508234 0.383639
Si Si5 0.085357 0.210360 0.462745
Si Si6 0.523908 0.500993 0.148004
Si Si7 0.116764 0.456507 0.941392
Si Si8 0.504117 0.207763 0.748770
O O1 0.756822 0.983322 0.253142
O O2 0.525912 0.232083 0.467464
O O3 0.755848 0.805026 0.228018
O O4 0.000000 0.000000 0.500000
O O5 0.300408 0.641235 0.465722
O O6 0.531887 0.212975 0.218362
O O7 0.485907 0.411247 0.243599
O O8 0.104082 0.434841 0.135506
O O9 0.029024 0.908109 0.656171
O O10 0.691779 0.460734 0.274957
O O11 0.873518 0.400305 0.466769
O O12 0.234280 0.262493 0.649572
O O13 0.294237 0.042226 0.370239
O O14 0.487587 0.684764 0.232256
O O15 0.280801 0.554396 0.104473
O O16 0.570476 0.307504 0.943565
O O17 0.000000 0.500000 0.000000
#
# Coordination Sequence:
#
# PCOD9010857 Si02
#       8
#     2   2   2   2   2   2   2   2
#     4  11  21  35  61 100 124 166 204 246 322 381
#     4   9  17  34  56  92 122 158 193 244 325 362
#     4   9  18  33  61  89 124 150 201 263 291 377
#     4  10  21  40  64  94 126 161 209 270 308 377
#     4  10  22  42  69  90 118 170 223 259 312 360
#     4  11  24  42  62  92 135 161 212 262 315 374
#     4  12  22  37  63  93 130 167 197 254 321 383
#     4  10  25  43  65  92 118 177 216 262 312 362
#
# _framework density 22.471943
#
# number of rings (size 3 to 8) (size 9 to 14) (size 15 to 20)
#    0.000    1.750    3.750    1.500    3.500    2.000 
#    0.000    4.375    0.000    0.000    0.000    0.000 
#    0.000    0.000    0.000    0.000    0.000    0.000 
#
# Total GULP energy -89252.783122 kJ/mol
# GULP energy per Si atom -5578.298945 kJ/mol
# Density = 2.242080 g / cm^3
# Si number density = 22.471943 Si / 1000 Ang^3
#
#
#
# Elastic Constant Matrix: (Units=GPa)
#
#
# Indices 1 2 3 4 5 6 
#
# 1 77.3010 41.6778 14.6274 -10.2881 -12.3924 6.1483
# 2 41.6778 140.2088 41.9265 -11.3181 -3.1485 -0.2319
# 3 14.6274 41.9265 64.1771 4.5277 -12.5236 1.2245
# 4 -10.2881 -11.3181 4.5277 19.4638 -2.1298 -4.1456
# 5 -12.3924 -3.1485 -12.5236 -2.1298 37.6811 -6.8806
# 6 6.1483 -0.2319 1.2245 -4.1456 -6.8806 29.4552
#
#
#
# Elastic Compliance Matrix: (Units=1/GPa)
#
#
# Indices 1 2 3 4 5 6 
#
# 1 0.017239 -0.004264 -0.000588 0.007050 0.005263 -0.001386
# 2 -0.004264 0.010929 -0.007041 0.005832 -0.002212 0.001573
# 3 -0.000588 -0.007041 0.022125 -0.009062 0.005924 -0.000744
# 4 0.007050 0.005832 -0.009062 0.063067 0.005001 0.008995
# 5 0.005263 -0.002212 0.005924 0.005001 0.031562 0.006714
# 6 -0.001386 0.001573 -0.000744 0.008995 0.006714 0.037117
#
#
# Mechanical properties :
#
#
# Convention : Reuss Voigt Hill
#
# Bulk Modulus (GPa) = 37.72427 53.12784 45.42605
# Shear Modulus (GPa) = 23.29274 29.55037 26.42155
#
# Velocity S-wave (km/s) = 3.22300 3.63021 3.43265
# Velocity P-wave (km/s) = 5.53842 6.42374 5.99744
#
# Compressibility (1/GPa) = 0.02650813
#
# Stress axis : x y z
#
# Youngs Moduli (GPa) = 58.00898 91.50120 45.19722
#
# Poissons Ratio (x) = 0.39012 0.02656
# Poissons Ratio (y) = 0.24733 0.31824
# Poissons Ratio (z) = 0.03409 0.64427
#
# Static dielectric constant tensor:
#      x y z
#    x 1.866040 0.015690 -0.047920 
#    y 0.015690 1.858410 -0.019790 
#    z -0.047920 -0.019790 1.922180 
# 
# From -- ./inp_files/570279.got.cif
#   From: 2010.05.17/outbox.cif.g08.bks.cpg/sg2_286_cif.got.tgz:570279.got - 2010.06.03 11:33:40.
