data_PCOD9010150
_publ_section_title
;
Structure prediction by ZEFSAII (Michael W. Deem and Ramdas Pophale) SiO2 
 PCOD9010150
Probable space group: P -1
;
_chemical_formula_sum "Si O2"
_cell_formula_units_Z 16
_cell_length_a 14.594372
_cell_length_b 15.203020
_cell_length_c 9.414274
_cell_angle_alpha 112.596117
_cell_angle_beta 94.620108
_cell_angle_gamma 27.687602
_cell_volume 713.229904
_symmetry_space_group_name_H-M "P -1"
_symmetry_group_IT_number 2
_symmetry_cell_setting 'triclinic'
loop_
_space_group_symop_operation_xyz
x,y,z
-x,-y,-z
loop_
_atom_site_type_symbol
_atom_site_label
_atom_site_fract_x
_atom_site_fract_y
_atom_site_fract_z
Si Si1 0.827424 0.766169 0.438624
Si Si2 0.547454 0.896788 0.634674
Si Si3 0.809960 0.139418 0.174966
Si Si4 0.990098 0.260473 0.032813
Si Si5 0.768028 0.771085 0.951626
Si Si6 0.623012 0.614518 0.468500
Si Si7 0.048202 0.171008 0.668129
Si Si8 0.750556 0.326903 0.532767
O O1 0.736703 0.802736 0.595376
O O2 0.942585 0.756794 0.408783
O O3 0.021674 0.502880 0.239906
O O4 0.561132 0.027497 0.485683
O O5 0.654825 0.693251 0.578064
O O6 0.298406 0.164829 0.851013
O O7 0.862127 0.134793 0.332950
O O8 0.521182 0.440190 0.299545
O O9 0.847175 0.990800 0.084774
O O10 0.000000 0.000000 0.000000
O O11 0.922221 0.327798 0.897534
O O12 0.143619 0.207246 0.055829
O O13 0.770959 0.463636 0.245606
O O14 0.500000 0.000000 0.000000
O O15 0.707528 0.454067 0.491898
O O16 0.332822 0.879948 0.565800
O O17 0.916243 0.208185 0.605164
#
# Coordination Sequence:
#
# PCOD9010150 Si02
#       8
#     2   2   2   2   2   2   2   2
#     4  10  22  38  63  91 129 175 219 272 325 389
#     4  10  21  40  62  88 130 178 224 265 326 391
#     4  11  24  47  74 100 135 178 224 285 341 404
#     4  12  24  46  68  98 141 179 224 284 341 398
#     4  12  25  38  64  98 134 179 224 272 329 400
#     4  11  22  45  71  95 140 181 220 284 337 400
#     4  11  26  43  71 102 137 177 229 280 338 405
#     4  11  25  46  74 100 133 177 227 280 345 405
#
# _framework density 22.433157999999999
#
# number of rings (size 3 to 8) (size 9 to 14) (size 15 to 20)
#    0.000    1.000    6.250    0.375    3.500    3.000 
#    0.000    1.250    0.000    0.000    0.000    0.000 
#    0.000    0.000    0.000    0.000    0.000    0.000 
#
# Total GULP energy -89348.773951 kJ/mol
# GULP energy per Si atom -5584.298372 kJ/mol
# Density = 2.238210 g / cm^3
# Si number density = 22.433158 Si / 1000 Ang^3
#
#
#
# Elastic Constant Matrix: (Units=GPa)
#
#
# Indices 1 2 3 4 5 6 
#
# 1 89.3434 33.7929 36.1687 -6.6999 -2.6549 -11.7027
# 2 33.7929 73.3987 16.3057 -5.5843 0.4747 -0.0886
# 3 36.1687 16.3057 137.5085 13.2661 -25.4026 -4.5203
# 4 -6.6999 -5.5843 13.2661 19.6036 4.6324 13.9894
# 5 -2.6549 0.4747 -25.4026 4.6324 47.8616 -0.9925
# 6 -11.7027 -0.0886 -4.5203 13.9894 -0.9925 26.6935
#
#
#
# Elastic Compliance Matrix: (Units=1/GPa)
#
#
# Indices 1 2 3 4 5 6 
#
# 1 0.015905 -0.006178 -0.003895 0.003483 -0.001369 0.004417
# 2 -0.006178 0.018043 -0.002690 0.012705 -0.003384 -0.009889
# 3 -0.003895 -0.002690 0.012698 -0.021291 0.008858 0.011921
# 4 0.003483 0.012705 -0.021291 0.124891 -0.024739 -0.068408
# 5 -0.001369 -0.003384 0.008858 -0.024739 0.028256 0.014904
# 6 0.004417 -0.009889 0.011921 -0.068408 0.014904 0.077790
#
#
# Mechanical properties :
#
#
# Convention : Reuss Voigt Hill
#
# Bulk Modulus (GPa) = 47.35032 52.53169 49.94101
# Shear Modulus (GPa) = 16.12118 33.09730 24.60924
#
# Velocity S-wave (km/s) = 2.68364 3.84523 3.31570
# Velocity P-wave (km/s) = 5.54578 6.57131 6.08021
#
# Compressibility (1/GPa) = 0.02111918
#
# Stress axis : x y z
#
# Youngs Moduli (GPa) = 62.87160 55.42291 78.75246
#
# Poissons Ratio (x) = 0.34243 0.30672
# Poissons Ratio (y) = 0.38845 0.21188
# Poissons Ratio (z) = 0.24487 0.14911
#
# Static dielectric constant tensor:
#      x y z
#    x 1.889290 0.039340 -0.000440 
#    y 0.039340 1.877140 -0.088970 
#    z -0.000440 -0.088970 1.882220 
# 
# From -- ./inp_files/315602.got.cif
#   From: 2010.05.17/outbox.cif.g08.bks.cpg/sg2_158_cif.got.tgz:315602.got - 2010.06.03 11:33:40.
