data_PCOD9010962
_publ_section_title
;
Structure prediction by ZEFSAII (Michael W. Deem and Ramdas Pophale) SiO2 
 PCOD9010962
Probable space group: P -1
;
_chemical_formula_sum "Si O2"
_cell_formula_units_Z 16
_cell_length_a 13.889022
_cell_length_b 15.747252
_cell_length_c 15.610215
_cell_angle_alpha 25.872256
_cell_angle_beta 28.840728
_cell_angle_gamma 34.233637
_cell_volume 706.481080
_symmetry_space_group_name_H-M "P -1"
_symmetry_group_IT_number 2
_symmetry_cell_setting 'triclinic'
loop_
_space_group_symop_operation_xyz
x,y,z
-x,-y,-z
loop_
_atom_site_type_symbol
_atom_site_label
_atom_site_fract_x
_atom_site_fract_y
_atom_site_fract_z
Si Si1 0.446176 0.668457 0.458306
Si Si2 0.144189 0.041497 0.479805
Si Si3 0.029672 0.972575 0.901083
Si Si4 0.644697 0.411827 0.045734
Si Si5 0.407988 0.010092 0.853235
Si Si6 0.016028 0.328016 0.470029
Si Si7 0.003786 0.728956 0.771889
Si Si8 0.566612 0.459680 0.728414
O O1 0.500000 0.500000 0.500000
O O2 0.214715 0.753595 0.540481
O O3 0.451408 0.561158 0.643687
O O4 0.572746 0.843395 0.214747
O O5 0.384119 0.974350 0.376254
O O6 0.021086 0.181333 0.519023
O O7 0.152920 0.166686 0.271121
O O8 0.026042 0.860242 0.719039
O O9 0.775602 0.193918 0.123601
O O10 0.060627 0.181962 0.648154
O O11 0.814795 0.930666 0.068886
O O12 0.000000 0.000000 0.000000
O O13 0.812937 0.548713 0.794616
O O14 0.500000 0.500000 0.000000
O O15 0.522558 0.443776 0.201148
O O16 0.429143 0.775619 0.063770
O O17 0.802418 0.469910 0.522774
O O18 0.000000 0.500000 0.000000
#
# Coordination Sequence:
#
# PCOD9010962 Si02
#       8
#     2   2   2   2   2   2   2   2
#     4  11  24  40  65 102 141 187 239 288 352 418
#     4  10  21  40  64  97 135 185 227 284 346 407
#     4  11  27  47  74 107 138 184 238 292 365 433
#     4  12  27  46  74 106 140 183 237 297 362 427
#     4  10  22  44  69  96 143 181 236 289 352 418
#     4  11  25  44  72  99 141 183 233 288 355 419
#     4  10  22  36  62  96 137 177 234 281 339 413
#     4  11  24  43  71 101 140 188 233 292 354 418
#
# _framework density 22.647456999999999
#
# number of rings (size 3 to 8) (size 9 to 14) (size 15 to 20)
#    0.000    1.250    1.250    3.750    3.500    6.000 
#    0.000    0.000    0.000    0.000    0.000    0.000 
#    0.000    0.000    0.000    0.000    0.000    0.000 
#
# Total GULP energy -89363.640935 kJ/mol
# GULP energy per Si atom -5585.227558 kJ/mol
# Density = 2.259591 g / cm^3
# Si number density = 22.647457 Si / 1000 Ang^3
#
#
#
# Elastic Constant Matrix: (Units=GPa)
#
#
# Indices 1 2 3 4 5 6 
#
# 1 53.8310 24.3598 -2.0684 21.5195 -5.5852 -9.2615
# 2 24.3598 127.3017 24.6007 19.0609 -5.7920 3.0098
# 3 -2.0684 24.6007 44.7500 -0.8644 0.8440 2.1688
# 4 21.5195 19.0609 -0.8644 50.8797 -5.1524 -0.9283
# 5 -5.5852 -5.7920 0.8440 -5.1524 33.9147 5.0951
# 6 -9.2615 3.0098 2.1688 -0.9283 5.0951 42.1898
#
#
#
# Elastic Compliance Matrix: (Units=1/GPa)
#
#
# Indices 1 2 3 4 5 6 
#
# 1 0.025124 -0.004136 0.002984 -0.008806 0.001221 0.005316
# 2 -0.004136 0.010156 -0.005762 -0.002069 0.001110 -0.001516
# 3 0.002984 -0.005762 0.025699 0.001237 -0.000927 -0.000116
# 4 -0.008806 -0.002069 0.001237 0.024359 0.002102 -0.001567
# 5 0.001221 0.001110 -0.000927 0.002102 0.030734 -0.003429
# 6 0.005316 -0.001516 -0.000116 -0.001567 -0.003429 0.025363
#
#
# Mechanical properties :
#
#
# Convention : Reuss Voigt Hill
#
# Bulk Modulus (GPa) = 21.20798 35.51855 28.36326
# Shear Modulus (GPa) = 29.24318 37.32954 33.28636
#
# Velocity S-wave (km/s) = 3.59727 4.06432 3.83791
# Velocity P-wave (km/s) = 5.16126 6.14347 5.67366
#
# Compressibility (1/GPa) = 0.04715206
#
# Stress axis : x y z
#
# Youngs Moduli (GPa) = 39.80214 98.46024 38.91222
#
# Poissons Ratio (x) = 0.40724 -0.11612
# Poissons Ratio (y) = 0.16462 0.22421
# Poissons Ratio (z) = -0.11878 0.56732
#
# Static dielectric constant tensor:
#      x y z
#    x 1.878230 -0.082730 -0.024480 
#    y -0.082730 1.932020 -0.027290 
#    z -0.024480 -0.027290 1.873290 
# 
# From -- ./inp_files/534074.got.cif
#   From: 2010.05.17/outbox.cif.g08.bks.cpg/sg2_268_cif.got.tgz:534074.got - 2010.06.03 11:33:40.
