data_PCOD9010787
_publ_section_title
;
Structure prediction by ZEFSAII (Michael W. Deem and Ramdas Pophale) SiO2 
 PCOD9010787
Probable space group: P -1
;
_chemical_formula_sum "Si O2"
_cell_formula_units_Z 16
_cell_length_a 9.443580
_cell_length_b 11.208187
_cell_length_c 9.291318
_cell_angle_alpha 117.415266
_cell_angle_beta 84.271313
_cell_angle_gamma 82.719685
_cell_volume 851.872839
_symmetry_space_group_name_H-M "P -1"
_symmetry_group_IT_number 2
_symmetry_cell_setting 'triclinic'
loop_
_space_group_symop_operation_xyz
x,y,z
-x,-y,-z
loop_
_atom_site_type_symbol
_atom_site_label
_atom_site_fract_x
_atom_site_fract_y
_atom_site_fract_z
Si Si1 0.657022 0.967344 0.034735
Si Si2 0.170053 0.802569 0.796938
Si Si3 0.820253 0.683906 0.396230
Si Si4 0.899146 0.209464 0.868119
Si Si5 0.133882 0.534349 0.179065
Si Si6 0.170829 0.517948 0.489017
Si Si7 0.121742 0.083214 0.272769
Si Si8 0.776951 0.758897 0.144408
O O1 0.674994 0.860230 0.104399
O O2 0.707588 0.105946 0.158467
O O3 0.765764 0.905465 0.860074
O O4 0.500000 0.000000 0.000000
O O5 0.193943 0.660159 0.631310
O O6 0.031119 0.892333 0.781396
O O7 0.133927 0.771516 0.948458
O O8 0.752695 0.601942 0.479852
O O9 0.876034 0.804985 0.542580
O O10 0.722915 0.740311 0.301131
O O11 0.960978 0.580819 0.257099
O O12 0.833569 0.341792 0.853420
O O13 0.072922 0.186558 0.821646
O O14 0.847622 0.070273 0.753748
O O15 0.209414 0.515361 0.316408
O O16 0.174499 0.390309 0.015283
O O17 0.000000 0.500000 0.500000
#
# Coordination Sequence:
#
# PCOD9010787 Si02
#       8
#     2   2   2   2   2   2   2   2
#     4  11  24  39  57  79 112 154 190 225 273 331
#     4  11  18  35  57  82 112 144 183 235 276 324
#     4  10  20  30  53  89 115 145 172 232 287 327
#     4  10  18  29  50  82 111 140 176 229 278 325
#     4  10  19  29  50  84 121 139 173 228 285 326
#     4  10  17  29  51  84 117 140 173 222 288 326
#     4  11  19  35  57  83 114 142 184 234 279 327
#     4  11  19  33  53  80 116 145 185 225 278 329
#
# _framework density 18.782146000000001
#
# number of rings (size 3 to 8) (size 9 to 14) (size 15 to 20)
#    0.000    1.500    5.000    5.250    0.000    3.000 
#    0.000    0.625    0.000    9.750    0.000    0.000 
#    0.000    0.000    0.000    0.000    0.000    0.000 
#
# Total GULP energy -89243.973078 kJ/mol
# GULP energy per Si atom -5577.748317 kJ/mol
# Density = 1.873940 g / cm^3
# Si number density = 18.782146 Si / 1000 Ang^3
#
#
#
# Elastic Constant Matrix: (Units=GPa)
#
#
# Indices 1 2 3 4 5 6 
#
# 1 53.9907 29.4566 25.4306 -1.5854 22.2137 -8.3061
# 2 29.4566 160.8218 61.0257 -32.3969 17.3897 -1.9194
# 3 25.4306 61.0257 108.2127 -4.1770 27.4441 1.8097
# 4 -1.5854 -32.3969 -4.1770 32.6034 1.0619 8.3208
# 5 22.2137 17.3897 27.4441 1.0619 10.0212 -4.1660
# 6 -8.3061 -1.9194 1.8097 8.3208 -4.1660 11.4183
#
#
#
# Elastic Compliance Matrix: (Units=1/GPa)
#
#
# Indices 1 2 3 4 5 6 
#
# 1 0.003956 -0.006851 -0.021484 -0.026773 0.088450 0.056913
# 2 -0.006851 0.011415 -0.005495 0.012550 0.005164 -0.009455
# 3 -0.021484 -0.005495 0.000355 -0.012638 0.064184 0.016019
# 4 -0.026773 0.012550 -0.012638 0.045650 0.055551 -0.028362
# 5 0.088450 0.005164 0.064184 0.055551 -0.331065 -0.106233
# 6 0.056913 -0.009455 0.016019 -0.028362 -0.106233 0.106759
#
#
# Mechanical properties :
#
#
# Convention : Reuss Voigt Hill
#
# Bulk Modulus (GPa) = -19.25602 61.65014 21.19706
# Shear Modulus (GPa) = -44.41162 24.61605 -9.89778
#
# Velocity S-wave (km/s) = -4.86796 3.62416 -2.29809
# Velocity P-wave (km/s) = 6.47075 7.09984 2.06606
#
# Compressibility (1/GPa) = -0.05193180
#
# Stress axis : x y z
#
# Youngs Moduli (GPa) = 252.75654 87.60621 2818.37979
#
# Poissons Ratio (x) = 0.60016 60.54926
# Poissons Ratio (y) = 1.73154 15.48563
# Poissons Ratio (z) = 5.43015 0.48135
#
# Static dielectric constant tensor:
#      x y z
#    x 1.626510 0.000380 0.001030 
#    y 0.000380 1.717530 -0.017260 
#    z 0.001030 -0.017260 1.678940 
# 
# From -- ./inp_files/182498.got.cif
#   From: 2010.05.17/outbox.cif.g08.bks.cpg/sg2_92_cif.got.tgz:182498.got - 2010.06.03 11:33:40.
