data_PCOD9010031
_publ_section_title
;
Structure prediction by ZEFSAII (Michael W. Deem and Ramdas Pophale) SiO2 
 PCOD9010031
Probable space group: P -1
;
_chemical_formula_sum "Si O2"
_cell_formula_units_Z 16
_cell_length_a 14.842641
_cell_length_b 7.987067
_cell_length_c 14.578524
_cell_angle_alpha 141.065333
_cell_angle_beta 132.923507
_cell_angle_gamma 51.490214
_cell_volume 778.937302
_symmetry_space_group_name_H-M "P -1"
_symmetry_group_IT_number 2
_symmetry_cell_setting 'triclinic'
loop_
_space_group_symop_operation_xyz
x,y,z
-x,-y,-z
loop_
_atom_site_type_symbol
_atom_site_label
_atom_site_fract_x
_atom_site_fract_y
_atom_site_fract_z
Si Si1 0.597897 0.823149 0.611269
Si Si2 0.387641 0.513291 0.276517
Si Si3 0.773195 0.774151 0.349975
Si Si4 0.467358 0.708180 0.874362
Si Si5 0.987531 0.325146 0.633331
Si Si6 0.747228 0.571518 0.449635
Si Si7 0.804416 0.381746 0.673687
Si Si8 0.487508 0.898600 0.157377
O O1 0.468044 0.717361 0.463971
O O2 0.663450 0.821281 0.556314
O O3 0.697917 0.587497 0.631127
O O4 0.569350 0.076554 0.768898
O O5 0.418649 0.496581 0.183308
O O6 0.244149 0.575198 0.237405
O O7 0.448962 0.211870 0.229176
O O8 0.775162 0.644969 0.397010
O O9 0.636288 0.808521 0.227126
O O10 0.881864 0.622472 0.292950
O O11 0.795082 0.077691 0.511609
O O12 0.343369 0.647659 0.713163
O O13 0.445051 0.712435 0.969854
O O14 0.500000 0.000000 0.000000
O O15 0.875360 0.457060 0.543080
O O16 0.937405 0.420063 0.741059
O O17 0.000000 0.000000 0.500000
#
# Coordination Sequence:
#
# PCOD9010031 Si02
#       8
#     2   2   2   2   2   2   2   2
#     4   9  15  29  51  72  98 130 172 204 237 300
#     4   9  14  29  50  74  98 130 171 211 232 293
#     4  11  19  30  51  77 109 126 165 214 249 295
#     4   9  20  31  51  75 106 133 164 204 246 307
#     4   9  20  32  53  76  94 131 174 214 243 286
#     4  10  21  34  49  79 102 132 164 209 256 290
#     4   9  15  29  50  74  94 130 168 205 244 282
#     4  10  17  29  50  77 103 137 159 196 260 291
#
# _framework density 20.540807000000001
#
# number of rings (size 3 to 8) (size 9 to 14) (size 15 to 20)
#    0.000    2.500    2.500    1.125    5.250    1.000 
#    0.000    0.000    0.000    0.750    9.750   14.875 
#    0.000    0.000    0.000    0.000    0.000    0.000 
#
# Total GULP energy -89139.554238 kJ/mol
# GULP energy per Si atom -5571.222140 kJ/mol
# Density = 2.049405 g / cm^3
# Si number density = 20.540807 Si / 1000 Ang^3
#
#
#
# Elastic Constant Matrix: (Units=GPa)
#
#
# Indices 1 2 3 4 5 6 
#
# 1 158.0350 40.5936 12.5708 2.4346 -16.1493 -25.2336
# 2 40.5936 53.3374 14.1422 -0.4745 2.8091 -12.3406
# 3 12.5708 14.1422 37.3949 4.0637 -18.8148 -10.8823
# 4 2.4346 -0.4745 4.0637 11.5381 -3.8423 2.0161
# 5 -16.1493 2.8091 -18.8148 -3.8423 31.0140 2.2462
# 6 -25.2336 -12.3406 -10.8823 2.0161 2.2462 33.3905
#
#
#
# Elastic Compliance Matrix: (Units=1/GPa)
#
#
# Indices 1 2 3 4 5 6 
#
# 1 0.009885 -0.008326 0.006421 -0.002742 0.009019 0.006044
# 2 -0.008326 0.030899 -0.018114 0.003475 -0.017707 0.000206
# 3 0.006421 -0.018114 0.054924 -0.012045 0.035770 0.014379
# 4 -0.002742 0.003475 -0.012045 0.094643 0.003448 -0.010660
# 5 0.009019 -0.017707 0.035770 0.003448 0.060115 0.007677
# 6 0.006044 0.000206 0.014379 -0.010660 0.007677 0.039406
#
#
# Mechanical properties :
#
#
# Convention : Reuss Voigt Hill
#
# Bulk Modulus (GPa) = 17.96316 42.59782 30.28049
# Shear Modulus (GPa) = 14.34856 27.28591 20.81723
#
# Velocity S-wave (km/s) = 2.64586 3.64864 3.18694
# Velocity P-wave (km/s) = 4.25419 6.20752 5.32125
#
# Compressibility (1/GPa) = 0.05566948
#
# Stress axis : x y z
#
# Youngs Moduli (GPa) = 101.16718 32.36323 18.20690
#
# Poissons Ratio (x) = 0.26946 -0.11690
# Poissons Ratio (y) = 0.84234 0.32979
# Poissons Ratio (z) = -0.64955 0.58622
#
# Static dielectric constant tensor:
#      x y z
#    x 1.875040 0.043270 -0.062610 
#    y 0.043270 1.758960 0.007900 
#    z -0.062610 0.007900 1.704180 
# 
# From -- ./inp_files/253625.got.cif
#   From: 2010.05.17/outbox.cif.g08.bks.cpg/sg2_127_cif.got.tgz:253625.got - 2010.06.03 11:33:40.
