data_PCOD9010704
_publ_section_title
;
Structure prediction by ZEFSAII (Michael W. Deem and Ramdas Pophale) SiO2 
 PCOD9010704
Probable space group: P -1
;
_chemical_formula_sum "Si O2"
_cell_formula_units_Z 16
_cell_length_a 8.302565
_cell_length_b 25.596560
_cell_length_c 10.397837
_cell_angle_alpha 159.898869
_cell_angle_beta 57.820042
_cell_angle_gamma 125.727081
_cell_volume 615.526297
_symmetry_space_group_name_H-M "P -1"
_symmetry_group_IT_number 2
_symmetry_cell_setting 'triclinic'
loop_
_space_group_symop_operation_xyz
x,y,z
-x,-y,-z
loop_
_atom_site_type_symbol
_atom_site_label
_atom_site_fract_x
_atom_site_fract_y
_atom_site_fract_z
Si Si1 0.581454 0.274394 0.029299
Si Si2 0.153581 0.227258 0.541672
Si Si3 0.163598 0.091015 0.786334
Si Si4 0.870764 0.101406 0.154357
Si Si5 0.729837 0.356799 0.650720
Si Si6 0.129761 0.441515 0.553548
Si Si7 0.508808 0.576696 0.330534
Si Si8 0.018571 0.737400 0.043513
O O1 0.679037 0.406203 0.184444
O O2 0.508151 0.364797 0.385810
O O3 0.397392 0.120579 0.724565
O O4 0.766865 0.230935 0.911139
O O5 0.293675 0.338009 0.636464
O O6 0.945025 0.171857 0.425286
O O7 0.128021 0.299436 0.857136
O O8 0.242083 0.080994 0.193555
O O9 0.036736 0.913567 0.385178
O O10 0.157420 0.268456 0.163021
O O11 0.068986 0.086634 0.960270
O O12 0.759851 0.198407 0.337438
O O13 0.648448 0.369558 0.569416
O O14 0.963888 0.456753 0.761407
O O15 0.562766 0.409420 0.924343
O O16 0.042782 0.403774 0.358635
#
# Coordination Sequence:
#
# PCOD9010704 Si02
#       8
#     2   2   2   2   2   2   2   2
#     4  12  23  41  62  95 129 162 208 259 314 369
#     4  10  21  40  64  89 122 163 207 259 308 374
#     4  10  22  43  64  93 125 163 209 262 308 373
#     4   9  20  42  64  87 122 165 211 254 311 370
#     4  10  23  41  63  89 123 167 207 259 310 370
#     4  11  23  42  65  93 126 164 210 256 315 374
#     4  11  23  39  63  90 127 162 210 259 309 366
#     4  11  23  40  67  91 126 167 205 251 322 376
#
# _framework density 25.994015999999998
#
# number of rings (size 3 to 8) (size 9 to 14) (size 15 to 20)
#    0.000    1.500    2.500    2.250    3.500    1.000 
#    4.500    0.000    0.000    0.000    0.000    0.000 
#    0.000    0.000    0.000    0.000    0.000    0.000 
#
# Total GULP energy -89197.949369 kJ/mol
# GULP energy per Si atom -5574.871836 kJ/mol
# Density = 2.593485 g / cm^3
# Si number density = 25.994016 Si / 1000 Ang^3
#
#
#
# Elastic Constant Matrix: (Units=GPa)
#
#
# Indices 1 2 3 4 5 6 
#
# 1 59.9560 24.9125 27.8189 5.4887 -24.9032 -5.2811
# 2 24.9125 81.6633 34.9212 -1.4689 -2.3516 16.5906
# 3 27.8189 34.9212 95.1921 14.5047 -16.8485 -7.1074
# 4 5.4887 -1.4689 14.5047 43.6462 -3.6173 -9.0372
# 5 -24.9032 -2.3516 -16.8485 -3.6173 42.4690 8.0191
# 6 -5.2811 16.5906 -7.1074 -9.0372 8.0191 40.1251
#
#
#
# Elastic Compliance Matrix: (Units=1/GPa)
#
#
# Indices 1 2 3 4 5 6 
#
# 1 0.026985 -0.007550 -0.002267 -0.001073 0.013797 0.003273
# 2 -0.007550 0.018970 -0.006373 0.001543 -0.004112 -0.008797
# 3 -0.002267 -0.006373 0.014935 -0.003908 0.003259 0.003451
# 4 -0.001073 0.001543 -0.003908 0.025238 -0.000769 0.004366
# 5 0.013797 -0.004112 0.003259 -0.000769 0.033147 -0.002704
# 6 0.003273 -0.008797 0.003451 0.004366 -0.002704 0.031125
#
#
# Mechanical properties :
#
#
# Convention : Reuss Voigt Hill
#
# Bulk Modulus (GPa) = 35.07282 45.79074 40.43178
# Shear Modulus (GPa) = 26.00356 35.19197 30.59777
#
# Velocity S-wave (km/s) = 3.16629 3.68346 3.43462
# Velocity P-wave (km/s) = 5.18547 5.97868 5.59615
#
# Compressibility (1/GPa) = 0.02851211
#
# Stress axis : x y z
#
# Youngs Moduli (GPa) = 37.05806 52.71458 66.95594
#
# Poissons Ratio (x) = 0.39798 0.15176
# Poissons Ratio (y) = 0.27978 0.42669
# Poissons Ratio (z) = 0.08399 0.33593
#
# Static dielectric constant tensor:
#      x y z
#    x 2.232280 0.028330 -0.009480 
#    y 0.028330 2.039420 0.071680 
#    z -0.009480 0.071680 2.184380 
# 
# From -- ./inp_files/392746.got.cif
#   From: 2010.05.17/outbox.cif.g08.bks.cpg/sg2_197_cif.got.tgz:392746.got - 2010.06.03 11:33:40.
