data_PCOD9010867
_publ_section_title
;
Structure prediction by ZEFSAII (Michael W. Deem and Ramdas Pophale) SiO2 
 PCOD9010867
Probable space group: P -1
;
_chemical_formula_sum "Si O2"
_cell_formula_units_Z 12
_cell_length_a 5.219475
_cell_length_b 15.272788
_cell_length_c 15.227238
_cell_angle_alpha 27.657866
_cell_angle_beta 116.084994
_cell_angle_gamma 107.081830
_cell_volume 492.547206
_symmetry_space_group_name_H-M "P -1"
_symmetry_group_IT_number 2
_symmetry_cell_setting 'triclinic'
loop_
_space_group_symop_operation_xyz
x,y,z
-x,-y,-z
loop_
_atom_site_type_symbol
_atom_site_label
_atom_site_fract_x
_atom_site_fract_y
_atom_site_fract_z
Si Si1 0.114295 0.898037 0.017853
Si Si2 0.397741 0.162280 0.724576
Si Si3 0.853608 0.925382 0.626992
Si Si4 0.415116 0.838018 0.890867
Si Si5 0.734200 0.598199 0.990746
Si Si6 0.795440 0.464452 0.752917
O O1 0.446950 0.807471 0.187032
O O2 0.038392 0.710245 0.129927
O O3 0.133675 0.068525 0.801527
O O4 0.000000 0.000000 0.000000
O O5 0.344447 0.356409 0.487897
O O6 0.548720 0.990139 0.832099
O O7 0.880073 0.697478 0.847372
O O8 0.077512 0.951735 0.715528
O O9 0.500000 0.000000 0.500000
O O10 0.000000 0.000000 0.500000
O O11 0.568431 0.764097 0.887369
O O12 0.396201 0.650509 0.113909
O O13 0.500000 0.500000 0.000000
O O14 0.982518 0.470887 0.202554
#
# Coordination Sequence:
#
# PCOD9010867 Si02
#       6
#     2   2   2   2   2   2
#     4  10  21  40  64  94 129 169 223 282 343 418
#     4  10  22  39  66  93 130 175 221 279 351 410
#     4  11  23  43  69  96 133 184 235 287 348 408
#     4  10  23  42  62  96 135 176 229 285 341 417
#     4  11  25  43  66  98 140 181 237 288 345 415
#     4  10  23  40  62  96 133 173 228 283 345 413
#
# _framework density 24.363147000000001
#
# number of rings (size 3 to 8) (size 9 to 14) (size 15 to 20)
#    0.000    1.667    1.667    1.500    2.333    6.000 
#    0.000    0.000    0.000    0.000    0.000    0.000 
#    0.000    0.000    0.000    0.000    0.000    0.000 
#
# Total GULP energy -66881.561924 kJ/mol
# GULP energy per Si atom -5573.463494 kJ/mol
# Density = 2.430770 g / cm^3
# Si number density = 24.363147 Si / 1000 Ang^3
#
#
#
# Elastic Constant Matrix: (Units=GPa)
#
#
# Indices 1 2 3 4 5 6 
#
# 1 73.2345 15.5907 21.6464 -0.6147 -29.1943 -18.7207
# 2 15.5907 150.9723 22.7715 4.1102 -21.3401 13.2754
# 3 21.6464 22.7715 139.7517 9.0186 -45.8829 -11.6223
# 4 -0.6147 4.1102 9.0186 40.5190 -5.2282 10.0371
# 5 -29.1943 -21.3401 -45.8829 -5.2282 37.4095 6.6424
# 6 -18.7207 13.2754 -11.6223 10.0371 6.6424 39.0869
#
#
#
# Elastic Compliance Matrix: (Units=1/GPa)
#
#
# Indices 1 2 3 4 5 6 
#
# 1 0.023476 -0.000840 0.004330 -0.000015 0.021523 0.009163
# 2 -0.000840 0.007681 -0.000020 0.000783 0.004519 -0.003986
# 3 0.004330 -0.000020 0.012878 -0.001180 0.018452 0.003077
# 4 -0.000015 0.000783 -0.001180 0.027508 0.004327 -0.008423
# 5 0.021523 0.004519 0.018452 0.004327 0.069091 0.001408
# 6 0.009163 -0.003986 0.003077 -0.008423 0.001408 0.034165
#
#
# Mechanical properties :
#
#
# Convention : Reuss Voigt Hill
#
# Bulk Modulus (GPa) = 19.61752 53.77508 36.69630
# Shear Modulus (GPa) = 27.04866 43.66640 35.35753
#
# Velocity S-wave (km/s) = 3.33562 4.23817 3.81369
# Velocity P-wave (km/s) = 4.78590 6.78746 5.87258
#
# Compressibility (1/GPa) = 0.05097484
#
# Stress axis : x y z
#
# Youngs Moduli (GPa) = 42.59683 130.18319 77.65083
#
# Poissons Ratio (x) = 0.10942 -0.33623
# Poissons Ratio (y) = 0.03580 0.00155
# Poissons Ratio (z) = -0.18445 0.00259
#
# Static dielectric constant tensor:
#      x y z
#    x 2.414570 0.218840 0.236710 
#    y 0.218840 2.174100 0.101270 
#    z 0.236710 0.101270 1.996090 
# 
# From -- ./inp_files/86004.got.cif
#   From: 2010.05.17/outbox.cif.g08.bks.cpg/sg2_44_cif.got.tgz:86004.got - 2010.06.03 11:33:40.
