data_PCOD9010318
_publ_section_title
;
Structure prediction by ZEFSAII (Michael W. Deem and Ramdas Pophale) SiO2 
 PCOD9010318
Probable space group: P -1
;
_chemical_formula_sum "Si O2"
_cell_formula_units_Z 16
_cell_length_a 11.529220
_cell_length_b 11.761441
_cell_length_c 20.618584
_cell_angle_alpha 36.526783
_cell_angle_beta 148.740991
_cell_angle_gamma 152.774597
_cell_volume 652.519612
_symmetry_space_group_name_H-M "P -1"
_symmetry_group_IT_number 2
_symmetry_cell_setting 'triclinic'
loop_
_space_group_symop_operation_xyz
x,y,z
-x,-y,-z
loop_
_atom_site_type_symbol
_atom_site_label
_atom_site_fract_x
_atom_site_fract_y
_atom_site_fract_z
Si Si1 0.574406 0.518624 0.653857
Si Si2 0.029975 0.333342 0.838802
Si Si3 0.529799 0.124476 0.604623
Si Si4 0.839027 0.619527 0.369003
Si Si5 0.219178 0.077474 0.980428
Si Si6 0.179472 0.711143 0.849362
Si Si7 0.718129 0.877103 0.732208
Si Si8 0.714731 0.923769 0.366484
O O1 0.609056 0.761614 0.542077
O O2 0.277874 0.365666 0.625197
O O3 0.514952 0.371007 0.626338
O O4 0.863393 0.570750 0.797366
O O5 0.244211 0.303138 0.919329
O O6 0.141638 0.550401 0.843246
O O7 0.859993 0.334676 0.695819
O O8 0.833968 0.091857 0.905920
O O9 0.535226 0.956223 0.634984
O O10 0.377604 0.984939 0.662828
O O11 0.000000 0.500000 0.500000
O O12 0.052343 0.895330 0.312222
O O13 0.523753 0.404313 0.281158
O O14 0.920733 0.907949 0.872600
O O15 0.499787 0.177978 0.023726
O O16 0.237399 0.947707 0.736903
O O17 0.000000 0.000000 0.500000
#
# Coordination Sequence:
#
# PCOD9010318 Si02
#       8
#     2   2   2   2   2   2   2   2
#     4  12  26  42  68 101 145 187 237 294 359 428
#     4  10  21  40  63 102 142 182 228 283 364 430
#     4  11  21  42  65 108 138 178 228 295 365 429
#     4  12  28  51  76 103 141 190 250 298 352 413
#     4  10  23  42  67  99 143 186 235 288 352 429
#     4  12  22  39  66  97 144 188 226 288 354 434
#     4  11  28  48  76 107 138 189 245 300 351 416
#     4  12  24  37  65 104 146 180 225 287 373 435
#
# _framework density 24.520336
#
# number of rings (size 3 to 8) (size 9 to 14) (size 15 to 20)
#    0.000    0.750    5.000    1.875    5.250    2.000 
#    0.000    1.250    0.000    0.000    0.000    0.000 
#    0.000    0.000    0.000    0.000    0.000    0.000 
#
# Total GULP energy -89272.738824 kJ/mol
# GULP energy per Si atom -5579.546176 kJ/mol
# Density = 2.446453 g / cm^3
# Si number density = 24.520336 Si / 1000 Ang^3
#
#
#
# Elastic Constant Matrix: (Units=GPa)
#
#
# Indices 1 2 3 4 5 6 
#
# 1 100.9274 14.2051 13.0017 -4.6592 18.8114 25.6788
# 2 14.2051 67.1408 26.2350 10.8477 8.2820 -11.6564
# 3 13.0017 26.2350 102.2386 16.7572 23.9154 9.0803
# 4 -4.6592 10.8477 16.7572 27.6865 3.7125 0.7560
# 5 18.8114 8.2820 23.9154 3.7125 35.2533 9.3155
# 6 25.6788 -11.6564 9.0803 0.7560 9.3155 32.9059
#
#
#
# Elastic Compliance Matrix: (Units=1/GPa)
#
#
# Indices 1 2 3 4 5 6 
#
# 1 0.015024 -0.006147 0.000976 0.005285 -0.004339 -0.013064
# 2 -0.006147 0.021834 -0.004522 -0.006997 -0.001868 0.014469
# 3 0.000976 -0.004522 0.013712 -0.005296 -0.007145 -0.004003
# 4 0.005285 -0.006997 -0.005296 0.043192 -0.000553 -0.005977
# 5 -0.004339 -0.001868 -0.007145 -0.000553 0.037594 -0.005934
# 6 -0.013064 0.014469 -0.004003 -0.005977 -0.005934 0.048631
#
#
# Mechanical properties :
#
#
# Convention : Reuss Voigt Hill
#
# Bulk Modulus (GPa) = 32.06730 41.91006 36.98868
# Shear Modulus (GPa) = 23.83575 33.62681 28.73128
#
# Velocity S-wave (km/s) = 3.12120 3.70724 3.42677
# Velocity P-wave (km/s) = 5.10837 5.95432 5.54749
#
# Compressibility (1/GPa) = 0.03118441
#
# Stress axis : x y z
#
# Youngs Moduli (GPa) = 66.55987 45.79935 72.92716
#
# Poissons Ratio (x) = 0.28151 -0.07116
# Poissons Ratio (y) = 0.40911 0.32981
# Poissons Ratio (z) = -0.06495 0.20713
#
# Static dielectric constant tensor:
#      x y z
#    x 1.539240 -0.772730 -0.268850 
#    y -0.772730 0.514920 -0.527550 
#    z -0.268850 -0.527550 1.781800 
# 
# From -- ./inp_files/410348.got.cif
#   From: 2010.05.17/outbox.cif.g08.bks.cpg/sg2_206_cif.got.tgz:410348.got - 2010.06.03 11:33:40.
