data_PCOD9010353
_publ_section_title
;
Structure prediction by ZEFSAII (Michael W. Deem and Ramdas Pophale) SiO2 
 PCOD9010353
Probable space group: P -1
;
_chemical_formula_sum "Si O2"
_cell_formula_units_Z 10
_cell_length_a 7.902979
_cell_length_b 6.460017
_cell_length_c 7.891345
_cell_angle_alpha 86.133580
_cell_angle_beta 80.787668
_cell_angle_gamma 64.198795
_cell_volume 358.037053
_symmetry_space_group_name_H-M "P -1"
_symmetry_group_IT_number 2
_symmetry_cell_setting 'triclinic'
loop_
_space_group_symop_operation_xyz
x,y,z
-x,-y,-z
loop_
_atom_site_type_symbol
_atom_site_label
_atom_site_fract_x
_atom_site_fract_y
_atom_site_fract_z
Si Si1 0.445869 0.525340 0.264196
Si Si2 0.695224 0.772800 0.509391
Si Si3 0.911310 0.823058 0.145361
Si Si4 0.105398 0.025751 0.312250
Si Si5 0.286742 0.381285 0.999374
O O1 0.378273 0.421147 0.438240
O O2 0.288243 0.786466 0.266547
O O3 0.637247 0.546120 0.187240
O O4 0.435695 0.359639 0.122903
O O5 0.829250 0.759973 0.332513
O O6 0.500000 0.000000 0.500000
O O7 0.814888 0.792784 0.652866
O O8 0.759103 0.833183 0.026993
O O9 0.964346 0.029597 0.181959
O O10 0.098646 0.598494 0.077699
O O11 0.000000 0.000000 0.500000
#
# Coordination Sequence:
#
# PCOD9010353 Si02
#       5
#     2   2   2   2   2
#     4  10  21  40  63  87 122 157 195 249 295 349
#     4  11  23  39  62  89 117 159 207 244 288 349
#     4   9  19  38  59  86 120 152 196 243 291 357
#     4   9  20  37  59  89 119 150 195 244 295 352
#     4   9  19  38  63  88 118 158 193 239 310 356
#
# _framework density 27.930067999999999
#
# number of rings (size 3 to 8) (size 9 to 14) (size 15 to 20)
#    0.000    2.400    0.000    1.200    0.000   10.400 
#    0.000   28.000    0.000    0.000    0.000    0.000 
#    0.000    0.000    0.000    0.000    0.000    0.000 
#
# Total GULP energy -55936.741529 kJ/mol
# GULP energy per Si atom -5593.674153 kJ/mol
# Density = 2.786650 g / cm^3
# Si number density = 27.930068 Si / 1000 Ang^3
#
#
#
# Elastic Constant Matrix: (Units=GPa)
#
#
# Indices 1 2 3 4 5 6 
#
# 1 154.7940 50.6033 43.4841 20.9773 -15.0029 59.1322
# 2 50.6033 102.1384 19.7320 -3.5743 -25.1313 10.9856
# 3 43.4841 19.7320 150.4181 17.8049 -28.4517 -4.7343
# 4 20.9773 -3.5743 17.8049 42.3097 12.8107 -2.7367
# 5 -15.0029 -25.1313 -28.4517 12.8107 73.2411 15.5430
# 6 59.1322 10.9856 -4.7343 -2.7367 15.5430 68.3396
#
#
#
# Elastic Compliance Matrix: (Units=1/GPa)
#
#
# Indices 1 2 3 4 5 6 
#
# 1 0.016728 -0.005073 -0.002282 -0.010575 0.005958 -0.015595
# 2 -0.005073 0.012807 -0.000056 0.003017 0.002402 0.001902
# 3 -0.002282 -0.000056 0.008291 -0.003127 0.002905 0.001772
# 4 -0.010575 0.003017 -0.003127 0.034581 -0.011013 0.012338
# 5 0.005958 0.002402 0.002905 -0.011013 0.020993 -0.010556
# 6 -0.015595 0.001902 0.001772 0.012338 -0.010556 0.030839
#
#
# Mechanical properties :
#
#
# Convention : Reuss Voigt Hill
#
# Bulk Modulus (GPa) = 43.47502 70.55438 57.01470
# Shear Modulus (GPa) = 34.07599 56.34682 45.21141
#
# Velocity S-wave (km/s) = 3.49671 4.49645 4.02772
# Velocity P-wave (km/s) = 5.64819 7.23003 6.48750
#
# Compressibility (1/GPa) = 0.02300172
#
# Stress axis : x y z
#
# Youngs Moduli (GPa) = 59.77996 78.08136 120.61790
#
# Poissons Ratio (x) = 0.39614 0.27530
# Poissons Ratio (y) = 0.30329 0.00678
# Poissons Ratio (z) = 0.13644 0.00439
#
# Static dielectric constant tensor:
#      x y z
#    x 2.236330 0.066840 0.103990 
#    y 0.066840 2.070600 -0.077170 
#    z 0.103990 -0.077170 2.322820 
# 
# From -- ./inp_files/15530.got.cif
#   From: 2010.05.17/outbox.cif.g08.bks.cpg/sg2_8_cif.got.tgz:15530.got - 2010.06.03 11:33:40.
