data_PCOD9010890
_publ_section_title
;
Structure prediction by ZEFSAII (Michael W. Deem and Ramdas Pophale) SiO2 
 PCOD9010890
Probable space group: P -1
;
_chemical_formula_sum "Si O2"
_cell_formula_units_Z 14
_cell_length_a 17.925903
_cell_length_b 7.544493
_cell_length_c 6.202017
_cell_angle_alpha 76.889148
_cell_angle_beta 61.393226
_cell_angle_gamma 47.205109
_cell_volume 534.002203
_symmetry_space_group_name_H-M "P -1"
_symmetry_group_IT_number 2
_symmetry_cell_setting 'triclinic'
loop_
_space_group_symop_operation_xyz
x,y,z
-x,-y,-z
loop_
_atom_site_type_symbol
_atom_site_label
_atom_site_fract_x
_atom_site_fract_y
_atom_site_fract_z
Si Si1 0.635268 0.185546 0.942491
Si Si2 0.400391 0.462855 0.383821
Si Si3 0.828897 0.737645 0.078743
Si Si4 0.893996 0.013094 0.126233
Si Si5 0.332418 0.499282 0.905000
Si Si6 0.973824 0.334862 0.651288
Si Si7 0.232636 0.430277 0.410141
O O1 0.516469 0.261431 0.148036
O O2 0.639730 0.369388 0.019123
O O3 0.738292 0.926484 0.970725
O O4 0.630705 0.278594 0.683176
O O5 0.422050 0.373120 0.623664
O O6 0.291973 0.499279 0.451777
O O7 0.895414 0.826603 0.030300
O O8 0.776735 0.728780 0.374558
O O9 0.902843 0.477047 0.930488
O O10 0.905513 0.925851 0.381068
O O11 0.786415 0.271332 0.107432
O O12 0.000000 0.000000 0.000000
O O13 0.313092 0.343308 0.110883
O O14 0.893426 0.359590 0.575570
O O15 0.000000 0.500000 0.500000
#
# Coordination Sequence:
#
# PCOD9010890 Si02
#       7
#     2   2   2   2   2   2   2
#     4   9  22  41  64  95 124 165 208 257 321 367
#     4  10  21  41  67  92 127 162 209 265 308 365
#     4  11  25  43  63  92 132 163 205 262 315 375
#     4  11  23  41  65  94 122 164 218 250 308 370
#     4  10  21  40  64  95 124 165 212 257 303 377
#     4  12  25  42  62  91 129 170 204 255 318 370
#     4  11  23  40  62  93 127 165 211 251 312 378
#
# _framework density 26.217120999999999
#
# number of rings (size 3 to 8) (size 9 to 14) (size 15 to 20)
#    0.000    1.429    2.857    1.714    2.000    0.571 
#    0.000    3.571    0.000    0.000    0.000    0.000 
#    0.000    0.000    0.000    0.000    0.000    0.000 
#
# Total GULP energy -78117.724932 kJ/mol
# GULP energy per Si atom -5579.837495 kJ/mol
# Density = 2.615745 g / cm^3
# Si number density = 26.217121 Si / 1000 Ang^3
#
#
#
# Elastic Constant Matrix: (Units=GPa)
#
#
# Indices 1 2 3 4 5 6 
#
# 1 155.0391 30.7923 8.7854 9.7800 -3.2336 1.0408
# 2 30.7923 80.8175 19.6117 -10.2778 -5.5131 -12.9504
# 3 8.7854 19.6117 141.3947 -33.5874 -14.8029 13.7876
# 4 9.7800 -10.2778 -33.5874 30.2348 -0.2591 5.2938
# 5 -3.2336 -5.5131 -14.8029 -0.2591 30.7038 -4.3855
# 6 1.0408 -12.9504 13.7876 5.2938 -4.3855 44.7736
#
#
#
# Elastic Compliance Matrix: (Units=1/GPa)
#
#
# Indices 1 2 3 4 5 6 
#
# 1 0.007451 -0.003227 -0.001173 -0.004775 -0.000432 -0.000223
# 2 -0.003227 0.015321 -0.001091 0.004258 0.002577 0.004591
# 3 -0.001173 -0.001091 0.011535 0.013740 0.004642 -0.005010
# 4 -0.004775 0.004258 0.013740 0.052877 0.006112 -0.008542
# 5 -0.000432 0.002577 0.004642 0.006112 0.035574 0.002088
# 6 -0.000223 0.004591 -0.005010 -0.008542 0.002088 0.026425
#
#
# Mechanical properties :
#
#
# Convention : Reuss Voigt Hill
#
# Bulk Modulus (GPa) = 42.87273 55.06999 48.97136
# Shear Modulus (GPa) = 29.77251 42.34657 36.05954
#
# Velocity S-wave (km/s) = 3.37354 4.02335 3.71269
# Velocity P-wave (km/s) = 5.61808 6.52948 6.09085
#
# Compressibility (1/GPa) = 0.02332485
#
# Stress axis : x y z
#
# Youngs Moduli (GPa) = 134.21005 65.27112 86.69319
#
# Poissons Ratio (x) = 0.21061 0.10171
# Poissons Ratio (y) = 0.43305 0.09458
# Poissons Ratio (z) = 0.15746 0.07121
#
# Static dielectric constant tensor:
#      x y z
#    x 2.058110 0.040710 0.027630 
#    y 0.040710 2.349380 -0.083670 
#    z 0.027630 -0.083670 2.271850 
# 
# From -- ./inp_files/34357.got.cif
#   From: 2010.05.17/outbox.cif.g08.bks.cpg/sg2_18_cif.got.tgz:34357.got - 2010.06.03 11:33:40.
