data_PCOD9010486
_publ_section_title
;
Structure prediction by ZEFSAII (Michael W. Deem and Ramdas Pophale) SiO2 
 PCOD9010486
Probable space group: P -1
;
_chemical_formula_sum "Si O2"
_cell_formula_units_Z 14
_cell_length_a 9.028516
_cell_length_b 10.253988
_cell_length_c 9.470886
_cell_angle_alpha 116.964303
_cell_angle_beta 123.652316
_cell_angle_gamma 92.227980
_cell_volume 598.708951
_symmetry_space_group_name_H-M "P -1"
_symmetry_group_IT_number 2
_symmetry_cell_setting 'triclinic'
loop_
_space_group_symop_operation_xyz
x,y,z
-x,-y,-z
loop_
_atom_site_type_symbol
_atom_site_label
_atom_site_fract_x
_atom_site_fract_y
_atom_site_fract_z
Si Si1 0.716513 0.610506 0.834312
Si Si2 0.588714 0.014901 0.897663
Si Si3 0.696754 0.294893 0.549380
Si Si4 0.456913 0.830446 0.321942
Si Si5 0.331436 0.410289 0.649189
Si Si6 0.889620 0.551395 0.188132
Si Si7 0.001325 0.257398 0.173559
O O1 0.677266 0.462132 0.634249
O O2 0.501626 0.571316 0.760229
O O3 0.860269 0.755261 0.887196
O O4 0.830452 0.590433 0.022626
O O5 0.533642 0.130570 0.819091
O O6 0.484051 0.841697 0.684935
O O7 0.822030 0.098610 0.048966
O O8 0.500000 0.000000 0.000000
O O9 0.720684 0.261782 0.711631
O O10 0.898101 0.320033 0.595688
O O11 0.586744 0.729192 0.367767
O O12 0.500000 0.000000 0.500000
O O13 0.268905 0.445522 0.785485
O O14 0.141905 0.340107 0.418023
O O15 0.912691 0.383891 0.134475
#
# Coordination Sequence:
#
# PCOD9010486 Si02
#       7
#     2   2   2   2   2   2   2
#     4  10  21  40  63  92 126 168 209 252 308 376
#     4  11  22  39  63  91 121 163 212 261 309 362
#     4   9  19  39  64  88 122 167 206 248 308 373
#     4   9  20  42  63  82 121 169 204 249 310 372
#     4  11  22  38  63  97 126 159 207 263 313 365
#     4  11  21  39  66  96 125 162 209 259 310 368
#     4  11  22  39  63  94 128 166 206 252 311 378
#
# _framework density 23.383648999999998
#
# number of rings (size 3 to 8) (size 9 to 14) (size 15 to 20)
#    0.000    1.714    0.000    6.429    0.000    1.143 
#    0.000   18.571    0.000    5.143    0.000    1.000 
#    0.000    0.000    0.000    0.000    0.000    0.000 
#
# Total GULP energy -78028.110951 kJ/mol
# GULP energy per Si atom -5573.436497 kJ/mol
# Density = 2.333043 g / cm^3
# Si number density = 23.383649 Si / 1000 Ang^3
#
#
#
# Elastic Constant Matrix: (Units=GPa)
#
#
# Indices 1 2 3 4 5 6 
#
# 1 162.2451 49.0252 59.7539 5.2886 0.9903 49.6202
# 2 49.0252 93.4311 41.9516 -8.1502 -1.2054 27.8380
# 3 59.7539 41.9516 116.8973 -0.9248 10.7972 24.1530
# 4 5.2886 -8.1502 -0.9248 40.4573 16.9537 3.7232
# 5 0.9903 -1.2054 10.7972 16.9537 39.3155 2.5155
# 6 49.6202 27.8380 24.1530 3.7232 2.5155 51.3417
#
#
#
# Elastic Compliance Matrix: (Units=1/GPa)
#
#
# Indices 1 2 3 4 5 6 
#
# 1 0.010190 -0.001876 -0.003219 -0.001890 0.001850 -0.007270
# 2 -0.001876 0.015012 -0.003387 0.003559 0.000223 -0.005002
# 3 -0.003219 -0.003387 0.011922 0.001747 -0.004012 -0.000591
# 4 -0.001890 0.003559 0.001747 0.031763 -0.013857 -0.002549
# 5 0.001850 0.000223 -0.004012 -0.013857 0.032512 -0.000609
# 6 -0.007270 -0.005002 -0.000591 -0.002549 -0.000609 0.029708
#
#
# Mechanical properties :
#
#
# Convention : Reuss Voigt Hill
#
# Bulk Modulus (GPa) = 49.60637 74.89278 62.24957
# Shear Modulus (GPa) = 32.30149 41.01241 36.65695
#
# Velocity S-wave (km/s) = 3.72071 4.19249 3.96363
# Velocity P-wave (km/s) = 6.30226 7.45207 6.90115
#
# Compressibility (1/GPa) = 0.02015870
#
# Stress axis : x y z
#
# Youngs Moduli (GPa) = 98.13803 66.61240 83.87758
#
# Poissons Ratio (x) = 0.12498 0.27000
# Poissons Ratio (y) = 0.18413 0.28413
# Poissons Ratio (z) = 0.31591 0.22564
#
# Static dielectric constant tensor:
#      x y z
#    x 1.936920 -0.000440 0.057690 
#    y -0.000440 1.983840 0.003000 
#    z 0.057690 0.003000 1.944710 
# 
# From -- ./inp_files/181958.got.cif
#   From: 2010.05.17/outbox.cif.g08.bks.cpg/sg2_91_cif.got.tgz:181958.got - 2010.06.03 11:33:40.
