data_PCOD9010628
_publ_section_title
;
Structure prediction by ZEFSAII (Michael W. Deem and Ramdas Pophale) SiO2 
 PCOD9010628
Probable space group: P -1
;
_chemical_formula_sum "Si O2"
_cell_formula_units_Z 14
_cell_length_a 5.210131
_cell_length_b 13.134305
_cell_length_c 22.285872
_cell_angle_alpha 28.568098
_cell_angle_beta 85.029970
_cell_angle_gamma 98.394812
_cell_volume 642.773910
_symmetry_space_group_name_H-M "P -1"
_symmetry_group_IT_number 2
_symmetry_cell_setting 'triclinic'
loop_
_space_group_symop_operation_xyz
x,y,z
-x,-y,-z
loop_
_atom_site_type_symbol
_atom_site_label
_atom_site_fract_x
_atom_site_fract_y
_atom_site_fract_z
Si Si1 0.172797 0.435246 0.480138
Si Si2 0.335558 0.138209 0.402620
Si Si3 0.114234 0.782554 0.848245
Si Si4 0.222009 0.169949 0.726675
Si Si5 0.738136 0.961419 0.683703
Si Si6 0.558363 0.675041 0.168282
Si Si7 0.131204 0.833664 0.155927
O O1 0.465281 0.666001 0.335419
O O2 0.000000 0.500000 0.500000
O O3 0.265339 0.272227 0.605046
O O4 0.956224 0.249450 0.532546
O O5 0.343316 0.126564 0.336622
O O6 0.465438 0.411822 0.280954
O O7 0.500000 0.000000 0.500000
O O8 0.000000 0.000000 0.500000
O O9 0.444454 0.904312 0.754467
O O10 0.903995 0.835248 0.780610
O O11 0.122944 0.893478 0.857027
O O12 0.000000 0.500000 0.000000
O O13 0.984997 0.199065 0.756683
O O14 0.300322 0.694224 0.199588
O O15 0.839204 0.751102 0.165359
O O16 0.660378 0.883815 0.007557
#
# Coordination Sequence:
#
# PCOD9010628 Si02
#       7
#     2   2   2   2   2   2   2
#     4  10  21  40  63  98 137 167 225 270 333 413
#     4  12  27  46  70  99 134 187 235 280 345 408
#     4  11  24  44  68 104 139 175 224 271 350 423
#     4  10  23  39  67 100 130 179 218 274 343 407
#     4  11  25  45  67  99 137 180 220 288 337 401
#     4  10  24  46  64 101 131 171 236 281 339 407
#     4  10  23  43  71  95 132 175 223 290 340 397
#
# _framework density 21.780595999999999
#
# number of rings (size 3 to 8) (size 9 to 14) (size 15 to 20)
#    0.000    1.429    1.429    2.143    6.000    1.143 
#    5.143    0.000    0.000    0.000    0.000    0.000 
#    0.000    0.000    0.000    0.000    0.000    0.000 
#
# Total GULP energy -78237.541423 kJ/mol
# GULP energy per Si atom -5588.395816 kJ/mol
# Density = 2.173102 g / cm^3
# Si number density = 21.780596 Si / 1000 Ang^3
#
#
#
# Elastic Constant Matrix: (Units=GPa)
#
#
# Indices 1 2 3 4 5 6 
#
# 1 169.0076 59.1431 55.1983 -7.5603 4.5823 -20.5831
# 2 59.1431 145.2725 83.1502 -25.6642 -4.9600 -12.9959
# 3 55.1983 83.1502 97.1354 -30.5792 0.1670 1.7146
# 4 -7.5603 -25.6642 -30.5792 49.4165 -0.6350 1.9769
# 5 4.5823 -4.9600 0.1670 -0.6350 35.1468 -0.1243
# 6 -20.5831 -12.9959 1.7146 1.9769 -0.1243 28.6773
#
#
#
# Elastic Compliance Matrix: (Units=1/GPa)
#
#
# Indices 1 2 3 4 5 6 
#
# 1 0.008522 -0.000148 -0.005627 -0.002532 -0.001128 0.006556
# 2 -0.000148 0.015164 -0.013225 -0.000607 0.002238 0.007608
# 3 -0.005627 -0.013225 0.028259 0.010240 -0.001126 -0.012432
# 4 -0.002532 -0.000607 0.010240 0.026058 0.000651 -0.004498
# 5 -0.001128 0.002238 -0.001126 0.000651 0.028933 0.000353
# 6 0.006556 0.007608 -0.012432 -0.004498 0.000353 0.044079
#
#
# Mechanical properties :
#
#
# Convention : Reuss Voigt Hill
#
# Bulk Modulus (GPa) = 71.71687 89.59985 80.65836
# Shear Modulus (GPa) = 25.81794 36.90972 31.36383
#
# Velocity S-wave (km/s) = 3.44665 4.12104 3.79884
# Velocity P-wave (km/s) = 6.98839 7.99191 7.50694
#
# Compressibility (1/GPa) = 0.01394372
#
# Stress axis : x y z
#
# Youngs Moduli (GPa) = 117.34051 65.94741 35.38731
#
# Poissons Ratio (x) = 0.00978 0.19912
# Poissons Ratio (y) = 0.01740 0.46801
# Poissons Ratio (z) = 0.66024 0.87218
#
# Static dielectric constant tensor:
#      x y z
#    x 1.808280 0.019400 0.051530 
#    y 0.019400 1.813420 0.004950 
#    z 0.051530 0.004950 1.871610 
# 
# From -- ./inp_files/582943.got.cif
#   From: 2010.05.17/outbox.cif.g08.bks.cpg/sg2_292_cif.got.tgz:582943.got - 2010.06.03 11:33:40.
