data_PCOD9010198
_publ_section_title
;
Structure prediction by ZEFSAII (Michael W. Deem and Ramdas Pophale) SiO2 
 PCOD9010198
Probable space group: P -1
;
_chemical_formula_sum "Si O2"
_cell_formula_units_Z 15
_cell_length_a 5.572416
_cell_length_b 11.182814
_cell_length_c 20.147558
_cell_angle_alpha 38.584068
_cell_angle_beta 117.607198
_cell_angle_gamma 132.191795
_cell_volume 574.955177
_symmetry_space_group_name_H-M "P -1"
_symmetry_group_IT_number 2
_symmetry_cell_setting 'triclinic'
loop_
_space_group_symop_operation_xyz
x,y,z
-x,-y,-z
loop_
_atom_site_type_symbol
_atom_site_label
_atom_site_fract_x
_atom_site_fract_y
_atom_site_fract_z
Si Si1 0.500000 0.500000 0.500000
Si Si2 0.628462 0.482627 0.927899
Si Si3 0.309572 0.087330 0.573440
Si Si4 0.988418 0.258046 0.651656
Si Si5 0.454239 0.718951 0.139875
Si Si6 0.800756 0.361327 0.254675
Si Si7 0.043861 0.141292 0.096781
Si Si8 0.645502 0.376381 0.369757
O O1 0.244738 0.237089 0.548547
O O2 0.675353 0.599199 0.406829
O O3 0.633356 0.364797 0.911339
O O4 0.472839 0.626802 0.823079
O O5 0.939520 0.674949 0.928387
O O6 0.362842 0.286410 0.028772
O O7 0.677848 0.169133 0.605570
O O8 0.360624 0.177941 0.465216
O O9 0.118999 0.817741 0.684870
O O10 0.015777 0.455550 0.618322
O O11 0.947250 0.048316 0.777199
O O12 0.576778 0.564668 0.253429
O O13 0.118202 0.621360 0.178153
O O14 0.729711 0.983869 0.077591
O O15 0.700147 0.281124 0.351786
#
# Coordination Sequence:
#
# PCOD9010198 Si02
#       8
#     1   2   2   2   2   2   2   2
#     4  10  22  34  60  92 122 156 208 256 308 366
#     4  10  22  44  65  93 128 171 214 264 319 378
#     4  11  22  38  61  89 127 169 207 260 313 383
#     4  10  21  40  62  91 124 166 210 260 313 380
#     4  10  23  40  61  97 126 164 214 269 315 376
#     4  11  23  40  63  93 128 166 214 261 319 378
#     4  10  21  42  69  89 130 172 211 263 322 373
#     4   9  21  38  58  88 125 167 209 257 320 375
#
# _framework density 26.088992000000001
#
# number of rings (size 3 to 8) (size 9 to 14) (size 15 to 20)
#    0.000    1.867    1.333    2.400    1.867    7.467 
#    0.000    4.000    0.000    0.000    0.000    0.000 
#    0.000    0.000    0.000    0.000    0.000    0.000 
#
# Total GULP energy -83712.744759 kJ/mol
# GULP energy per Si atom -5580.849651 kJ/mol
# Density = 2.602961 g / cm^3
# Si number density = 26.088992 Si / 1000 Ang^3
#
#
#
# Elastic Constant Matrix: (Units=GPa)
#
#
# Indices 1 2 3 4 5 6 
#
# 1 47.1017 27.6868 25.9135 -3.9294 -4.1025 -18.0570
# 2 27.6868 149.1885 60.3046 -18.6274 -4.5012 0.3271
# 3 25.9135 60.3046 146.9736 -6.1035 -1.3257 -20.4445
# 4 -3.9294 -18.6274 -6.1035 46.7824 -3.1612 1.8636
# 5 -4.1025 -4.5012 -1.3257 -3.1612 37.6262 -2.0183
# 6 -18.0570 0.3271 -20.4445 1.8636 -2.0183 41.9833
#
#
#
# Elastic Compliance Matrix: (Units=1/GPa)
#
#
# Indices 1 2 3 4 5 6 
#
# 1 0.029950 -0.004847 -0.001543 0.000117 0.003302 0.012321
# 2 -0.004847 0.009391 -0.003413 0.003079 0.000522 -0.003931
# 3 -0.001543 -0.003413 0.008978 -0.000473 -0.000099 0.003751
# 4 0.000117 0.003079 -0.000473 0.022743 0.002216 -0.001107
# 5 0.003302 0.000522 -0.000099 0.002216 0.027321 0.002583
# 6 0.012321 -0.003931 0.003751 -0.001107 0.002583 0.031149
#
#
# Mechanical properties :
#
#
# Convention : Reuss Voigt Hill
#
# Bulk Modulus (GPa) = 34.82899 63.45261 49.14080
# Shear Modulus (GPa) = 31.50436 40.56896 36.03666
#
# Velocity S-wave (km/s) = 3.47878 3.94766 3.72061
# Velocity P-wave (km/s) = 5.43277 6.71960 6.11016
#
# Compressibility (1/GPa) = 0.02871171
#
# Stress axis : x y z
#
# Youngs Moduli (GPa) = 33.38930 106.48730 111.38908
#
# Poissons Ratio (x) = 0.51617 0.17189
# Poissons Ratio (y) = 0.16185 0.38015
# Poissons Ratio (z) = 0.05152 0.36342
#
# Static dielectric constant tensor:
#      x y z
#    x 2.040510 0.041440 0.080230 
#    y 0.041440 2.134950 0.023220 
#    z 0.080230 0.023220 1.997910 
# 
# From -- ./inp_files/45391.got.cif
#   From: 2010.05.17/outbox.cif.g08.bks.cpg/sg2_23_cif.got.tgz:45391.got - 2010.06.03 11:33:40.
