data_PCOD9010561
_publ_section_title
;
Structure prediction by ZEFSAII (Michael W. Deem and Ramdas Pophale) SiO2 
 PCOD9010561
Probable space group: P -1
;
_chemical_formula_sum "Si O2"
_cell_formula_units_Z 16
_cell_length_a 15.349283
_cell_length_b 12.215485
_cell_length_c 9.101697
_cell_angle_alpha 77.025027
_cell_angle_beta 118.771026
_cell_angle_gamma 143.276878
_cell_volume 851.073402
_symmetry_space_group_name_H-M "P -1"
_symmetry_group_IT_number 2
_symmetry_cell_setting 'triclinic'
loop_
_space_group_symop_operation_xyz
x,y,z
-x,-y,-z
loop_
_atom_site_type_symbol
_atom_site_label
_atom_site_fract_x
_atom_site_fract_y
_atom_site_fract_z
Si Si1 0.935445 0.263037 0.974994
Si Si2 0.063792 0.504856 0.275445
Si Si3 0.626146 0.130895 0.424275
Si Si4 0.368209 0.480956 0.891273
Si Si5 0.218184 0.872997 0.675269
Si Si6 0.573662 0.899827 0.944900
Si Si7 0.049482 0.157891 0.910846
Si Si8 0.022400 0.136515 0.564705
O O1 0.928683 0.367627 0.836711
O O2 0.995303 0.214722 0.942634
O O3 0.752749 0.064656 0.954283
O O4 0.053881 0.405061 0.166653
O O5 0.227137 0.650640 0.467023
O O6 0.895426 0.332795 0.288182
O O7 0.716913 0.102660 0.440778
O O8 0.530529 0.096698 0.218198
O O9 0.500000 0.000000 0.500000
O O10 0.470064 0.690094 0.907298
O O11 0.248177 0.356198 0.974154
O O12 0.225656 0.346227 0.685918
O O13 0.500000 0.500000 0.000000
O O14 0.091459 0.864146 0.584034
O O15 0.375195 0.035923 0.863642
O O16 0.965242 0.072754 0.707165
O O17 0.000000 0.000000 0.000000
O O18 0.000000 0.000000 0.500000
#
# Coordination Sequence:
#
# PCOD9010561 Si02
#       8
#     2   2   2   2   2   2   2   2
#     4  10  21  40  63  95 123 177 214 259 315 392
#     4  10  22  38  64  88 135 164 220 253 316 388
#     4  12  24  39  60  98 134 165 209 272 320 368
#     4  10  22  39  65  92 121 160 212 266 320 372
#     4  11  24  41  66  91 129 177 216 257 317 402
#     4  11  23  40  65  90 133 169 208 264 328 373
#     4  10  23  39  68  90 124 165 215 263 321 383
#     4  10  23  41  68  93 122 168 218 262 313 388
#
# _framework density 18.799790000000002
#
# number of rings (size 3 to 8) (size 9 to 14) (size 15 to 20)
#    0.750    0.750    1.250    3.750    5.250    1.000 
#    0.000    0.000    0.000    2.250    0.000    0.000 
#    0.000    0.000    0.000    0.000    0.000    0.000 
#
# Total GULP energy -89204.126886 kJ/mol
# GULP energy per Si atom -5575.257930 kJ/mol
# Density = 1.875700 g / cm^3
# Si number density = 18.799790 Si / 1000 Ang^3
#
#
#
# Elastic Constant Matrix: (Units=GPa)
#
#
# Indices 1 2 3 4 5 6 
#
# 1 144.3949 49.6931 43.4269 9.2309 -17.8302 -11.0920
# 2 49.6931 122.5220 33.9139 10.1734 -9.2684 -16.7960
# 3 43.4269 33.9139 116.5443 19.4105 -3.8009 -9.7688
# 4 9.2309 10.1734 19.4105 40.6538 -1.4303 -1.5028
# 5 -17.8302 -9.2684 -3.8009 -1.4303 27.9681 -0.3227
# 6 -11.0920 -16.7960 -9.7688 -1.5028 -0.3227 19.5966
#
#
#
# Elastic Compliance Matrix: (Units=1/GPa)
#
#
# Indices 1 2 3 4 5 6 
#
# 1 0.009234 -0.002438 -0.002389 -0.000103 0.004772 0.002017
# 2 -0.002438 0.010735 -0.001370 -0.001152 0.001840 0.007080
# 3 -0.002389 -0.001370 0.010753 -0.004181 -0.000701 0.002501
# 4 -0.000103 -0.001152 -0.004181 0.026879 0.000346 -0.001063
# 5 0.004772 0.001840 -0.000701 0.000346 0.039383 0.004604
# 6 0.002017 0.007080 0.002501 -0.001063 0.004604 0.059480
#
#
# Mechanical properties :
#
#
# Convention : Reuss Voigt Hill
#
# Bulk Modulus (GPa) = 54.56438 70.83653 62.70046
# Shear Modulus (GPa) = 28.57684 34.73886 31.65785
#
# Velocity S-wave (km/s) = 3.90303 4.30331 4.10804
# Velocity P-wave (km/s) = 7.02840 7.90269 7.47833
#
# Compressibility (1/GPa) = 0.01832698
#
# Stress axis : x y z
#
# Youngs Moduli (GPa) = 108.29775 93.15148 93.00079
#
# Poissons Ratio (x) = 0.22707 0.22222
# Poissons Ratio (y) = 0.26399 0.12743
# Poissons Ratio (z) = 0.25878 0.12764
#
# Static dielectric constant tensor:
#      x y z
#    x 1.662610 0.012960 0.022970 
#    y 0.012960 1.634660 -0.005070 
#    z 0.022970 -0.005070 1.655340 
# 
# From -- ./inp_files/307409.got.cif
#   From: 2010.05.17/outbox.cif.g08.bks.cpg/sg2_154_cif.got.tgz:307409.got - 2010.06.03 11:33:40.
