data_PCOD9010817
_publ_section_title
;
Structure prediction by ZEFSAII (Michael W. Deem and Ramdas Pophale) SiO2 
 PCOD9010817
Probable space group: P -1
;
_chemical_formula_sum "Si O2"
_cell_formula_units_Z 16
_cell_length_a 8.788879
_cell_length_b 9.095835
_cell_length_c 15.164885
_cell_angle_alpha 40.091147
_cell_angle_beta 106.770865
_cell_angle_gamma 95.612763
_cell_volume 732.521117
_symmetry_space_group_name_H-M "P -1"
_symmetry_group_IT_number 2
_symmetry_cell_setting 'triclinic'
loop_
_space_group_symop_operation_xyz
x,y,z
-x,-y,-z
loop_
_atom_site_type_symbol
_atom_site_label
_atom_site_fract_x
_atom_site_fract_y
_atom_site_fract_z
Si Si1 0.807917 0.748422 0.427239
Si Si2 0.141907 0.745275 0.427649
Si Si3 0.631546 0.429002 0.156982
Si Si4 0.231504 0.482183 0.286511
Si Si5 0.042110 0.490308 0.906805
Si Si6 0.497823 0.885403 0.846832
Si Si7 0.572412 0.231234 0.414906
Si Si8 0.177178 0.954866 0.157862
O O1 0.822045 0.526300 0.467267
O O2 0.764622 0.669030 0.553593
O O3 0.985889 0.805782 0.435306
O O4 0.675580 0.949085 0.269018
O O5 0.303153 0.801386 0.469494
O O6 0.099135 0.878973 0.268135
O O7 0.797804 0.408405 0.138038
O O8 0.503194 0.293800 0.152097
O O9 0.666961 0.305232 0.312963
O O10 0.545676 0.702495 0.018948
O O11 0.416114 0.435888 0.306884
O O12 0.174004 0.753039 0.179465
O O13 0.113888 0.409929 0.225572
O O14 0.000000 0.500000 0.000000
O O15 0.095091 0.221500 0.007481
O O16 0.634710 0.037732 0.795557
O O17 0.500000 0.000000 0.500000
#
# Coordination Sequence:
#
# PCOD9010817 Si02
#       8
#     2   2   2   2   2   2   2   2
#     4  10  21  40  64  93 124 175 210 273 313 385
#     4  10  22  38  63  92 131 164 223 258 324 377
#     4  10  24  41  63  93 134 168 216 268 317 394
#     4  11  24  41  66  94 131 172 223 262 329 382
#     4  11  26  43  68  96 131 172 216 271 328 386
#     4  10  21  40  65  88 128 169 211 261 325 371
#     4  12  25  40  65  98 133 172 214 269 318 387
#     4  10  22  43  65  94 131 173 213 273 317 390
#
# _framework density 21.842372999999998
#
# number of rings (size 3 to 8) (size 9 to 14) (size 15 to 20)
#    0.000    1.500    0.000    4.125    8.750    2.000 
#    0.000    9.375    0.000    0.000    0.000    0.000 
#    0.000    0.000    0.000    0.000    0.000    0.000 
#
# Total GULP energy -89344.777208 kJ/mol
# GULP energy per Si atom -5584.048576 kJ/mol
# Density = 2.179266 g / cm^3
# Si number density = 21.842373 Si / 1000 Ang^3
#
#
#
# Elastic Constant Matrix: (Units=GPa)
#
#
# Indices 1 2 3 4 5 6 
#
# 1 113.2744 35.8358 31.7002 15.0208 1.4505 7.4189
# 2 35.8358 67.7967 19.6352 9.5193 -4.7501 14.1957
# 3 31.7002 19.6352 61.5218 -9.9535 1.3063 -5.9253
# 4 15.0208 9.5193 -9.9535 27.5475 3.3717 0.7762
# 5 1.4505 -4.7501 1.3063 3.3717 34.2442 8.3863
# 6 7.4189 14.1957 -5.9253 0.7762 8.3863 29.3923
#
#
#
# Elastic Compliance Matrix: (Units=1/GPa)
#
#
# Indices 1 2 3 4 5 6 
#
# 1 0.013331 -0.002538 -0.007964 -0.009314 0.001248 -0.003855
# 2 -0.002538 0.024385 -0.009963 -0.011280 0.008737 -0.015340
# 3 -0.007964 -0.009963 0.028032 0.018420 -0.007379 0.014092
# 4 -0.009314 -0.011280 0.018420 0.052822 -0.010269 0.013047
# 5 0.001248 0.008737 -0.007379 -0.010269 0.035546 -0.015893
# 6 -0.003855 -0.015340 0.014092 0.013047 -0.015893 0.049436
#
#
# Mechanical properties :
#
#
# Convention : Reuss Voigt Hill
#
# Bulk Modulus (GPa) = 40.29221 46.32615 43.30918
# Shear Modulus (GPa) = 19.78219 28.59824 24.19022
#
# Velocity S-wave (km/s) = 3.01272 3.62235 3.33151
# Velocity P-wave (km/s) = 5.53071 6.22500 5.88810
#
# Compressibility (1/GPa) = 0.02481870
#
# Stress axis : x y z
#
# Youngs Moduli (GPa) = 75.01184 41.00919 35.67405
#
# Poissons Ratio (x) = 0.10407 0.28410
# Poissons Ratio (y) = 0.19036 0.35542
# Poissons Ratio (z) = 0.59738 0.40857
#
# Static dielectric constant tensor:
#      x y z
#    x 1.799270 -0.005090 -0.004910 
#    y -0.005090 1.835190 -0.024580 
#    z -0.004910 -0.024580 1.863250 
# 
# From -- ./inp_files/259861.got.cif
#   From: 2010.05.17/outbox.cif.g08.bks.cpg/sg2_130_cif.got.tgz:259861.got - 2010.06.03 11:33:40.
