data_PCOD9010342
_publ_section_title
;
Structure prediction by ZEFSAII (Michael W. Deem and Ramdas Pophale) SiO2 
 PCOD9010342
Probable space group: P -1
;
_chemical_formula_sum "Si O2"
_cell_formula_units_Z 16
_cell_length_a 8.054495
_cell_length_b 14.184297
_cell_length_c 11.651484
_cell_angle_alpha 54.682501
_cell_angle_beta 122.143157
_cell_angle_gamma 78.093397
_cell_volume 614.708671
_symmetry_space_group_name_H-M "P -1"
_symmetry_group_IT_number 2
_symmetry_cell_setting 'triclinic'
loop_
_space_group_symop_operation_xyz
x,y,z
-x,-y,-z
loop_
_atom_site_type_symbol
_atom_site_label
_atom_site_fract_x
_atom_site_fract_y
_atom_site_fract_z
Si Si1 0.741571 0.472582 0.927467
Si Si2 0.616771 0.851061 0.897033
Si Si3 0.157925 0.094082 0.726011
Si Si4 0.391014 0.760303 0.148404
Si Si5 0.850730 0.876776 0.758942
Si Si6 0.661537 0.188028 0.339430
Si Si7 0.203271 0.539689 0.662350
Si Si8 0.821692 0.537006 0.657755
O O1 0.640370 0.619716 0.868732
O O2 0.492044 0.483838 0.846554
O O3 0.746515 0.532053 0.762507
O O4 0.044530 0.269741 0.186364
O O5 0.459995 0.984815 0.847666
O O6 0.409586 0.830619 0.799796
O O7 0.630539 0.924937 0.738046
O O8 0.945834 0.659984 0.164803
O O9 0.241079 0.949591 0.938255
O O10 0.922250 0.159850 0.492600
O O11 0.004385 0.270754 0.602759
O O12 0.669022 0.612461 0.270541
O O13 0.519669 0.679782 0.376811
O O14 0.144556 0.778359 0.007192
O O15 0.745611 0.039863 0.549032
O O16 0.999906 0.575048 0.661834
#
# Coordination Sequence:
#
# PCOD9010342 Si02
#       8
#     2   2   2   2   2   2   2   2
#     4   9  22  41  60  91 123 157 206 245 302 361
#     4  11  22  38  62  94 117 159 208 241 305 365
#     4  10  22  40  61  90 121 158 202 246 302 361
#     4  10  21  44  60  85 127 156 199 253 302 353
#     4   9  21  38  62  85 118 160 197 250 302 350
#     4  10  21  42  61  84 128 158 194 259 297 352
#     4  10  21  40  63  86 124 161 198 249 299 358
#     4  11  23  40  65  91 121 163 200 252 302 358
#
# _framework density 26.028592
#
# number of rings (size 3 to 8) (size 9 to 14) (size 15 to 20)
#    0.000    2.000    1.250    1.125    1.750    7.000 
#    2.250    6.875    0.000    0.000    0.000    0.000 
#    0.000    0.000    0.000    0.000    0.000    0.000 
#
# Total GULP energy -89456.587920 kJ/mol
# GULP energy per Si atom -5591.036745 kJ/mol
# Density = 2.596935 g / cm^3
# Si number density = 26.028592 Si / 1000 Ang^3
#
#
#
# Elastic Constant Matrix: (Units=GPa)
#
#
# Indices 1 2 3 4 5 6 
#
# 1 80.4506 15.7757 7.6246 -2.8535 9.7445 13.0573
# 2 15.7757 61.5040 31.6051 -8.2091 -15.5632 10.4927
# 3 7.6246 31.6051 142.7851 -13.7618 -0.4244 12.4607
# 4 -2.8535 -8.2091 -13.7618 33.9522 25.1595 -6.0074
# 5 9.7445 -15.5632 -0.4244 25.1595 32.6271 -0.4447
# 6 13.0573 10.4927 12.4607 -6.0074 -0.4447 18.1498
#
#
#
# Elastic Compliance Matrix: (Units=1/GPa)
#
#
# Indices 1 2 3 4 5 6 
#
# 1 0.017790 -0.008418 0.002794 0.015396 -0.021236 -0.005275
# 2 -0.008418 0.030622 -0.007521 -0.026505 0.037267 -0.014344
# 3 0.002794 -0.007521 0.009749 0.012766 -0.014146 -0.000477
# 4 0.015396 -0.026505 0.012766 0.109810 -0.101352 0.029345
# 5 -0.021236 0.037267 -0.014146 -0.101352 0.132373 -0.026858
# 6 -0.005275 -0.014344 -0.000477 0.029345 -0.026858 0.076567
#
#
# Mechanical properties :
#
#
# Convention : Reuss Voigt Hill
#
# Bulk Modulus (GPa) = 31.37449 43.86119 37.61784
# Shear Modulus (GPa) = 12.08242 32.26144 22.17193
#
# Velocity S-wave (km/s) = 2.15686 3.52442 2.92178
# Velocity P-wave (km/s) = 4.27584 5.78358 5.08589
#
# Compressibility (1/GPa) = 0.03187303
#
# Stress axis : x y z
#
# Youngs Moduli (GPa) = 56.21041 32.65584 102.57468
#
# Poissons Ratio (x) = 0.27490 -0.28664
# Poissons Ratio (y) = 0.47318 0.77144
# Poissons Ratio (z) = -0.15707 0.24560
#
# Static dielectric constant tensor:
#      x y z
#    x 2.032780 0.047660 0.038210 
#    y 0.047660 2.069710 0.048190 
#    z 0.038210 0.048190 2.089250 
# 
# From -- ./inp_files/253503.got.cif
#   From: 2010.05.17/outbox.cif.g08.bks.cpg/sg2_127_cif.got.tgz:253503.got - 2010.06.03 11:33:40.
