data_PCOD9010382
_publ_section_title
;
Structure prediction by ZEFSAII (Michael W. Deem and Ramdas Pophale) SiO2 
 PCOD9010382
Probable space group: P -1
;
_chemical_formula_sum "Si O2"
_cell_formula_units_Z 16
_cell_length_a 12.489273
_cell_length_b 6.321946
_cell_length_c 14.186534
_cell_angle_alpha 88.400853
_cell_angle_beta 47.086159
_cell_angle_gamma 107.041239
_cell_volume 741.801441
_symmetry_space_group_name_H-M "P -1"
_symmetry_group_IT_number 2
_symmetry_cell_setting 'triclinic'
loop_
_space_group_symop_operation_xyz
x,y,z
-x,-y,-z
loop_
_atom_site_type_symbol
_atom_site_label
_atom_site_fract_x
_atom_site_fract_y
_atom_site_fract_z
Si Si1 0.082713 0.230741 0.509988
Si Si2 0.297893 0.208805 0.546132
Si Si3 0.047194 0.270833 0.005895
Si Si4 0.618903 0.883536 0.956941
Si Si5 0.888818 0.345892 0.761207
Si Si6 0.655604 0.512972 0.291993
Si Si7 0.337131 0.467614 0.200360
Si Si8 0.165949 0.730645 0.703728
O O1 0.151668 0.186850 0.567672
O O2 0.233969 0.407777 0.357531
O O3 0.945050 0.306827 0.624471
O O4 0.000000 0.000000 0.500000
O O5 0.464438 0.387451 0.397335
O O6 0.301907 0.300661 0.649639
O O7 0.276554 0.945460 0.570683
O O8 0.963429 0.218203 0.157986
O O9 0.236864 0.385533 0.866113
O O10 0.000000 0.500000 0.000000
O O11 0.000000 0.000000 0.000000
O O12 0.645542 0.754213 0.850973
O O13 0.788383 0.098944 0.876609
O O14 0.515105 0.680927 0.094841
O O15 0.500000 0.000000 0.000000
O O16 0.769083 0.468303 0.813938
O O17 0.049404 0.509150 0.716911
O O18 0.715258 0.326713 0.300549
#
# Coordination Sequence:
#
# PCOD9010382 Si02
#       8
#     2   2   2   2   2   2   2   2
#     4  12  23  41  63  95 131 171 225 271 323 400
#     4  11  23  41  66  91 131 172 215 275 336 399
#     4  10  21  42  69  98 132 173 225 286 337 410
#     4   9  20  41  62  85 126 169 215 268 324 391
#     4  11  22  39  64  97 128 174 217 269 337 397
#     4  10  22  44  64  94 130 168 222 273 343 400
#     4  10  21  40  63  88 129 173 214 270 328 392
#     4  11  22  40  68  95 131 169 219 275 343 407
#
# _framework density 21.569113999999999
#
# number of rings (size 3 to 8) (size 9 to 14) (size 15 to 20)
#    0.000    1.500    3.750    1.500    0.000    0.000 
#    6.750    0.000    0.000    0.000    0.000    0.000 
#    0.000    0.000    0.000    0.000    0.000    0.000 
#
# Total GULP energy -89076.322470 kJ/mol
# GULP energy per Si atom -5567.270154 kJ/mol
# Density = 2.152002 g / cm^3
# Si number density = 21.569114 Si / 1000 Ang^3
#
#
#
# Elastic Constant Matrix: (Units=GPa)
#
#
# Indices 1 2 3 4 5 6 
#
# 1 52.7059 21.6404 -7.4142 -1.2028 -10.4804 6.1811
# 2 21.6404 109.7746 28.4574 3.8074 -9.3331 8.4415
# 3 -7.4142 28.4574 87.7368 -2.9912 -19.7955 9.4439
# 4 -1.2028 3.8074 -2.9912 45.7635 -3.7874 -4.6978
# 5 -10.4804 -9.3331 -19.7955 -3.7874 16.2521 -2.1222
# 6 6.1811 8.4415 9.4439 -4.6978 -2.1222 26.3025
#
#
#
# Elastic Compliance Matrix: (Units=1/GPa)
#
#
# Indices 1 2 3 4 5 6 
#
# 1 0.030332 -0.006200 0.012457 0.004064 0.031288 -0.006360
# 2 -0.006200 0.011452 -0.005158 -0.001916 -0.004288 -0.001055
# 3 0.012457 -0.005158 0.022198 0.004281 0.032340 -0.005868
# 4 0.004064 -0.001916 0.004281 0.023800 0.012725 0.003400
# 5 0.031288 -0.004288 0.032340 0.012725 0.120874 -0.005562
# 6 -0.006360 -0.001055 -0.005868 0.003400 -0.005562 0.042118
#
#
# Mechanical properties :
#
#
# Convention : Reuss Voigt Hill
#
# Bulk Modulus (GPa) = 15.11069 37.28716 26.19893
# Shear Modulus (GPa) = 18.47509 31.49921 24.98715
#
# Velocity S-wave (km/s) = 2.92987 3.82564 3.40732
# Velocity P-wave (km/s) = 4.29726 6.06951 5.25858
#
# Compressibility (1/GPa) = 0.06617831
#
# Stress axis : x y z
#
# Youngs Moduli (GPa) = 32.96896 87.32173 45.05010
#
# Poissons Ratio (x) = 0.54143 -0.56118
# Poissons Ratio (y) = 0.20442 0.23236
# Poissons Ratio (z) = -0.41069 0.45039
#
# Static dielectric constant tensor:
#      x y z
#    x 1.965780 -0.129060 -0.120580 
#    y -0.129060 1.916520 0.038640 
#    z -0.120580 0.038640 1.861990 
# 
# From -- ./inp_files/510885.got.cif
#   From: 2010.05.17/outbox.cif.g08.bks.cpg/sg2_256_cif.got.tgz:510885.got - 2010.06.03 11:33:40.
