data_PCOD9010335
_publ_section_title
;
Structure prediction by ZEFSAII (Michael W. Deem and Ramdas Pophale) SiO2 
 PCOD9010335
Probable space group: P -1
;
_chemical_formula_sum "Si O2"
_cell_formula_units_Z 10
_cell_length_a 7.382922
_cell_length_b 15.497180
_cell_length_c 4.857201
_cell_angle_alpha 88.978685
_cell_angle_beta 99.613527
_cell_angle_gamma 135.330390
_cell_volume 381.097623
_symmetry_space_group_name_H-M "P -1"
_symmetry_group_IT_number 2
_symmetry_cell_setting 'triclinic'
loop_
_space_group_symop_operation_xyz
x,y,z
-x,-y,-z
loop_
_atom_site_type_symbol
_atom_site_label
_atom_site_fract_x
_atom_site_fract_y
_atom_site_fract_z
Si Si1 0.125886 0.436775 0.211293
Si Si2 0.235498 0.655243 0.370823
Si Si3 0.923947 0.767641 0.694571
Si Si4 0.754744 0.894817 0.636948
Si Si5 0.753876 0.076949 0.755393
O O1 0.871976 0.369635 0.346816
O O2 0.218695 0.371647 0.298647
O O3 0.305468 0.580182 0.313708
O O4 0.012177 0.403861 0.878182
O O5 0.485310 0.800764 0.398786
O O6 0.012956 0.815328 0.402128
O O7 0.777242 0.804788 0.756549
O O8 0.185394 0.852695 0.952073
O O9 0.752488 0.974491 0.836067
O O10 0.000000 0.000000 0.500000
O O11 0.500000 0.000000 0.500000
#
# Coordination Sequence:
#
# PCOD9010335 Si02
#       5
#     2   2   2   2   2
#     4  10  21  40  63  86 111 153 200 240 281 335
#     4  10  22  40  62  85 116 152 196 240 283 341
#     4  11  22  36  57  85 116 148 191 237 288 340
#     4  10  23  39  58  88 123 153 187 237 295 345
#     4  11  22  37  58  82 115 155 193 233 279 342
#
# _framework density 26.239993999999999
#
# number of rings (size 3 to 8) (size 9 to 14) (size 15 to 20)
#    0.000    1.600    0.000    4.800    0.000    8.800 
#    0.000    0.000    0.000   13.200    0.000    0.000 
#    0.000    0.000    0.000    0.000    0.000    0.000 
#
# Total GULP energy -55942.406395 kJ/mol
# GULP energy per Si atom -5594.240640 kJ/mol
# Density = 2.618027 g / cm^3
# Si number density = 26.239994 Si / 1000 Ang^3
#
#
#
# Elastic Constant Matrix: (Units=GPa)
#
#
# Indices 1 2 3 4 5 6 
#
# 1 31.4927 13.0699 3.8639 -3.2652 9.7107 -27.4912
# 2 13.0699 154.5665 23.4055 21.5002 1.1265 -38.6685
# 3 3.8639 23.4055 94.8613 -0.8800 -5.1923 -1.1131
# 4 -3.2652 21.5002 -0.8800 44.6451 -4.3405 6.8217
# 5 9.7107 1.1265 -5.1923 -4.3405 26.8029 -5.8445
# 6 -27.4912 -38.6685 -1.1131 6.8217 -5.8445 66.5110
#
#
#
# Elastic Compliance Matrix: (Units=1/GPa)
#
#
# Indices 1 2 3 4 5 6 
#
# 1 0.056465 0.001941 -0.003427 -0.002015 -0.016477 0.023169
# 2 0.001941 0.009028 -0.002334 -0.005337 -0.000988 0.006472
# 3 -0.003427 -0.002334 0.011426 0.001798 0.003304 -0.002477
# 4 -0.002015 -0.005337 0.001798 0.026216 0.004190 -0.006226
# 5 -0.016477 -0.000988 0.003304 0.004190 0.043786 -0.003911
# 6 0.023169 0.006472 -0.002477 -0.006226 -0.003911 0.028628
#
#
# Mechanical properties :
#
#
# Convention : Reuss Voigt Hill
#
# Bulk Modulus (GPa) = 14.43483 40.17768 27.30626
# Shear Modulus (GPa) = 24.23870 43.63057 33.93463
#
# Velocity S-wave (km/s) = 3.04259 4.08211 3.60007
# Velocity P-wave (km/s) = 4.22566 6.12887 5.26399
#
# Compressibility (1/GPa) = 0.06927687
#
# Stress axis : x y z
#
# Youngs Moduli (GPa) = 17.71014 110.76931 87.52183
#
# Poissons Ratio (x) = -0.21499 0.29998
# Poissons Ratio (y) = -0.03437 0.20429
# Poissons Ratio (z) = 0.06070 0.25855
#
# Static dielectric constant tensor:
#      x y z
#    x 2.197740 -0.028700 0.089900 
#    y -0.028700 2.032710 0.001190 
#    z 0.089900 0.001190 1.998020 
# 
# From -- ./inp_files/24098.got.cif
#   From: 2010.05.17/outbox.cif.g08.bks.cpg/sg2_13_cif.got.tgz:24098.got - 2010.06.03 11:33:40.
