data_PCOD9010661
_publ_section_title
;
Structure prediction by ZEFSAII (Michael W. Deem and Ramdas Pophale) SiO2 
 PCOD9010661
Probable space group: P -1
;
_chemical_formula_sum "Si O2"
_cell_formula_units_Z 12
_cell_length_a 17.049615
_cell_length_b 8.118842
_cell_length_c 7.081830
_cell_angle_alpha 110.564865
_cell_angle_beta 99.526012
_cell_angle_gamma 36.255811
_cell_volume 530.373147
_symmetry_space_group_name_H-M "P -1"
_symmetry_group_IT_number 2
_symmetry_cell_setting 'triclinic'
loop_
_space_group_symop_operation_xyz
x,y,z
-x,-y,-z
loop_
_atom_site_type_symbol
_atom_site_label
_atom_site_fract_x
_atom_site_fract_y
_atom_site_fract_z
Si Si1 0.687723 0.858003 0.976889
Si Si2 0.445979 0.359538 0.551995
Si Si3 0.825068 0.840249 0.752626
Si Si4 0.122925 0.390157 0.725271
Si Si5 0.582290 0.474092 0.797277
Si Si6 0.309263 0.343197 0.757529
O O1 0.769877 0.831603 0.152427
O O2 0.685099 0.678986 0.018655
O O3 0.535100 0.196442 0.026240
O O4 0.769666 0.754744 0.779871
O O5 0.507716 0.425251 0.690409
O O6 0.377512 0.518479 0.386637
O O7 0.346177 0.444677 0.692307
O O8 0.574601 0.004029 0.406008
O O9 0.848055 0.778806 0.513356
O O10 0.967530 0.641399 0.818312
O O11 0.707173 0.195646 0.864956
O O12 0.162815 0.517925 0.732407
#
# Coordination Sequence:
#
# PCOD9010661 Si02
#       6
#     2   2   2   2   2   2
#     4   9  19  33  51  75  98 129 165 198 244 287
#     4   9  15  30  53  70 101 129 165 196 243 293
#     4  11  18  31  52  78 100 122 168 205 237 294
#     4   9  19  32  51  75  96 134 161 199 246 282
#     4  10  17  29  51  79  94 128 163 204 245 282
#     4   8  16  31  50  73  94 137 160 195 244 288
#
# _framework density 22.625578000000001
#
# number of rings (size 3 to 8) (size 9 to 14) (size 15 to 20)
#    1.000    1.667    1.667    2.000    0.000    0.000 
#    0.000    1.667    3.667    1.000    0.000    0.000 
#    0.000    0.000    0.000    0.000    0.000    0.000 
#
# Total GULP energy -66906.123589 kJ/mol
# GULP energy per Si atom -5575.510299 kJ/mol
# Density = 2.257408 g / cm^3
# Si number density = 22.625578 Si / 1000 Ang^3
#
#
#
# Elastic Constant Matrix: (Units=GPa)
#
#
# Indices 1 2 3 4 5 6 
#
# 1 83.0869 34.5180 32.1652 -0.9273 -36.2561 -8.1387
# 2 34.5180 70.3833 25.1192 -9.0225 -21.2356 -22.8917
# 3 32.1652 25.1192 75.8621 -9.3360 -32.1448 -1.4470
# 4 -0.9273 -9.0225 -9.3360 18.9147 1.2316 -8.8540
# 5 -36.2561 -21.2356 -32.1448 1.2316 50.8640 -5.5694
# 6 -8.1387 -22.8917 -1.4470 -8.8540 -5.5694 30.8159
#
#
#
# Elastic Compliance Matrix: (Units=1/GPa)
#
#
# Indices 1 2 3 4 5 6 
#
# 1 0.020153 -0.004866 -0.002321 -0.001746 0.011252 0.003131
# 2 -0.004866 0.040937 0.002265 0.039813 0.018918 0.044090
# 3 -0.002321 0.002265 0.020903 0.014441 0.013089 0.008566
# 4 -0.001746 0.039813 0.014441 0.107932 0.029125 0.066067
# 5 0.011252 0.018918 0.013089 0.029125 0.046922 0.034488
# 6 0.003131 0.044090 0.008566 0.066067 0.034488 0.091648
#
#
# Mechanical properties :
#
#
# Convention : Reuss Voigt Hill
#
# Bulk Modulus (GPa) = 13.86029 45.88189 29.87109
# Shear Modulus (GPa) = 13.79737 29.28759 21.54248
#
# Velocity S-wave (km/s) = 2.47212 3.60174 3.08901
# Velocity P-wave (km/s) = 3.77991 6.13348 5.09447
#
# Compressibility (1/GPa) = 0.07214856
#
# Stress axis : x y z
#
# Youngs Moduli (GPa) = 49.62137 24.42757 47.84019
#
# Poissons Ratio (x) = 0.11886 0.11103
# Poissons Ratio (y) = 0.24144 -0.10833
# Poissons Ratio (z) = 0.11517 -0.05532
#
# Static dielectric constant tensor:
#      x y z
#    x 1.889210 0.027570 0.009330 
#    y 0.027570 1.833650 -0.009160 
#    z 0.009330 -0.009160 1.891500 
# 
# From -- ./inp_files/162263.got.cif
#   From: 2010.05.17/outbox.cif.g08.bks.cpg/sg2_82_cif.got.tgz:162263.got - 2010.06.03 11:33:40.
