data_PCOD9010376
_publ_section_title
;
Structure prediction by ZEFSAII (Michael W. Deem and Ramdas Pophale) SiO2 
 PCOD9010376
Probable space group: P -1
;
_chemical_formula_sum "Si O2"
_cell_formula_units_Z 12
_cell_length_a 14.773017
_cell_length_b 9.425917
_cell_length_c 12.446933
_cell_angle_alpha 129.781084
_cell_angle_beta 28.931314
_cell_angle_gamma 145.811631
_cell_volume 448.029172
_symmetry_space_group_name_H-M "P -1"
_symmetry_group_IT_number 2
_symmetry_cell_setting 'triclinic'
loop_
_space_group_symop_operation_xyz
x,y,z
-x,-y,-z
loop_
_atom_site_type_symbol
_atom_site_label
_atom_site_fract_x
_atom_site_fract_y
_atom_site_fract_z
Si Si1 0.411492 0.960115 0.340447
Si Si2 0.920563 0.162356 0.942130
Si Si3 0.062786 0.959733 0.546219
Si Si4 0.492549 0.797135 0.965669
Si Si5 0.603846 0.355139 0.656863
Si Si6 0.252677 0.303428 0.857178
O O1 0.240849 0.997530 0.478720
O O2 0.301938 0.786244 0.479496
O O3 0.733549 0.211954 0.148511
O O4 0.420881 0.802892 0.163905
O O5 0.989526 0.111401 0.735712
O O6 0.689741 0.860282 0.085588
O O7 0.177686 0.338739 0.837491
O O8 0.813231 0.644490 0.632484
O O9 0.243894 0.094074 0.316825
O O10 0.283075 0.496837 0.999040
O O11 0.500000 0.000000 0.000000
O O12 0.514106 0.357957 0.632709
O O13 0.000000 0.000000 0.000000
#
# Coordination Sequence:
#
# PCOD9010376 Si02
#       6
#     2   2   2   2   2   2
#     4   9  21  38  61  92 120 162 209 251 301 365
#     4   9  21  36  61  90 120 164 199 253 308 363
#     4  11  20  38  61  92 124 157 209 258 301 364
#     4  10  23  40  61  92 126 162 204 257 307 361
#     4   9  20  37  62  90 117 165 207 249 297 365
#     4  10  21  40  63  88 125 165 204 249 311 369
#
# _framework density 26.783971999999999
#
# number of rings (size 3 to 8) (size 9 to 14) (size 15 to 20)
#    1.000    1.333    0.000    2.000    4.667    3.333 
#    0.000    7.500    0.000    0.000    0.000    0.000 
#    0.000    0.000    0.000    0.000    0.000    0.000 
#
# Total GULP energy -66862.821640 kJ/mol
# GULP energy per Si atom -5571.901803 kJ/mol
# Density = 2.672301 g / cm^3
# Si number density = 26.783972 Si / 1000 Ang^3
#
#
#
# Elastic Constant Matrix: (Units=GPa)
#
#
# Indices 1 2 3 4 5 6 
#
# 1 160.9739 10.7801 3.1252 -13.5980 -41.5872 -5.2184
# 2 10.7801 63.9669 6.2702 -19.4057 -8.5220 -20.2336
# 3 3.1252 6.2702 96.3281 -1.6884 -16.9280 -3.8944
# 4 -13.5980 -19.4057 -1.6884 41.5526 -1.4223 -3.6912
# 5 -41.5872 -8.5220 -16.9280 -1.4223 35.1894 -5.6682
# 6 -5.2184 -20.2336 -3.8944 -3.6912 -5.6682 33.2475
#
#
#
# Elastic Compliance Matrix: (Units=1/GPa)
#
#
# Indices 1 2 3 4 5 6 
#
# 1 0.011474 0.005666 0.002993 0.007999 0.018241 0.009597
# 2 0.005666 0.031302 0.002790 0.019596 0.020590 0.025951
# 3 0.002993 0.002790 0.012391 0.003701 0.011281 0.005953
# 4 0.007999 0.019596 0.003701 0.038613 0.021000 0.021482
# 5 0.018241 0.020590 0.011281 0.021000 0.066121 0.030319
# 6 0.009597 0.025951 0.005953 0.021482 0.030319 0.055628
#
#
# Mechanical properties :
#
#
# Convention : Reuss Voigt Hill
#
# Bulk Modulus (GPa) = 12.81023 40.17998 26.49511
# Shear Modulus (GPa) = 22.86728 42.07077 32.46902
#
# Velocity S-wave (km/s) = 2.92510 3.96756 3.48552
# Velocity P-wave (km/s) = 4.02510 6.00190 5.11000
#
# Compressibility (1/GPa) = 0.07806259
#
# Stress axis : x y z
#
# Youngs Moduli (GPa) = 87.15274 31.94732 80.70668
#
# Poissons Ratio (x) = -0.18101 -0.24153
# Poissons Ratio (y) = -0.49378 -0.22515
# Poissons Ratio (z) = -0.26083 -0.08912
#
# Static dielectric constant tensor:
#      x y z
#    x 2.303330 0.034410 -0.167760 
#    y 0.034410 2.028540 0.019980 
#    z -0.167760 0.019980 2.104730 
# 
# From -- ./inp_files/538285.got.cif
#   From: 2010.05.17/outbox.cif.g08.bks.cpg/sg2_270_cif.got.tgz:538285.got - 2010.06.03 11:33:40.
