data_PCOD9010359
_publ_section_title
;
Structure prediction by ZEFSAII (Michael W. Deem and Ramdas Pophale) SiO2 
 PCOD9010359
Probable space group: P -1
;
_chemical_formula_sum "Si O2"
_cell_formula_units_Z 14
_cell_length_a 9.433803
_cell_length_b 10.952654
_cell_length_c 19.474890
_cell_angle_alpha 33.905614
_cell_angle_beta 61.223601
_cell_angle_gamma 85.614704
_cell_volume 738.481593
_symmetry_space_group_name_H-M "P -1"
_symmetry_group_IT_number 2
_symmetry_cell_setting 'triclinic'
loop_
_space_group_symop_operation_xyz
x,y,z
-x,-y,-z
loop_
_atom_site_type_symbol
_atom_site_label
_atom_site_fract_x
_atom_site_fract_y
_atom_site_fract_z
Si Si1 0.796797 0.788484 0.245078
Si Si2 0.552439 0.322958 0.032135
Si Si3 0.511939 0.877923 0.343740
Si Si4 0.557932 0.437011 0.827261
Si Si5 0.928469 0.565446 0.746537
Si Si6 0.561454 0.954337 0.579997
Si Si7 0.245510 0.066613 0.959315
O O1 0.708139 0.904530 0.258445
O O2 0.691251 0.468324 0.444231
O O3 0.713793 0.758732 0.200518
O O4 0.053182 0.005080 0.076526
O O5 0.475534 0.045762 0.221850
O O6 0.500000 0.500000 0.000000
O O7 0.467271 0.259560 0.003141
O O8 0.809418 0.528289 0.862192
O O9 0.547421 0.013064 0.347206
O O10 0.813538 0.618316 0.692052
O O11 0.510921 0.651889 0.735003
O O12 0.452729 0.233787 0.880630
O O13 0.182018 0.798363 0.582654
O O14 0.845896 0.248158 0.896659
O O15 0.500000 0.000000 0.500000
#
# Coordination Sequence:
#
# PCOD9010359 Si02
#       7
#     2   2   2   2   2   2   2
#     4  10  22  35  66  90 129 159 200 263 312 357
#     4  10  21  40  63  87 123 168 205 253 311 364
#     4  11  20  40  60  90 124 165 203 256 310 363
#     4  10  23  37  67  89 124 160 211 251 306 373
#     4  10  22  41  65  87 123 169 202 252 312 367
#     4  12  24  41  63  95 122 164 209 258 309 371
#     4  11  20  41  64  95 120 164 212 247 314 368
#
# _framework density 18.957818
#
# number of rings (size 3 to 8) (size 9 to 14) (size 15 to 20)
#    0.857    0.571    4.286    1.714    2.000    0.000 
#    2.571    2.143    6.286    0.000    0.000    0.000 
#    0.000    0.000    0.000    0.000    0.000    0.000 
#
# Total GULP energy -78081.204064 kJ/mol
# GULP energy per Si atom -5577.228862 kJ/mol
# Density = 1.891467 g / cm^3
# Si number density = 18.957818 Si / 1000 Ang^3
#
#
#
# Elastic Constant Matrix: (Units=GPa)
#
#
# Indices 1 2 3 4 5 6 
#
# 1 95.3238 35.4721 27.2813 7.2440 14.6514 2.9784
# 2 35.4721 86.7723 39.6480 9.6854 -2.9621 -18.0721
# 3 27.2813 39.6480 57.0123 7.3943 19.5120 -10.2805
# 4 7.2440 9.6854 7.3943 30.4810 -6.8074 1.5556
# 5 14.6514 -2.9621 19.5120 -6.8074 41.4815 -2.3102
# 6 2.9784 -18.0721 -10.2805 1.5556 -2.3102 33.6395
#
#
#
# Elastic Compliance Matrix: (Units=1/GPa)
#
#
# Indices 1 2 3 4 5 6 
#
# 1 0.014417 -0.006423 -0.001211 -0.002072 -0.005621 -0.005387
# 2 -0.006423 0.023728 -0.015838 0.000020 0.011934 0.009294
# 3 -0.001211 -0.015838 0.037202 -0.008145 -0.019427 0.002010
# 4 -0.002072 0.000020 -0.008145 0.037802 0.010584 -0.003316
# 5 -0.005621 0.011934 -0.019427 0.010584 0.037992 0.003092
# 6 -0.005387 0.009294 0.002010 -0.003316 0.003092 0.036177
#
#
# Mechanical properties :
#
#
# Convention : Reuss Voigt Hill
#
# Bulk Modulus (GPa) = 35.20915 49.32346 42.26630
# Shear Modulus (GPa) = 20.51455 30.23421 25.37438
#
# Velocity S-wave (km/s) = 3.29312 3.99785 3.66247
# Velocity P-wave (km/s) = 5.75084 6.88363 6.34258
#
# Compressibility (1/GPa) = 0.02840171
#
# Stress axis : x y z
#
# Youngs Moduli (GPa) = 69.36243 42.14453 26.88056
#
# Poissons Ratio (x) = 0.27069 0.03255
# Poissons Ratio (y) = 0.44551 0.42575
# Poissons Ratio (z) = 0.08400 0.66751
#
# Static dielectric constant tensor:
#      x y z
#    x 1.671940 -0.027570 0.000580 
#    y -0.027570 1.663510 0.006050 
#    z 0.000580 0.006050 1.674160 
# 
# From -- ./inp_files/588558.got.cif
#   From: 2010.05.17/outbox.cif.g08.bks.cpg/sg2_295_cif.got.tgz:588558.got - 2010.06.03 11:33:40.
