data_PCOD9010926
_publ_section_title
;
Structure prediction by ZEFSAII (Michael W. Deem and Ramdas Pophale) SiO2 
 PCOD9010926
Probable space group: P -1
;
_chemical_formula_sum "Si O2"
_cell_formula_units_Z 16
_cell_length_a 5.448984
_cell_length_b 5.189457
_cell_length_c 19.100974
_cell_angle_alpha 93.648423
_cell_angle_beta 95.627714
_cell_angle_gamma 85.358179
_cell_volume 534.911691
_symmetry_space_group_name_H-M "P -1"
_symmetry_group_IT_number 2
_symmetry_cell_setting 'triclinic'
loop_
_space_group_symop_operation_xyz
x,y,z
-x,-y,-z
loop_
_atom_site_type_symbol
_atom_site_label
_atom_site_fract_x
_atom_site_fract_y
_atom_site_fract_z
Si Si1 0.465661 0.834320 0.276743
Si Si2 0.718631 0.304673 0.219649
Si Si3 0.021560 0.415806 0.350827
Si Si4 0.340110 0.259607 0.976452
Si Si5 0.554840 0.156016 0.403205
Si Si6 0.131220 0.735809 0.472388
Si Si7 0.899469 0.492522 0.902795
Si Si8 0.135242 0.034620 0.161756
O O1 0.553394 0.558400 0.243978
O O2 0.612979 0.055291 0.247498
O O3 0.535036 0.875684 0.360958
O O4 0.195562 0.914838 0.238133
O O5 0.968388 0.394558 0.267793
O O6 0.854422 0.173194 0.152196
O O7 0.785586 0.289403 0.376480
O O8 0.285534 0.278077 0.376707
O O9 0.065022 0.696076 0.389100
O O10 0.117857 0.309294 0.028263
O O11 0.500000 0.500000 0.000000
O O12 0.181459 0.350485 0.903787
O O13 0.500000 0.000000 0.000000
O O14 0.599519 0.229849 0.486979
O O15 0.000000 0.500000 0.500000
O O16 0.000000 0.000000 0.500000
O O17 0.740262 0.703167 0.852396
O O18 0.777061 0.214801 0.887923
#
# Coordination Sequence:
#
# PCOD9010926 Si02
#       8
#     2   2   2   2   2   2   2   2
#     4  11  24  42  63  93 130 177 223 278 342 408
#     4  11  24  42  63  93 130 177 223 278 342 408
#     4  10  21  42  65  96 132 178 231 292 358 425
#     4  11  24  45  70  98 136 175 212 269 332 390
#     4  10  21  42  65  96 132 178 231 292 358 425
#     4  10  21  40  64  96 128 174 228 293 357 427
#     4  11  26  42  68 102 132 171 224 270 322 401
#     4  12  24  43  64  97 134 172 222 276 324 398
#
# _framework density 29.911477000000001
#
# number of rings (size 3 to 8) (size 9 to 14) (size 15 to 20)
#    0.000    1.250    1.250    4.125    0.000    8.000 
#    0.000   17.500    0.000    0.000    0.000    0.000 
#    0.000    0.000    0.000    0.000    0.000    0.000 
#
# Total GULP energy -89096.346432 kJ/mol
# GULP energy per Si atom -5568.521652 kJ/mol
# Density = 2.984340 g / cm^3
# Si number density = 29.911477 Si / 1000 Ang^3
#
#
#
# Elastic Constant Matrix: (Units=GPa)
#
#
# Indices 1 2 3 4 5 6 
#
# 1 82.1835 41.3460 -2.9802 4.9783 21.3965 -9.6047
# 2 41.3460 280.3641 46.3250 39.9027 14.6094 -19.8020
# 3 -2.9802 46.3250 65.0754 12.4206 12.5324 -6.7502
# 4 4.9783 39.9027 12.4206 59.1461 -14.0279 5.7878
# 5 21.3965 14.6094 12.5324 -14.0279 47.2724 -2.3566
# 6 -9.6047 -19.8020 -6.7502 5.7878 -2.3566 64.0825
#
#
#
# Elastic Compliance Matrix: (Units=1/GPa)
#
#
# Indices 1 2 3 4 5 6 
#
# 1 0.016136 -0.002089 0.004770 -0.003252 -0.008775 0.002246
# 2 -0.002089 0.004834 -0.002788 -0.002744 -0.000568 0.001114
# 3 0.004770 -0.002788 0.020268 -0.004886 -0.008014 0.002135
# 4 -0.003252 -0.002744 -0.004886 0.022826 0.010212 -0.003536
# 5 -0.008775 -0.000568 -0.008014 0.010212 0.030350 -0.002141
# 6 0.002246 0.001114 0.002135 -0.003536 -0.002141 0.016751
#
#
# Mechanical properties :
#
#
# Convention : Reuss Voigt Hill
#
# Bulk Modulus (GPa) = 24.37710 66.33385 45.35548
# Shear Modulus (GPa) = 39.98249 56.96232 48.47240
#
# Velocity S-wave (km/s) = 3.66005 4.36864 4.02995
# Velocity P-wave (km/s) = 5.10183 6.90446 6.07043
#
# Compressibility (1/GPa) = 0.04102210
#
# Stress axis : x y z
#
# Youngs Moduli (GPa) = 61.97350 206.85114 49.34003
#
# Poissons Ratio (x) = 0.43211 -0.23533
# Poissons Ratio (y) = 0.12946 0.13758
# Poissons Ratio (z) = -0.29559 0.57680
#
# Static dielectric constant tensor:
#      x y z
#    x 2.567430 -0.080670 0.624640 
#    y -0.080670 2.403270 0.239580 
#    z 0.624640 0.239580 1.263000 
# 
# From -- ./inp_files/603382.got.cif
#   From: 2010.05.17/outbox.cif.g08.bks.cpg/sg2_302_cif.got.tgz:603382.got - 2010.06.03 11:33:40.
