data_PCOD9010966
_publ_section_title
;
Structure prediction by ZEFSAII (Michael W. Deem and Ramdas Pophale) SiO2 
 PCOD9010966
Probable space group: P -1
;
_chemical_formula_sum "Si O2"
_cell_formula_units_Z 16
_cell_length_a 10.559176
_cell_length_b 10.065662
_cell_length_c 16.779821
_cell_angle_alpha 147.883928
_cell_angle_beta 134.313685
_cell_angle_gamma 59.009184
_cell_volume 664.457430
_symmetry_space_group_name_H-M "P -1"
_symmetry_group_IT_number 2
_symmetry_cell_setting 'triclinic'
loop_
_space_group_symop_operation_xyz
x,y,z
-x,-y,-z
loop_
_atom_site_type_symbol
_atom_site_label
_atom_site_fract_x
_atom_site_fract_y
_atom_site_fract_z
Si Si1 0.940371 0.101324 0.859229
Si Si2 0.690149 0.630480 0.815046
Si Si3 0.048217 0.186511 0.425658
Si Si4 0.527083 0.903775 0.195714
Si Si5 0.218476 0.419895 0.774470
Si Si6 0.723735 0.762494 0.710428
Si Si7 0.679190 0.299100 0.335958
Si Si8 0.017325 0.647443 0.215589
O O1 0.853384 0.901596 0.652800
O O2 0.891265 0.965546 0.852665
O O3 0.901286 0.388372 0.991235
O O4 0.155473 0.162639 0.969018
O O5 0.712664 0.712291 0.773592
O O6 0.712622 0.506646 0.526770
O O7 0.777942 0.379916 0.727986
O O8 0.164517 0.371079 0.634659
O O9 0.870713 0.293224 0.379148
O O10 0.988519 0.915608 0.308386
O O11 0.672227 0.788183 0.249887
O O12 0.449199 0.110839 0.318085
O O13 0.608341 0.033364 0.215639
O O14 0.353789 0.685765 0.986362
O O15 0.040155 0.388903 0.735875
O O16 0.511680 0.363850 0.245525
#
# Coordination Sequence:
#
# PCOD9010966 Si02
#       8
#     2   2   2   2   2   2   2   2
#     4  10  24  42  66  91 131 174 208 258 317 388
#     4   9  21  38  66  92 118 172 211 251 314 371
#     4  12  25  41  64  99 132 162 214 264 321 370
#     4  10  21  40  64  98 125 161 217 263 317 368
#     4  11  22  38  69  96 125 166 212 270 310 372
#     4  11  21  40  65  94 126 167 218 258 312 378
#     4  11  24  37  65  98 127 162 210 273 309 372
#     4  10  21  42  67  93 124 174 213 254 315 380
#
# _framework density 24.079796999999999
#
# number of rings (size 3 to 8) (size 9 to 14) (size 15 to 20)
#    0.750    0.750    2.500    3.375    3.500    3.000 
#    0.000    1.875    0.000    0.000    0.000    0.000 
#    0.000    0.000    0.000    0.000    0.000    0.000 
#
# Total GULP energy -89371.000874 kJ/mol
# GULP energy per Si atom -5585.687555 kJ/mol
# Density = 2.402499 g / cm^3
# Si number density = 24.079797 Si / 1000 Ang^3
#
#
#
# Elastic Constant Matrix: (Units=GPa)
#
#
# Indices 1 2 3 4 5 6 
#
# 1 61.4163 28.2258 21.9049 -0.8689 3.2681 -5.3194
# 2 28.2258 56.4112 15.7638 6.3293 6.4579 -22.2956
# 3 21.9049 15.7638 61.5327 -4.7565 -11.8138 -7.8208
# 4 -0.8689 6.3293 -4.7565 27.8965 1.3689 0.1273
# 5 3.2681 6.4579 -11.8138 1.3689 38.2505 -0.4988
# 6 -5.3194 -22.2956 -7.8208 0.1273 -0.4988 40.5357
#
#
#
# Elastic Compliance Matrix: (Units=1/GPa)
#
#
# Indices 1 2 3 4 5 6 
#
# 1 0.023779 -0.012112 -0.006162 0.002560 -0.002044 -0.004763
# 2 -0.012112 0.032429 -0.003629 -0.008176 -0.005066 0.015510
# 3 -0.006162 -0.003629 0.021311 0.003886 0.007600 0.001388
# 4 0.002560 -0.008176 0.003886 0.038414 0.000941 -0.003520
# 5 -0.002044 -0.005066 0.007600 0.000941 0.029471 -0.001229
# 6 -0.004763 0.015510 0.001388 -0.003520 -0.001229 0.032839
#
#
# Mechanical properties :
#
#
# Convention : Reuss Voigt Hill
#
# Bulk Modulus (GPa) = 29.66304 34.57213 32.11758
# Shear Modulus (GPa) = 21.43278 28.90092 25.16685
#
# Velocity S-wave (km/s) = 2.98665 3.46817 3.23638
# Velocity P-wave (km/s) = 4.92329 5.51598 5.22804
#
# Compressibility (1/GPa) = 0.03371199
#
# Stress axis : x y z
#
# Youngs Moduli (GPa) = 42.05413 30.83654 46.92430
#
# Poissons Ratio (x) = 0.37349 0.28915
# Poissons Ratio (y) = 0.50936 0.17031
# Poissons Ratio (z) = 0.25914 0.11192
#
# Static dielectric constant tensor:
#      x y z
#    x 1.922110 -0.028990 0.026860 
#    y -0.028990 1.943430 -0.005740 
#    z 0.026860 -0.005740 1.930420 
# 
# From -- ./inp_files/568374.got.cif
#   From: 2010.05.17/outbox.cif.g08.bks.cpg/sg2_285_cif.got.tgz:568374.got - 2010.06.03 11:33:40.
