data_PCOD9010925
_publ_section_title
;
Structure prediction by ZEFSAII (Michael W. Deem and Ramdas Pophale) SiO2 
 PCOD9010925
Probable space group: P -1
;
_chemical_formula_sum "Si O2"
_cell_formula_units_Z 16
_cell_length_a 11.906805
_cell_length_b 28.079620
_cell_length_c 5.664087
_cell_angle_alpha 121.661315
_cell_angle_beta 69.511282
_cell_angle_gamma 152.997388
_cell_volume 697.100416
_symmetry_space_group_name_H-M "P -1"
_symmetry_group_IT_number 2
_symmetry_cell_setting 'triclinic'
loop_
_space_group_symop_operation_xyz
x,y,z
-x,-y,-z
loop_
_atom_site_type_symbol
_atom_site_label
_atom_site_fract_x
_atom_site_fract_y
_atom_site_fract_z
Si Si1 0.713587 0.507752 0.850795
Si Si2 0.035396 0.465545 0.569747
Si Si3 0.303108 0.135366 0.398973
Si Si4 0.285017 0.086269 0.788809
Si Si5 0.617351 0.359297 0.849707
Si Si6 0.465145 0.918212 0.316419
Si Si7 0.276760 0.858795 0.800508
Si Si8 0.710516 0.611358 0.450813
O O1 0.938358 0.583243 0.698024
O O2 0.668354 0.433897 0.846833
O O3 0.450412 0.413645 0.661830
O O4 0.781334 0.587553 0.173667
O O5 0.000000 0.500000 0.500000
O O6 0.813846 0.388519 0.721408
O O7 0.312580 0.592017 0.815974
O O8 0.394473 0.141869 0.588138
O O9 0.345667 0.218422 0.637984
O O10 0.415942 0.167393 0.138913
O O11 0.994804 0.000069 0.248206
O O12 0.290588 0.022481 0.680837
O O13 0.317599 0.846622 0.484924
O O14 0.500000 0.000000 0.500000
O O15 0.333341 0.851331 0.986597
O O16 0.968042 0.744516 0.724222
O O17 0.500000 0.000000 0.000000
O O18 0.500000 0.500000 0.500000
#
# Coordination Sequence:
#
# PCOD9010925 Si02
#       8
#     2   2   2   2   2   2   2   2
#     4  10  23  42  66  96 133 178 231 278 354 420
#     4   9  20  40  59  93 126 160 223 276 329 412
#     4  10  23  40  68  93 137 177 223 284 341 414
#     4  10  22  44  61 102 135 172 229 278 347 410
#     4  10  21  40  64  96 126 178 224 281 346 412
#     4  10  22  44  69 100 138 180 230 288 349 417
#     4  10  24  45  69 100 138 180 234 281 344 420
#     4  11  25  45  67  99 140 182 229 295 354 422
#
# _framework density 22.952217999999998
#
# number of rings (size 3 to 8) (size 9 to 14) (size 15 to 20)
#    0.000    2.000    0.000    1.500    7.000    3.000 
#   20.250    0.000    0.000    0.000    0.000    0.000 
#    0.000    0.000    0.000    0.000    0.000    0.000 
#
# Total GULP energy -89094.499271 kJ/mol
# GULP energy per Si atom -5568.406204 kJ/mol
# Density = 2.289998 g / cm^3
# Si number density = 22.952218 Si / 1000 Ang^3
#
#
#
# Elastic Constant Matrix: (Units=GPa)
#
#
# Indices 1 2 3 4 5 6 
#
# 1 129.0550 30.4100 62.2644 -0.2375 6.7202 -15.3828
# 2 30.4100 61.8969 47.1928 5.4184 14.6745 5.1517
# 3 62.2644 47.1928 137.5092 -25.7315 25.3756 -9.2288
# 4 -0.2375 5.4184 -25.7315 39.8924 -1.2244 4.1468
# 5 6.7202 14.6745 25.3756 -1.2244 45.4389 -7.9658
# 6 -15.3828 5.1517 -9.2288 4.1468 -7.9658 19.2965
#
#
#
# Elastic Compliance Matrix: (Units=1/GPa)
#
#
# Indices 1 2 3 4 5 6 
#
# 1 0.012010 -0.003719 -0.004825 -0.003520 0.003886 0.010620
# 2 -0.003719 0.029180 -0.009894 -0.008877 -0.006434 -0.016235
# 3 -0.004825 -0.009894 0.015886 0.011200 -0.004271 0.002223
# 4 -0.003520 -0.008877 0.011200 0.033750 -0.002551 -0.003386
# 5 0.003886 -0.006434 -0.004271 -0.002551 0.028470 0.015074
# 6 0.010620 -0.016235 0.002223 -0.003386 0.015074 0.072636
#
#
# Mechanical properties :
#
#
# Convention : Reuss Voigt Hill
#
# Bulk Modulus (GPa) = 49.50500 67.57729 58.54115
# Shear Modulus (GPa) = 21.22770 33.49849 27.36309
#
# Velocity S-wave (km/s) = 3.04446 3.82447 3.45654
# Velocity P-wave (km/s) = 5.82871 7.00061 6.44137
#
# Compressibility (1/GPa) = 0.02019998
#
# Stress axis : x y z
#
# Youngs Moduli (GPa) = 83.26566 34.26950 62.94947
#
# Poissons Ratio (x) = 0.12744 0.30372
# Poissons Ratio (y) = 0.30965 0.62284
# Poissons Ratio (z) = 0.40175 0.33907
#
# Static dielectric constant tensor:
#      x y z
#    x 1.840820 0.044380 0.012390 
#    y 0.044380 1.938780 -0.024690 
#    z 0.012390 -0.024690 1.920620 
# 
# From -- ./inp_files/84888.got.cif
#   From: 2010.05.17/outbox.cif.g08.bks.cpg/sg2_43_cif.got.tgz:84888.got - 2010.06.03 11:33:40.
