data_PCOD9010725
_publ_section_title
;
Structure prediction by ZEFSAII (Michael W. Deem and Ramdas Pophale) SiO2 
 PCOD9010725
Probable space group: P -1
;
_chemical_formula_sum "Si O2"
_cell_formula_units_Z 16
_cell_length_a 20.627633
_cell_length_b 24.078159
_cell_length_c 8.616567
_cell_angle_alpha 28.442032
_cell_angle_beta 31.454866
_cell_angle_gamma 22.321328
_cell_volume 755.316059
_symmetry_space_group_name_H-M "P -1"
_symmetry_group_IT_number 2
_symmetry_cell_setting 'triclinic'
loop_
_space_group_symop_operation_xyz
x,y,z
-x,-y,-z
loop_
_atom_site_type_symbol
_atom_site_label
_atom_site_fract_x
_atom_site_fract_y
_atom_site_fract_z
Si Si1 0.117296 0.323095 0.618226
Si Si2 0.707119 0.240773 0.290176
Si Si3 0.995186 0.855087 0.592744
Si Si4 0.191072 0.238710 0.323042
Si Si5 0.388428 0.318783 0.761609
Si Si6 0.506888 0.143917 0.269996
Si Si7 0.630965 0.316069 0.623435
Si Si8 0.897604 0.313520 0.531654
O O1 0.111165 0.330698 0.425253
O O2 0.318568 0.214851 0.522739
O O3 0.000000 0.500000 0.500000
O O4 0.051269 0.239100 0.007166
O O5 0.529145 0.306321 0.419712
O O6 0.657307 0.303102 0.415675
O O7 0.790356 0.295569 0.901709
O O8 0.848727 0.044329 0.473892
O O9 0.179978 0.784255 0.444221
O O10 0.013754 0.816867 0.466542
O O11 0.045202 0.282781 0.402320
O O12 0.336869 0.045618 0.540370
O O13 0.287834 0.290152 0.935391
O O14 0.245469 0.496967 0.697398
O O15 0.489304 0.180131 0.031205
O O16 0.553184 0.240018 0.007649
O O17 0.500000 0.500000 0.500000
#
# Coordination Sequence:
#
# PCOD9010725 Si02
#       8
#     2   2   2   2   2   2   2   2
#     4  11  21  38  65  95 122 160 210 262 309 364
#     4  11  23  41  63  90 123 167 208 257 312 368
#     4  12  23  40  61  92 129 166 209 257 307 372
#     4  11  22  42  65  91 124 164 206 256 313 371
#     4  10  21  40  64  90 122 162 207 257 308 365
#     4  10  21  40  65  91 119 160 207 255 308 368
#     4  11  22  40  65  94 122 160 211 261 308 369
#     4  12  25  41  61  93 132 169 205 253 312 371
#
# _framework density 21.183184000000001
#
# number of rings (size 3 to 8) (size 9 to 14) (size 15 to 20)
#    0.000    1.000    0.000   10.500    0.000    0.000 
#    0.000    5.000    0.000    0.000    0.000    0.000 
#    0.000    0.000    0.000    0.000    0.000    0.000 
#
# Total GULP energy -89503.765115 kJ/mol
# GULP energy per Si atom -5593.985320 kJ/mol
# Density = 2.113497 g / cm^3
# Si number density = 21.183184 Si / 1000 Ang^3
#
#
#
# Elastic Constant Matrix: (Units=GPa)
#
#
# Indices 1 2 3 4 5 6 
#
# 1 83.2815 21.5320 109.0440 26.9846 -17.5519 -3.4069
# 2 21.5320 99.1678 72.9545 5.8556 1.2170 2.5765
# 3 109.0440 72.9545 -28.7604 -7.2356 -67.8247 3.5042
# 4 26.9846 5.8556 -7.2356 35.1439 -9.1316 -11.2302
# 5 -17.5519 1.2170 -67.8247 -9.1316 32.5319 7.8601
# 6 -3.4069 2.5765 3.5042 -11.2302 7.8601 37.3487
#
#
#
# Elastic Compliance Matrix: (Units=1/GPa)
#
#
# Indices 1 2 3 4 5 6 
#
# 1 0.013286 -0.005387 0.003763 -0.005929 0.014418 -0.003586
# 2 -0.005387 0.009922 0.001588 0.002853 0.000999 -0.000677
# 3 0.003763 0.001588 -0.002778 -0.005069 -0.005262 0.000078
# 4 -0.005929 0.002853 -0.005069 0.033193 -0.007274 0.011249
# 5 0.014418 0.000999 -0.005262 -0.007274 0.026945 -0.006118
# 6 -0.003586 -0.000677 0.000078 0.011249 -0.006118 0.031157
#
#
# Mechanical properties :
#
#
# Convention : Reuss Voigt Hill
#
# Bulk Modulus (GPa) = 49.11760 62.30552 55.71156
# Shear Modulus (GPa) = 42.16518 17.68214 29.92366
#
# Velocity S-wave (km/s) = 4.46634 2.89230 3.76255
# Velocity P-wave (km/s) = 7.05939 6.37420 6.72553
#
# Compressibility (1/GPa) = 0.02035930
#
# Stress axis : x y z
#
# Youngs Moduli (GPa) = 75.26775 100.78815 -359.96736
#
# Poissons Ratio (x) = 0.54292 1.35459
# Poissons Ratio (y) = 0.40545 0.57180
# Poissons Ratio (z) = -0.28324 -0.16010
#
# Static dielectric constant tensor:
#      x y z
#    x 1.753400 -0.009490 -0.017990 
#    y -0.009490 1.755480 0.013260 
#    z -0.017990 0.013260 1.804240 
# 
# From -- ./inp_files/294738.got.cif
#   From: 2010.05.17/outbox.cif.g08.bks.cpg/sg2_148_cif.got.tgz:294738.got - 2010.06.03 11:33:40.
