data_PCOD9010791
_publ_section_title
;
Structure prediction by ZEFSAII (Michael W. Deem and Ramdas Pophale) SiO2 
 PCOD9010791
Probable space group: P -1
;
_chemical_formula_sum "Si O2"
_cell_formula_units_Z 16
_cell_length_a 10.910541
_cell_length_b 6.606328
_cell_length_c 10.982362
_cell_angle_alpha 89.609319
_cell_angle_beta 93.253200
_cell_angle_gamma 121.851566
_cell_volume 671.060496
_symmetry_space_group_name_H-M "P -1"
_symmetry_group_IT_number 2
_symmetry_cell_setting 'triclinic'
loop_
_space_group_symop_operation_xyz
x,y,z
-x,-y,-z
loop_
_atom_site_type_symbol
_atom_site_label
_atom_site_fract_x
_atom_site_fract_y
_atom_site_fract_z
Si Si1 0.492554 0.196085 0.383434
Si Si2 0.984010 0.814709 0.602502
Si Si3 0.689858 0.508960 0.872169
Si Si4 0.169738 0.509164 0.892896
Si Si5 0.261201 0.890570 0.702903
Si Si6 0.061231 0.997377 0.139197
Si Si7 0.309386 0.669539 0.393757
Si Si8 0.409088 0.409009 0.802775
O O1 0.612863 0.143329 0.338658
O O2 0.564133 0.315294 0.515325
O O3 0.495522 0.376518 0.286355
O O4 0.345690 0.941767 0.393963
O O5 0.841751 0.557037 0.572265
O O6 0.123359 0.792408 0.609983
O O7 0.978686 0.911775 0.739105
O O8 0.000000 0.000000 0.500000
O O9 0.679849 0.391802 0.743337
O O10 0.522782 0.396065 0.897402
O O11 0.771899 0.796539 0.868001
O O12 0.791072 0.458526 0.963364
O O13 0.204400 0.745887 0.826585
O O14 0.287611 0.445756 0.853873
O O15 0.012002 0.286403 0.849781
O O16 0.323771 0.165005 0.726500
O O17 0.000000 0.000000 0.000000
#
# Coordination Sequence:
#
# PCOD9010791 Si02
#       8
#     2   2   2   2   2   2   2   2
#     4  10  23  43  63  91 128 168 207 258 320 380
#     4  11  23  42  69  96 127 166 215 266 310 379
#     4  10  21  40  64  92 126 167 211 261 309 376
#     4  10  22  41  66  91 126 168 212 256 316 382
#     4  11  23  41  67  92 128 167 207 264 318 369
#     4   9  20  42  65  92 131 166 210 258 320 381
#     4  10  22  43  60  92 133 157 215 263 309 381
#     4  11  21  40  65  94 124 167 210 260 317 369
#
# _framework density 23.842858
#
# number of rings (size 3 to 8) (size 9 to 14) (size 15 to 20)
#    0.000    1.750    2.500    1.125    1.750    2.500 
#   11.250    5.625    0.000    0.000    0.000    0.000 
#    0.000    0.000    0.000    0.000    0.000    0.000 
#
# Total GULP energy -89362.938988 kJ/mol
# GULP energy per Si atom -5585.183687 kJ/mol
# Density = 2.378859 g / cm^3
# Si number density = 23.842858 Si / 1000 Ang^3
#
#
#
# Elastic Constant Matrix: (Units=GPa)
#
#
# Indices 1 2 3 4 5 6 
#
# 1 60.5707 45.3436 17.2494 6.0581 13.0855 15.5079
# 2 45.3436 135.7987 47.4615 -2.4196 16.1459 34.8798
# 3 17.2494 47.4615 117.4762 15.0428 3.3669 6.2001
# 4 6.0581 -2.4196 15.0428 41.6477 5.9051 5.9681
# 5 13.0855 16.1459 3.3669 5.9051 30.3871 4.5508
# 6 15.5079 34.8798 6.2001 5.9681 4.5508 38.3470
#
#
#
# Elastic Compliance Matrix: (Units=1/GPa)
#
#
# Indices 1 2 3 4 5 6 
#
# 1 0.023599 -0.006525 -0.000204 -0.002559 -0.005803 -0.002489
# 2 -0.006525 0.014417 -0.004936 0.005564 -0.003875 -0.010083
# 3 -0.000204 -0.004936 0.010940 -0.004966 0.001963 0.003343
# 4 -0.002559 0.005564 -0.004966 0.028313 -0.005766 -0.006945
# 5 -0.005803 -0.003875 0.001963 -0.005766 0.038080 0.001932
# 6 -0.002489 -0.010083 0.003343 -0.006945 0.001932 0.036567
#
#
# Mechanical properties :
#
#
# Convention : Reuss Voigt Hill
#
# Bulk Modulus (GPa) = 39.02158 59.32830 49.17494
# Shear Modulus (GPa) = 27.20544 35.66243 31.43394
#
# Velocity S-wave (km/s) = 3.38158 3.87166 3.63489
# Velocity P-wave (km/s) = 5.62570 6.70249 6.18756
#
# Compressibility (1/GPa) = 0.02562685
#
# Stress axis : x y z
#
# Youngs Moduli (GPa) = 42.37455 69.36109 91.41120
#
# Poissons Ratio (x) = 0.45258 0.01861
# Poissons Ratio (y) = 0.27650 0.45119
# Poissons Ratio (z) = 0.00863 0.34236
#
# Static dielectric constant tensor:
#      x y z
#    x 1.931890 0.003750 -0.035880 
#    y 0.003750 1.883660 -0.016370 
#    z -0.035880 -0.016370 1.971910 
# 
# From -- ./inp_files/410591.got.cif
#   From: 2010.05.17/outbox.cif.g08.bks.cpg/sg2_206_cif.got.tgz:410591.got - 2010.06.03 11:33:40.
