data_PCOD9010394
_publ_section_title
;
Structure prediction by ZEFSAII (Michael W. Deem and Ramdas Pophale) SiO2 
 PCOD9010394
Probable space group: P -1
;
_chemical_formula_sum "Si O2"
_cell_formula_units_Z 16
_cell_length_a 14.867710
_cell_length_b 8.997011
_cell_length_c 14.281956
_cell_angle_alpha 95.397783
_cell_angle_beta 148.466876
_cell_angle_gamma 105.486282
_cell_volume 741.286442
_symmetry_space_group_name_H-M "P -1"
_symmetry_group_IT_number 2
_symmetry_cell_setting 'triclinic'
loop_
_space_group_symop_operation_xyz
x,y,z
-x,-y,-z
loop_
_atom_site_type_symbol
_atom_site_label
_atom_site_fract_x
_atom_site_fract_y
_atom_site_fract_z
Si Si1 0.143215 0.388094 0.953128
Si Si2 0.008567 0.644250 0.900415
Si Si3 0.480774 0.084010 0.083054
Si Si4 0.033478 0.652266 0.399052
Si Si5 0.842983 0.037738 0.814256
Si Si6 0.969646 0.704626 0.666064
Si Si7 0.570653 0.405859 0.622851
Si Si8 0.671439 0.516925 0.224765
O O1 0.098342 0.340135 0.801534
O O2 0.098679 0.538541 0.938973
O O3 0.972548 0.187021 0.850517
O O4 0.384557 0.508874 0.227827
O O5 0.808817 0.496475 0.789484
O O6 0.920212 0.680784 0.731791
O O7 0.185934 0.852452 0.125454
O O8 0.542134 0.290572 0.126667
O O9 0.694116 0.153803 0.341998
O O10 0.500000 0.000000 0.000000
O O11 0.224885 0.918558 0.887491
O O12 0.015881 0.463946 0.356290
O O13 0.901573 0.613137 0.374884
O O14 0.611036 0.829403 0.561199
O O15 0.000000 0.000000 0.000000
O O16 0.775192 0.653442 0.418941
O O17 0.500000 0.500000 0.500000
O O18 0.500000 0.500000 0.000000
#
# Coordination Sequence:
#
# PCOD9010394 Si02
#       8
#     2   2   2   2   2   2   2   2
#     4  10  23  39  59  94 119 152 209 255 292 356
#     4  10  23  39  61  93 119 150 209 258 292 356
#     4  11  19  40  69  82 118 169 206 244 297 360
#     4  10  21  40  63  89 124 159 206 249 302 358
#     4  11  21  40  61  86 119 158 199 240 305 364
#     4  10  21  41  64  90 120 161 209 246 302 361
#     4  11  21  39  63  81 124 165 190 247 312 357
#     4  11  23  39  58  94 128 159 194 254 306 358
#
# _framework density 21.584098000000001
#
# number of rings (size 3 to 8) (size 9 to 14) (size 15 to 20)
#    0.000    1.500    5.000    2.250    0.000    8.500 
#    2.250    0.000    0.000    0.000    0.000    0.000 
#    0.000    0.000    0.000    0.000    0.000    0.000 
#
# Total GULP energy -89314.683583 kJ/mol
# GULP energy per Si atom -5582.167724 kJ/mol
# Density = 2.153497 g / cm^3
# Si number density = 21.584098 Si / 1000 Ang^3
#
#
#
# Elastic Constant Matrix: (Units=GPa)
#
#
# Indices 1 2 3 4 5 6 
#
# 1 50.6485 15.2799 24.9013 3.1392 -15.2003 25.8481
# 2 15.2799 82.5917 59.1409 4.3536 -14.3097 19.6085
# 3 24.9013 59.1409 171.5900 10.1189 -21.1399 28.7618
# 4 3.1392 4.3536 10.1189 52.7938 4.8283 -4.6054
# 5 -15.2003 -14.3097 -21.1399 4.8283 31.1432 -14.0248
# 6 25.8481 19.6085 28.7618 -4.6054 -14.0248 29.0644
#
#
#
# Elastic Compliance Matrix: (Units=1/GPa)
#
#
# Indices 1 2 3 4 5 6 
#
# 1 0.038438 0.001916 0.000549 -0.006046 0.005492 -0.034328
# 2 0.001916 0.017423 -0.004536 -0.001609 0.002500 -0.008018
# 3 0.000549 -0.004536 0.008544 -0.001930 0.001911 -0.005266
# 4 -0.006046 -0.001609 -0.001930 0.021013 -0.003818 0.009860
# 5 0.005492 0.002500 0.001911 -0.003818 0.043114 0.011737
# 6 -0.034328 -0.008018 -0.005266 0.009860 0.011737 0.082783
#
#
# Mechanical properties :
#
#
# Convention : Reuss Voigt Hill
#
# Bulk Modulus (GPa) = 16.59427 55.94158 36.26793
# Shear Modulus (GPa) = 21.22741 36.30082 28.76412
#
# Velocity S-wave (km/s) = 3.13944 4.10546 3.65451
# Velocity P-wave (km/s) = 4.56578 6.96041 5.88616
#
# Compressibility (1/GPa) = 0.06026177
#
# Stress axis : x y z
#
# Youngs Moduli (GPa) = 26.01584 57.39474 117.04640
#
# Poissons Ratio (x) = -0.10997 -0.06421
# Poissons Ratio (y) = -0.04985 0.53095
# Poissons Ratio (z) = -0.01427 0.26036
#
# Static dielectric constant tensor:
#      x y z
#    x 1.777480 -0.013670 0.000330 
#    y -0.013670 1.777530 -0.065730 
#    z 0.000330 -0.065730 1.861890 
# 
# From -- ./inp_files/537625.got.cif
#   From: 2010.05.17/outbox.cif.g08.bks.cpg/sg2_269_cif.got.tgz:537625.got - 2010.06.03 11:33:40.
