data_PCOD9010630
_publ_section_title
;
Structure prediction by ZEFSAII (Michael W. Deem and Ramdas Pophale) SiO2 
 PCOD9010630
Probable space group: P -1
;
_chemical_formula_sum "Si O2"
_cell_formula_units_Z 14
_cell_length_a 9.239332
_cell_length_b 8.871444
_cell_length_c 7.012878
_cell_angle_alpha 76.581199
_cell_angle_beta 83.135099
_cell_angle_gamma 82.038846
_cell_volume 551.454577
_symmetry_space_group_name_H-M "P -1"
_symmetry_group_IT_number 2
_symmetry_cell_setting 'triclinic'
loop_
_space_group_symop_operation_xyz
x,y,z
-x,-y,-z
loop_
_atom_site_type_symbol
_atom_site_label
_atom_site_fract_x
_atom_site_fract_y
_atom_site_fract_z
Si Si1 0.274116 0.701952 0.210796
Si Si2 0.595975 0.681716 0.992126
Si Si3 0.661290 0.915787 0.438292
Si Si4 0.386142 0.409654 0.428453
Si Si5 0.079409 0.901792 0.695406
Si Si6 0.858995 0.413977 0.093823
Si Si7 0.227764 0.056642 0.183004
O O1 0.254364 0.546623 0.378451
O O2 0.260773 0.871626 0.252983
O O3 0.439787 0.678809 0.112280
O O4 0.170166 0.693995 0.050163
O O5 0.570270 0.649488 0.777383
O O6 0.656749 0.848574 0.970401
O O7 0.719662 0.545675 0.083499
O O8 0.641906 0.746380 0.410284
O O9 0.750630 0.874869 0.630850
O O10 0.500000 0.000000 0.500000
O O11 0.771985 0.024200 0.289625
O O12 0.500000 0.500000 0.500000
O O13 0.120872 0.717034 0.706271
O O14 0.940698 0.908800 0.858489
O O15 0.000000 0.000000 0.500000
O O16 0.000000 0.500000 0.000000
#
# Coordination Sequence:
#
# PCOD9010630 Si02
#       7
#     2   2   2   2   2   2   2
#     4  11  24  40  67  98 137 172 227 275 328 402
#     4  10  22  42  69  98 132 174 224 275 337 393
#     4  10  22  38  69  93 129 173 219 275 337 385
#     4  10  21  40  63  99 131 166 220 279 330 387
#     4  10  23  42  67  93 132 175 223 270 342 394
#     4  11  22  42  69  93 130 181 221 275 336 395
#     4  10  21  43  62  95 134 175 219 270 327 408
#
# _framework density 25.387405000000001
#
# number of rings (size 3 to 8) (size 9 to 14) (size 15 to 20)
#    0.000    1.714    1.429    3.000    8.000    0.571 
#    2.571    2.143    0.000    0.000    0.000    0.000 
#    0.000    0.000    0.000    0.000    0.000    0.000 
#
# Total GULP energy -78149.993692 kJ/mol
# GULP energy per Si atom -5582.142407 kJ/mol
# Density = 2.532962 g / cm^3
# Si number density = 25.387405 Si / 1000 Ang^3
#
#
#
# Elastic Constant Matrix: (Units=GPa)
#
#
# Indices 1 2 3 4 5 6 
#
# 1 176.4904 56.3218 23.1573 -12.9075 -8.9021 32.0252
# 2 56.3218 169.3527 28.6576 -27.7265 -8.1367 40.0867
# 3 23.1573 28.6576 64.6979 -13.0759 7.6479 3.9054
# 4 -12.9075 -27.7265 -13.0759 47.3468 2.1677 -1.4709
# 5 -8.9021 -8.1367 7.6479 2.1677 34.1924 -14.4757
# 6 32.0252 40.0867 3.9054 -1.4709 -14.4757 45.7418
#
#
#
# Elastic Compliance Matrix: (Units=1/GPa)
#
#
# Indices 1 2 3 4 5 6 
#
# 1 0.006955 -0.001016 -0.001716 0.000697 0.000341 -0.003702
# 2 -0.001016 0.008932 -0.002217 0.004163 -0.000904 -0.007079
# 3 -0.001716 -0.002217 0.018399 0.003559 -0.005313 0.000006
# 4 0.000697 0.004163 0.003559 0.024731 -0.003158 -0.004644
# 5 0.000341 -0.000904 -0.005313 -0.003158 0.035671 0.012194
# 6 -0.003702 -0.007079 0.000006 -0.004644 0.012194 0.034367
#
#
# Mechanical properties :
#
#
# Convention : Reuss Voigt Hill
#
# Bulk Modulus (GPa) = 41.00179 69.64605 55.32392
# Shear Modulus (GPa) = 33.99447 45.61648 39.80547
#
# Velocity S-wave (km/s) = 3.66324 4.24348 3.96400
# Velocity P-wave (km/s) = 5.83763 7.17652 6.54142
#
# Compressibility (1/GPa) = 0.02438918
#
# Stress axis : x y z
#
# Youngs Moduli (GPa) = 143.77451 111.96195 54.34955
#
# Poissons Ratio (x) = 0.11375 0.09324
# Poissons Ratio (y) = 0.14608 0.12050
# Poissons Ratio (z) = 0.24665 0.24823
#
# Static dielectric constant tensor:
#      x y z
#    x 3.064660 -0.726270 -1.977170 
#    y -0.726270 2.549290 1.239340 
#    z -1.977170 1.239340 5.901100 
# 
# From -- ./inp_files/154019.got.cif
#   From: 2010.05.17/outbox.cif.g08.bks.cpg/sg2_78_cif.got.tgz:154019.got - 2010.06.03 11:33:40.
