data_PCOD9010555
_publ_section_title
;
Structure prediction by ZEFSAII (Michael W. Deem and Ramdas Pophale) SiO2 
 PCOD9010555
Probable space group: P -1
;
_chemical_formula_sum "Si O2"
_cell_formula_units_Z 14
_cell_length_a 10.204706
_cell_length_b 8.328071
_cell_length_c 15.896756
_cell_angle_alpha 68.384540
_cell_angle_beta 54.122223
_cell_angle_gamma 31.364711
_cell_volume 541.110580
_symmetry_space_group_name_H-M "P -1"
_symmetry_group_IT_number 2
_symmetry_cell_setting 'triclinic'
loop_
_space_group_symop_operation_xyz
x,y,z
-x,-y,-z
loop_
_atom_site_type_symbol
_atom_site_label
_atom_site_fract_x
_atom_site_fract_y
_atom_site_fract_z
Si Si1 0.369483 0.677654 0.426785
Si Si2 0.800207 0.569772 0.002420
Si Si3 0.921399 0.125864 0.751126
Si Si4 0.258858 0.157871 0.353146
Si Si5 0.142619 0.219867 0.188659
Si Si6 0.199912 0.805413 0.879346
Si Si7 0.241882 0.496937 0.396710
O O1 0.500000 0.500000 0.500000
O O2 0.442754 0.472026 0.365511
O O3 0.445978 0.810511 0.360832
O O4 0.000000 0.000000 0.500000
O O5 0.937891 0.516779 0.872232
O O6 0.835342 0.364876 0.084138
O O7 0.000000 0.500000 0.000000
O O8 0.438569 0.914996 0.077950
O O9 0.558384 0.501626 0.819046
O O10 0.002272 0.188006 0.634405
O O11 0.979316 0.872575 0.748888
O O12 0.044559 0.040845 0.814743
O O13 0.209374 0.207404 0.262640
O O14 0.386354 0.210548 0.343394
O O15 0.937662 0.420810 0.472234
O O16 0.000000 0.000000 0.000000
#
# Coordination Sequence:
#
# PCOD9010555 Si02
#       7
#     2   2   2   2   2   2   2
#     4  10  22  43  69  94 133 178 222 280 335 392
#     4  10  21  40  63  94 131 171 228 282 333 413
#     4  11  23  43  68  97 137 180 226 284 340 412
#     4  10  22  44  69 101 137 185 231 281 347 410
#     4  10  21  40  67  94 131 181 226 280 349 399
#     4  11  25  42  67  99 136 178 229 281 348 401
#     4  10  23  43  69 103 141 180 234 284 337 421
#
# _framework density 25.872713999999998
#
# number of rings (size 3 to 8) (size 9 to 14) (size 15 to 20)
#    0.000    1.714    2.857    0.429    2.000    4.000 
#    5.143    2.857    0.000    0.000    0.000    0.000 
#    0.000    0.000    0.000    0.000    0.000    0.000 
#
# Total GULP energy -77948.020829 kJ/mol
# GULP energy per Si atom -5567.715774 kJ/mol
# Density = 2.581383 g / cm^3
# Si number density = 25.872714 Si / 1000 Ang^3
#
#
#
# Elastic Constant Matrix: (Units=GPa)
#
#
# Indices 1 2 3 4 5 6 
#
# 1 122.6245 50.2112 28.4673 -17.9487 15.9614 20.2803
# 2 50.2112 94.0655 39.7535 -20.3922 23.3489 -10.0413
# 3 28.4673 39.7535 138.8093 -41.6027 30.3972 -12.4887
# 4 -17.9487 -20.3922 -41.6027 56.0699 -8.2043 6.1801
# 5 15.9614 23.3489 30.3972 -8.2043 53.4537 -16.3918
# 6 20.2803 -10.0413 -12.4887 6.1801 -16.3918 45.6940
#
#
#
# Elastic Compliance Matrix: (Units=1/GPa)
#
#
# Indices 1 2 3 4 5 6 
#
# 1 0.013076 -0.006541 -0.000248 0.002110 -0.003271 -0.008767
# 2 -0.006541 0.016384 -0.001927 0.001547 -0.002361 0.004921
# 3 -0.000248 -0.001927 0.010676 0.006516 -0.004075 0.000262
# 4 0.002110 0.001547 0.006516 0.023897 -0.002215 -0.002842
# 5 -0.003271 -0.002361 -0.004075 -0.002215 0.025539 0.009280
# 6 -0.008767 0.004921 0.000262 -0.002842 0.009280 0.030642
#
#
# Mechanical properties :
#
#
# Convention : Reuss Voigt Hill
#
# Bulk Modulus (GPa) = 44.05078 65.81814 54.93446
# Shear Modulus (GPa) = 34.43207 46.84799 40.64003
#
# Velocity S-wave (km/s) = 3.65201 4.25986 3.96759
# Velocity P-wave (km/s) = 5.90303 7.04909 6.50136
#
# Compressibility (1/GPa) = 0.02270107
#
# Stress axis : x y z
#
# Youngs Moduli (GPa) = 76.47769 61.03617 93.67134
#
# Poissons Ratio (x) = 0.39926 0.02327
# Poissons Ratio (y) = 0.50027 0.18053
# Poissons Ratio (z) = 0.01900 0.11763
#
# Static dielectric constant tensor:
#      x y z
#    x 2.059600 -0.002920 -0.030670 
#    y -0.002920 2.207240 0.115680 
#    z -0.030670 0.115680 2.132800 
# 
# From -- ./inp_files/515182.got.cif
#   From: 2010.05.17/outbox.cif.g08.bks.cpg/sg2_258_cif.got.tgz:515182.got - 2010.06.03 11:33:40.
