data_PCOD9010714
_publ_section_title
;
Structure prediction by ZEFSAII (Michael W. Deem and Ramdas Pophale) SiO2 
 PCOD9010714
Probable space group: P -1
;
_chemical_formula_sum "Si O2"
_cell_formula_units_Z 16
_cell_length_a 12.887010
_cell_length_b 14.143488
_cell_length_c 14.288010
_cell_angle_alpha 33.032987
_cell_angle_beta 149.647002
_cell_angle_gamma 147.256595
_cell_volume 648.642346
_symmetry_space_group_name_H-M "P -1"
_symmetry_group_IT_number 2
_symmetry_cell_setting 'triclinic'
loop_
_space_group_symop_operation_xyz
x,y,z
-x,-y,-z
loop_
_atom_site_type_symbol
_atom_site_label
_atom_site_fract_x
_atom_site_fract_y
_atom_site_fract_z
Si Si1 0.468945 0.191034 0.794362
Si Si2 0.576605 0.254697 0.032270
Si Si3 0.022137 0.188026 0.466267
Si Si4 0.034893 0.313356 0.710689
Si Si5 0.227678 0.372761 0.003273
Si Si6 0.401280 0.940244 0.300609
Si Si7 0.150457 0.971816 0.348880
Si Si8 0.246411 0.622133 0.318858
O O1 0.219015 0.156254 0.591243
O O2 0.646762 0.313865 0.752907
O O3 0.513795 0.286723 0.852392
O O4 0.500000 0.000000 0.000000
O O5 0.618338 0.435618 0.980483
O O6 0.803209 0.211549 0.236060
O O7 0.400682 0.067250 0.105726
O O8 0.156888 0.397164 0.444396
O O9 0.943118 0.032751 0.616173
O O10 0.816450 0.148459 0.729909
O O11 0.036431 0.197387 0.716078
O O12 0.000000 0.500000 0.500000
O O13 0.227590 0.383156 0.881860
O O14 0.975529 0.340488 0.867714
O O15 0.243138 0.178626 0.203177
O O16 0.417828 0.754720 0.420716
O O17 0.627352 0.067761 0.428100
#
# Coordination Sequence:
#
# PCOD9010714 Si02
#       8
#     2   2   2   2   2   2   2   2
#     4  12  23  40  67  95 126 171 219 260 318 374
#     4  10  23  44  62  93 131 168 209 266 316 376
#     4  10  24  41  63  92 133 167 213 262 323 370
#     4  11  22  42  67  89 128 167 206 256 324 382
#     4  10  23  41  62  92 129 161 211 266 311 373
#     4  10  21  40  64  89 128 162 208 258 319 375
#     4  11  22  40  63  97 120 169 213 258 316 378
#     4  10  21  42  61  91 128 171 205 264 318 375
#
# _framework density 24.666907999999999
#
# number of rings (size 3 to 8) (size 9 to 14) (size 15 to 20)
#    0.000    1.500    1.250    4.875    3.500    2.500 
#    2.250    1.250    0.000    0.000    0.000    0.000 
#    0.000    0.000    0.000    0.000    0.000    0.000 
#
# Total GULP energy -89449.286427 kJ/mol
# GULP energy per Si atom -5590.580402 kJ/mol
# Density = 2.461076 g / cm^3
# Si number density = 24.666908 Si / 1000 Ang^3
#
#
#
# Elastic Constant Matrix: (Units=GPa)
#
#
# Indices 1 2 3 4 5 6 
#
# 1 70.9927 -2.4359 15.2827 17.2397 -4.7731 12.3651
# 2 -2.4359 90.2143 6.0047 2.7080 1.6885 -5.9719
# 3 15.2827 6.0047 84.1255 9.7967 -2.3360 -5.4299
# 4 17.2397 2.7080 9.7967 34.9192 -1.9651 -1.7826
# 5 -4.7731 1.6885 -2.3360 -1.9651 37.8357 -0.8892
# 6 12.3651 -5.9719 -5.4299 -1.7826 -0.8892 33.7887
#
#
#
# Elastic Compliance Matrix: (Units=1/GPa)
#
#
# Indices 1 2 3 4 5 6 
#
# 1 0.018159 0.000411 -0.002775 -0.008514 0.001484 -0.007429
# 2 0.000411 0.011287 -0.000690 -0.000827 -0.000498 0.001677
# 3 -0.002775 -0.000690 0.012872 -0.002017 0.000438 0.002867
# 4 -0.008514 -0.000827 -0.002017 0.033737 0.000695 0.004444
# 5 0.001484 -0.000498 0.000438 0.000695 0.026707 0.000179
# 6 -0.007429 0.001677 0.002867 0.004444 0.000179 0.033311
#
#
# Mechanical properties :
#
#
# Convention : Reuss Voigt Hill
#
# Bulk Modulus (GPa) = 27.61586 31.44839 29.53212
# Shear Modulus (GPa) = 32.41502 36.40745 34.41124
#
# Velocity S-wave (km/s) = 3.62900 3.84599 3.73907
# Velocity P-wave (km/s) = 5.36464 5.70080 5.53527
#
# Compressibility (1/GPa) = 0.03621107
#
# Stress axis : x y z
#
# Youngs Moduli (GPa) = 55.07027 88.59850 77.68530
#
# Poissons Ratio (x) = -0.03642 0.21557
# Poissons Ratio (y) = -0.02264 0.05357
# Poissons Ratio (z) = 0.15282 0.06109
#
# Static dielectric constant tensor:
#      x y z
#    x 2.038760 -0.049580 0.058270 
#    y -0.049580 1.991280 0.061190 
#    z 0.058270 0.061190 1.947030 
# 
# From -- ./inp_files/347591.got.cif
#   From: 2010.05.17/outbox.cif.g08.bks.cpg/sg2_174_cif.got.tgz:347591.got - 2010.06.03 11:33:40.
