data_PCOD9010398
_publ_section_title
;
Structure prediction by ZEFSAII (Michael W. Deem and Ramdas Pophale) SiO2 
 PCOD9010398
Probable space group: P -1
;
_chemical_formula_sum "Si O2"
_cell_formula_units_Z 16
_cell_length_a 9.075305
_cell_length_b 18.106944
_cell_length_c 7.755328
_cell_angle_alpha 67.189552
_cell_angle_beta 77.611838
_cell_angle_gamma 33.648582
_cell_volume 636.146114
_symmetry_space_group_name_H-M "P -1"
_symmetry_group_IT_number 2
_symmetry_cell_setting 'triclinic'
loop_
_space_group_symop_operation_xyz
x,y,z
-x,-y,-z
loop_
_atom_site_type_symbol
_atom_site_label
_atom_site_fract_x
_atom_site_fract_y
_atom_site_fract_z
Si Si1 0.630974 0.658941 0.048297
Si Si2 0.351204 0.894884 0.373890
Si Si3 0.391124 0.613131 0.055835
Si Si4 0.934521 0.592751 0.583921
Si Si5 0.846186 0.164214 0.711385
Si Si6 0.814378 0.359941 0.421812
Si Si7 0.148365 0.151159 0.211357
Si Si8 0.559655 0.093887 0.048099
O O1 0.527089 0.639120 0.957429
O O2 0.402797 0.744258 0.179414
O O3 0.918516 0.506631 0.193611
O O4 0.604695 0.764442 0.936989
O O5 0.613784 0.745809 0.539449
O O6 0.163002 0.903118 0.364401
O O7 0.212025 0.033557 0.367267
O O8 0.457906 0.881482 0.173471
O O9 0.523426 0.521664 0.281876
O O10 0.500000 0.500000 0.000000
O O11 0.069394 0.759628 0.971713
O O12 0.000000 0.500000 0.500000
O O13 0.061905 0.625800 0.499217
O O14 0.805581 0.271546 0.556914
O O15 0.129210 0.036481 0.856184
O O16 0.012661 0.265271 0.290245
O O17 0.423339 0.071130 0.153354
#
# Coordination Sequence:
#
# PCOD9010398 Si02
#       8
#     2   2   2   2   2   2   2   2
#     4  10  21  40  63  89 125 157 203 260 301 359
#     4  11  23  39  65  94 122 161 208 251 307 364
#     4   9  20  41  64  89 123 162 203 249 307 370
#     4  11  21  42  64  91 126 159 208 257 303 363
#     4  11  22  39  61  94 122 163 205 250 308 358
#     4  10  25  41  63  91 126 165 203 248 312 364
#     4  11  23  42  63  92 127 162 202 254 304 368
#     4  11  22  37  64  91 124 162 204 252 306 356
#
# _framework density 25.151454999999999
#
# number of rings (size 3 to 8) (size 9 to 14) (size 15 to 20)
#    0.000    1.500    2.500    4.125    0.000    7.500 
#    0.000    8.125    0.000    0.000    0.000    0.000 
#    0.000    0.000    0.000    0.000    0.000    0.000 
#
# Total GULP energy -89591.633678 kJ/mol
# GULP energy per Si atom -5599.477105 kJ/mol
# Density = 2.509421 g / cm^3
# Si number density = 25.151455 Si / 1000 Ang^3
#
#
#
# Elastic Constant Matrix: (Units=GPa)
#
#
# Indices 1 2 3 4 5 6 
#
# 1 171.7628 45.3547 43.1215 -9.4442 -2.9801 31.4775
# 2 45.3547 98.3683 28.6326 -23.3524 2.7335 21.0397
# 3 43.1215 28.6326 67.2998 -23.3384 -3.3675 -11.6723
# 4 -9.4442 -23.3524 -23.3384 46.0768 -5.3454 2.0747
# 5 -2.9801 2.7335 -3.3675 -5.3454 47.1973 -15.7851
# 6 31.4775 21.0397 -11.6723 2.0747 -15.7851 54.5775
#
#
#
# Elastic Compliance Matrix: (Units=1/GPa)
#
#
# Indices 1 2 3 4 5 6 
#
# 1 0.009147 -0.000949 -0.007701 -0.002485 -0.002612 -0.007217
# 2 -0.000949 0.015068 -0.005742 0.004484 -0.003390 -0.007640
# 3 -0.007701 -0.005742 0.028782 0.010355 0.007999 0.014731
# 4 -0.002485 0.004484 0.010355 0.029118 0.004308 0.002058
# 5 -0.002612 -0.003390 0.007999 0.004308 0.026278 0.011960
# 6 -0.007217 -0.007640 0.014731 0.002058 0.011960 0.031962
#
#
# Mechanical properties :
#
#
# Convention : Reuss Voigt Hill
#
# Bulk Modulus (GPa) = 41.30167 63.51651 52.40909
# Shear Modulus (GPa) = 28.21518 44.25847 36.23683
#
# Velocity S-wave (km/s) = 3.35298 4.19940 3.79983
# Velocity P-wave (km/s) = 5.60774 6.98726 6.33516
#
# Compressibility (1/GPa) = 0.02421210
#
# Stress axis : x y z
#
# Youngs Moduli (GPa) = 109.32830 66.36690 34.74392
#
# Poissons Ratio (x) = 0.06301 0.26757
# Poissons Ratio (y) = 0.10379 0.19949
# Poissons Ratio (z) = 0.84195 0.38106
#
# Static dielectric constant tensor:
#      x y z
#    x 1.987100 0.029580 -0.030470 
#    y 0.029580 2.017850 0.059040 
#    z -0.030470 0.059040 2.040240 
# 
# From -- ./inp_files/217026.got.cif
#   From: 2010.05.17/outbox.cif.g08.bks.cpg/sg2_109_cif.got.tgz:217026.got - 2010.06.03 11:33:40.
