data_PCOD9010133
_publ_section_title
;
Structure prediction by ZEFSAII (Michael W. Deem and Ramdas Pophale) SiO2 
 PCOD9010133
Probable space group: P -1
;
_chemical_formula_sum "Si O2"
_cell_formula_units_Z 16
_cell_length_a 5.973451
_cell_length_b 6.869027
_cell_length_c 18.913112
_cell_angle_alpha 77.709228
_cell_angle_beta 122.382726
_cell_angle_gamma 109.600774
_cell_volume 616.842608
_symmetry_space_group_name_H-M "P -1"
_symmetry_group_IT_number 2
_symmetry_cell_setting 'triclinic'
loop_
_space_group_symop_operation_xyz
x,y,z
-x,-y,-z
loop_
_atom_site_type_symbol
_atom_site_label
_atom_site_fract_x
_atom_site_fract_y
_atom_site_fract_z
Si Si1 0.378851 0.781807 0.253990
Si Si2 0.679078 0.337087 0.531270
Si Si3 0.279667 0.282030 0.060599
Si Si4 0.795852 0.785764 0.786964
Si Si5 0.628986 0.972525 0.144184
Si Si6 0.180344 0.344161 0.889497
Si Si7 0.263644 0.610355 0.631867
Si Si8 0.713353 0.958270 0.414835
O O1 0.535702 0.813755 0.204285
O O2 0.596630 0.773638 0.352759
O O3 0.075184 0.634846 0.202082
O O4 0.295427 0.998409 0.240474
O O5 0.500000 0.500000 0.500000
O O6 0.703733 0.335561 0.450686
O O7 0.526306 0.123676 0.560666
O O8 0.983790 0.431955 0.607499
O O9 0.168480 0.277884 0.121200
O O10 0.557238 0.465867 0.089640
O O11 0.385011 0.078209 0.081717
O O12 0.101636 0.315327 0.961170
O O13 0.553979 0.619889 0.717596
O O14 0.097390 0.853191 0.799313
O O15 0.719722 0.853459 0.103868
O O16 0.222052 0.828732 0.634641
O O17 0.000000 0.000000 0.500000
#
# Coordination Sequence:
#
# PCOD9010133 Si02
#       8
#     2   2   2   2   2   2   2   2
#     4   9  22  40  60  89 122 157 204 254 303 367
#     4  11  23  40  61  92 121 161 209 256 310 372
#     4  10  22  39  64  90 122 163 203 255 308 364
#     4   9  21  39  62  88 120 159 203 251 306 366
#     4  10  21  40  62  88 121 166 201 250 313 364
#     4  10  22  41  60  92 125 156 209 255 302 374
#     4  10  23  42  61  90 125 163 207 257 309 370
#     4  11  22  41  65  89 124 167 204 255 313 367
#
# _framework density 25.938545999999999
#
# number of rings (size 3 to 8) (size 9 to 14) (size 15 to 20)
#    0.000    2.000    1.250    0.750    3.500    7.500 
#    4.500    2.500    0.000    0.000    0.000    0.000 
#    0.000    0.000    0.000    0.000    0.000    0.000 
#
# Total GULP energy -89420.027334 kJ/mol
# GULP energy per Si atom -5588.751708 kJ/mol
# Density = 2.587951 g / cm^3
# Si number density = 25.938546 Si / 1000 Ang^3
#
#
#
# Elastic Constant Matrix: (Units=GPa)
#
#
# Indices 1 2 3 4 5 6 
#
# 1 55.2904 19.6214 14.3962 9.4975 12.7741 15.0628
# 2 19.6214 116.6534 25.0169 23.8950 13.2622 35.3754
# 3 14.3962 25.0169 86.9338 16.3603 -1.4394 1.7889
# 4 9.4975 23.8950 16.3603 35.1032 -2.8288 7.1533
# 5 12.7741 13.2622 -1.4394 -2.8288 35.0470 -7.2368
# 6 15.0628 35.3754 1.7889 7.1533 -7.2368 45.4224
#
#
#
# Elastic Compliance Matrix: (Units=1/GPa)
#
#
# Indices 1 2 3 4 5 6 
#
# 1 0.025330 0.002770 -0.003916 -0.005614 -0.013297 -0.011637
# 2 0.002770 0.015756 -0.003384 -0.008000 -0.010539 -0.013475
# 3 -0.003916 -0.003384 0.013789 -0.003684 0.003926 0.004597
# 4 -0.005614 -0.008000 -0.003684 0.037100 0.008698 0.003781
# 5 -0.013297 -0.010539 0.003926 0.008698 0.041900 0.017769
# 6 -0.011637 -0.013475 0.004597 0.003781 0.017769 0.038424
#
#
# Mechanical properties :
#
#
# Convention : Reuss Voigt Hill
#
# Bulk Modulus (GPa) = 21.82740 41.88296 31.85518
# Shear Modulus (GPa) = 25.42854 36.43741 30.93298
#
# Velocity S-wave (km/s) = 3.13443 3.75208 3.45708
# Velocity P-wave (km/s) = 4.64035 5.91209 5.31440
#
# Compressibility (1/GPa) = 0.04581398
#
# Stress axis : x y z
#
# Youngs Moduli (GPa) = 39.47918 63.46977 72.52144
#
# Poissons Ratio (x) = -0.17581 0.28399
# Poissons Ratio (y) = -0.10936 0.24543
# Poissons Ratio (z) = 0.15460 0.21480
#
# Static dielectric constant tensor:
#      x y z
#    x 2.043040 -0.130080 0.010990 
#    y -0.130080 2.130710 0.016110 
#    z 0.010990 0.016110 2.090590 
# 
# From -- ./inp_files/52377.got.cif
#   From: 2010.05.17/outbox.cif.g08.bks.cpg/sg2_27_cif.got.tgz:52377.got - 2010.06.03 11:33:40.
