data_PCOD9010752
_publ_section_title
;
Structure prediction by ZEFSAII (Michael W. Deem and Ramdas Pophale) SiO2 
 PCOD9010752
Probable space group: P -1
;
_chemical_formula_sum "Si O2"
_cell_formula_units_Z 16
_cell_length_a 26.168157
_cell_length_b 5.642652
_cell_length_c 11.713721
_cell_angle_alpha 49.989645
_cell_angle_beta 29.487960
_cell_angle_gamma 54.060657
_cell_volume 650.393748
_symmetry_space_group_name_H-M "P -1"
_symmetry_group_IT_number 2
_symmetry_cell_setting 'triclinic'
loop_
_space_group_symop_operation_xyz
x,y,z
-x,-y,-z
loop_
_atom_site_type_symbol
_atom_site_label
_atom_site_fract_x
_atom_site_fract_y
_atom_site_fract_z
Si Si1 0.638051 0.194138 0.342966
Si Si2 0.735508 0.284033 0.911293
Si Si3 0.496004 0.032934 0.134464
Si Si4 0.057243 0.440786 0.571349
Si Si5 0.824410 0.569328 0.955897
Si Si6 0.206761 0.364297 0.761494
Si Si7 0.673733 0.396762 0.740798
Si Si8 0.990920 0.230713 0.192918
O O1 0.550046 0.196157 0.610693
O O2 0.688567 0.840796 0.348504
O O3 0.633601 0.288516 0.189236
O O4 0.729767 0.395012 0.144841
O O5 0.831324 0.465196 0.718571
O O6 0.704816 0.408009 0.807914
O O7 0.784686 0.931260 0.915534
O O8 0.411853 0.328788 0.210163
O O9 0.612113 0.095166 0.929112
O O10 0.500000 0.000000 0.000000
O O11 0.947150 0.559736 0.690335
O O12 0.051161 0.607220 0.657827
O O13 0.058297 0.069265 0.669362
O O14 0.827011 0.440424 0.122481
O O15 0.230324 0.556726 0.544143
O O16 0.114147 0.135509 0.001692
O O17 0.000000 0.500000 0.000000
#
# Coordination Sequence:
#
# PCOD9010752 Si02
#       8
#     2   2   2   2   2   2   2   2
#     4  10  21  40  64  90 129 170 224 272 337 411
#     4  11  25  40  62  99 134 180 219 277 340 402
#     4  10  22  43  71  93 119 168 219 282 355 414
#     4  11  24  41  64  97 143 189 235 276 334 405
#     4  10  21  40  64  92 132 187 225 270 324 405
#     4   9  19  39  62  89 124 175 221 277 333 396
#     4  10  22  42  65  94 130 160 222 284 344 413
#     4  11  22  39  63  98 139 184 232 287 336 393
#
# _framework density 24.600482
#
# number of rings (size 3 to 8) (size 9 to 14) (size 15 to 20)
#    0.000    1.750    1.250    2.250    1.750    3.000 
#    4.500    1.250    0.000    0.000    0.000    0.000 
#    0.000    0.000    0.000    0.000    0.000    0.000 
#
# Total GULP energy -89235.723328 kJ/mol
# GULP energy per Si atom -5577.232708 kJ/mol
# Density = 2.454449 g / cm^3
# Si number density = 24.600482 Si / 1000 Ang^3
#
#
#
# Elastic Constant Matrix: (Units=GPa)
#
#
# Indices 1 2 3 4 5 6 
#
# 1 63.2863 0.2447 53.4602 -1.8648 10.9007 8.1818
# 2 0.2447 87.2894 32.6384 -2.7601 -1.0763 3.9966
# 3 53.4602 32.6384 203.5837 7.4118 26.5876 25.2584
# 4 -1.8648 -2.7601 7.4118 28.9095 5.9523 -0.9686
# 5 10.9007 -1.0763 26.5876 5.9523 42.0408 1.7231
# 6 8.1818 3.9966 25.2584 -0.9686 1.7231 35.5401
#
#
#
# Elastic Compliance Matrix: (Units=1/GPa)
#
#
# Indices 1 2 3 4 5 6 
#
# 1 0.021153 0.002160 -0.005608 0.003458 -0.002335 -0.000920
# 2 0.002160 0.012577 -0.002828 0.001802 0.001292 0.000085
# 3 -0.005608 -0.002828 0.007795 -0.002123 -0.003090 -0.003839
# 4 0.003458 0.001802 -0.002123 0.036568 -0.004757 0.001737
# 5 -0.002335 0.001292 -0.003090 -0.004757 0.027006 0.001150
# 6 -0.000920 0.000085 -0.003839 0.001737 0.001150 0.031059
#
#
# Mechanical properties :
#
#
# Convention : Reuss Voigt Hill
#
# Bulk Modulus (GPa) = 34.51527 58.53844 46.52685
# Shear Modulus (GPa) = 31.57215 39.15248 35.36232
#
# Velocity S-wave (km/s) = 3.58634 3.99373 3.79550
# Velocity P-wave (km/s) = 5.58658 6.71668 6.17753
#
# Compressibility (1/GPa) = 0.02897269
#
# Stress axis : x y z
#
# Youngs Moduli (GPa) = 47.27457 79.51214 128.28374
#
# Poissons Ratio (x) = -0.17176 0.71940
# Poissons Ratio (y) = -0.10212 0.36284
# Poissons Ratio (z) = 0.26511 0.22490
#
# Static dielectric constant tensor:
#      x y z
#    x 2.053930 0.029110 0.042600 
#    y 0.029110 2.015710 0.023590 
#    z 0.042600 0.023590 2.022810 
# 
# From -- ./inp_files/475972.got.cif
#   From: 2010.05.17/outbox.cif.g08.bks.cpg/sg2_238_cif.got.tgz:475972.got - 2010.06.03 11:33:40.
