data_PCOD9010143
_publ_section_title
;
Structure prediction by ZEFSAII (Michael W. Deem and Ramdas Pophale) SiO2 
 PCOD9010143
Probable space group: P -1
;
_chemical_formula_sum "Si O2"
_cell_formula_units_Z 14
_cell_length_a 11.691799
_cell_length_b 14.787781
_cell_length_c 11.630731
_cell_angle_alpha 37.789157
_cell_angle_beta 143.124485
_cell_angle_gamma 150.515726
_cell_volume 563.083695
_symmetry_space_group_name_H-M "P -1"
_symmetry_group_IT_number 2
_symmetry_cell_setting 'triclinic'
loop_
_space_group_symop_operation_xyz
x,y,z
-x,-y,-z
loop_
_atom_site_type_symbol
_atom_site_label
_atom_site_fract_x
_atom_site_fract_y
_atom_site_fract_z
Si Si1 0.686141 0.719310 0.160722
Si Si2 0.143982 0.618727 0.381597
Si Si3 0.785879 0.686819 0.035561
Si Si4 0.491997 0.052626 0.198393
Si Si5 0.170691 0.375169 0.189624
Si Si6 0.059959 0.434226 0.271620
Si Si7 0.089723 0.980279 0.799775
O O1 0.851642 0.741989 0.167097
O O2 0.425577 0.508599 0.187754
O O3 0.810047 0.809713 0.294105
O O4 0.608234 0.846463 0.923295
O O5 0.938979 0.631174 0.159366
O O6 0.170116 0.510540 0.411810
O O7 0.000000 0.500000 0.500000
O O8 0.387562 0.844184 0.369396
O O9 0.500000 0.500000 0.000000
O O10 0.877038 0.859018 0.851256
O O11 0.787965 0.217808 0.268757
O O12 0.339594 0.005844 0.003318
O O13 0.032657 0.151265 0.278281
O O14 0.221921 0.438285 0.299688
O O15 0.997921 0.427118 0.959080
#
# Coordination Sequence:
#
# PCOD9010143 Si02
#       7
#     2   2   2   2   2   2   2
#     4   9  17  29  49  79 104 129 165 220 261 300
#     4  11  23  37  51  77 110 141 173 207 258 317
#     4  11  17  32  55  76 107 133 173 216 261 299
#     4   8  18  31  49  75 106 133 172 207 261 302
#     4  10  17  29  50  79 105 131 169 217 261 304
#     4  10  18  32  50  72 107 141 167 210 259 309
#     4   9  17  27  44  80 104 128 164 213 262 300
#
# _framework density 24.863088999999999
#
# number of rings (size 3 to 8) (size 9 to 14) (size 15 to 20)
#    0.857    1.429    4.286    1.286    0.000    2.286 
#    0.000    0.000    0.000    0.857    0.000    2.000 
#    0.000    0.000    0.000    0.000    0.000    0.000 
#
# Total GULP energy -77950.568321 kJ/mol
# GULP energy per Si atom -5567.897737 kJ/mol
# Density = 2.480650 g / cm^3
# Si number density = 24.863089 Si / 1000 Ang^3
#
#
#
# Elastic Constant Matrix: (Units=GPa)
#
#
# Indices 1 2 3 4 5 6 
#
# 1 122.9254 21.4296 21.7060 9.9604 -22.4887 -27.3108
# 2 21.4296 129.5313 16.0485 -6.8893 3.4893 -15.8400
# 3 21.7060 16.0485 50.7746 -7.0067 -13.9921 -6.7773
# 4 9.9604 -6.8893 -7.0067 16.1566 6.7821 -4.4827
# 5 -22.4887 3.4893 -13.9921 6.7821 28.3640 13.1188
# 6 -27.3108 -15.8400 -6.7773 -4.4827 13.1188 42.5018
#
#
#
# Elastic Compliance Matrix: (Units=1/GPa)
#
#
# Indices 1 2 3 4 5 6 
#
# 1 0.012903 -0.002658 -0.003290 -0.015049 0.011821 0.001541
# 2 -0.002658 0.009987 -0.002488 0.010485 -0.009717 0.005723
# 3 -0.003290 -0.002488 0.025266 0.008086 0.008605 -0.000815
# 4 -0.015049 0.010485 0.008086 0.102537 -0.042793 0.019550
# 5 0.011821 -0.009717 0.008605 -0.042793 0.069893 -0.020740
# 6 0.001541 0.005723 -0.000815 0.019550 -0.020740 0.034985
#
#
# Mechanical properties :
#
#
# Convention : Reuss Voigt Hill
#
# Bulk Modulus (GPa) = 31.96260 46.84440 39.40350
# Shear Modulus (GPa) = 17.67592 33.67429 25.67510
#
# Velocity S-wave (km/s) = 2.66922 3.68419 3.21699
# Velocity P-wave (km/s) = 4.73107 6.08108 5.44805
#
# Compressibility (1/GPa) = 0.03128656
#
# Stress axis : x y z
#
# Youngs Moduli (GPa) = 77.49844 100.12785 39.57913
#
# Poissons Ratio (x) = 0.26610 0.13021
# Poissons Ratio (y) = 0.20596 0.09845
# Poissons Ratio (z) = 0.25496 0.24907
#
# Static dielectric constant tensor:
#      x y z
#    x 1.930730 -0.057000 0.023210 
#    y -0.057000 2.113320 -0.121610 
#    z 0.023210 -0.121610 2.294180 
# 
# From -- ./inp_files/272181.got.cif
#   From: 2010.05.17/outbox.cif.g08.bks.cpg/sg2_137_cif.got.tgz:272181.got - 2010.06.03 11:33:40.
