data_PCOD9010825
_publ_section_title
;
Structure prediction by ZEFSAII (Michael W. Deem and Ramdas Pophale) SiO2 
 PCOD9010825
Probable space group: P -1
;
_chemical_formula_sum "Si O2"
_cell_formula_units_Z 14
_cell_length_a 10.485058
_cell_length_b 9.935124
_cell_length_c 27.668395
_cell_angle_alpha 147.097397
_cell_angle_beta 25.575209
_cell_angle_gamma 136.079227
_cell_volume 667.408517
_symmetry_space_group_name_H-M "P -1"
_symmetry_group_IT_number 2
_symmetry_cell_setting 'triclinic'
loop_
_space_group_symop_operation_xyz
x,y,z
-x,-y,-z
loop_
_atom_site_type_symbol
_atom_site_label
_atom_site_fract_x
_atom_site_fract_y
_atom_site_fract_z
Si Si1 0.131696 0.769801 0.921013
Si Si2 0.410055 0.531636 0.984727
Si Si3 0.316586 0.387900 0.380989
Si Si4 0.215327 0.900479 0.322951
Si Si5 0.626452 0.892835 0.570685
Si Si6 0.833248 0.372606 0.396267
Si Si7 0.457467 0.064681 0.090497
O O1 0.411271 0.616032 0.749924
O O2 0.257228 0.871247 0.958254
O O3 0.877751 0.600921 0.966187
O O4 0.000000 0.000000 0.000000
O O5 0.682464 0.377165 0.814819
O O6 0.500000 0.500000 0.000000
O O7 0.364371 0.820378 0.073699
O O8 0.335302 0.542481 0.470593
O O9 0.000000 0.500000 0.500000
O O10 0.309189 0.101486 0.314042
O O11 0.862379 0.967602 0.474337
O O12 0.376048 0.935151 0.329567
O O13 0.772733 0.614805 0.455515
O O14 0.310397 0.854619 0.645988
O O15 0.183862 0.290509 0.258649
O O16 0.500000 0.000000 0.000000
#
# Coordination Sequence:
#
# PCOD9010825 Si02
#       7
#     2   2   2   2   2   2   2
#     4  12  25  47  71  98 142 189 228 282 350 412
#     4  12  26  44  71 100 137 189 237 272 349 422
#     4  11  22  41  66  93 130 170 222 283 330 394
#     4  10  21  40  64  93 127 173 227 269 336 417
#     4   9  21  40  67  91 130 174 213 282 354 411
#     4  10  22  41  65  97 132 171 224 282 348 401
#     4  12  27  45  70 106 143 176 237 295 339 411
#
# _framework density 20.976656999999999
#
# number of rings (size 3 to 8) (size 9 to 14) (size 15 to 20)
#    0.000    1.143    4.286    0.857    4.000    2.857 
#    2.571    1.429    0.000    0.000    0.000    0.000 
#    0.000    0.000    0.000    0.000    0.000    0.000 
#
# Total GULP energy -78287.029381 kJ/mol
# GULP energy per Si atom -5591.930670 kJ/mol
# Density = 2.092891 g / cm^3
# Si number density = 20.976657 Si / 1000 Ang^3
#
#
#
# Elastic Constant Matrix: (Units=GPa)
#
#
# Indices 1 2 3 4 5 6 
#
# 1 109.4475 30.3091 19.7041 -11.8363 -3.4307 16.6743
# 2 30.3091 63.2661 -11.0726 -11.0771 -0.1660 8.4695
# 3 19.7041 -11.0726 68.8421 -0.4481 5.5486 -5.1842
# 4 -11.8363 -11.0771 -0.4481 26.6337 -2.0220 0.5055
# 5 -3.4307 -0.1660 5.5486 -2.0220 32.9187 -2.9922
# 6 16.6743 8.4695 -5.1842 0.5055 -2.9922 33.1698
#
#
#
# Elastic Compliance Matrix: (Units=1/GPa)
#
#
# Indices 1 2 3 4 5 6 
#
# 1 0.012981 -0.005732 -0.005201 0.003551 0.001895 -0.005758
# 2 -0.005732 0.020733 0.004968 0.006109 -0.001121 -0.001831
# 3 -0.005201 0.004968 0.017347 -0.000261 -0.003113 0.003780
# 4 0.003551 0.006109 -0.000261 0.041936 0.002677 -0.003783
# 5 0.001895 -0.001121 -0.003113 0.002677 0.031408 0.001639
# 6 -0.005758 -0.001831 0.003780 -0.003783 0.001639 0.034306
#
#
# Mechanical properties :
#
#
# Convention : Reuss Voigt Hill
#
# Bulk Modulus (GPa) = 25.55421 35.49299 30.52360
# Shear Modulus (GPa) = 27.22053 32.05209 29.63631
#
# Velocity S-wave (km/s) = 3.60621 3.91319 3.76283
# Velocity P-wave (km/s) = 5.43584 6.11346 5.78458
#
# Compressibility (1/GPa) = 0.03913249
#
# Stress axis : x y z
#
# Youngs Moduli (GPa) = 77.03618 48.23175 57.64552
#
# Poissons Ratio (x) = 0.27644 0.29979
# Poissons Ratio (y) = 0.44153 -0.28635
# Poissons Ratio (z) = 0.40063 -0.23959
#
# Static dielectric constant tensor:
#      x y z
#    x 1.763750 0.004470 0.005190 
#    y 0.004470 1.754980 -0.006360 
#    z 0.005190 -0.006360 1.758240 
# 
# From -- ./inp_files/259452.got.cif
#   From: 2010.05.17/outbox.cif.g08.bks.cpg/sg2_130_cif.got.tgz:259452.got - 2010.06.03 11:33:40.
