data_PCOD9010937
_publ_section_title
;
Structure prediction by ZEFSAII (Michael W. Deem and Ramdas Pophale) SiO2 
 PCOD9010937
Probable space group: P -1
;
_chemical_formula_sum "Si O2"
_cell_formula_units_Z 14
_cell_length_a 12.137021
_cell_length_b 7.436948
_cell_length_c 10.800072
_cell_angle_alpha 128.324098
_cell_angle_beta 48.890019
_cell_angle_gamma 118.887863
_cell_volume 571.517084
_symmetry_space_group_name_H-M "P -1"
_symmetry_group_IT_number 2
_symmetry_cell_setting 'triclinic'
loop_
_space_group_symop_operation_xyz
x,y,z
-x,-y,-z
loop_
_atom_site_type_symbol
_atom_site_label
_atom_site_fract_x
_atom_site_fract_y
_atom_site_fract_z
Si Si1 0.170730 0.417754 0.101000
Si Si2 0.461169 0.916842 0.632589
Si Si3 0.362051 0.645872 0.275925
Si Si4 0.054561 0.757918 0.618876
Si Si5 0.996805 0.767529 0.238299
Si Si6 0.594022 0.549646 0.254330
Si Si7 0.207961 0.670954 0.832701
O O1 0.544176 0.484162 0.750995
O O2 0.529359 0.131277 0.756038
O O3 0.288924 0.490244 0.152996
O O4 0.037354 0.246103 0.186397
O O5 0.548083 0.695849 0.466952
O O6 0.289226 0.841917 0.747544
O O7 0.264581 0.336545 0.882422
O O8 0.102711 0.649059 0.203692
O O9 0.228780 0.752751 0.487921
O O10 0.000000 0.500000 0.500000
O O11 0.021153 0.962614 0.637471
O O12 0.846548 0.589835 0.282881
O O13 0.068595 0.738868 0.037284
O O14 0.658070 0.329936 0.168464
O O15 0.500000 0.000000 0.500000
#
# Coordination Sequence:
#
# PCOD9010937 Si02
#       7
#     2   2   2   2   2   2   2
#     4  10  23  43  68  96 136 182 225 281 337 405
#     4  10  22  37  65  97 135 175 223 278 344 396
#     4  10  22  41  61 100 133 174 227 273 343 401
#     4  10  23  42  65  95 134 184 225 274 337 400
#     4  10  23  43  70  98 140 174 237 277 341 405
#     4  10  21  40  64  96 132 174 222 277 337 401
#     4  10  22  43  64 105 134 180 222 289 338 405
#
# _framework density 24.496203000000001
#
# number of rings (size 3 to 8) (size 9 to 14) (size 15 to 20)
#    0.000    2.000    0.000    1.714    8.000    2.286 
#    5.143    4.286    0.000    0.000    0.000    0.000 
#    0.000    0.000    0.000    0.000    0.000    0.000 
#
# Total GULP energy -78074.298131 kJ/mol
# GULP energy per Si atom -5576.735581 kJ/mol
# Density = 2.444045 g / cm^3
# Si number density = 24.496203 Si / 1000 Ang^3
#
#
#
# Elastic Constant Matrix: (Units=GPa)
#
#
# Indices 1 2 3 4 5 6 
#
# 1 103.1361 25.3439 13.2805 14.7005 -28.5634 1.6635
# 2 25.3439 146.3354 30.1330 -3.7394 -14.1090 5.1210
# 3 13.2805 30.1330 72.3685 -12.8942 -11.6346 7.5150
# 4 14.7005 -3.7394 -12.8942 43.7543 -4.9722 -12.5713
# 5 -28.5634 -14.1090 -11.6346 -4.9722 32.6121 1.5306
# 6 1.6635 5.1210 7.5150 -12.5713 1.5306 38.7653
#
#
#
# Elastic Compliance Matrix: (Units=1/GPa)
#
#
# Indices 1 2 3 4 5 6 
#
# 1 0.013694 -0.001210 -0.000865 -0.004356 0.010596 -0.002091
# 2 -0.001210 0.007753 -0.002681 0.000323 0.001406 -0.000403
# 3 -0.000865 -0.002681 0.016974 0.005229 0.005002 -0.001401
# 4 -0.004356 0.000323 0.005229 0.028514 0.002149 0.008292
# 5 0.010596 0.001406 0.005002 0.002149 0.042786 -0.002603
# 6 -0.002091 -0.000403 -0.001401 0.008292 -0.002603 0.029003
#
#
# Mechanical properties :
#
#
# Convention : Reuss Voigt Hill
#
# Bulk Modulus (GPa) = 34.58952 51.03941 42.81446
# Shear Modulus (GPa) = 31.67135 39.89852 35.78493
#
# Velocity S-wave (km/s) = 3.59960 4.04017 3.82623
# Velocity P-wave (km/s) = 5.60600 6.53030 6.08572
#
# Compressibility (1/GPa) = 0.02891049
#
# Stress axis : x y z
#
# Youngs Moduli (GPa) = 73.02662 128.97990 58.91233
#
# Poissons Ratio (x) = 0.15608 0.05093
# Poissons Ratio (y) = 0.08837 0.15792
# Poissons Ratio (z) = 0.06314 0.34575
#
# Static dielectric constant tensor:
#      x y z
#    x 1.999770 -0.032100 0.021500 
#    y -0.032100 2.120170 0.064980 
#    z 0.021500 0.064980 2.124740 
# 
# From -- ./inp_files/576959.got.cif
#   From: 2010.05.17/outbox.cif.g08.bks.cpg/sg2_289_cif.got.tgz:576959.got - 2010.06.03 11:33:40.
