data_PCOD9010013
_publ_section_title
;
Structure prediction by ZEFSAII (Michael W. Deem and Ramdas Pophale) SiO2 
 PCOD9010013
Probable space group: P -1
;
_chemical_formula_sum "Si O2"
_cell_formula_units_Z 14
_cell_length_a 8.669196
_cell_length_b 8.952435
_cell_length_c 8.793837
_cell_angle_alpha 86.317776
_cell_angle_beta 93.527700
_cell_angle_gamma 61.706072
_cell_volume 596.419530
_symmetry_space_group_name_H-M "P -1"
_symmetry_group_IT_number 2
_symmetry_cell_setting 'triclinic'
loop_
_space_group_symop_operation_xyz
x,y,z
-x,-y,-z
loop_
_atom_site_type_symbol
_atom_site_label
_atom_site_fract_x
_atom_site_fract_y
_atom_site_fract_z
Si Si1 0.956002 0.780158 0.768703
Si Si2 0.435653 0.106069 0.757606
Si Si3 0.763245 0.158375 0.690054
Si Si4 0.704852 0.401982 0.390730
Si Si5 0.615660 0.471714 0.857979
Si Si6 0.305369 0.247315 0.064349
Si Si7 0.192141 0.338932 0.498142
O O1 0.871865 0.768361 0.923769
O O2 0.828699 0.740989 0.653151
O O3 0.150425 0.652254 0.731895
O O4 0.924792 0.970014 0.728968
O O5 0.593574 0.128294 0.692210
O O6 0.272015 0.179281 0.628699
O O7 0.527733 0.911079 0.832309
O O8 0.363335 0.223600 0.894413
O O9 0.763753 0.252900 0.528789
O O10 0.741885 0.279644 0.824064
O O11 0.523865 0.450067 0.293192
O O12 0.694069 0.565494 0.467754
O O13 0.718998 0.576056 0.885308
O O14 0.500000 0.500000 0.000000
O O15 0.000000 0.500000 0.500000
#
# Coordination Sequence:
#
# PCOD9010013 Si02
#       7
#     2   2   2   2   2   2   2
#     4  10  24  41  63  93 128 165 205 256 316 372
#     4  10  21  40  64  93 122 164 216 256 302 376
#     4  11  22  39  65  91 126 159 209 260 309 366
#     4  11  23  41  62  93 131 159 205 260 313 369
#     4  12  23  41  66  94 123 165 212 257 313 369
#     4  10  22  40  67  89 124 165 211 257 310 371
#     4  10  21  40  61  90 126 165 207 254 310 372
#
# _framework density 23.473410000000001
#
# number of rings (size 3 to 8) (size 9 to 14) (size 15 to 20)
#    0.000    1.429    2.857    1.714    4.000    1.143 
#    0.000   10.000    0.000    0.000    0.000    0.000 
#    0.000    0.000    0.000    0.000    0.000    0.000 
#
# Total GULP energy -78228.899742 kJ/mol
# GULP energy per Si atom -5587.778553 kJ/mol
# Density = 2.341998 g / cm^3
# Si number density = 23.473410 Si / 1000 Ang^3
#
#
#
# Elastic Constant Matrix: (Units=GPa)
#
#
# Indices 1 2 3 4 5 6 
#
# 1 35.9558 7.7831 20.1637 -5.1967 -17.1109 -16.1680
# 2 7.7831 109.0401 3.0876 21.3038 -4.1889 -1.2541
# 3 20.1637 3.0876 32.8866 1.0187 -8.1582 -8.4753
# 4 -5.1967 21.3038 1.0187 31.5352 1.0126 -6.7927
# 5 -17.1109 -4.1889 -8.1582 1.0126 23.3725 -0.1626
# 6 -16.1680 -1.2541 -8.4753 -6.7927 -0.1626 30.8015
#
#
#
# Elastic Compliance Matrix: (Units=1/GPa)
#
#
# Indices 1 2 3 4 5 6 
#
# 1 0.118108 -0.011616 -0.040056 0.039203 0.069118 0.059512
# 2 -0.011616 0.011877 0.003307 -0.011454 -0.004775 -0.007255
# 3 -0.040056 0.003307 0.049766 -0.012237 -0.010900 -0.009953
# 4 0.039203 -0.011454 -0.012237 0.051739 0.020331 0.028262
# 5 0.069118 -0.004775 -0.010900 0.020331 0.088110 0.038036
# 6 0.059512 -0.007255 -0.009953 0.028262 0.038036 0.067103
#
#
# Mechanical properties :
#
#
# Convention : Reuss Voigt Hill
#
# Bulk Modulus (GPa) = 12.04478 26.66124 19.35301
# Shear Modulus (GPa) = 9.78272 26.93174 18.35723
#
# Velocity S-wave (km/s) = 2.04368 3.39090 2.79954
# Velocity P-wave (km/s) = 3.27280 5.16853 4.32579
#
# Compressibility (1/GPa) = 0.08302353
#
# Stress axis : x y z
#
# Youngs Moduli (GPa) = 8.46685 84.19360 20.09401
#
# Poissons Ratio (x) = 0.97797 0.80488
# Poissons Ratio (y) = 0.09835 -0.06646
# Poissons Ratio (z) = 0.33914 -0.27846
#
# Static dielectric constant tensor:
#      x y z
#    x 1.905250 -0.008710 -0.022090 
#    y -0.008710 1.894200 -0.020980 
#    z -0.022090 -0.020980 1.933760 
# 
# From -- ./inp_files/156804.got.cif
#   From: 2010.05.17/outbox.cif.g08.bks.cpg/sg2_79_cif.got.tgz:156804.got - 2010.06.03 11:33:40.
