data_PCOD9010249
_publ_section_title
;
Structure prediction by ZEFSAII (Michael W. Deem and Ramdas Pophale) SiO2 
 PCOD9010249
Probable space group: P -1
;
_chemical_formula_sum "Si O2"
_cell_formula_units_Z 16
_cell_length_a 7.398785
_cell_length_b 8.388826
_cell_length_c 19.410114
_cell_angle_alpha 32.926746
_cell_angle_beta 96.664131
_cell_angle_gamma 105.936065
_cell_volume 614.412994
_symmetry_space_group_name_H-M "P -1"
_symmetry_group_IT_number 2
_symmetry_cell_setting 'triclinic'
loop_
_space_group_symop_operation_xyz
x,y,z
-x,-y,-z
loop_
_atom_site_type_symbol
_atom_site_label
_atom_site_fract_x
_atom_site_fract_y
_atom_site_fract_z
Si Si1 0.726920 0.737887 0.247571
Si Si2 0.302792 0.711494 0.483392
Si Si3 0.252248 0.156493 0.575405
Si Si4 0.370846 0.224089 0.914499
Si Si5 0.290192 0.261075 0.053960
Si Si6 0.760769 0.677515 0.752103
Si Si7 0.733748 0.407057 0.702212
Si Si8 0.063272 0.701225 0.849795
O O1 0.737958 0.416535 0.394021
O O2 0.769631 0.816647 0.141245
O O3 0.501713 0.705193 0.262298
O O4 0.859013 0.003878 0.204916
O O5 0.249160 0.424317 0.532569
O O6 0.532204 0.841143 0.432971
O O7 0.191172 0.953958 0.379477
O O8 0.193709 0.296407 0.452249
O O9 0.149691 0.836762 0.728061
O O10 0.290489 0.194394 0.996903
O O11 0.530375 0.556540 0.790429
O O12 0.500000 0.000000 0.000000
O O13 0.143704 0.452738 0.978000
O O14 0.500000 0.500000 0.000000
O O15 0.235452 0.910413 0.208526
O O16 0.806928 0.527210 0.738516
O O17 0.841816 0.579629 0.861113
#
# Coordination Sequence:
#
# PCOD9010249 Si02
#       8
#     2   2   2   2   2   2   2   2
#     4   9  19  39  62  91 123 157 212 256 297 377
#     4   9  19  37  65  92 123 162 212 253 305 365
#     4   9  20  38  66  94 121 165 218 251 295 378
#     4  11  21  41  64  88 120 163 208 258 304 365
#     4  12  23  41  72  89 118 169 217 259 303 374
#     4  11  24  38  62  94 134 158 200 265 320 365
#     4  10  21  40  62  93 127 160 215 258 301 369
#     4  11  23  41  63  95 128 165 206 254 321 371
#
# _framework density 26.041112999999999
#
# number of rings (size 3 to 8) (size 9 to 14) (size 15 to 20)
#    0.000    1.750    3.750    1.500    1.750    8.500 
#    0.000    3.750    0.000    0.000    0.000    0.000 
#    0.000    0.000    0.000    0.000    0.000    0.000 
#
# Total GULP energy -89476.041858 kJ/mol
# GULP energy per Si atom -5592.252616 kJ/mol
# Density = 2.598184 g / cm^3
# Si number density = 26.041113 Si / 1000 Ang^3
#
#
#
# Elastic Constant Matrix: (Units=GPa)
#
#
# Indices 1 2 3 4 5 6 
#
# 1 59.7300 36.6322 27.4382 -5.8831 11.9801 2.7178
# 2 36.6322 124.7995 55.9141 27.1293 13.7322 16.9507
# 3 27.4382 55.9141 137.4777 7.0423 18.7464 -3.5391
# 4 -5.8831 27.1293 7.0423 47.2111 -7.9750 1.3764
# 5 11.9801 13.7322 18.7464 -7.9750 52.2599 1.5502
# 6 2.7178 16.9507 -3.5391 1.3764 1.5502 31.1070
#
#
#
# Elastic Compliance Matrix: (Units=1/GPa)
#
#
# Indices 1 2 3 4 5 6 
#
# 1 0.023168 -0.007719 -0.001582 0.007226 -0.001665 0.001765
# 2 -0.007719 0.015449 -0.004194 -0.009324 -0.001980 -0.007710
# 3 -0.001582 -0.004194 0.009652 0.000320 -0.002056 0.003610
# 4 0.007226 -0.009324 0.000320 0.028129 0.004882 0.002998
# 5 -0.001665 -0.001980 -0.002056 0.004882 0.021528 -0.000298
# 6 0.001765 -0.007710 0.003610 0.002998 -0.000298 0.036487
#
#
# Mechanical properties :
#
#
# Convention : Reuss Voigt Hill
#
# Bulk Modulus (GPa) = 46.99302 62.44180 54.71741
# Shear Modulus (GPa) = 29.67390 39.58378 34.62884
#
# Velocity S-wave (km/s) = 3.37931 3.90301 3.65057
# Velocity P-wave (km/s) = 5.77159 6.65894 6.23108
#
# Compressibility (1/GPa) = 0.02127975
#
# Stress axis : x y z
#
# Youngs Moduli (GPa) = 43.16260 64.72703 103.60284
#
# Poissons Ratio (x) = 0.49963 0.16392
# Poissons Ratio (y) = 0.33317 0.43449
# Poissons Ratio (z) = 0.06829 0.27145
#
# Static dielectric constant tensor:
#      x y z
#    x 2.200470 -0.002990 -0.055810 
#    y -0.002990 2.072070 0.006820 
#    z -0.055810 0.006820 2.099630 
# 
# From -- ./inp_files/587722.got.cif
#   From: 2010.05.17/outbox.cif.g08.bks.cpg/sg2_294_cif.got.tgz:587722.got - 2010.06.03 11:33:40.
