data_PCOD9010360
_publ_section_title
;
Structure prediction by ZEFSAII (Michael W. Deem and Ramdas Pophale) SiO2 
 PCOD9010360
Probable space group: P -1
;
_chemical_formula_sum "Si O2"
_cell_formula_units_Z 14
_cell_length_a 14.154579
_cell_length_b 11.724620
_cell_length_c 11.685775
_cell_angle_alpha 39.607793
_cell_angle_beta 128.520977
_cell_angle_gamma 148.081242
_cell_volume 650.901012
_symmetry_space_group_name_H-M "P -1"
_symmetry_group_IT_number 2
_symmetry_cell_setting 'triclinic'
loop_
_space_group_symop_operation_xyz
x,y,z
-x,-y,-z
loop_
_atom_site_type_symbol
_atom_site_label
_atom_site_fract_x
_atom_site_fract_y
_atom_site_fract_z
Si Si1 0.289309 0.435716 0.469727
Si Si2 0.027127 0.658856 0.701922
Si Si3 0.763895 0.675703 0.220017
Si Si4 0.534815 0.861139 0.707572
Si Si5 0.359371 0.091627 0.760319
Si Si6 0.910153 0.215538 0.609692
Si Si7 0.705825 0.029396 0.938262
O O1 0.102718 0.318273 0.379744
O O2 0.295148 0.460650 0.592735
O O3 0.305160 0.243359 0.602265
O O4 0.456777 0.716670 0.319454
O O5 0.887285 0.343335 0.829990
O O6 0.106497 0.788401 0.536593
O O7 0.190802 0.807880 0.795629
O O8 0.627009 0.450263 0.197687
O O9 0.957192 0.801053 0.248463
O O10 0.756599 0.879726 0.066023
O O11 0.500000 0.000000 0.500000
O O12 0.719567 0.984144 0.703193
O O13 0.571256 0.942468 0.804351
O O14 0.379202 0.056695 0.933579
O O15 0.000000 0.500000 0.500000
#
# Coordination Sequence:
#
# PCOD9010360 Si02
#       7
#     2   2   2   2   2   2   2
#     4   9  20  40  64  91 116 160 210 248 291 374
#     4  11  21  39  61  88 123 161 202 248 308 360
#     4  10  22  41  63  91 127 156 204 260 303 357
#     4  12  22  41  65  87 119 165 206 253 309 361
#     4  10  21  40  63  87 124 161 202 251 308 351
#     4  11  21  41  64  91 115 162 214 249 298 370
#     4  11  24  39  59  95 129 158 204 256 303 372
#
# _framework density 21.508648000000001
#
# number of rings (size 3 to 8) (size 9 to 14) (size 15 to 20)
#    0.000    1.429    2.857    3.000    0.000    1.143 
#    0.000    4.286    0.000    0.000    0.000    0.000 
#    0.000    0.000    0.000    0.000    0.000    0.000 
#
# Total GULP energy -78357.119790 kJ/mol
# GULP energy per Si atom -5596.937128 kJ/mol
# Density = 2.145969 g / cm^3
# Si number density = 21.508648 Si / 1000 Ang^3
#
#
#
# Elastic Constant Matrix: (Units=GPa)
#
#
# Indices 1 2 3 4 5 6 
#
# 1 74.8249 28.2456 22.5085 18.4809 -14.0580 8.9093
# 2 28.2456 116.4667 35.6574 14.7237 -19.9531 -4.6929
# 3 22.5085 35.6574 92.4743 13.8919 -8.6845 -0.3860
# 4 18.4809 14.7237 13.8919 30.8602 -6.5699 3.1552
# 5 -14.0580 -19.9531 -8.6845 -6.5699 32.7402 -9.9169
# 6 8.9093 -4.6929 -0.3860 3.1552 -9.9169 25.0721
#
#
#
# Elastic Compliance Matrix: (Units=1/GPa)
#
#
# Indices 1 2 3 4 5 6 
#
# 1 0.017848 -0.002505 -0.002022 -0.007529 0.002618 -0.004859
# 2 -0.002505 0.011735 -0.002970 -0.001943 0.006696 0.005934
# 3 -0.002022 -0.002970 0.012976 -0.003224 0.000398 0.000925
# 4 -0.007529 -0.001943 -0.003224 0.039948 0.002166 -0.001908
# 5 0.002618 0.006696 0.000398 0.002166 0.041247 0.016371
# 6 -0.004859 0.005934 0.000925 -0.001908 0.016371 0.049452
#
#
# Mechanical properties :
#
#
# Convention : Reuss Voigt Hill
#
# Bulk Modulus (GPa) = 36.27561 50.73208 43.50384
# Shear Modulus (GPa) = 25.33079 30.89145 28.11112
#
# Velocity S-wave (km/s) = 3.43549 3.79388 3.61912
# Velocity P-wave (km/s) = 5.71305 6.54442 6.14282
#
# Compressibility (1/GPa) = 0.02756673
#
# Stress axis : x y z
#
# Youngs Moduli (GPa) = 56.02725 85.21751 77.06255
#
# Poissons Ratio (x) = 0.21348 0.15580
# Poissons Ratio (y) = 0.14035 0.22884
# Poissons Ratio (z) = 0.11327 0.25306
#
# Static dielectric constant tensor:
#      x y z
#    x 1.762550 -0.019900 0.020130 
#    y -0.019900 1.737460 0.008390 
#    z 0.020130 0.008390 1.791750 
# 
# From -- ./inp_files/272575.got.cif
#   From: 2010.05.17/outbox.cif.g08.bks.cpg/sg2_137_cif.got.tgz:272575.got - 2010.06.03 11:33:40.
