data_PCOD9010075
_publ_section_title
;
Structure prediction by ZEFSAII (Michael W. Deem and Ramdas Pophale) SiO2 
 PCOD9010075
Probable space group: P -1
;
_chemical_formula_sum "Si O2"
_cell_formula_units_Z 14
_cell_length_a 7.227406
_cell_length_b 13.926076
_cell_length_c 9.559306
_cell_angle_alpha 61.121719
_cell_angle_beta 125.391568
_cell_angle_gamma 139.239341
_cell_volume 510.326894
_symmetry_space_group_name_H-M "P -1"
_symmetry_group_IT_number 2
_symmetry_cell_setting 'triclinic'
loop_
_space_group_symop_operation_xyz
x,y,z
-x,-y,-z
loop_
_atom_site_type_symbol
_atom_site_label
_atom_site_fract_x
_atom_site_fract_y
_atom_site_fract_z
Si Si1 0.717527 0.966037 0.578895
Si Si2 0.513454 0.607820 0.099881
Si Si3 0.258185 0.883013 0.768707
Si Si4 0.599487 0.452471 0.450909
Si Si5 0.585957 0.783435 0.271232
Si Si6 0.854206 0.151047 0.946999
Si Si7 0.228130 0.663595 0.719101
O O1 0.059835 0.082123 0.705375
O O2 0.525240 0.802895 0.668700
O O3 0.500000 0.000000 0.500000
O O4 0.761386 0.012820 0.403610
O O5 0.514962 0.484912 0.247171
O O6 0.466071 0.669011 0.171554
O O7 0.847973 0.738301 0.091436
O O8 0.285734 0.576029 0.902282
O O9 0.155422 0.742572 0.736959
O O10 0.089979 0.847577 0.865544
O O11 0.618922 0.986481 0.893955
O O12 0.500000 0.500000 0.500000
O O13 0.435594 0.289021 0.540623
O O14 0.961279 0.560719 0.562694
O O15 0.352708 0.806898 0.167791
#
# Coordination Sequence:
#
# PCOD9010075 Si02
#       7
#     2   2   2   2   2   2   2
#     4  10  21  40  67 100 130 172 225 278 332 392
#     4  11  23  43  68  98 135 178 225 277 330 405
#     4  10  21  40  61  99 140 167 225 275 333 407
#     4  10  23  45  72  98 134 183 227 273 338 407
#     4  11  24  45  70  95 137 181 220 278 343 396
#     4  11  24  40  64 102 137 178 219 276 344 399
#     4  11  22  42  74 101 132 181 224 280 342 391
#
# _framework density 27.433396999999999
#
# number of rings (size 3 to 8) (size 9 to 14) (size 15 to 20)
#    0.000    1.429    1.429    6.000    4.000    4.571 
#    5.143    0.714    0.000    0.000    0.000    0.000 
#    0.000    0.000    0.000    0.000    0.000    0.000 
#
# Total GULP energy -78504.174643 kJ/mol
# GULP energy per Si atom -5607.441046 kJ/mol
# Density = 2.737096 g / cm^3
# Si number density = 27.433397 Si / 1000 Ang^3
#
#
#
# Elastic Constant Matrix: (Units=GPa)
#
#
# Indices 1 2 3 4 5 6 
#
# 1 112.1624 33.2848 43.7727 4.8375 -1.0871 -9.5432
# 2 33.2848 141.9600 48.4768 -0.9883 3.8001 23.9367
# 3 43.7727 48.4768 216.3511 -27.1202 0.1575 4.8405
# 4 4.8375 -0.9883 -27.1202 39.4640 9.4286 -10.1089
# 5 -1.0871 3.8001 0.1575 9.4286 48.8546 7.1563
# 6 -9.5432 23.9367 4.8405 -10.1089 7.1563 38.1584
#
#
#
# Elastic Compliance Matrix: (Units=1/GPa)
#
#
# Indices 1 2 3 4 5 6 
#
# 1 0.010861 -0.002599 -0.001921 -0.001708 0.000178 0.004105
# 2 -0.002599 0.009431 -0.001764 -0.002691 0.000789 -0.007203
# 3 -0.001921 -0.001764 0.005993 0.004917 -0.001075 0.001370
# 4 -0.001708 -0.002691 0.004917 0.033581 -0.007940 0.011022
# 5 0.000178 0.000789 -0.001075 -0.007940 0.022931 -0.006718
# 6 0.004105 -0.007203 0.001370 0.011022 -0.006718 0.035758
#
#
# Mechanical properties :
#
#
# Convention : Reuss Voigt Hill
#
# Bulk Modulus (GPa) = 72.90854 80.17137 76.53996
# Shear Modulus (GPa) = 36.84714 48.29134 42.56924
#
# Velocity S-wave (km/s) = 3.66888 4.20016 3.94347
# Velocity P-wave (km/s) = 6.67696 7.26700 6.97822
#
# Compressibility (1/GPa) = 0.01371581
#
# Stress axis : x y z
#
# Youngs Moduli (GPa) = 92.06903 106.03613 166.87408
#
# Poissons Ratio (x) = 0.27563 0.32059
# Poissons Ratio (y) = 0.23932 0.29435
# Poissons Ratio (z) = 0.17688 0.18704
#
# Static dielectric constant tensor:
#      x y z
#    x 2.147120 -0.013630 -0.004500 
#    y -0.013630 2.156570 0.006310 
#    z -0.004500 0.006310 2.221290 
# 
# From -- ./inp_files/404735.got.cif
#   From: 2010.05.17/outbox.cif.g08.bks.cpg/sg2_203_cif.got.tgz:404735.got - 2010.06.03 11:33:40.
