data_PCOD9010582
_publ_section_title
;
Structure prediction by ZEFSAII (Michael W. Deem and Ramdas Pophale) SiO2 
 PCOD9010582
Probable space group: P -1
;
_chemical_formula_sum "Si O2"
_cell_formula_units_Z 14
_cell_length_a 7.787468
_cell_length_b 11.819311
_cell_length_c 8.419493
_cell_angle_alpha 100.643362
_cell_angle_beta 128.682511
_cell_angle_gamma 76.479172
_cell_volume 587.417416
_symmetry_space_group_name_H-M "P -1"
_symmetry_group_IT_number 2
_symmetry_cell_setting 'triclinic'
loop_
_space_group_symop_operation_xyz
x,y,z
-x,-y,-z
loop_
_atom_site_type_symbol
_atom_site_label
_atom_site_fract_x
_atom_site_fract_y
_atom_site_fract_z
Si Si1 0.221304 0.334072 0.157899
Si Si2 0.508370 0.647259 0.147142
Si Si3 0.158890 0.201109 0.525694
Si Si4 0.857391 0.491029 0.116595
Si Si5 0.178312 0.082369 0.169172
Si Si6 0.381545 0.990259 0.762779
Si Si7 0.317517 0.731906 0.712605
O O1 0.169523 0.202811 0.096558
O O2 0.486688 0.330481 0.302755
O O3 0.093010 0.409563 0.244761
O O4 0.127946 0.400666 0.961712
O O5 0.622622 0.737000 0.337184
O O6 0.708894 0.543267 0.191809
O O7 0.304041 0.591104 0.081632
O O8 0.412737 0.707891 0.940921
O O9 0.135588 0.129533 0.333973
O O10 0.934099 0.291570 0.448001
O O11 0.204520 0.104233 0.663583
O O12 0.426966 0.016611 0.262794
O O13 0.000000 0.000000 0.000000
O O14 0.294238 0.867941 0.689209
O O15 0.500000 0.000000 0.000000
#
# Coordination Sequence:
#
# PCOD9010582 Si02
#       7
#     2   2   2   2   2   2   2
#     4   9  20  41  66  92 137 175 224 272 335 391
#     4  10  21  40  69  97 131 176 230 276 338 392
#     4  12  24  41  68 102 135 181 225 271 343 405
#     4   9  19  41  68  97 129 184 221 282 335 386
#     4  11  25  42  66 102 138 178 220 281 336 404
#     4  11  22  42  65  95 138 177 220 273 336 403
#     4  10  21  40  63  95 135 177 218 278 327 402
#
# _framework density 23.833136
#
# number of rings (size 3 to 8) (size 9 to 14) (size 15 to 20)
#    0.000    1.714    1.429    2.571    2.000    0.000 
#    0.000   18.571    0.000    0.000    0.000    0.000 
#    0.000    0.000    0.000    0.000    0.000    0.000 
#
# Total GULP energy -78248.751223 kJ/mol
# GULP energy per Si atom -5589.196516 kJ/mol
# Density = 2.377889 g / cm^3
# Si number density = 23.833136 Si / 1000 Ang^3
#
#
#
# Elastic Constant Matrix: (Units=GPa)
#
#
# Indices 1 2 3 4 5 6 
#
# 1 110.4489 26.8304 36.6369 -15.2058 19.9357 -6.9957
# 2 26.8304 96.5003 44.0684 -11.9882 14.3514 2.1507
# 3 36.6369 44.0684 86.8827 -2.5724 16.9885 0.9873
# 4 -15.2058 -11.9882 -2.5724 28.3595 -3.3754 10.7142
# 5 19.9357 14.3514 16.9885 -3.3754 23.8739 -2.6165
# 6 -6.9957 2.1507 0.9873 10.7142 -2.6165 44.7382
#
#
#
# Elastic Compliance Matrix: (Units=1/GPa)
#
#
# Indices 1 2 3 4 5 6 
#
# 1 0.012259 -0.000086 -0.003642 0.005267 -0.006812 0.000342
# 2 -0.000086 0.014679 -0.006521 0.005987 -0.003509 -0.002214
# 3 -0.003642 -0.006521 0.017409 -0.003812 -0.005975 -0.000077
# 4 0.005267 0.005987 -0.003812 0.044003 -0.000151 -0.009927
# 5 -0.006812 -0.003509 -0.005975 -0.000151 0.054182 0.002440
# 6 0.000342 -0.002214 -0.000077 -0.009927 0.002440 0.025034
#
#
# Mechanical properties :
#
#
# Convention : Reuss Voigt Hill
#
# Bulk Modulus (GPa) = 41.92803 56.54482 49.23643
# Shear Modulus (GPa) = 25.50844 31.81405 28.66125
#
# Velocity S-wave (km/s) = 3.27508 3.65755 3.47159
# Velocity P-wave (km/s) = 5.65085 6.45086 6.06406
#
# Compressibility (1/GPa) = 0.02385039
#
# Stress axis : x y z
#
# Youngs Moduli (GPa) = 81.57223 68.12340 57.44033
#
# Poissons Ratio (x) = 0.00583 0.20920
# Poissons Ratio (y) = 0.00698 0.37457
# Poissons Ratio (z) = 0.29709 0.44423
#
# Static dielectric constant tensor:
#      x y z
#    x 1.991610 -0.000280 -0.004660 
#    y -0.000280 1.927480 -0.022850 
#    z -0.004660 -0.022850 1.889430 
# 
# From -- ./inp_files/188955.got.cif
#   From: 2010.05.17/outbox.cif.g08.bks.cpg/sg2_95_cif.got.tgz:188955.got - 2010.06.03 11:33:40.
