data_PCOD9010171
_publ_section_title
;
Structure prediction by ZEFSAII (Michael W. Deem and Ramdas Pophale) SiO2 
 PCOD9010171
Probable space group: P -1
;
_chemical_formula_sum "Si O2"
_cell_formula_units_Z 16
_cell_length_a 23.266479
_cell_length_b 5.167476
_cell_length_c 5.363584
_cell_angle_alpha 93.069106
_cell_angle_beta 117.161215
_cell_angle_gamma 87.002076
_cell_volume 572.642170
_symmetry_space_group_name_H-M "P -1"
_symmetry_group_IT_number 2
_symmetry_cell_setting 'triclinic'
loop_
_space_group_symop_operation_xyz
x,y,z
-x,-y,-z
loop_
_atom_site_type_symbol
_atom_site_label
_atom_site_fract_x
_atom_site_fract_y
_atom_site_fract_z
Si Si1 0.820905 0.102854 0.577149
Si Si2 0.501458 0.236061 0.218594
Si Si3 0.700000 0.603077 0.724917
Si Si4 0.627108 0.122859 0.584748
Si Si5 0.053502 0.200372 0.690230
Si Si6 0.798759 0.969378 0.023792
Si Si7 0.610832 0.455120 0.154131
Si Si8 0.091461 0.416608 0.277217
O O1 0.781506 0.117394 0.247584
O O2 0.876313 0.312173 0.697317
O O3 0.852306 0.811019 0.619248
O O4 0.778985 0.122655 0.743246
O O5 0.552658 0.124975 0.521827
O O6 0.551058 0.468412 0.245034
O O7 0.432098 0.379819 0.120245
O O8 0.500000 0.000000 0.000000
O O9 0.665854 0.366396 0.777027
O O10 0.676698 0.579544 0.387742
O O11 0.664031 0.871506 0.736638
O O12 0.772581 0.680138 0.932286
O O13 0.627870 0.160388 0.280813
O O14 0.060950 0.402928 0.490004
O O15 0.123149 0.046887 0.828196
O O16 0.046972 0.326420 0.956268
O O17 0.000000 0.000000 0.500000
#
# Coordination Sequence:
#
# PCOD9010171 Si02
#       8
#     2   2   2   2   2   2   2   2
#     4  10  22  40  63  88 116 158 197 240 296 352
#     4   8   9  18  34  57  99 132 173 222 270 329
#     4   9  17  27  43  67 102 140 182 227 277 338
#     4   8  15  23  39  67  98 143 177 228 275 336
#     4  10  21  40  64  92 122 158 200 246 298 353
#     4  10  22  40  60  86 120 156 198 246 297 349
#     4   7  13  19  35  63  95 136 176 221 275 328
#     4  10  21  40  62  90 120 152 195 244 296 352
#
# _framework density 27.940656000000001
#
# number of rings (size 3 to 8) (size 9 to 14) (size 15 to 20)
#    1.500    1.250    1.250    1.125    0.000    4.000 
#    0.000   15.000    0.000    0.000    0.000    0.000 
#    0.000   20.000    0.000    1.625    0.000    2.500 
#
# Total GULP energy -89101.938195 kJ/mol
# GULP energy per Si atom -5568.871137 kJ/mol
# Density = 2.787706 g / cm^3
# Si number density = 27.940656 Si / 1000 Ang^3
#
#
#
# Elastic Constant Matrix: (Units=GPa)
#
#
# Indices 1 2 3 4 5 6 
#
# 1 90.1062 32.8707 42.9487 11.7699 13.5308 14.2716
# 2 32.8707 120.4639 21.4035 17.1514 4.2379 15.8557
# 3 42.9487 21.4035 150.5356 22.0251 4.3442 5.3308
# 4 11.7699 17.1514 22.0251 53.3576 3.5474 17.5156
# 5 13.5308 4.2379 4.3442 3.5474 67.0143 1.6700
# 6 14.2716 15.8557 5.3308 17.5156 1.6700 50.5167
#
#
#
# Elastic Compliance Matrix: (Units=1/GPa)
#
#
# Indices 1 2 3 4 5 6 
#
# 1 0.014697 -0.002942 -0.003648 0.000318 -0.002490 -0.002872
# 2 -0.002942 0.009601 -0.000203 -0.001864 0.000137 -0.001519
# 3 -0.003648 -0.000203 0.008082 -0.002894 0.000348 0.001233
# 4 0.000318 -0.001864 -0.002894 0.022847 -0.000791 -0.007095
# 5 -0.002490 0.000137 0.000348 -0.000791 0.015426 0.000388
# 6 -0.002872 -0.001519 0.001233 -0.007095 0.000388 0.023401
#
#
# Mechanical properties :
#
#
# Convention : Reuss Voigt Hill
#
# Bulk Modulus (GPa) = 53.20757 61.72794 57.46775
# Shear Modulus (GPa) = 43.89659 51.76991 47.83325
#
# Velocity S-wave (km/s) = 3.96797 4.30915 4.14207
# Velocity P-wave (km/s) = 6.33067 6.84827 6.59455
#
# Compressibility (1/GPa) = 0.01879432
#
# Stress axis : x y z
#
# Youngs Moduli (GPa) = 68.03997 104.16040 123.72656
#
# Poissons Ratio (x) = 0.30643 0.45134
# Poissons Ratio (y) = 0.20017 0.02514
# Poissons Ratio (z) = 0.24820 0.02116
#
# Static dielectric constant tensor:
#      x y z
#    x 2.327080 -0.027390 -0.101280 
#    y -0.027390 2.362660 -0.197310 
#    z -0.101280 -0.197310 2.540710 
# 
# From -- ./inp_files/125628.got.cif
#   From: 2010.05.17/outbox.cif.g08.bks.cpg/sg2_63_cif.got.tgz:125628.got - 2010.06.03 11:33:40.
