data_PCOD9010462
_publ_section_title
;
Structure prediction by ZEFSAII (Michael W. Deem and Ramdas Pophale) SiO2 
 PCOD9010462
Probable space group: P -1
;
_chemical_formula_sum "Si O2"
_cell_formula_units_Z 16
_cell_length_a 7.253338
_cell_length_b 15.011898
_cell_length_c 13.981677
_cell_angle_alpha 28.310657
_cell_angle_beta 113.221689
_cell_angle_gamma 101.274006
_cell_volume 622.065599
_symmetry_space_group_name_H-M "P -1"
_symmetry_group_IT_number 2
_symmetry_cell_setting 'triclinic'
loop_
_space_group_symop_operation_xyz
x,y,z
-x,-y,-z
loop_
_atom_site_type_symbol
_atom_site_label
_atom_site_fract_x
_atom_site_fract_y
_atom_site_fract_z
Si Si1 0.702997 0.533977 0.558227
Si Si2 0.969897 0.097872 0.031697
Si Si3 0.327734 0.055449 0.770064
Si Si4 0.678910 0.289687 0.264109
Si Si5 0.262082 0.082095 0.269535
Si Si6 0.791321 0.726431 0.209031
Si Si7 0.186723 0.797216 0.835175
Si Si8 0.349384 0.432568 0.855494
O O1 0.500000 0.500000 0.500000
O O2 0.660873 0.723706 0.439111
O O3 0.813205 0.596160 0.430485
O O4 0.834143 0.322207 0.831835
O O5 0.184355 0.017916 0.213595
O O6 0.827580 0.968785 0.153974
O O7 0.036719 0.166389 0.879580
O O8 0.245802 0.973816 0.735231
O O9 0.559502 0.902629 0.991723
O O10 0.818348 0.202907 0.281345
O O11 0.500000 0.500000 0.000000
O O12 0.780119 0.368994 0.299853
O O13 0.605915 0.118292 0.458000
O O14 0.044440 0.185969 0.187835
O O15 0.363960 0.243337 0.105708
O O16 0.768242 0.594788 0.237470
O O17 0.401975 0.602395 0.084057
#
# Coordination Sequence:
#
# PCOD9010462 Si02
#       8
#     2   2   2   2   2   2   2   2
#     4  12  24  42  66  94 127 166 216 265 314 380
#     4  10  23  42  63  96 126 168 215 260 315 376
#     4  10  22  44  62  89 134 163 207 270 312 371
#     4  10  21  40  65  95 127 163 209 257 306 377
#     4  10  21  40  63  91 129 164 209 256 310 375
#     4  10  21  42  64  91 128 170 213 257 318 372
#     4   9  20  39  63  91 123 163 205 250 311 369
#     4   9  21  41  61  90 130 164 206 258 308 365
#
# _framework density 25.720761
#
# number of rings (size 3 to 8) (size 9 to 14) (size 15 to 20)
#    0.000    2.000    1.250    1.125    0.000    7.000 
#    9.000    5.000    0.000    0.000    0.000    0.000 
#    0.000    0.000    0.000    0.000    0.000    0.000 
#
# Total GULP energy -89408.287266 kJ/mol
# GULP energy per Si atom -5588.017954 kJ/mol
# Density = 2.566222 g / cm^3
# Si number density = 25.720761 Si / 1000 Ang^3
#
#
#
# Elastic Constant Matrix: (Units=GPa)
#
#
# Indices 1 2 3 4 5 6 
#
# 1 113.6956 25.6768 21.2643 -16.1196 -6.2314 -4.3994
# 2 25.6768 107.3849 28.5634 -29.0382 1.0262 -17.2644
# 3 21.2643 28.5634 123.0158 6.1214 -21.3813 0.5504
# 4 -16.1196 -29.0382 6.1214 33.1239 3.6808 -5.4146
# 5 -6.2314 1.0262 -21.3813 3.6808 35.2628 1.5732
# 6 -4.3994 -17.2644 0.5504 -5.4146 1.5732 43.4651
#
#
#
# Elastic Compliance Matrix: (Units=1/GPa)
#
#
# Indices 1 2 3 4 5 6 
#
# 1 0.010025 -0.000140 -0.001989 0.005403 -0.000068 0.001660
# 2 -0.000140 0.017795 -0.006275 0.019038 -0.006770 0.009750
# 3 -0.001989 -0.006275 0.011911 -0.010320 0.008328 -0.004432
# 4 0.005403 0.019038 -0.010320 0.055332 -0.012328 0.015579
# 5 -0.000068 -0.006770 0.008328 -0.012328 0.035130 -0.005609
# 6 0.001660 0.009750 -0.004432 0.015579 -0.005609 0.029248
#
#
# Mechanical properties :
#
#
# Convention : Reuss Voigt Hill
#
# Bulk Modulus (GPa) = 43.62260 55.01168 49.31714
# Shear Modulus (GPa) = 27.19008 40.27648 33.73328
#
# Velocity S-wave (km/s) = 3.25487 3.96146 3.62542
# Velocity P-wave (km/s) = 5.57875 6.50835 6.06140
#
# Compressibility (1/GPa) = 0.02292390
#
# Stress axis : x y z
#
# Youngs Moduli (GPa) = 99.74668 56.19453 83.95753
#
# Poissons Ratio (x) = 0.00785 0.16696
# Poissons Ratio (y) = 0.01394 0.52687
# Poissons Ratio (z) = 0.19836 0.35265
#
# Static dielectric constant tensor:
#      x y z
#    x 2.059720 -0.073840 0.055690 
#    y -0.073840 2.171070 -0.000260 
#    z 0.055690 -0.000260 2.021130 
# 
# From -- ./inp_files/591461.got.cif
#   From: 2010.05.17/outbox.cif.g08.bks.cpg/sg2_296_cif.got.tgz:591461.got - 2010.06.03 11:33:40.
