data_PCOD9010748
_publ_section_title
;
Structure prediction by ZEFSAII (Michael W. Deem and Ramdas Pophale) SiO2 
 PCOD9010748
Probable space group: P -1
;
_chemical_formula_sum "Si O2"
_cell_formula_units_Z 14
_cell_length_a 5.223999
_cell_length_b 21.322452
_cell_length_c 5.236319
_cell_angle_alpha 74.365041
_cell_angle_beta 60.571705
_cell_angle_gamma 82.320194
_cell_volume 489.209886
_symmetry_space_group_name_H-M "P -1"
_symmetry_group_IT_number 2
_symmetry_cell_setting 'triclinic'
loop_
_space_group_symop_operation_xyz
x,y,z
-x,-y,-z
loop_
_atom_site_type_symbol
_atom_site_label
_atom_site_fract_x
_atom_site_fract_y
_atom_site_fract_z
Si Si1 0.613368 0.854734 0.533592
Si Si2 0.049504 0.701453 0.127319
Si Si3 0.332284 0.975324 0.357368
Si Si4 0.450274 0.726996 0.512481
Si Si5 0.975265 0.414325 0.404541
Si Si6 0.206536 0.830290 0.149237
Si Si7 0.274082 0.460169 0.747013
O O1 0.379243 0.897272 0.445075
O O2 0.631538 0.777267 0.553394
O O3 0.937792 0.878104 0.276248
O O4 0.508372 0.860845 0.868674
O O5 0.704897 0.696086 0.253559
O O6 0.111929 0.659116 0.394034
O O7 0.116112 0.778785 0.025105
O O8 0.261221 0.677983 0.825163
O O9 0.500000 0.000000 0.500000
O O10 0.000000 0.000000 0.500000
O O11 0.500000 0.000000 0.000000
O O12 0.261685 0.779182 0.398419
O O13 0.120738 0.437898 0.578653
O O14 0.647792 0.454994 0.503651
O O15 0.236603 0.410475 0.067137
O O16 0.000000 0.500000 0.000000
#
# Coordination Sequence:
#
# PCOD9010748 Si02
#       7
#     2   2   2   2   2   2   2
#     4  10  23  40  65  93 131 178 218 282 333 406
#     4  10  23  38  58  97 118 163 211 271 325 393
#     4  12  28  47  74 111 147 190 249 298 359 423
#     4  10  22  39  63  89 128 164 218 263 339 397
#     4  10  23  39  61  90 122 156 216 262 319 396
#     4  10  21  40  64  90 128 168 222 262 346 397
#     4  10  22  41  62  86 119 166 207 256 330 387
#
# _framework density 28.617573
#
# number of rings (size 3 to 8) (size 9 to 14) (size 15 to 20)
#    0.000    1.714    0.000    2.571    8.000    1.143 
#    0.000    0.000    0.000    0.000    0.000    0.000 
#    0.000    0.000    0.000    0.000    0.000    0.000 
#
# Total GULP energy -78110.587166 kJ/mol
# GULP energy per Si atom -5579.327655 kJ/mol
# Density = 2.855244 g / cm^3
# Si number density = 28.617573 Si / 1000 Ang^3
#
#
#
# Elastic Constant Matrix: (Units=GPa)
#
#
# Indices 1 2 3 4 5 6 
#
# 1 157.9583 48.1065 65.1189 25.4775 -4.3626 -31.7507
# 2 48.1065 145.3110 48.8077 4.4711 -11.7452 -23.9043
# 3 65.1189 48.8077 269.4458 20.7836 -2.6463 -7.4486
# 4 25.4775 4.4711 20.7836 37.5207 0.5317 4.8172
# 5 -4.3626 -11.7452 -2.6463 0.5317 37.8861 5.4120
# 6 -31.7507 -23.9043 -7.4486 4.8172 5.4120 53.0641
#
#
#
# Elastic Compliance Matrix: (Units=1/GPa)
#
#
# Indices 1 2 3 4 5 6 
#
# 1 0.009439 -0.001618 -0.001370 -0.006136 -0.000182 0.005302
# 2 -0.001618 0.008315 -0.001057 0.000358 0.001970 0.002396
# 3 -0.001370 -0.001057 0.004315 -0.001260 -0.000085 -0.000567
# 4 -0.006136 0.000358 -0.001260 0.032324 -0.000194 -0.006601
# 5 -0.000182 0.001970 -0.000085 -0.000194 0.027267 -0.001996
# 6 0.005302 0.002396 -0.000567 -0.006601 -0.001996 0.023820
#
#
# Mechanical properties :
#
#
# Convention : Reuss Voigt Hill
#
# Bulk Modulus (GPa) = 71.54408 99.64237 85.59323
# Shear Modulus (GPa) = 42.29105 53.07297 47.68201
#
# Velocity S-wave (km/s) = 3.84839 4.31113 4.08631
# Velocity P-wave (km/s) = 6.69336 7.72498 7.22760
#
# Compressibility (1/GPa) = 0.01397740
#
# Stress axis : x y z
#
# Youngs Moduli (GPa) = 105.94645 120.26545 231.77458
#
# Poissons Ratio (x) = 0.19463 0.31751
# Poissons Ratio (y) = 0.17146 0.24501
# Poissons Ratio (z) = 0.14514 0.12713
#
# Static dielectric constant tensor:
#      x y z
#    x 2.293580 0.277580 -0.206980 
#    y 0.277580 2.323660 0.227560 
#    z -0.206980 0.227560 1.966930 
# 
# From -- ./inp_files/14340.got.cif
#   From: 2010.05.17/outbox.cif.g08.bks.cpg/sg2_8_cif.got.tgz:14340.got - 2010.06.03 11:33:40.
