data_PCOD9010887
_publ_section_title
;
Structure prediction by ZEFSAII (Michael W. Deem and Ramdas Pophale) SiO2 
 PCOD9010887
Probable space group: P -1
;
_chemical_formula_sum "Si O2"
_cell_formula_units_Z 13
_cell_length_a 10.239950
_cell_length_b 10.948104
_cell_length_c 10.052282
_cell_angle_alpha 46.991596
_cell_angle_beta 45.277924
_cell_angle_gamma 44.459686
_cell_volume 522.921111
_symmetry_space_group_name_H-M "P -1"
_symmetry_group_IT_number 2
_symmetry_cell_setting 'triclinic'
loop_
_space_group_symop_operation_xyz
x,y,z
-x,-y,-z
loop_
_atom_site_type_symbol
_atom_site_label
_atom_site_fract_x
_atom_site_fract_y
_atom_site_fract_z
Si Si1 0.266703 0.985354 0.568649
Si Si2 0.366786 0.590385 0.402325
Si Si3 0.600965 0.562269 0.998778
Si Si4 0.728257 0.978211 0.878910
Si Si5 0.000000 0.000000 0.500000
Si Si6 0.971274 0.570460 0.618678
Si Si7 0.656355 0.007813 0.196548
O O1 0.508865 0.914353 0.414183
O O2 0.150715 0.928121 0.582341
O O3 0.160606 0.208787 0.468549
O O4 0.247297 0.957819 0.761958
O O5 0.500000 0.500000 0.500000
O O6 0.262796 0.821086 0.310043
O O7 0.185879 0.534126 0.554453
O O8 0.524436 0.515973 0.223447
O O9 0.490522 0.786967 0.906907
O O10 0.839103 0.492131 0.853650
O O11 0.500000 0.500000 0.000000
O O12 0.883235 0.869655 0.730893
O O13 0.783447 0.920008 0.035859
O O14 0.500000 0.000000 0.000000
O O15 0.000000 0.500000 0.500000
#
# Coordination Sequence:
#
# PCOD9010887 Si02
#       7
#     2   2   2   2   1   2   2
#     4  10  21  40  64  95 122 166 211 261 314 389
#     4  11  25  43  64  93 129 170 218 264 322 386
#     4  10  21  41  66  90 126 167 211 263 314 380
#     4  11  23  42  64  92 133 166 208 271 323 373
#     4  12  22  38  64  92 130 162 208 264 324 372
#     4  11  22  42  67  91 131 171 211 268 324 382
#     4   9  21  40  64  90 125 163 214 253 319 377
#
# _framework density 24.860347999999998
#
# number of rings (size 3 to 8) (size 9 to 14) (size 15 to 20)
#    0.000    1.538    4.615    0.000    0.000    3.692 
#    0.000    3.077    0.000    0.000    0.000    0.000 
#    0.000    0.000    0.000    0.000    0.000    0.000 
#
# Total GULP energy -72491.158388 kJ/mol
# GULP energy per Si atom -5576.242953 kJ/mol
# Density = 2.480376 g / cm^3
# Si number density = 24.860348 Si / 1000 Ang^3
#
#
#
# Elastic Constant Matrix: (Units=GPa)
#
#
# Indices 1 2 3 4 5 6 
#
# 1 220.2007 10.5000 98.4233 12.7383 7.6921 2.4583
# 2 10.5000 53.2308 0.6136 0.5217 0.0651 1.9184
# 3 98.4233 0.6136 171.1120 27.7432 12.7246 -5.7269
# 4 12.7383 0.5217 27.7432 18.5066 11.8576 3.6969
# 5 7.6921 0.0651 12.7246 11.8576 65.4716 3.2793
# 6 2.4583 1.9184 -5.7269 3.6969 3.2793 28.7167
#
#
#
# Elastic Compliance Matrix: (Units=1/GPa)
#
#
# Indices 1 2 3 4 5 6 
#
# 1 0.006281 -0.001160 -0.003990 0.002170 -0.000279 -0.001503
# 2 -0.001160 0.019049 0.000656 -0.000623 0.000152 -0.000980
# 3 -0.003990 0.000656 0.010561 -0.014466 0.000827 0.004172
# 4 0.002170 -0.000623 -0.014466 0.084514 -0.012122 -0.012525
# 5 -0.000279 0.000152 0.000827 -0.012122 0.017353 -0.000242
# 6 -0.001503 -0.000980 0.004172 -0.012525 -0.000242 0.037489
#
#
# Mechanical properties :
#
#
# Convention : Reuss Voigt Hill
#
# Bulk Modulus (GPa) = 37.17199 73.73525 55.45362
# Shear Modulus (GPa) = 25.87966 44.87276 35.37621
#
# Velocity S-wave (km/s) = 3.22996 4.25313 3.77636
# Velocity P-wave (km/s) = 5.37540 7.33778 6.43187
#
# Compressibility (1/GPa) = 0.02690198
#
# Stress axis : x y z
#
# Youngs Moduli (GPa) = 159.20853 52.49745 94.69231
#
# Poissons Ratio (x) = 0.06088 0.37783
# Poissons Ratio (y) = 0.18464 -0.06209
# Poissons Ratio (z) = 0.63526 -0.03442
#
# Static dielectric constant tensor:
#      x y z
#    x 1.890690 -0.143020 -0.132640 
#    y -0.143020 1.219940 -0.588340 
#    z -0.132640 -0.588340 1.572300 
# 
# From -- ./inp_files/171926.got.cif
#   From: 2010.05.17/outbox.cif.g08.bks.cpg/sg2_86_cif.got.tgz:171926.got - 2010.06.03 11:33:40.
