data_PCOD9010092
_publ_section_title
;
Structure prediction by ZEFSAII (Michael W. Deem and Ramdas Pophale) SiO2 
 PCOD9010092
Probable space group: P -1
;
_chemical_formula_sum "Si O2"
_cell_formula_units_Z 12
_cell_length_a 8.348338
_cell_length_b 15.714065
_cell_length_c 16.128072
_cell_angle_alpha 24.913615
_cell_angle_beta 105.392332
_cell_angle_gamma 122.390088
_cell_volume 590.729610
_symmetry_space_group_name_H-M "P -1"
_symmetry_group_IT_number 2
_symmetry_cell_setting 'triclinic'
loop_
_space_group_symop_operation_xyz
x,y,z
-x,-y,-z
loop_
_atom_site_type_symbol
_atom_site_label
_atom_site_fract_x
_atom_site_fract_y
_atom_site_fract_z
Si Si1 0.811448 0.677406 0.503735
Si Si2 0.100996 0.366916 0.116451
Si Si3 0.281308 0.007207 0.875284
Si Si4 0.214764 0.718150 0.272878
Si Si5 0.185258 0.339036 0.973585
Si Si6 0.671024 0.658807 0.678424
O O1 0.680487 0.732036 0.381739
O O2 0.817193 0.478079 0.630090
O O3 0.687482 0.562484 0.677665
O O4 0.075638 0.014528 0.253136
O O5 0.238200 0.469212 0.957089
O O6 0.261621 0.431018 0.157953
O O7 0.873667 0.013084 0.391004
O O8 0.000000 0.500000 0.000000
O O9 0.525047 0.097357 0.813926
O O10 0.039841 0.735966 0.030495
O O11 0.224891 0.932695 0.031213
O O12 0.000000 0.500000 0.500000
O O13 0.413909 0.530664 0.776436
#
# Coordination Sequence:
#
# PCOD9010092 Si02
#       6
#     2   2   2   2   2   2
#     4   9  22  39  59  87 118 154 197 239 289 351
#     4  10  22  39  61  90 120 152 197 242 286 353
#     4   9  23  40  55  90 118 148 208 238 281 358
#     4  11  23  39  62  85 120 156 197 246 295 343
#     4   9  21  40  59  88 120 156 194 237 292 349
#     4  10  21  40  62  84 124 156 190 243 293 345
#
# _framework density 20.313863000000001
#
# number of rings (size 3 to 8) (size 9 to 14) (size 15 to 20)
#    1.000    1.333    0.000    1.000    4.667    4.000 
#    3.000    0.000    0.000    0.000    0.000    0.000 
#    0.000    0.000    0.000    0.000    0.000    0.000 
#
# Total GULP energy -66898.271454 kJ/mol
# GULP energy per Si atom -5574.855954 kJ/mol
# Density = 2.026763 g / cm^3
# Si number density = 20.313863 Si / 1000 Ang^3
#
#
#
# Elastic Constant Matrix: (Units=GPa)
#
#
# Indices 1 2 3 4 5 6 
#
# 1 81.3238 61.8178 36.0009 12.3306 -19.4595 -8.3652
# 2 61.8178 114.3886 36.4791 21.4352 -9.0758 -9.1482
# 3 36.0009 36.4791 45.1895 15.9245 -25.8488 -2.5659
# 4 12.3306 21.4352 15.9245 22.6767 -10.5758 -0.8121
# 5 -19.4595 -9.0758 -25.8488 -10.5758 46.2512 3.6617
# 6 -8.3652 -9.1482 -2.5659 -0.8121 3.6617 32.3489
#
#
#
# Elastic Compliance Matrix: (Units=1/GPa)
#
#
# Indices 1 2 3 4 5 6 
#
# 1 0.026073 -0.010942 -0.012145 0.006314 0.003283 0.002471
# 2 -0.010942 0.018176 -0.006333 -0.009985 -0.007046 0.002355
# 3 -0.012145 -0.006333 0.054059 -0.015941 0.020481 -0.003362
# 4 0.006314 -0.009985 -0.015941 0.064330 0.006624 -0.001590
# 5 0.003283 -0.007046 0.020481 0.006624 0.034842 -0.003297
# 6 0.002471 0.002355 -0.003362 -0.001590 -0.003297 0.032285
#
#
# Mechanical properties :
#
#
# Convention : Reuss Voigt Hill
#
# Bulk Modulus (GPa) = 25.33799 56.61083 40.97441
# Shear Modulus (GPa) = 16.56946 27.36228 21.96587
#
# Velocity S-wave (km/s) = 2.85910 3.67410 3.29192
# Velocity P-wave (km/s) = 4.83731 6.77696 5.88756
#
# Compressibility (1/GPa) = 0.03946644
#
# Stress axis : x y z
#
# Youngs Moduli (GPa) = 38.35339 55.01882 18.49844
#
# Poissons Ratio (x) = 0.60204 0.22467
# Poissons Ratio (y) = 0.41968 0.11715
# Poissons Ratio (z) = 0.46581 0.34842
#
# Static dielectric constant tensor:
#      x y z
#    x 1.691020 0.020020 0.018890 
#    y 0.020020 1.742460 -0.013020 
#    z 0.018890 -0.013020 1.752170 
# 
# From -- ./inp_files/120467.got.cif
#   From: 2010.05.17/outbox.cif.g08.bks.cpg/sg2_61_cif.got.tgz:120467.got - 2010.06.03 11:33:40.
