data_PCOD9010485
_publ_section_title
;
Structure prediction by ZEFSAII (Michael W. Deem and Ramdas Pophale) SiO2 
 PCOD9010485
Probable space group: P -1
;
_chemical_formula_sum "Si O2"
_cell_formula_units_Z 16
_cell_length_a 16.678858
_cell_length_b 7.231210
_cell_length_c 8.290713
_cell_angle_alpha 80.947133
_cell_angle_beta 64.535939
_cell_angle_gamma 51.668818
_cell_volume 699.698900
_symmetry_space_group_name_H-M "P -1"
_symmetry_group_IT_number 2
_symmetry_cell_setting 'triclinic'
loop_
_space_group_symop_operation_xyz
x,y,z
-x,-y,-z
loop_
_atom_site_type_symbol
_atom_site_label
_atom_site_fract_x
_atom_site_fract_y
_atom_site_fract_z
Si Si1 0.068637 0.261971 0.168190
Si Si2 0.451088 0.982953 0.802483
Si Si3 0.362762 0.987369 0.221572
Si Si4 0.559528 0.484560 0.615258
Si Si5 0.720068 0.549502 0.318595
Si Si6 0.093653 0.843257 0.304746
Si Si7 0.076883 0.658412 0.027928
Si Si8 0.835227 0.587223 0.507497
O O1 0.965934 0.438124 0.360556
O O2 0.122059 0.393360 0.074531
O O3 0.013266 0.265804 0.045222
O O4 0.138847 0.990484 0.202666
O O5 0.485828 0.746055 0.719641
O O6 0.564621 0.946612 0.758387
O O7 0.380485 0.214507 0.718790
O O8 0.380629 0.018505 0.016840
O O9 0.418551 0.717330 0.258151
O O10 0.234066 0.163714 0.373759
O O11 0.500000 0.500000 0.500000
O O12 0.676495 0.428171 0.469055
O O13 0.774373 0.623407 0.386969
O O14 0.818258 0.368139 0.134410
O O15 0.038902 0.819366 0.196652
O O16 0.174982 0.582087 0.345888
O O17 0.000000 0.000000 0.500000
#
# Coordination Sequence:
#
# PCOD9010485 Si02
#       8
#     2   2   2   2   2   2   2   2
#     4   9  21  42  67  90 124 169 211 257 316 374
#     4  11  23  43  66  90 133 163 209 269 313 371
#     4  11  23  42  65  95 127 167 209 263 318 374
#     4  12  23  42  67  93 124 173 213 255 319 377
#     4  11  22  43  64  93 131 167 209 265 310 375
#     4  10  21  40  63  92 126 167 208 263 315 370
#     4  10  21  42  64  95 127 164 213 259 314 374
#     4  10  21  41  63  92 130 165 210 259 316 371
#
# _framework density 22.866980999999999
#
# number of rings (size 3 to 8) (size 9 to 14) (size 15 to 20)
#    0.000    1.500    2.500    2.625    0.000    2.000 
#   20.250    0.000    0.000    0.000    0.000    0.000 
#    0.000    0.000    0.000    0.000    0.000    0.000 
#
# Total GULP energy -89472.204171 kJ/mol
# GULP energy per Si atom -5592.012761 kJ/mol
# Density = 2.281493 g / cm^3
# Si number density = 22.866981 Si / 1000 Ang^3
#
#
#
# Elastic Constant Matrix: (Units=GPa)
#
#
# Indices 1 2 3 4 5 6 
#
# 1 39.9166 15.3222 15.1520 13.8895 10.7549 1.9901
# 2 15.3222 86.5401 15.3200 -9.5176 21.9315 7.4683
# 3 15.1520 15.3200 84.5862 14.1140 16.3804 1.4719
# 4 13.8895 -9.5176 14.1140 45.4387 3.6529 8.7932
# 5 10.7549 21.9315 16.3804 3.6529 24.7499 3.9039
# 6 1.9901 7.4683 1.4719 8.7932 3.9039 28.4009
#
#
#
# Elastic Compliance Matrix: (Units=1/GPa)
#
#
# Indices 1 2 3 4 5 6 
#
# 1 0.033354 -0.005110 -0.001819 -0.010756 -0.007725 0.003493
# 2 -0.005110 0.017014 -0.000856 0.007297 -0.012643 -0.004593
# 3 -0.001819 -0.000856 0.014404 -0.003836 -0.007711 0.001854
# 4 -0.010756 0.007297 -0.003836 0.030121 -0.002122 -0.010000
# 5 -0.007725 -0.012643 -0.007711 -0.002122 0.060925 -0.003452
# 6 0.003493 -0.004593 0.001854 -0.010000 -0.003452 0.039648
#
#
# Mechanical properties :
#
#
# Convention : Reuss Voigt Hill
#
# Bulk Modulus (GPa) = 20.32402 33.62570 26.97486
# Shear Modulus (GPa) = 21.98407 30.73447 26.35927
#
# Velocity S-wave (km/s) = 3.10399 3.67011 3.39886
# Velocity P-wave (km/s) = 4.66407 5.71808 5.21776
#
# Compressibility (1/GPa) = 0.04920286
#
# Stress axis : x y z
#
# Youngs Moduli (GPa) = 29.98132 58.77389 69.42445
#
# Poissons Ratio (x) = 0.30033 0.12631
# Poissons Ratio (y) = 0.15320 0.05940
# Poissons Ratio (z) = 0.05455 0.05029
#
# Static dielectric constant tensor:
#      x y z
#    x 1.879000 -0.002720 -0.003510 
#    y -0.002720 1.845290 -0.012300 
#    z -0.003510 -0.012300 1.876000 
# 
# From -- ./inp_files/323544.got.cif
#   From: 2010.05.17/outbox.cif.g08.bks.cpg/sg2_162_cif.got.tgz:323544.got - 2010.06.03 11:33:40.
