data_PCOD9010492
_publ_section_title
;
Structure prediction by ZEFSAII (Michael W. Deem and Ramdas Pophale) SiO2 
 PCOD9010492
Probable space group: P -1
;
_chemical_formula_sum "Si O2"
_cell_formula_units_Z 16
_cell_length_a 18.631638
_cell_length_b 8.631525
_cell_length_c 8.927080
_cell_angle_alpha 130.297647
_cell_angle_beta 48.028065
_cell_angle_gamma 112.430418
_cell_volume 810.778403
_symmetry_space_group_name_H-M "P -1"
_symmetry_group_IT_number 2
_symmetry_cell_setting 'triclinic'
loop_
_space_group_symop_operation_xyz
x,y,z
-x,-y,-z
loop_
_atom_site_type_symbol
_atom_site_label
_atom_site_fract_x
_atom_site_fract_y
_atom_site_fract_z
Si Si1 0.774892 0.872558 0.983458
Si Si2 0.939777 0.704684 0.273662
Si Si3 0.553971 0.526796 0.781080
Si Si4 0.419370 0.865988 0.094882
Si Si5 0.720694 0.841698 0.707000
Si Si6 0.058056 0.875260 0.969248
Si Si7 0.075068 0.460083 0.505044
Si Si8 0.407097 0.922445 0.503772
O O1 0.746262 0.926467 0.886801
O O2 0.825143 0.643264 0.765466
O O3 0.850583 0.016162 0.035596
O O4 0.679797 0.909903 0.236260
O O5 0.822730 0.729726 0.434298
O O6 0.957184 0.700382 0.425431
O O7 0.987036 0.865586 0.204506
O O8 0.000000 0.500000 0.000000
O O9 0.638920 0.681829 0.750552
O O10 0.602823 0.298651 0.544646
O O11 0.500000 0.500000 0.000000
O O12 0.466468 0.631690 0.865042
O O13 0.414360 0.898105 0.300277
O O14 0.322321 0.969588 0.217720
O O15 0.500000 0.000000 0.000000
O O16 0.087673 0.658190 0.711991
O O17 0.000000 0.000000 0.000000
O O18 0.000000 0.500000 0.500000
O O19 0.500000 0.000000 0.500000
#
# Coordination Sequence:
#
# PCOD9010492 Si02
#       8
#     2   2   2   2   2   2   2   2
#     4  11  24  39  66  91 131 164 217 264 326 384
#     4   9  22  38  63  87 134 167 214 265 323 378
#     4   9  19  38  66  87 121 165 208 261 321 381
#     4   9  19  39  64  88 123 164 209 267 321 384
#     4  10  21  40  63  92 127 169 214 267 331 381
#     4  11  23  42  65  94 128 174 224 265 326 386
#     4  10  21  42  63  91 130 171 212 274 318 382
#     4  11  23  39  63  95 129 165 213 268 325 392
#
# _framework density 19.734121999999999
#
# number of rings (size 3 to 8) (size 9 to 14) (size 15 to 20)
#    0.000    2.000    1.250    2.250    7.000    2.000 
#    0.000    5.625    0.000    0.000    0.000    0.000 
#    0.000    0.000    0.000    0.000    0.000    0.000 
#
# Total GULP energy -89090.374223 kJ/mol
# GULP energy per Si atom -5568.148389 kJ/mol
# Density = 1.968921 g / cm^3
# Si number density = 19.734122 Si / 1000 Ang^3
#
#
#
# Elastic Constant Matrix: (Units=GPa)
#
#
# Indices 1 2 3 4 5 6 
#
# 1 143.1615 44.6856 37.4035 4.4703 -10.2630 -14.1134
# 2 44.6856 75.0909 24.5014 3.4920 -6.9744 -12.9589
# 3 37.4035 24.5014 121.5778 4.3671 -23.0038 -1.4694
# 4 4.4703 3.4920 4.3671 30.2078 6.0062 -5.6269
# 5 -10.2630 -6.9744 -23.0038 6.0062 34.5265 5.4231
# 6 -14.1134 -12.9589 -1.4694 -5.6269 5.4231 42.1172
#
#
#
# Elastic Compliance Matrix: (Units=1/GPa)
#
#
# Indices 1 2 3 4 5 6 
#
# 1 0.009035 -0.004489 -0.001761 -0.000376 0.000439 0.001478
# 2 -0.004489 0.017319 -0.001984 -0.000439 0.000345 0.003652
# 3 -0.001761 -0.001984 0.010552 -0.002803 0.006924 -0.002098
# 4 -0.000376 -0.000439 -0.002803 0.036535 -0.009322 0.005723
# 5 0.000439 0.000345 0.006924 -0.009322 0.036249 -0.005418
# 6 0.001478 0.003652 -0.002098 0.005723 -0.005418 0.026751
#
#
# Mechanical properties :
#
#
# Convention : Reuss Voigt Hill
#
# Bulk Modulus (GPa) = 48.92658 61.44568 55.18613
# Shear Modulus (GPa) = 31.30451 36.91960 34.11206
#
# Velocity S-wave (km/s) = 3.98718 4.33003 4.16213
# Velocity P-wave (km/s) = 6.78553 7.49688 7.15006
#
# Compressibility (1/GPa) = 0.02043879
#
# Stress axis : x y z
#
# Youngs Moduli (GPa) = 110.67844 57.74157 94.76875
#
# Poissons Ratio (x) = 0.25919 0.16685
# Poissons Ratio (y) = 0.49682 0.18802
# Poissons Ratio (z) = 0.19486 0.11456
#
# Static dielectric constant tensor:
#      x y z
#    x 1.604310 -0.014490 -0.053390 
#    y -0.014490 1.747360 0.028390 
#    z -0.053390 0.028390 1.739970 
# 
# From -- ./inp_files/294216.got.cif
#   From: 2010.05.17/outbox.cif.g08.bks.cpg/sg2_148_cif.got.tgz:294216.got - 2010.06.03 11:33:40.
