data_PCOD9010552
_publ_section_title
;
Structure prediction by ZEFSAII (Michael W. Deem and Ramdas Pophale) SiO2 
 PCOD9010552
Probable space group: P -1
;
_chemical_formula_sum "Si O2"
_cell_formula_units_Z 16
_cell_length_a 15.875005
_cell_length_b 10.634975
_cell_length_c 8.373141
_cell_angle_alpha 135.895933
_cell_angle_beta 106.603641
_cell_angle_gamma 47.500388
_cell_volume 668.375289
_symmetry_space_group_name_H-M "P -1"
_symmetry_group_IT_number 2
_symmetry_cell_setting 'triclinic'
loop_
_space_group_symop_operation_xyz
x,y,z
-x,-y,-z
loop_
_atom_site_type_symbol
_atom_site_label
_atom_site_fract_x
_atom_site_fract_y
_atom_site_fract_z
Si Si1 0.436460 0.822032 0.755443
Si Si2 0.542825 0.868414 0.140289
Si Si3 0.323644 0.685027 0.727995
Si Si4 0.325523 0.226733 0.571687
Si Si5 0.921084 0.036543 0.266122
Si Si6 0.948866 0.482399 0.297711
Si Si7 0.643467 0.242049 0.833027
Si Si8 0.111716 0.053520 0.473327
O O1 0.322620 0.859391 0.768052
O O2 0.537700 0.587447 0.479534
O O3 0.397472 0.067462 0.882327
O O4 0.506044 0.759336 0.904872
O O5 0.627688 0.720847 0.206996
O O6 0.413075 0.133723 0.383030
O O7 0.214772 0.710787 0.639138
O O8 0.306268 0.777670 0.982444
O O9 0.180110 0.434079 0.661040
O O10 0.355929 0.973158 0.394875
O O11 0.909906 0.981964 0.391500
O O12 0.021653 0.050231 0.321519
O O13 0.961057 0.802329 0.975997
O O14 0.923623 0.686459 0.347892
O O15 0.000000 0.500000 0.500000
O O16 0.743689 0.176174 0.704849
O O17 0.500000 0.500000 0.000000
#
# Coordination Sequence:
#
# PCOD9010552 Si02
#       8
#     2   2   2   2   2   2   2   2
#     4  10  23  39  62  97 132 165 212 267 330 388
#     4  10  21  40  63  94 129 169 209 266 324 393
#     4  11  24  41  64  96 128 171 214 268 330 388
#     4  10  22  39  63  95 129 168 218 260 326 388
#     4  11  25  46  70  97 136 175 226 277 327 398
#     4  11  25  44  68  96 135 177 222 276 324 393
#     4  11  23  41  68  95 134 172 212 269 327 391
#     4  10  26  46  69 101 130 178 228 271 334 393
#
# _framework density 23.938647
#
# number of rings (size 3 to 8) (size 9 to 14) (size 15 to 20)
#    0.000    1.500    1.250    2.625    7.000    8.000 
#    2.250    0.000    0.000    0.000    0.000    0.000 
#    0.000    0.000    0.000    0.000    0.000    0.000 
#
# Total GULP energy -89513.904867 kJ/mol
# GULP energy per Si atom -5594.619054 kJ/mol
# Density = 2.388416 g / cm^3
# Si number density = 23.938647 Si / 1000 Ang^3
#
#
#
# Elastic Constant Matrix: (Units=GPa)
#
#
# Indices 1 2 3 4 5 6 
#
# 1 116.3604 24.2566 4.8770 -19.4023 -13.7785 -11.4950
# 2 24.2566 44.7920 7.9276 0.3141 -2.6223 -19.8714
# 3 4.8770 7.9276 90.7640 -23.3248 -3.5326 -5.6976
# 4 -19.4023 0.3141 -23.3248 21.6717 -10.3021 3.5626
# 5 -13.7785 -2.6223 -3.5326 -10.3021 31.4955 0.6714
# 6 -11.4950 -19.8714 -5.6976 3.5626 0.6714 39.1525
#
#
#
# Elastic Compliance Matrix: (Units=1/GPa)
#
#
# Indices 1 2 3 4 5 6 
#
# 1 0.020522 -0.013702 0.011811 0.042928 0.023278 -0.003515
# 2 -0.013702 0.038843 -0.011296 -0.035482 -0.016008 0.017551
# 3 0.011811 -0.011296 0.024546 0.048652 0.022969 -0.003514
# 4 0.042928 -0.035482 0.048652 0.178025 0.079853 -0.015894
# 5 0.023278 -0.016008 0.022969 0.079853 0.069434 -0.006404
# 6 -0.003515 0.017551 -0.003514 -0.015894 -0.006404 0.034461
#
#
# Mechanical properties :
#
#
# Convention : Reuss Voigt Hill
#
# Bulk Modulus (GPa) = 17.38021 36.22653 26.80337
# Shear Modulus (GPa) = 12.15410 32.78763 22.47086
#
# Velocity S-wave (km/s) = 2.25571 3.70490 3.06712
# Velocity P-wave (km/s) = 3.74971 5.78512 4.87483
#
# Compressibility (1/GPa) = 0.05753669
#
# Stress axis : x y z
#
# Youngs Moduli (GPa) = 48.72743 25.74499 40.74036
#
# Poissons Ratio (x) = 0.35275 -0.48119
# Poissons Ratio (y) = 0.66766 0.46021
# Poissons Ratio (z) = -0.57552 0.29082
#
# Static dielectric constant tensor:
#      x y z
#    x 1.901070 0.035860 0.026040 
#    y 0.035860 1.961990 0.016700 
#    z 0.026040 0.016700 1.882700 
# 
# From -- ./inp_files/308833.got.cif
#   From: 2010.05.17/outbox.cif.g08.bks.cpg/sg2_155_cif.got.tgz:308833.got - 2010.06.03 11:33:40.
