data_PCOD9010215
_publ_section_title
;
Structure prediction by ZEFSAII (Michael W. Deem and Ramdas Pophale) SiO2 
 PCOD9010215
Probable space group: P -1
;
_chemical_formula_sum "Si O2"
_cell_formula_units_Z 16
_cell_length_a 11.873802
_cell_length_b 11.009439
_cell_length_c 14.980386
_cell_angle_alpha 116.064425
_cell_angle_beta 146.929736
_cell_angle_gamma 86.015762
_cell_volume 761.058043
_symmetry_space_group_name_H-M "P -1"
_symmetry_group_IT_number 2
_symmetry_cell_setting 'triclinic'
loop_
_space_group_symop_operation_xyz
x,y,z
-x,-y,-z
loop_
_atom_site_type_symbol
_atom_site_label
_atom_site_fract_x
_atom_site_fract_y
_atom_site_fract_z
Si Si1 0.311050 0.553473 0.370325
Si Si2 0.737718 0.683956 0.100048
Si Si3 0.843305 0.595456 0.328317
Si Si4 0.691936 0.606944 0.846750
Si Si5 0.266699 0.115965 0.162248
Si Si6 0.853497 0.032018 0.290854
Si Si7 0.352804 0.934069 0.015780
Si Si8 0.891520 0.543338 0.604083
O O1 0.500000 0.500000 0.500000
O O2 0.218022 0.478553 0.185808
O O3 0.503280 0.755920 0.574924
O O4 0.119329 0.485454 0.305308
O O5 0.800115 0.613100 0.201370
O O6 0.887935 0.885977 0.277373
O O7 0.422380 0.573811 0.863881
O O8 0.797543 0.650115 0.030918
O O9 0.917672 0.766515 0.480446
O O10 0.077292 0.580258 0.473534
O O11 0.753208 0.770819 0.887355
O O12 0.375945 0.485522 0.604141
O O13 0.331571 0.008541 0.116140
O O14 0.000000 0.000000 0.000000
O O15 0.724783 0.002196 0.098609
O O16 0.637419 0.990934 0.205558
O O17 0.141810 0.731691 0.810760
#
# Coordination Sequence:
#
# PCOD9010215 Si02
#       8
#     2   2   2   2   2   2   2   2
#     4   8  17  31  52  79 109 139 175 225 277 324
#     4  11  23  41  55  80 114 150 190 220 278 329
#     4  11  24  38  58  78 113 156 181 229 272 328
#     4  10  19  35  56  81 111 140 186 229 273 327
#     4  10  17  29  50  82 113 137 171 225 283 323
#     4  11  22  36  55  84 111 143 188 229 274 324
#     4  11  20  31  56  87 111 138 183 235 273 322
#     4  10  19  35  57  84 109 145 185 224 280 327
#
# _framework density 21.023363
#
# number of rings (size 3 to 8) (size 9 to 14) (size 15 to 20)
#    0.000    2.000    2.500    4.875    1.750    1.000 
#    0.000    0.625    0.000    0.000    0.000    6.125 
#    0.000    0.000    0.000    0.000    0.000    0.000 
#
# Total GULP energy -89308.451213 kJ/mol
# GULP energy per Si atom -5581.778201 kJ/mol
# Density = 2.097551 g / cm^3
# Si number density = 21.023363 Si / 1000 Ang^3
#
#
#
# Elastic Constant Matrix: (Units=GPa)
#
#
# Indices 1 2 3 4 5 6 
#
# 1 107.5702 19.7618 19.4884 7.1087 -28.1852 3.4269
# 2 19.7618 32.0871 18.1175 13.6175 -9.0536 5.0376
# 3 19.4884 18.1175 51.9838 20.0738 -9.9904 0.4612
# 4 7.1087 13.6175 20.0738 34.6732 5.3529 -1.5444
# 5 -28.1852 -9.0536 -9.9904 5.3529 43.8250 5.1354
# 6 3.4269 5.0376 0.4612 -1.5444 5.1354 19.9732
#
#
#
# Elastic Compliance Matrix: (Units=1/GPa)
#
#
# Indices 1 2 3 4 5 6 
#
# 1 0.012365 -0.003533 -0.001262 -0.001725 0.007528 -0.003270
# 2 -0.003533 0.050148 -0.007497 -0.016925 0.010300 -0.015826
# 3 -0.001262 -0.007497 0.029231 -0.014745 0.006258 -0.001316
# 4 -0.001725 -0.016925 -0.014745 0.047280 -0.015203 0.012470
# 5 0.007528 0.010300 0.006258 -0.015203 0.034728 -0.014139
# 6 -0.003270 -0.015826 -0.001316 0.012470 -0.014139 0.059250
#
#
# Mechanical properties :
#
#
# Convention : Reuss Voigt Hill
#
# Bulk Modulus (GPa) = 14.89012 34.04182 24.46597
# Shear Modulus (GPa) = 17.85881 28.64584 23.25233
#
# Velocity S-wave (km/s) = 2.91774 3.69531 3.32930
# Velocity P-wave (km/s) = 4.29522 5.86810 5.14216
#
# Compressibility (1/GPa) = 0.06715861
#
# Stress axis : x y z
#
# Youngs Moduli (GPa) = 80.87543 19.94083 34.21013
#
# Poissons Ratio (x) = 0.07045 0.04319
# Poissons Ratio (y) = 0.28572 0.25649
# Poissons Ratio (z) = 0.10210 0.14951
#
# Static dielectric constant tensor:
#      x y z
#    x 1.804350 0.021370 -0.048380 
#    y 0.021370 1.804220 -0.016540 
#    z -0.048380 -0.016540 1.788150 
# 
# From -- ./inp_files/195223.got.cif
#   From: 2010.05.17/outbox.cif.g08.bks.cpg/sg2_98_cif.got.tgz:195223.got - 2010.06.03 11:33:40.
