data_PCOD9010677
_publ_section_title
;
Structure prediction by ZEFSAII (Michael W. Deem and Ramdas Pophale) SiO2 
 PCOD9010677
Probable space group: P -1
;
_chemical_formula_sum "Si O2"
_cell_formula_units_Z 14
_cell_length_a 11.526797
_cell_length_b 9.111855
_cell_length_c 19.794737
_cell_angle_alpha 132.000347
_cell_angle_beta 35.392864
_cell_angle_gamma 104.050862
_cell_volume 636.168523
_symmetry_space_group_name_H-M "P -1"
_symmetry_group_IT_number 2
_symmetry_cell_setting 'triclinic'
loop_
_space_group_symop_operation_xyz
x,y,z
-x,-y,-z
loop_
_atom_site_type_symbol
_atom_site_label
_atom_site_fract_x
_atom_site_fract_y
_atom_site_fract_z
Si Si1 0.170644 0.839758 0.302856
Si Si2 0.332479 0.213733 0.751138
Si Si3 0.849273 0.464881 0.455550
Si Si4 0.683240 0.900927 0.773291
Si Si5 0.750915 0.540375 0.998271
Si Si6 0.719914 0.095824 0.409561
Si Si7 0.935169 0.531600 0.779434
O O1 0.051754 0.713398 0.297835
O O2 0.144016 0.038692 0.324779
O O3 0.498220 0.610132 0.099026
O O4 0.000000 0.000000 0.500000
O O5 0.502790 0.204468 0.607473
O O6 0.373536 0.957426 0.630441
O O7 0.406523 0.237699 0.797716
O O8 0.000000 0.500000 0.000000
O O9 0.676463 0.726659 0.668820
O O10 0.756635 0.302382 0.448397
O O11 0.154910 0.264789 0.286321
O O12 0.855391 0.535797 0.397452
O O13 0.368240 0.194394 0.021344
O O14 0.910809 0.589405 0.889168
O O15 0.981214 0.220641 0.814145
#
# Coordination Sequence:
#
# PCOD9010677 Si02
#       7
#     2   2   2   2   2   2   2
#     4  11  21  37  58  86 123 158 202 233 276 349
#     4   9  21  40  63  89 109 147 203 249 292 349
#     4  11  22  35  56  86 122 157 189 238 294 348
#     4  10  22  36  53  86 121 163 195 229 287 348
#     4  10  22  36  64  87 115 158 198 246 285 338
#     4  10  21  40  64  88 115 149 199 248 297 342
#     4  11  22  37  55  86 123 156 194 235 287 348
#
# _framework density 22.006748000000002
#
# number of rings (size 3 to 8) (size 9 to 14) (size 15 to 20)
#    0.000    1.714    1.429    3.857    4.000    2.286 
#    0.000    0.714    0.000   14.571    0.000    0.000 
#    0.000    0.000    0.000    0.000    0.000    0.000 
#
# Total GULP energy -78103.217310 kJ/mol
# GULP energy per Si atom -5578.801236 kJ/mol
# Density = 2.195666 g / cm^3
# Si number density = 22.006748 Si / 1000 Ang^3
#
#
#
# Elastic Constant Matrix: (Units=GPa)
#
#
# Indices 1 2 3 4 5 6 
#
# 1 78.7557 46.7998 24.8477 -7.0166 36.9162 9.7106
# 2 46.7998 127.3617 49.4607 -6.7448 34.0180 14.7726
# 3 24.8477 49.4607 110.2292 -14.4452 25.9873 5.2023
# 4 -7.0166 -6.7448 -14.4452 30.1783 -8.5832 4.8003
# 5 36.9162 34.0180 25.9873 -8.5832 49.7518 8.5048
# 6 9.7106 14.7726 5.2023 4.8003 8.5048 31.9885
#
#
#
# Elastic Compliance Matrix: (Units=1/GPa)
#
#
# Indices 1 2 3 4 5 6 
#
# 1 0.021377 -0.004404 0.000298 0.000723 -0.012668 -0.001244
# 2 -0.004404 0.011871 -0.003657 -0.000390 -0.002524 -0.002821
# 3 0.000298 -0.003657 0.011947 0.004062 -0.003245 -0.000092
# 4 0.000723 -0.000390 0.004062 0.037978 0.005504 -0.007862
# 5 -0.012668 -0.002524 -0.003245 0.005504 0.034638 -0.004497
# 6 -0.001244 -0.002821 -0.000092 -0.007862 -0.004497 0.035332
#
#
# Mechanical properties :
#
#
# Convention : Reuss Voigt Hill
#
# Bulk Modulus (GPa) = 33.70624 62.06257 47.88440
# Shear Modulus (GPa) = 28.00188 35.39960 31.70074
#
# Velocity S-wave (km/s) = 3.57097 4.01506 3.79951
# Velocity P-wave (km/s) = 5.68788 7.05387 6.40738
#
# Compressibility (1/GPa) = 0.02966810
#
# Stress axis : x y z
#
# Youngs Moduli (GPa) = 46.77957 84.24083 83.70065
#
# Poissons Ratio (x) = 0.37103 -0.02492
# Poissons Ratio (y) = 0.20603 0.30607
# Poissons Ratio (z) = -0.01393 0.30804
#
# Static dielectric constant tensor:
#      x y z
#    x 1.956420 -0.035490 0.017720 
#    y -0.035490 1.783290 0.008970 
#    z 0.017720 0.008970 1.942720 
# 
# From -- ./inp_files/270968.got.cif
#   From: 2010.05.17/outbox.cif.g08.bks.cpg/sg2_136_cif.got.tgz:270968.got - 2010.06.03 11:33:40.
