data_PCOD9010921
_publ_section_title
;
Structure prediction by ZEFSAII (Michael W. Deem and Ramdas Pophale) SiO2 
 PCOD9010921
Probable space group: P -1
;
_chemical_formula_sum "Si O2"
_cell_formula_units_Z 16
_cell_length_a 8.038591
_cell_length_b 16.122331
_cell_length_c 9.887839
_cell_angle_alpha 57.172300
_cell_angle_beta 69.051219
_cell_angle_gamma 35.194313
_cell_volume 610.886280
_symmetry_space_group_name_H-M "P -1"
_symmetry_group_IT_number 2
_symmetry_cell_setting 'triclinic'
loop_
_space_group_symop_operation_xyz
x,y,z
-x,-y,-z
loop_
_atom_site_type_symbol
_atom_site_label
_atom_site_fract_x
_atom_site_fract_y
_atom_site_fract_z
Si Si1 0.340165 0.224007 0.816212
Si Si2 0.147691 0.302382 0.105503
Si Si3 0.568354 0.757802 0.656235
Si Si4 0.509183 0.606274 0.954098
Si Si5 0.812138 0.501843 0.436766
Si Si6 0.821628 0.272727 0.649472
Si Si7 0.091272 0.111410 0.966688
Si Si8 0.799606 0.908210 0.565896
O O1 0.222346 0.365040 0.631370
O O2 0.222232 0.165070 0.880047
O O3 0.234274 0.291890 0.939032
O O4 0.688190 0.057404 0.870824
O O5 0.378221 0.240201 0.202761
O O6 0.145123 0.185511 0.239072
O O7 0.812876 0.485038 0.055480
O O8 0.886026 0.638083 0.608857
O O9 0.306899 0.934671 0.511013
O O10 0.508139 0.669649 0.759838
O O11 0.223975 0.752652 0.994136
O O12 0.500000 0.500000 0.000000
O O13 0.804042 0.394787 0.599869
O O14 0.502682 0.628034 0.335908
O O15 0.042082 0.114314 0.819583
O O16 0.945746 0.214031 0.511971
O O17 0.500000 0.000000 0.500000
#
# Coordination Sequence:
#
# PCOD9010921 Si02
#       8
#     2   2   2   2   2   2   2   2
#     4  11  25  43  62  90 128 166 208 248 316 364
#     4  11  21  41  67  92 123 162 207 258 305 363
#     4  11  22  39  67  92 124 162 209 256 307 362
#     4  12  24  42  64  94 124 162 214 252 305 366
#     4  11  23  41  61  97 123 164 204 257 309 367
#     4  11  24  41  64  92 129 162 205 255 310 367
#     4  11  25  43  62  89 128 168 201 259 305 368
#     4  10  21  40  64  96 122 161 208 255 310 359
#
# _framework density 26.191455000000001
#
# number of rings (size 3 to 8) (size 9 to 14) (size 15 to 20)
#    0.000    1.000    5.000    2.625    5.250    1.000 
#    0.000    0.625    0.000    0.000    0.000    0.000 
#    0.000    0.000    0.000    0.000    0.000    0.000 
#
# Total GULP energy -89488.148855 kJ/mol
# GULP energy per Si atom -5593.009303 kJ/mol
# Density = 2.613184 g / cm^3
# Si number density = 26.191455 Si / 1000 Ang^3
#
#
#
# Elastic Constant Matrix: (Units=GPa)
#
#
# Indices 1 2 3 4 5 6 
#
# 1 28.3099 28.7805 10.1275 10.6742 -19.6244 -4.8213
# 2 28.7805 146.6884 48.1150 -20.9179 -1.2307 -22.5024
# 3 10.1275 48.1150 139.6449 -35.6307 -16.2714 -3.9891
# 4 10.6742 -20.9179 -35.6307 53.4903 8.9251 -5.7803
# 5 -19.6244 -1.2307 -16.2714 8.9251 43.8484 -0.6242
# 6 -4.8213 -22.5024 -3.9891 -5.7803 -0.6242 26.8879
#
#
#
# Elastic Compliance Matrix: (Units=1/GPa)
#
#
# Indices 1 2 3 4 5 6 
#
# 1 0.153306 -0.039781 -0.005345 -0.064820 0.078440 -0.018711
# 2 -0.039781 0.019562 -0.000892 0.019970 -0.021467 0.012900
# 3 -0.005345 -0.000892 0.009750 0.007403 -0.000287 0.001326
# 4 -0.064820 0.019970 0.007403 0.052183 -0.036088 0.016568
# 5 0.078440 -0.021467 -0.000287 -0.036088 0.064403 -0.010207
# 6 -0.018711 0.012900 0.001326 0.016568 -0.010207 0.048154
#
#
# Mechanical properties :
#
#
# Convention : Reuss Voigt Hill
#
# Bulk Modulus (GPa) = 11.04004 54.29880 32.66942
# Shear Modulus (GPa) = 10.64764 40.02000 25.33382
#
# Velocity S-wave (km/s) = 2.01845 3.91318 3.11345
# Velocity P-wave (km/s) = 3.10749 6.41824 5.04233
#
# Compressibility (1/GPa) = 0.09057936
#
# Stress axis : x y z
#
# Youngs Moduli (GPa) = 6.52289 51.12074 102.56925
#
# Poissons Ratio (x) = 2.03364 0.54826
# Poissons Ratio (y) = 0.25949 0.09154
# Poissons Ratio (z) = 0.03487 0.04562
#
# Static dielectric constant tensor:
#      x y z
#    x 2.240020 0.121520 -0.134120 
#    y 0.121520 2.072320 -0.117550 
#    z -0.134120 -0.117550 2.221540 
# 
# From -- ./inp_files/402966.got.cif
#   From: 2010.05.17/outbox.cif.g08.bks.cpg/sg2_202_cif.got.tgz:402966.got - 2010.06.03 11:33:40.
