data_PCOD9010368
_publ_section_title
;
Structure prediction by ZEFSAII (Michael W. Deem and Ramdas Pophale) SiO2 
 PCOD9010368
Probable space group: P -1
;
_chemical_formula_sum "Si O2"
_cell_formula_units_Z 16
_cell_length_a 8.528566
_cell_length_b 21.442928
_cell_length_c 9.321489
_cell_angle_alpha 126.127104
_cell_angle_beta 119.236012
_cell_angle_gamma 31.379180
_cell_volume 716.497046
_symmetry_space_group_name_H-M "P -1"
_symmetry_group_IT_number 2
_symmetry_cell_setting 'triclinic'
loop_
_space_group_symop_operation_xyz
x,y,z
-x,-y,-z
loop_
_atom_site_type_symbol
_atom_site_label
_atom_site_fract_x
_atom_site_fract_y
_atom_site_fract_z
Si Si1 0.965076 0.517922 0.678538
Si Si2 0.864100 0.376735 0.474637
Si Si3 0.183746 0.130166 0.455974
Si Si4 0.129399 0.051811 0.035485
Si Si5 0.093225 0.736221 0.934546
Si Si6 0.738332 0.535547 0.996931
Si Si7 0.039404 0.703656 0.191371
Si Si8 0.504225 0.198126 0.028176
O O1 0.941705 0.438633 0.614051
O O2 0.678157 0.668649 0.801638
O O3 0.000000 0.500000 0.500000
O O4 0.233969 0.462892 0.816682
O O5 0.500000 0.500000 0.500000
O O6 0.925006 0.326087 0.271956
O O7 0.083790 0.245827 0.490263
O O8 0.958621 0.218989 0.610714
O O9 0.140589 0.085494 0.246374
O O10 0.500000 0.000000 0.500000
O O11 0.138508 0.116964 0.013184
O O12 0.811049 0.117639 0.980313
O O13 0.394329 0.898487 0.936965
O O14 0.417574 0.666017 0.967001
O O15 0.086482 0.707598 0.052673
O O16 0.000000 0.500000 0.000000
O O17 0.760308 0.435490 0.849814
O O18 0.713340 0.773081 0.137534
#
# Coordination Sequence:
#
# PCOD9010368 Si02
#       8
#     2   2   2   2   2   2   2   2
#     4  11  23  40  62  93 125 161 201 262 315 366
#     4  11  22  40  65  92 122 166 215 255 305 382
#     4  11  22  40  62  95 123 166 211 263 313 381
#     4  10  22  41  66  86 121 168 213 252 305 392
#     4  11  23  39  61  97 124 161 207 259 319 364
#     4  11  22  39  63  91 127 166 206 252 306 381
#     4  11  22  38  62  92 126 158 204 267 314 365
#     4  10  21  40  63  88 119 165 210 246 313 371
#
# _framework density 22.330867000000001
#
# number of rings (size 3 to 8) (size 9 to 14) (size 15 to 20)
#    0.000    1.250    1.250    7.125    0.000    2.500 
#    2.250    0.000    0.000    3.750    0.000    0.000 
#    0.000    0.000    0.000    0.000    0.000    0.000 
#
# Total GULP energy -89272.918468 kJ/mol
# GULP energy per Si atom -5579.557404 kJ/mol
# Density = 2.228004 g / cm^3
# Si number density = 22.330867 Si / 1000 Ang^3
#
#
#
# Elastic Constant Matrix: (Units=GPa)
#
#
# Indices 1 2 3 4 5 6 
#
# 1 50.0770 29.4642 15.1907 1.5762 1.4946 17.4087
# 2 29.4642 154.3835 22.8789 8.0918 8.1753 32.2372
# 3 15.1907 22.8789 92.8947 3.3228 -9.5022 11.9742
# 4 1.5762 8.0918 3.3228 37.0448 4.2975 10.6738
# 5 1.4946 8.1753 -9.5022 4.2975 33.4355 -4.7963
# 6 17.4087 32.2372 11.9742 10.6738 -4.7963 38.0844
#
#
#
# Elastic Compliance Matrix: (Units=1/GPa)
#
#
# Indices 1 2 3 4 5 6 
#
# 1 0.025717 -0.002377 -0.002748 0.002952 -0.003179 -0.010107
# 2 -0.002377 0.008597 -0.001270 0.000560 -0.003342 -0.006369
# 3 -0.002748 -0.001270 0.012048 -0.000932 0.003875 -0.000708
# 4 0.002952 0.000560 -0.000932 0.030667 -0.006037 -0.010886
# 5 -0.003179 -0.003342 0.003875 -0.006037 0.034042 0.009043
# 6 -0.010107 -0.006369 -0.000708 -0.010886 0.009043 0.040681
#
#
# Mechanical properties :
#
#
# Convention : Reuss Voigt Hill
#
# Bulk Modulus (GPa) = 29.78567 48.04697 38.91632
# Shear Modulus (GPa) = 28.45251 37.03436 32.74343
#
# Velocity S-wave (km/s) = 3.57337 4.07681 3.83337
# Velocity P-wave (km/s) = 5.51295 6.61235 6.08752
#
# Compressibility (1/GPa) = 0.03357319
#
# Stress axis : x y z
#
# Youngs Moduli (GPa) = 38.88484 116.32383 83.00186
#
# Poissons Ratio (x) = 0.27647 0.22808
# Poissons Ratio (y) = 0.09242 0.10537
# Poissons Ratio (z) = 0.10685 0.14768
#
# Static dielectric constant tensor:
#      x y z
#    x 1.876480 0.005060 -0.021770 
#    y 0.005060 1.876820 0.008150 
#    z -0.021770 0.008150 1.856770 
# 
# From -- ./inp_files/186170.got.cif
#   From: 2010.05.17/outbox.cif.g08.bks.cpg/sg2_94_cif.got.tgz:186170.got - 2010.06.03 11:33:40.
