data_PCOD9010651
_publ_section_title
;
Structure prediction by ZEFSAII (Michael W. Deem and Ramdas Pophale) SiO2 
 PCOD9010651
Probable space group: P -1
;
_chemical_formula_sum "Si O2"
_cell_formula_units_Z 14
_cell_length_a 7.075386
_cell_length_b 13.737808
_cell_length_c 9.232467
_cell_angle_alpha 108.658039
_cell_angle_beta 133.877194
_cell_angle_gamma 80.472941
_cell_volume 610.792132
_symmetry_space_group_name_H-M "P -1"
_symmetry_group_IT_number 2
_symmetry_cell_setting 'triclinic'
loop_
_space_group_symop_operation_xyz
x,y,z
-x,-y,-z
loop_
_atom_site_type_symbol
_atom_site_label
_atom_site_fract_x
_atom_site_fract_y
_atom_site_fract_z
Si Si1 0.922114 0.294745 0.010069
Si Si2 0.431652 0.991026 0.790370
Si Si3 0.092189 0.139728 0.519175
Si Si4 0.021711 0.586769 0.175840
Si Si5 0.405579 0.363230 0.472897
Si Si6 0.653244 0.635503 0.237991
Si Si7 0.193942 0.134654 0.243653
O O1 0.153547 0.369562 0.242281
O O2 0.973906 0.184054 0.051786
O O3 0.968627 0.309352 0.870119
O O4 0.637622 0.327419 0.918804
O O5 0.674421 0.953466 0.812934
O O6 0.192795 0.902805 0.599200
O O7 0.314356 0.091881 0.710698
O O8 0.500000 0.000000 0.000000
O O9 0.144261 0.262051 0.602411
O O10 0.108287 0.102184 0.343371
O O11 0.307779 0.594600 0.407460
O O12 0.774871 0.572710 0.144650
O O13 0.000000 0.500000 0.000000
O O14 0.355663 0.409778 0.626560
O O15 0.396076 0.237816 0.424739
#
# Coordination Sequence:
#
# PCOD9010651 Si02
#       7
#     2   2   2   2   2   2   2
#     4   9  22  39  61  89 111 158 199 235 289 348
#     4  11  24  37  57  92 117 150 198 242 287 345
#     4  10  23  39  59  85 115 159 193 239 294 333
#     4  11  23  38  61  91 121 150 189 249 298 341
#     4   8  20  40  59  87 114 158 195 231 288 352
#     4  10  21  40  64  83 116 156 200 237 292 352
#     4   9  20  42  59  80 122 153 196 237 283 343
#
# _framework density 22.921056
#
# number of rings (size 3 to 8) (size 9 to 14) (size 15 to 20)
#    0.857    1.429    0.000    1.286    4.000    4.571 
#    5.143    1.429    0.000    0.000    0.000    0.000 
#    0.000    0.000    0.000    0.000    0.000    0.000 
#
# Total GULP energy -78174.374917 kJ/mol
# GULP energy per Si atom -5583.883923 kJ/mol
# Density = 2.286889 g / cm^3
# Si number density = 22.921056 Si / 1000 Ang^3
#
#
#
# Elastic Constant Matrix: (Units=GPa)
#
#
# Indices 1 2 3 4 5 6 
#
# 1 111.5383 16.8705 26.9646 -16.0838 -0.6048 -23.1477
# 2 16.8705 37.6129 7.5260 -3.4011 -8.9171 0.0753
# 3 26.9646 7.5260 92.9510 -20.8429 5.7713 -9.8102
# 4 -16.0838 -3.4011 -20.8429 30.9692 5.4893 -0.5279
# 5 -0.6048 -8.9171 5.7713 5.4893 46.6168 6.0688
# 6 -23.1477 0.0753 -9.8102 -0.5279 6.0688 37.4268
#
#
#
# Elastic Compliance Matrix: (Units=1/GPa)
#
#
# Indices 1 2 3 4 5 6 
#
# 1 0.012508 -0.005520 -0.000856 0.005898 -0.002526 0.008015
# 2 -0.005520 0.031041 -0.002475 -0.002483 0.007157 -0.005321
# 3 -0.000856 -0.002475 0.013971 0.009431 -0.003831 0.003892
# 4 0.005898 -0.002483 0.009431 0.042921 -0.007658 0.007972
# 5 -0.002526 0.007157 -0.003831 -0.007658 0.025043 -0.006749
# 6 0.008015 -0.005321 0.003892 0.007972 -0.006749 0.033914
#
#
# Mechanical properties :
#
#
# Convention : Reuss Voigt Hill
#
# Bulk Modulus (GPa) = 25.11505 38.31384 31.71445
# Shear Modulus (GPa) = 26.26453 35.71861 30.99157
#
# Velocity S-wave (km/s) = 3.38874 3.95185 3.68108
# Velocity P-wave (km/s) = 5.12761 6.12982 5.65098
#
# Compressibility (1/GPa) = 0.03981676
#
# Stress axis : x y z
#
# Youngs Moduli (GPa) = 79.95145 32.21568 71.57887
#
# Poissons Ratio (x) = 0.17784 0.06129
# Poissons Ratio (y) = 0.44135 0.17713
# Poissons Ratio (z) = 0.06846 0.07972
#
# Static dielectric constant tensor:
#      x y z
#    x 1.849090 0.044460 -0.007130 
#    y 0.044460 1.918200 0.015630 
#    z -0.007130 0.015630 1.861150 
# 
# From -- ./inp_files/137680.got.cif
#   From: 2010.05.17/outbox.cif.g08.bks.cpg/sg2_69_cif.got.tgz:137680.got - 2010.06.03 11:33:40.
