data_PCOD9010404
_publ_section_title
;
Structure prediction by ZEFSAII (Michael W. Deem and Ramdas Pophale) SiO2 
 PCOD9010404
Probable space group: P -1
;
_chemical_formula_sum "Si O2"
_cell_formula_units_Z 16
_cell_length_a 12.071646
_cell_length_b 22.033005
_cell_length_c 6.142736
_cell_angle_alpha 105.667109
_cell_angle_beta 105.235814
_cell_angle_gamma 27.534841
_cell_volume 726.230265
_symmetry_space_group_name_H-M "P -1"
_symmetry_group_IT_number 2
_symmetry_cell_setting 'triclinic'
loop_
_space_group_symop_operation_xyz
x,y,z
-x,-y,-z
loop_
_atom_site_type_symbol
_atom_site_label
_atom_site_fract_x
_atom_site_fract_y
_atom_site_fract_z
Si Si1 0.862492 0.380324 0.075963
Si Si2 0.820729 0.063724 0.162706
Si Si3 0.979026 0.133545 0.637787
Si Si4 0.935549 0.485068 0.151227
Si Si5 0.432634 0.574623 0.334341
Si Si6 0.357828 0.936865 0.287540
Si Si7 0.400865 0.277375 0.490560
Si Si8 0.736734 0.909922 0.924772
O O1 0.914177 0.421124 0.022342
O O2 0.676434 0.482963 0.270766
O O3 0.087449 0.234342 0.149894
O O4 0.717944 0.400587 0.871706
O O5 0.624837 0.186713 0.355361
O O6 0.010529 0.934067 0.281230
O O7 0.644476 0.103818 0.969575
O O8 0.000000 0.000000 0.000000
O O9 0.738250 0.283578 0.590067
O O10 0.110966 0.053260 0.405842
O O11 0.128421 0.108970 0.850642
O O12 0.693174 0.626475 0.285677
O O13 0.163838 0.379327 0.325915
O O14 0.000000 0.500000 0.000000
O O15 0.500000 0.500000 0.500000
O O16 0.534757 0.818053 0.435370
O O17 0.348762 0.012032 0.260524
O O18 0.500000 0.000000 0.000000
#
# Coordination Sequence:
#
# PCOD9010404 Si02
#       8
#     2   2   2   2   2   2   2   2
#     4  10  24  41  64  96 127 171 217 264 328 396
#     4  10  22  40  64  91 128 170 217 273 328 377
#     4   9  21  38  59  94 122 163 211 257 326 387
#     4  11  25  44  66  93 138 178 222 270 329 395
#     4  10  21  42  64  91 132 165 214 268 325 392
#     4  10  21  40  63  89 128 161 209 272 320 384
#     4  10  24  42  63  96 131 173 226 267 325 402
#     4  10  22  38  63  92 125 161 205 267 326 388
#
# _framework density 22.031580999999999
#
# number of rings (size 3 to 8) (size 9 to 14) (size 15 to 20)
#    0.000    2.000    0.000    1.500    7.000    8.500 
#    2.250    0.000    0.000    0.000    0.000    0.000 
#    0.000    0.000    0.000    0.000    0.000    0.000 
#
# Total GULP energy -89145.372718 kJ/mol
# GULP energy per Si atom -5571.585795 kJ/mol
# Density = 2.198144 g / cm^3
# Si number density = 22.031581 Si / 1000 Ang^3
#
#
#
# Elastic Constant Matrix: (Units=GPa)
#
#
# Indices 1 2 3 4 5 6 
#
# 1 93.2330 49.6225 31.1623 1.7192 -33.9018 18.7193
# 2 49.6225 196.0130 64.3531 -4.1804 -24.9861 11.4320
# 3 31.1623 64.3531 87.4341 0.9264 -36.0861 12.2640
# 4 1.7192 -4.1804 0.9264 38.9738 9.6213 -2.5637
# 5 -33.9018 -24.9861 -36.0861 9.6213 43.1929 -4.0369
# 6 18.7193 11.4320 12.2640 -2.5637 -4.0369 28.8638
#
#
#
# Elastic Compliance Matrix: (Units=1/GPa)
#
#
# Indices 1 2 3 4 5 6 
#
# 1 0.020181 -0.003841 0.004762 -0.006622 0.017981 -0.011663
# 2 -0.003841 0.007506 -0.006131 0.002256 -0.004134 0.001745
# 3 0.004762 -0.006131 0.024360 -0.007289 0.021356 -0.008671
# 4 -0.006622 0.002256 -0.007289 0.030822 -0.016196 0.006970
# 5 0.017981 -0.004134 0.021356 -0.016196 0.055125 -0.012827
# 6 -0.011663 0.001745 -0.008671 0.006970 -0.012827 0.044028
#
#
# Mechanical properties :
#
#
# Convention : Reuss Voigt Hill
#
# Bulk Modulus (GPa) = 24.02283 74.10620 49.06452
# Shear Modulus (GPa) = 24.23448 37.64224 30.93836
#
# Velocity S-wave (km/s) = 3.32020 4.13796 3.75143
# Velocity P-wave (km/s) = 5.06220 7.51928 6.40958
#
# Compressibility (1/GPa) = 0.04162706
#
# Stress axis : x y z
#
# Youngs Moduli (GPa) = 49.55195 133.22258 41.05107
#
# Poissons Ratio (x) = 0.51174 -0.19548
# Poissons Ratio (y) = 0.19034 0.25167
# Poissons Ratio (z) = -0.23596 0.81673
#
# Static dielectric constant tensor:
#      x y z
#    x 1.735460 -0.129280 0.096820 
#    y -0.129280 1.658370 0.110430 
#    z 0.096820 0.110430 1.833070 
# 
# From -- ./inp_files/70607.got.cif
#   From: 2010.05.17/outbox.cif.g08.bks.cpg/sg2_36_cif.got.tgz:70607.got - 2010.06.03 11:33:40.
