data_PCOD9010969
_publ_section_title
;
Structure prediction by ZEFSAII (Michael W. Deem and Ramdas Pophale) SiO2 
 PCOD9010969
Probable space group: P -1
;
_chemical_formula_sum "Si O2"
_cell_formula_units_Z 16
_cell_length_a 16.695510
_cell_length_b 10.063375
_cell_length_c 8.232257
_cell_angle_alpha 87.261719
_cell_angle_beta 88.857742
_cell_angle_gamma 144.411261
_cell_volume 799.888471
_symmetry_space_group_name_H-M "P -1"
_symmetry_group_IT_number 2
_symmetry_cell_setting 'triclinic'
loop_
_space_group_symop_operation_xyz
x,y,z
-x,-y,-z
loop_
_atom_site_type_symbol
_atom_site_label
_atom_site_fract_x
_atom_site_fract_y
_atom_site_fract_z
Si Si1 0.345594 0.743514 0.058047
Si Si2 0.517445 0.673076 0.548575
Si Si3 0.299696 0.114001 0.000591
Si Si4 0.615397 0.251156 0.567055
Si Si5 0.394696 0.531037 0.923813
Si Si6 0.116188 0.509008 0.554869
Si Si7 0.182147 0.866935 0.368042
Si Si8 0.145692 0.681119 0.894515
O O1 0.347173 0.736175 0.252082
O O2 0.326224 0.574569 0.982692
O O3 0.239961 0.707019 0.992037
O O4 0.500000 0.000000 0.000000
O O5 0.500000 0.500000 0.500000
O O6 0.447701 0.687420 0.435594
O O7 0.444594 0.598000 0.730956
O O8 0.679850 0.920142 0.548244
O O9 0.460958 0.291070 0.993952
O O10 0.224485 0.965801 0.178470
O O11 0.301825 0.275277 0.972487
O O12 0.223984 0.928379 0.875600
O O13 0.761030 0.431201 0.458381
O O14 0.500000 0.000000 0.500000
O O15 0.146103 0.662620 0.408964
O O16 0.126147 0.596772 0.721801
O O17 0.957592 0.247665 0.563776
O O18 0.000000 0.500000 0.000000
#
# Coordination Sequence:
#
# PCOD9010969 Si02
#       8
#     2   2   2   2   2   2   2   2
#     4  12  25  42  65  97 131 170 224 274 324 386
#     4  11  25  42  67 100 131 173 220 269 329 399
#     4  10  21  40  64  98 127 169 217 269 325 389
#     4  12  25  41  65  98 131 171 219 276 327 385
#     4  10  23  40  68  91 134 172 216 271 332 378
#     4  11  23  40  67  97 134 172 217 274 335 384
#     4  10  22  40  66  95 136 167 216 270 330 387
#     4  12  24  40  69  97 129 173 221 267 326 394
#
# _framework density 20.002787999999999
#
# number of rings (size 3 to 8) (size 9 to 14) (size 15 to 20)
#    0.000    1.000    3.750    3.000    8.750    0.000 
#    0.000    1.250    0.000    0.000    0.000    0.000 
#    0.000    0.000    0.000    0.000    0.000    0.000 
#
# Total GULP energy -89444.887687 kJ/mol
# GULP energy per Si atom -5590.305480 kJ/mol
# Density = 1.995726 g / cm^3
# Si number density = 20.002788 Si / 1000 Ang^3
#
#
#
# Elastic Constant Matrix: (Units=GPa)
#
#
# Indices 1 2 3 4 5 6 
#
# 1 142.7656 65.2300 30.3841 -3.6534 -6.5590 9.6984
# 2 65.2300 92.4898 34.9299 -11.2970 -4.2432 4.2816
# 3 30.3841 34.9299 95.2935 -1.1790 -5.7173 4.0239
# 4 -3.6534 -11.2970 -1.1790 23.8835 -0.2504 -1.0559
# 5 -6.5590 -4.2432 -5.7173 -0.2504 31.3610 -0.2449
# 6 9.6984 4.2816 4.0239 -1.0559 -0.2449 38.8444
#
#
#
# Elastic Compliance Matrix: (Units=1/GPa)
#
#
# Indices 1 2 3 4 5 6 
#
# 1 0.010622 -0.007385 -0.000562 -0.001965 0.001090 -0.001826
# 2 -0.007385 0.018570 -0.004365 0.007461 0.000235 0.000453
# 3 -0.000562 -0.004365 0.012375 -0.001554 0.001530 -0.000693
# 4 -0.001965 0.007461 -0.001554 0.045076 0.000683 0.001059
# 5 0.001090 0.000235 0.001530 0.000683 0.032429 -0.000234
# 6 -0.001826 0.000453 -0.000693 0.001059 -0.000234 0.026249
#
#
# Mechanical properties :
#
#
# Convention : Reuss Voigt Hill
#
# Bulk Modulus (GPa) = 59.01807 65.73743 62.37775
# Shear Modulus (GPa) = 28.47531 32.15145 30.31338
#
# Velocity S-wave (km/s) = 3.77711 4.01352 3.89711
# Velocity P-wave (km/s) = 6.97073 7.37654 7.17650
#
# Compressibility (1/GPa) = 0.01694396
#
# Stress axis : x y z
#
# Youngs Moduli (GPa) = 94.14460 53.85105 80.80941
#
# Poissons Ratio (x) = 0.39767 0.04539
# Poissons Ratio (y) = 0.69522 0.35272
# Poissons Ratio (z) = 0.05288 0.23505
#
# Static dielectric constant tensor:
#      x y z
#    x 1.706230 0.026810 0.007040 
#    y 0.026810 1.711580 -0.056800 
#    z 0.007040 -0.056800 1.715570 
# 
# From -- ./inp_files/298267.got.cif
#   From: 2010.05.17/outbox.cif.g08.bks.cpg/sg2_150_cif.got.tgz:298267.got - 2010.06.03 11:33:40.
