data_PCOD9010975
_publ_section_title
;
Structure prediction by ZEFSAII (Michael W. Deem and Ramdas Pophale) SiO2 
 PCOD9010975
Probable space group: P -1
;
_chemical_formula_sum "Si O2"
_cell_formula_units_Z 13
_cell_length_a 7.508612
_cell_length_b 13.844015
_cell_length_c 8.085615
_cell_angle_alpha 41.744404
_cell_angle_beta 59.168172
_cell_angle_gamma 53.936063
_cell_volume 448.152086
_symmetry_space_group_name_H-M "P -1"
_symmetry_group_IT_number 2
_symmetry_cell_setting 'triclinic'
loop_
_space_group_symop_operation_xyz
x,y,z
-x,-y,-z
loop_
_atom_site_type_symbol
_atom_site_label
_atom_site_fract_x
_atom_site_fract_y
_atom_site_fract_z
Si Si1 0.683579 0.899569 0.909596
Si Si2 0.500000 0.000000 0.500000
Si Si3 0.315943 0.659095 0.662603
Si Si4 0.256324 0.492216 0.241273
Si Si5 0.153066 0.455704 0.813379
Si Si6 0.087015 0.125092 0.587461
Si Si7 0.125714 0.816967 0.027547
O O1 0.617924 0.986507 0.655143
O O2 0.917313 0.873924 0.926717
O O3 0.713061 0.722405 0.069519
O O4 0.500000 0.000000 0.000000
O O5 0.704984 0.823155 0.587567
O O6 0.560299 0.658407 0.574717
O O7 0.301739 0.557618 0.642648
O O8 0.098214 0.812620 0.544346
O O9 0.296372 0.562533 0.955999
O O10 0.019088 0.481223 0.335718
O O11 0.253748 0.638788 0.164703
O O12 0.000000 0.500000 0.000000
O O13 0.957766 0.154196 0.782976
O O14 0.251622 0.937952 0.768683
#
# Coordination Sequence:
#
# PCOD9010975 Si02
#       7
#     2   1   2   2   2   2   2
#     4  11  23  44  69 106 140 183 237 293 352 420
#     4  12  24  40  72  98 138 186 230 284 356 418
#     4  10  21  40  64  98 132 179 237 280 353 431
#     4   9  20  39  65  94 135 178 226 294 353 406
#     4   9  19  39  66  93 141 182 223 294 353 415
#     4  11  24  42  67 102 134 184 237 285 356 423
#     4  10  23  45  66  95 146 176 229 305 343 410
#
# _framework density 29.008008
#
# number of rings (size 3 to 8) (size 9 to 14) (size 15 to 20)
#    0.000    1.846    1.538    2.769    2.154    3.077 
#   11.077    3.077    0.000    0.000    0.000    0.000 
#    0.000    0.000    0.000    0.000    0.000    0.000 
#
# Total GULP energy -72506.206922 kJ/mol
# GULP energy per Si atom -5577.400532 kJ/mol
# Density = 2.894198 g / cm^3
# Si number density = 29.008008 Si / 1000 Ang^3
#
#
#
# Elastic Constant Matrix: (Units=GPa)
#
#
# Indices 1 2 3 4 5 6 
#
# 1 115.1064 32.2593 59.3155 -18.3659 57.8671 -14.3579
# 2 32.2593 143.2772 69.3596 -9.6472 8.9340 -14.5754
# 3 59.3155 69.3596 149.1938 5.0922 41.1513 -15.6947
# 4 -18.3659 -9.6472 5.0922 72.6928 -0.9641 8.1709
# 5 57.8671 8.9340 41.1513 -0.9641 60.9306 -17.3983
# 6 -14.3579 -14.5754 -15.6947 8.1709 -17.3983 42.3186
#
#
#
# Elastic Compliance Matrix: (Units=1/GPa)
#
#
# Indices 1 2 3 4 5 6 
#
# 1 0.019902 -0.002127 -0.002550 0.005047 -0.017694 -0.003175
# 2 -0.002127 0.009773 -0.004700 0.000858 0.004515 0.002592
# 3 -0.002550 -0.004700 0.011224 -0.002144 -0.004426 0.000273
# 4 0.005047 0.000858 -0.002144 0.015638 -0.004237 -0.003549
# 5 -0.017694 0.004515 -0.004426 -0.004237 0.038490 0.010553
# 6 -0.003175 0.002592 0.000273 -0.003549 0.010553 0.028571
#
#
# Mechanical properties :
#
#
# Convention : Reuss Voigt Hill
#
# Bulk Modulus (GPa) = 45.15239 81.04957 63.10098
# Shear Modulus (GPa) = 33.39260 51.63126 42.51193
#
# Velocity S-wave (km/s) = 3.39654 4.22346 3.83237
# Velocity P-wave (km/s) = 5.56608 7.19615 6.43296
#
# Compressibility (1/GPa) = 0.02214722
#
# Stress axis : x y z
#
# Youngs Moduli (GPa) = 50.24582 102.31802 89.09483
#
# Poissons Ratio (x) = 0.21759 0.22716
# Poissons Ratio (y) = 0.10685 0.41875
# Poissons Ratio (z) = 0.12811 0.48089
#
# Static dielectric constant tensor:
#      x y z
#    x 2.671300 -0.271160 -0.271640 
#    y -0.271160 2.582270 0.052530 
#    z -0.271640 0.052530 2.334520 
# 
# From -- ./inp_files/195136.got.cif
#   From: 2010.05.17/outbox.cif.g08.bks.cpg/sg2_98_cif.got.tgz:195136.got - 2010.06.03 11:33:40.
