data_PCOD9010195
_publ_section_title
;
Structure prediction by ZEFSAII (Michael W. Deem and Ramdas Pophale) SiO2 
 PCOD9010195
Probable space group: P -1
;
_chemical_formula_sum "Si O2"
_cell_formula_units_Z 14
_cell_length_a 11.278341
_cell_length_b 7.841440
_cell_length_c 11.022955
_cell_angle_alpha 56.001498
_cell_angle_beta 66.188606
_cell_angle_gamma 108.581756
_cell_volume 514.842031
_symmetry_space_group_name_H-M "P -1"
_symmetry_group_IT_number 2
_symmetry_cell_setting 'triclinic'
loop_
_space_group_symop_operation_xyz
x,y,z
-x,-y,-z
loop_
_atom_site_type_symbol
_atom_site_label
_atom_site_fract_x
_atom_site_fract_y
_atom_site_fract_z
Si Si1 0.794261 0.852719 0.163015
Si Si2 0.286132 0.677908 0.863205
Si Si3 0.064294 0.714141 0.499930
Si Si4 0.330788 0.249481 0.006196
Si Si5 0.351276 0.711033 0.438390
Si Si6 0.848164 0.134505 0.287373
Si Si7 0.276023 0.423327 0.320328
O O1 0.734180 0.891154 0.046799
O O2 0.665736 0.509734 0.382410
O O3 0.810971 0.003002 0.218545
O O4 0.000000 0.000000 0.000000
O O5 0.339983 0.503974 0.891417
O O6 0.276192 0.802425 0.694777
O O7 0.446447 0.959491 0.766306
O O8 0.067869 0.429914 0.090372
O O9 0.191449 0.702742 0.527680
O O10 0.000000 0.500000 0.500000
O O11 0.881874 0.621839 0.659827
O O12 0.188350 0.027142 0.257815
O O13 0.527274 0.372252 0.906812
O O14 0.314489 0.577740 0.372090
O O15 0.791146 0.884837 0.498971
#
# Coordination Sequence:
#
# PCOD9010195 Si02
#       7
#     2   2   2   2   2   2   2
#     4  11  20  40  64  97 121 167 214 260 298 378
#     4  11  22  39  60  97 127 168 197 265 325 369
#     4  10  22  44  65  90 127 170 209 259 306 376
#     4  12  23  39  70  94 126 161 218 258 311 369
#     4  10  23  40  65  91 129 167 209 254 323 368
#     4  10  21  40  62  90 135 164 202 257 325 367
#     4  10  21  42  66  90 122 171 215 253 301 380
#
# _framework density 27.192810000000001
#
# number of rings (size 3 to 8) (size 9 to 14) (size 15 to 20)
#    0.000    1.429    2.857    3.429    0.000    7.429 
#    0.000    2.143    0.000    0.000    0.000    0.000 
#    0.000    0.000    0.000    0.000    0.000    0.000 
#
# Total GULP energy -78565.691712 kJ/mol
# GULP energy per Si atom -5611.835122 kJ/mol
# Density = 2.713092 g / cm^3
# Si number density = 27.192810 Si / 1000 Ang^3
#
#
#
# Elastic Constant Matrix: (Units=GPa)
#
#
# Indices 1 2 3 4 5 6 
#
# 1 186.6994 54.3591 62.1935 8.4732 -21.5032 -4.2573
# 2 54.3591 80.9071 40.7655 -16.3422 14.8296 7.9666
# 3 62.1935 40.7655 99.4925 -25.5897 -28.4403 8.7425
# 4 8.4732 -16.3422 -25.5897 40.5276 -0.6376 -0.9830
# 5 -21.5032 14.8296 -28.4403 -0.6376 55.9709 12.4394
# 6 -4.2573 7.9666 8.7425 -0.9830 12.4394 54.7612
#
#
#
# Elastic Compliance Matrix: (Units=1/GPa)
#
#
# Indices 1 2 3 4 5 6 
#
# 1 0.009279 -0.005874 -0.004765 -0.007241 0.002240 0.001698
# 2 -0.005874 0.024045 -0.008580 0.005313 -0.013031 0.000471
# 3 -0.004765 -0.008580 0.024588 0.013141 0.014440 -0.006092
# 4 -0.007241 0.005313 0.013141 0.036599 0.003709 -0.003619
# 5 0.002240 -0.013031 0.014440 0.003709 0.031171 -0.007250
# 6 0.001698 0.000471 -0.006092 -0.003619 -0.007250 0.020879
#
#
# Mechanical properties :
#
#
# Convention : Reuss Voigt Hill
#
# Bulk Modulus (GPa) = 51.34975 75.74837 63.54906
# Shear Modulus (GPa) = 26.11116 44.23733 35.17424
#
# Velocity S-wave (km/s) = 3.10211 4.03774 3.60045
# Velocity P-wave (km/s) = 5.63519 7.04658 6.38003
#
# Compressibility (1/GPa) = 0.01947429
#
# Stress axis : x y z
#
# Youngs Moduli (GPa) = 107.76996 41.58918 40.67010
#
# Poissons Ratio (x) = 0.24429 0.19378
# Poissons Ratio (y) = 0.63302 0.34895
# Poissons Ratio (z) = 0.51350 0.35684
#
# Static dielectric constant tensor:
#      x y z
#    x 2.075420 0.004020 0.052110 
#    y 0.004020 2.230430 0.016460 
#    z 0.052110 0.016460 2.114450 
# 
# From -- ./inp_files/258050.got.cif
#   From: 2010.05.17/outbox.cif.g08.bks.cpg/sg2_130_cif.got.tgz:258050.got - 2010.06.03 11:33:40.
