data_PCOD9010967
_publ_section_title
;
Structure prediction by ZEFSAII (Michael W. Deem and Ramdas Pophale) SiO2 
 PCOD9010967
Probable space group: P -1
;
_chemical_formula_sum "Si O2"
_cell_formula_units_Z 16
_cell_length_a 7.005009
_cell_length_b 20.082496
_cell_length_c 8.357461
_cell_angle_alpha 138.063873
_cell_angle_beta 124.129023
_cell_angle_gamma 61.410185
_cell_volume 646.420265
_symmetry_space_group_name_H-M "P -1"
_symmetry_group_IT_number 2
_symmetry_cell_setting 'triclinic'
loop_
_space_group_symop_operation_xyz
x,y,z
-x,-y,-z
loop_
_atom_site_type_symbol
_atom_site_label
_atom_site_fract_x
_atom_site_fract_y
_atom_site_fract_z
Si Si1 0.308907 0.758861 0.072594
Si Si2 0.556404 0.592323 0.085453
Si Si3 0.046017 0.300762 0.438250
Si Si4 0.552006 0.931703 0.648165
Si Si5 0.006969 0.159490 0.470520
Si Si6 0.753495 0.515298 0.709173
Si Si7 0.524939 0.866804 0.867421
Si Si8 0.259378 0.275809 0.034748
O O1 0.343014 0.662938 0.034270
O O2 0.369467 0.860713 0.366191
O O3 0.523277 0.736851 0.009259
O O4 0.073352 0.759107 0.863436
O O5 0.693552 0.670187 0.386313
O O6 0.500000 0.500000 0.000000
O O7 0.719698 0.547874 0.936360
O O8 0.903018 0.410506 0.569109
O O9 0.014622 0.245056 0.491538
O O10 0.780249 0.922677 0.627550
O O11 0.630363 0.890143 0.787235
O O12 0.446168 0.044292 0.833900
O O13 0.071984 0.207969 0.754880
O O14 0.750908 0.127920 0.285658
O O15 0.500000 0.500000 0.500000
O O16 0.834024 0.607580 0.811471
O O17 0.628472 0.766803 0.825724
#
# Coordination Sequence:
#
# PCOD9010967 Si02
#       8
#     2   2   2   2   2   2   2   2
#     4  10  21  43  61  92 135 169 218 273 318 394
#     4  11  24  40  60  94 132 170 218 268 322 379
#     4  12  21  42  68  89 134 177 213 260 331 378
#     4  10  24  46  67 101 136 161 226 276 325 406
#     4  11  22  43  67 100 131 176 217 266 330 398
#     4  11  20  40  64  90 127 171 219 264 306 393
#     4  11  23  46  71  96 131 177 209 280 345 377
#     4  10  21  40  64  98 127 166 231 262 322 397
#
# _framework density 24.751698999999999
#
# number of rings (size 3 to 8) (size 9 to 14) (size 15 to 20)
#    0.000    1.250    7.500    0.750    0.000    4.500 
#    4.500    1.250    0.000    0.000    0.000    0.000 
#    0.000    0.000    0.000    0.000    0.000    0.000 
#
# Total GULP energy -89635.617911 kJ/mol
# GULP energy per Si atom -5602.226119 kJ/mol
# Density = 2.469536 g / cm^3
# Si number density = 24.751699 Si / 1000 Ang^3
#
#
#
# Elastic Constant Matrix: (Units=GPa)
#
#
# Indices 1 2 3 4 5 6 
#
# 1 68.2090 4.0818 23.2832 -4.3157 5.6036 2.8235
# 2 4.0818 68.4739 17.3131 -14.7294 -5.3934 14.7076
# 3 23.2832 17.3131 149.6948 -18.7581 1.1527 -4.1656
# 4 -4.3157 -14.7294 -18.7581 40.8970 -8.5776 3.8859
# 5 5.6036 -5.3934 1.1527 -8.5776 40.1706 3.8884
# 6 2.8235 14.7076 -4.1656 3.8859 3.8884 20.0346
#
#
#
# Elastic Compliance Matrix: (Units=1/GPa)
#
#
# Indices 1 2 3 4 5 6 
#
# 1 0.015778 0.000231 -0.002479 0.000501 -0.001733 -0.002669
# 2 0.000231 0.022272 -0.001901 0.010616 0.007239 -0.020242
# 3 -0.002479 -0.001901 0.007654 0.002310 0.000086 0.002871
# 4 0.000501 0.010616 0.002310 0.032942 0.009841 -0.015683
# 5 -0.001733 0.007239 0.000086 0.009841 0.029433 -0.012673
# 6 -0.002669 -0.020242 0.002871 -0.015683 -0.012673 0.071248
#
#
# Mechanical properties :
#
#
# Convention : Reuss Voigt Hill
#
# Bulk Modulus (GPa) = 26.73273 41.74821 34.24047
# Shear Modulus (GPa) = 24.98824 36.33375 30.66100
#
# Velocity S-wave (km/s) = 3.18080 3.83551 3.52340
# Velocity P-wave (km/s) = 4.93090 6.04304 5.51507
#
# Compressibility (1/GPa) = 0.03740732
#
# Stress axis : x y z
#
# Youngs Moduli (GPa) = 63.38029 44.89843 130.64499
#
# Poissons Ratio (x) = -0.01036 0.32385
# Poissons Ratio (y) = -0.01463 0.24831
# Poissons Ratio (z) = 0.15711 0.08533
#
# Static dielectric constant tensor:
#      x y z
#    x 2.008870 0.002980 -0.075330 
#    y 0.002980 2.033900 -0.039460 
#    z -0.075330 -0.039460 2.003510 
# 
# From -- ./inp_files/222694.got.cif
#   From: 2010.05.17/outbox.cif.g08.bks.cpg/sg2_112_cif.got.tgz:222694.got - 2010.06.03 11:33:40.
