data_PCOD9010960
_publ_section_title
;
Structure prediction by ZEFSAII (Michael W. Deem and Ramdas Pophale) SiO2 
 PCOD9010960
Probable space group: P -1
;
_chemical_formula_sum "Si O2"
_cell_formula_units_Z 16
_cell_length_a 11.414426
_cell_length_b 20.547876
_cell_length_c 8.293413
_cell_angle_alpha 105.212011
_cell_angle_beta 81.010561
_cell_angle_gamma 31.202465
_cell_volume 630.269882
_symmetry_space_group_name_H-M "P -1"
_symmetry_group_IT_number 2
_symmetry_cell_setting 'triclinic'
loop_
_space_group_symop_operation_xyz
x,y,z
-x,-y,-z
loop_
_atom_site_type_symbol
_atom_site_label
_atom_site_fract_x
_atom_site_fract_y
_atom_site_fract_z
Si Si1 0.355929 0.642613 0.524331
Si Si2 0.110187 0.678160 0.348098
Si Si3 0.979212 0.713433 0.041224
Si Si4 0.565967 0.327637 0.179878
Si Si5 0.356953 0.333394 0.980510
Si Si6 0.382229 0.212427 0.670908
Si Si7 0.442657 0.949011 0.779112
Si Si8 0.095398 0.378465 0.316546
O O1 0.500000 0.500000 0.500000
O O2 0.112542 0.743260 0.500466
O O3 0.194677 0.776114 0.788378
O O4 0.675607 0.501556 0.255026
O O5 0.452960 0.450949 0.174113
O O6 0.082640 0.695864 0.173248
O O7 0.786983 0.805998 0.557013
O O8 0.675587 0.823936 0.232835
O O9 0.836554 0.842717 0.025387
O O10 0.589940 0.250841 0.003800
O O11 0.226631 0.493111 0.471167
O O12 0.175668 0.363526 0.115054
O O13 0.020751 0.557832 0.150654
O O14 0.527761 0.204202 0.709231
O O15 0.612303 0.071410 0.373721
O O16 0.565723 0.841072 0.834757
O O17 0.000000 0.500000 0.500000
#
# Coordination Sequence:
#
# PCOD9010960 Si02
#       8
#     2   2   2   2   2   2   2   2
#     4  10  21  34  53  78 112 150 191 218 266 329
#     4   9  17  34  53  78 113 144 183 221 266 326
#     4  11  20  35  54  84 118 141 173 232 286 325
#     4   9  16  31  48  75 107 139 181 229 259 305
#     4  10  17  29  52  76 113 139 183 226 264 315
#     4  10  18  30  51  83 112 141 175 221 284 319
#     4  10  19  34  56  84 119 138 171 230 287 325
#     4   9  15  30  50  77 112 140 177 221 269 316
#
# _framework density 25.385950999999999
#
# number of rings (size 3 to 8) (size 9 to 14) (size 15 to 20)
#    0.000    2.250    5.000    2.625    0.000    0.000 
#    0.000   12.500    0.000    0.000    0.000   46.375 
#    0.000    0.000    0.000    0.000    0.000    0.000 
#
# Total GULP energy -89192.726584 kJ/mol
# GULP energy per Si atom -5574.545411 kJ/mol
# Density = 2.532817 g / cm^3
# Si number density = 25.385951 Si / 1000 Ang^3
#
#
#
# Elastic Constant Matrix: (Units=GPa)
#
#
# Indices 1 2 3 4 5 6 
#
# 1 73.2647 24.0114 19.7610 -14.5090 25.4347 -12.0374
# 2 24.0114 77.2335 2.7142 -0.5601 6.5038 15.7963
# 3 19.7610 2.7142 60.4706 -11.8039 23.0589 -12.8338
# 4 -14.5090 -0.5601 -11.8039 20.3476 -11.7410 14.4046
# 5 25.4347 6.5038 23.0589 -11.7410 49.3948 -24.9637
# 6 -12.0374 15.7963 -12.8338 14.4046 -24.9637 44.9459
#
#
#
# Elastic Compliance Matrix: (Units=1/GPa)
#
#
# Indices 1 2 3 4 5 6 
#
# 1 0.020107 -0.005660 -0.002063 0.009086 -0.006296 0.000377
# 2 -0.005660 0.017210 0.000977 0.001685 -0.004674 -0.010422
# 3 -0.002063 0.000977 0.021361 0.007464 -0.008124 -0.001700
# 4 0.009086 0.001685 0.007464 0.073709 -0.001106 -0.020265
# 5 -0.006296 -0.004674 -0.008124 -0.001106 0.037004 0.018544
# 6 0.000377 -0.010422 -0.001700 -0.020265 0.018544 0.042321
#
#
# Mechanical properties :
#
#
# Convention : Reuss Voigt Hill
#
# Bulk Modulus (GPa) = 22.13027 33.77133 27.95080
# Shear Modulus (GPa) = 20.81028 33.90314 27.35671
#
# Velocity S-wave (km/s) = 2.86624 3.65842 3.28629
# Velocity P-wave (km/s) = 4.43737 5.58368 5.04320
#
# Compressibility (1/GPa) = 0.04518698
#
# Stress axis : x y z
#
# Youngs Moduli (GPa) = 49.73355 58.10461 46.81436
#
# Poissons Ratio (x) = 0.32886 0.09656
# Poissons Ratio (y) = 0.28148 -0.04572
# Poissons Ratio (z) = 0.10258 -0.05674
#
# Static dielectric constant tensor:
#      x y z
#    x 2.167690 -0.073410 0.107730 
#    y -0.073410 2.022620 -0.037980 
#    z 0.107730 -0.037980 2.343970 
# 
# From -- ./inp_files/282101.got.cif
#   From: 2010.05.17/outbox.cif.g08.bks.cpg/sg2_142_cif.got.tgz:282101.got - 2010.06.03 11:33:40.
