data_PCOD9010453
_publ_section_title
;
Structure prediction by ZEFSAII (Michael W. Deem and Ramdas Pophale) SiO2 
 PCOD9010453
Probable space group: P -1
;
_chemical_formula_sum "Si O2"
_cell_formula_units_Z 12
_cell_length_a 14.813340
_cell_length_b 8.865949
_cell_length_c 9.369490
_cell_angle_alpha 117.272725
_cell_angle_beta 58.105215
_cell_angle_gamma 149.509012
_cell_volume 530.096335
_symmetry_space_group_name_H-M "P -1"
_symmetry_group_IT_number 2
_symmetry_cell_setting 'triclinic'
loop_
_space_group_symop_operation_xyz
x,y,z
-x,-y,-z
loop_
_atom_site_type_symbol
_atom_site_label
_atom_site_fract_x
_atom_site_fract_y
_atom_site_fract_z
Si Si1 0.178129 0.156613 0.008113
Si Si2 0.825346 0.349568 0.500191
Si Si3 0.959819 0.370579 0.129974
Si Si4 0.177271 0.269631 0.369076
Si Si5 0.662796 0.341040 0.052708
Si Si6 0.538957 0.355751 0.449578
O O1 0.160053 0.132769 0.183397
O O2 0.340674 0.494980 0.970849
O O3 0.191627 0.977967 0.880395
O O4 0.000000 0.000000 0.000000
O O5 0.886094 0.419001 0.314960
O O6 0.810045 0.526489 0.622135
O O7 0.000000 0.500000 0.500000
O O8 0.646107 0.000544 0.530466
O O9 0.000000 0.500000 0.000000
O O10 0.151956 0.526378 0.074804
O O11 0.349698 0.484840 0.426296
O O12 0.000000 0.000000 0.500000
O O13 0.650395 0.401430 0.250009
O O14 0.500000 0.000000 0.000000
O O15 0.500000 0.500000 0.500000
#
# Coordination Sequence:
#
# PCOD9010453 Si02
#       6
#     2   2   2   2   2   2
#     4  10  21  40  63  91 126 170 213 262 324 391
#     4  12  24  43  68  98 132 174 220 273 331 395
#     4  11  23  41  64  93 127 166 212 265 324 389
#     4  12  24  42  68  99 135 177 220 275 335 394
#     4  11  23  43  66  92 128 171 215 269 326 386
#     4  12  26  45  67  99 135 176 226 276 328 395
#
# _framework density 22.637395999999999
#
# number of rings (size 3 to 8) (size 9 to 14) (size 15 to 20)
#    0.000    0.667    0.000   10.500    0.000    2.667 
#    0.000    2.500    0.000    0.000    0.000    0.000 
#    0.000    0.000    0.000    0.000    0.000    0.000 
#
# Total GULP energy -67075.903810 kJ/mol
# GULP energy per Si atom -5589.658651 kJ/mol
# Density = 2.258587 g / cm^3
# Si number density = 22.637396 Si / 1000 Ang^3
#
#
#
# Elastic Constant Matrix: (Units=GPa)
#
#
# Indices 1 2 3 4 5 6 
#
# 1 73.3518 19.5003 -25.2199 10.4715 11.6575 -5.3815
# 2 19.5003 133.9960 -18.7525 -0.0185 4.1261 -8.5376
# 3 -25.2199 -18.7525 88.3896 -3.3201 9.6206 12.7893
# 4 10.4715 -0.0185 -3.3201 37.3112 -7.3801 3.3342
# 5 11.6575 4.1261 9.6206 -7.3801 41.1866 3.5297
# 6 -5.3815 -8.5376 12.7893 3.3342 3.5297 34.5140
#
#
#
# Elastic Compliance Matrix: (Units=1/GPa)
#
#
# Indices 1 2 3 4 5 6 
#
# 1 0.018011 -0.001558 0.005107 -0.006237 -0.007414 0.001891
# 2 -0.001558 0.007955 0.001133 0.000286 -0.000685 0.001347
# 3 0.005107 0.001133 0.014005 -0.000792 -0.004667 -0.003559
# 4 -0.006237 0.000286 -0.000792 0.030400 0.007740 -0.004337
# 5 -0.007414 -0.000685 -0.004667 0.007740 0.029210 -0.003331
# 6 0.001891 0.001347 -0.003559 -0.004337 -0.003331 0.031680
#
#
# Mechanical properties :
#
#
# Convention : Reuss Voigt Hill
#
# Bulk Modulus (GPa) = 20.26939 27.42147 23.84543
# Shear Modulus (GPa) = 36.14273 43.94965 40.04619
#
# Velocity S-wave (km/s) = 4.00008 4.41098 4.21054
# Velocity P-wave (km/s) = 5.50523 6.17106 5.84763
#
# Compressibility (1/GPa) = 0.04933548
#
# Stress axis : x y z
#
# Youngs Moduli (GPa) = 55.52287 125.70244 71.40555
#
# Poissons Ratio (x) = 0.19589 -0.36470
# Poissons Ratio (y) = 0.08653 -0.08094
# Poissons Ratio (z) = -0.28358 -0.14248
#
# Static dielectric constant tensor:
#      x y z
#    x 1.792280 -0.006990 0.046980 
#    y -0.006990 1.829210 -0.032490 
#    z 0.046980 -0.032490 1.846970 
# 
# From -- ./inp_files/148830.got.cif
#   From: 2010.05.17/outbox.cif.g08.bks.cpg/sg2_75_cif.got.tgz:148830.got - 2010.06.03 11:33:40.
