data_PCOD9010565
_publ_section_title
;
Structure prediction by ZEFSAII (Michael W. Deem and Ramdas Pophale) SiO2 
 PCOD9010565
Probable space group: P -1
;
_chemical_formula_sum "Si O2"
_cell_formula_units_Z 14
_cell_length_a 11.018782
_cell_length_b 9.819698
_cell_length_c 7.409768
_cell_angle_alpha 114.947603
_cell_angle_beta 125.088145
_cell_angle_gamma 89.812201
_cell_volume 563.071787
_symmetry_space_group_name_H-M "P -1"
_symmetry_group_IT_number 2
_symmetry_cell_setting 'triclinic'
loop_
_space_group_symop_operation_xyz
x,y,z
-x,-y,-z
loop_
_atom_site_type_symbol
_atom_site_label
_atom_site_fract_x
_atom_site_fract_y
_atom_site_fract_z
Si Si1 0.559735 0.291453 0.485293
Si Si2 0.664163 0.577486 0.449566
Si Si3 0.864907 0.011199 0.637003
Si Si4 0.772709 0.350836 0.235966
Si Si5 0.510061 0.958284 0.273778
Si Si6 0.892971 0.336015 0.735582
Si Si7 0.002565 0.208802 0.192858
O O1 0.589993 0.428016 0.436165
O O2 0.457972 0.327498 0.580142
O O3 0.488432 0.114453 0.248048
O O4 0.732759 0.297058 0.693740
O O5 0.708622 0.501028 0.263084
O O6 0.833609 0.700413 0.716427
O O7 0.684651 0.949502 0.387654
O O8 0.945549 0.180230 0.704569
O O9 0.948201 0.877253 0.641642
O O10 0.883681 0.071187 0.895399
O O11 0.839299 0.349136 0.494023
O O12 0.915367 0.335035 0.231475
O O13 0.625842 0.196401 0.987513
O O14 0.500000 0.000000 0.500000
O O15 0.000000 0.500000 0.000000
#
# Coordination Sequence:
#
# PCOD9010565 Si02
#       7
#     2   2   2   2   2   2   2
#     4   9  21  39  67  91 128 175 215 263 333 383
#     4  10  21  40  63  95 129 172 219 268 320 394
#     4  10  22  38  67  95 134 176 221 262 335 386
#     4  11  24  41  70  99 131 174 219 274 333 382
#     4  11  21  42  66  96 132 173 218 275 327 398
#     4  10  22  44  67  98 133 175 218 274 327 398
#     4  11  22  41  67 100 130 177 216 277 325 390
#
# _framework density 24.863614999999999
#
# number of rings (size 3 to 8) (size 9 to 14) (size 15 to 20)
#    0.000    1.714    1.429    3.000    2.000    5.714 
#    2.571    1.429    0.000    0.000    0.000    0.000 
#    0.000    0.000    0.000    0.000    0.000    0.000 
#
# Total GULP energy -78164.619279 kJ/mol
# GULP energy per Si atom -5583.187091 kJ/mol
# Density = 2.480702 g / cm^3
# Si number density = 24.863615 Si / 1000 Ang^3
#
#
#
# Elastic Constant Matrix: (Units=GPa)
#
#
# Indices 1 2 3 4 5 6 
#
# 1 108.1229 16.5588 29.2215 6.6216 6.7072 -26.7398
# 2 16.5588 97.6487 32.8076 13.8056 2.1091 -7.1251
# 3 29.2215 32.8076 145.7990 15.7798 19.9270 8.2551
# 4 6.6216 13.8056 15.7798 34.7207 9.1501 0.3546
# 5 6.7072 2.1091 19.9270 9.1501 27.4555 8.3422
# 6 -26.7398 -7.1251 8.2551 0.3546 8.3422 37.0370
#
#
#
# Elastic Compliance Matrix: (Units=1/GPa)
#
#
# Indices 1 2 3 4 5 6 
#
# 1 0.012964 -0.000468 -0.002470 -0.000057 -0.004619 0.010862
# 2 -0.000468 0.011837 -0.002494 -0.003948 0.001676 0.002156
# 3 -0.002470 -0.002494 0.008820 -0.001423 -0.004134 -0.003284
# 4 -0.000057 -0.003948 -0.001423 0.033743 -0.010360 0.001527
# 5 -0.004619 0.001676 -0.004134 -0.010360 0.047749 -0.012747
# 6 0.010862 0.002156 -0.003284 0.001527 -0.012747 0.038845
#
#
# Mechanical properties :
#
#
# Convention : Reuss Voigt Hill
#
# Bulk Modulus (GPa) = 43.94193 56.52737 50.23465
# Shear Modulus (GPa) = 29.00096 38.04147 33.52122
#
# Velocity S-wave (km/s) = 3.41897 3.91577 3.67577
# Velocity P-wave (km/s) = 5.77038 6.57485 6.18571
#
# Compressibility (1/GPa) = 0.02275731
#
# Stress axis : x y z
#
# Youngs Moduli (GPa) = 77.13493 84.47972 113.37867
#
# Poissons Ratio (x) = 0.03954 0.28010
# Poissons Ratio (y) = 0.03610 0.28272
# Poissons Ratio (z) = 0.19056 0.21066
#
# Static dielectric constant tensor:
#      x y z
#    x 2.061010 0.006300 -0.048290 
#    y 0.006300 2.108640 0.001960 
#    z -0.048290 0.001960 1.954160 
# 
# From -- ./inp_files/260803.got.cif
#   From: 2010.05.17/outbox.cif.g08.bks.cpg/sg2_131_cif.got.tgz:260803.got - 2010.06.03 11:33:40.
