data_PCOD9010984
_publ_section_title
;
Structure prediction by ZEFSAII (Michael W. Deem and Ramdas Pophale) SiO2 
 PCOD9010984
Probable space group: P -1
;
_chemical_formula_sum "Si O2"
_cell_formula_units_Z 16
_cell_length_a 11.206300
_cell_length_b 10.210052
_cell_length_c 7.963450
_cell_angle_alpha 114.194170
_cell_angle_beta 128.545902
_cell_angle_gamma 67.320374
_cell_volume 639.109640
_symmetry_space_group_name_H-M "P -1"
_symmetry_group_IT_number 2
_symmetry_cell_setting 'triclinic'
loop_
_space_group_symop_operation_xyz
x,y,z
-x,-y,-z
loop_
_atom_site_type_symbol
_atom_site_label
_atom_site_fract_x
_atom_site_fract_y
_atom_site_fract_z
Si Si1 0.133582 0.246397 0.634072
Si Si2 0.575704 0.317605 0.297989
Si Si3 0.377610 0.910377 0.275551
Si Si4 0.927155 0.010983 0.759852
Si Si5 0.995793 0.312521 0.880458
Si Si6 0.729897 0.549511 0.699581
Si Si7 0.426048 0.356519 0.841159
Si Si8 0.326645 0.981139 0.877135
O O1 0.246925 0.334187 0.675233
O O2 0.030843 0.346873 0.734045
O O3 0.046183 0.147202 0.386899
O O4 0.228861 0.121010 0.772809
O O5 0.668417 0.453188 0.448819
O O6 0.432486 0.359895 0.324453
O O7 0.696547 0.165175 0.320790
O O8 0.482288 0.292459 0.037528
O O9 0.250777 0.934764 0.320633
O O10 0.471534 0.746392 0.256512
O O11 0.500000 0.000000 0.500000
O O12 0.313554 0.962549 0.058994
O O13 0.983822 0.144579 0.791009
O O14 0.000000 0.000000 0.000000
O O15 0.830538 0.417419 0.831924
O O16 0.140058 0.347473 0.137367
O O17 0.500000 0.500000 0.000000
O O18 0.500000 0.000000 0.000000
#
# Coordination Sequence:
#
# PCOD9010984 Si02
#       8
#     2   2   2   2   2   2   2   2
#     4  12  23  46  67 100 136 185 230 287 345 412
#     4  10  21  40  64  99 127 173 225 283 333 401
#     4  11  23  44  69 103 135 180 229 287 344 401
#     4  12  27  43  66 103 137 181 227 285 351 411
#     4  11  24  43  69  95 139 183 222 278 343 421
#     4  10  22  40  66  96 130 172 231 276 333 401
#     4  11  24  41  66  98 138 177 222 284 355 398
#     4  11  19  39  70  99 133 171 227 284 342 397
#
# _framework density 25.034825999999999
#
# number of rings (size 3 to 8) (size 9 to 14) (size 15 to 20)
#    0.000    1.000    5.000    1.875    1.750    3.000 
#    4.500    0.000    0.000    6.000    0.000    0.000 
#    0.000    0.000    0.000    0.000    0.000    0.000 
#
# Total GULP energy -89248.058237 kJ/mol
# GULP energy per Si atom -5578.003640 kJ/mol
# Density = 2.497785 g / cm^3
# Si number density = 25.034826 Si / 1000 Ang^3
#
#
#
# Elastic Constant Matrix: (Units=GPa)
#
#
# Indices 1 2 3 4 5 6 
#
# 1 92.5034 20.9399 17.6628 13.0498 9.4107 -4.3615
# 2 20.9399 79.2201 21.0140 38.0027 6.1318 3.4308
# 3 17.6628 21.0140 148.7500 29.8663 9.2149 -0.9030
# 4 13.0498 38.0027 29.8663 53.4060 6.5223 0.3007
# 5 9.4107 6.1318 9.2149 6.5223 40.8633 9.1292
# 6 -4.3615 3.4308 -0.9030 0.3007 9.1292 28.8132
#
#
#
# Elastic Compliance Matrix: (Units=1/GPa)
#
#
# Indices 1 2 3 4 5 6 
#
# 1 0.012053 -0.002802 -0.000808 -0.000172 -0.002822 0.003029
# 2 -0.002802 0.019952 0.000216 -0.013667 0.000405 -0.002779
# 3 -0.000808 0.000216 0.007684 -0.004131 -0.001023 0.000460
# 4 -0.000172 -0.013667 -0.004131 0.031080 -0.002362 0.001896
# 5 -0.002822 0.000405 -0.001023 -0.002362 0.027740 -0.009272
# 6 0.003029 -0.002779 0.000460 0.001896 -0.009272 0.038428
#
#
# Mechanical properties :
#
#
# Convention : Reuss Voigt Hill
#
# Bulk Modulus (GPa) = 30.39311 48.85632 39.62472
# Shear Modulus (GPa) = 32.32270 42.00697 37.16483
#
# Velocity S-wave (km/s) = 3.59710 4.10071 3.85713
# Velocity P-wave (km/s) = 5.42391 6.47911 5.97485
#
# Compressibility (1/GPa) = 0.03290219
#
# Stress axis : x y z
#
# Youngs Moduli (GPa) = 82.96628 50.12121 130.14669
#
# Poissons Ratio (x) = 0.14043 0.10510
# Poissons Ratio (y) = 0.23246 -0.02815
# Poissons Ratio (z) = 0.06700 -0.01084
#
# Static dielectric constant tensor:
#      x y z
#    x 2.986860 -0.484330 0.468220 
#    y -0.484330 2.418830 -0.233100 
#    z 0.468220 -0.233100 2.187560 
# 
# From -- ./inp_files/260380.got.cif
#   From: 2010.05.17/outbox.cif.g08.bks.cpg/sg2_131_cif.got.tgz:260380.got - 2010.06.03 11:33:40.
