data_PCOD9010438
_publ_section_title
;
Structure prediction by ZEFSAII (Michael W. Deem and Ramdas Pophale) SiO2 
 PCOD9010438
Probable space group: P -1
;
_chemical_formula_sum "Si O2"
_cell_formula_units_Z 16
_cell_length_a 12.747737
_cell_length_b 5.064614
_cell_length_c 11.794522
_cell_angle_alpha 104.256497
_cell_angle_beta 97.281319
_cell_angle_gamma 104.052348
_cell_volume 701.712543
_symmetry_space_group_name_H-M "P -1"
_symmetry_group_IT_number 2
_symmetry_cell_setting 'triclinic'
loop_
_space_group_symop_operation_xyz
x,y,z
-x,-y,-z
loop_
_atom_site_type_symbol
_atom_site_label
_atom_site_fract_x
_atom_site_fract_y
_atom_site_fract_z
Si Si1 0.819250 0.793072 0.513030
Si Si2 0.895955 0.614310 0.885591
Si Si3 0.771752 0.961886 0.764647
Si Si4 0.566998 0.771878 0.875979
Si Si5 0.238370 0.645976 0.720613
Si Si6 0.954234 0.160849 0.373003
Si Si7 0.099955 0.375118 0.854904
Si Si8 0.418776 0.185140 0.860939
O O1 0.764263 0.898451 0.623026
O O2 0.741117 0.562547 0.395066
O O3 0.887453 0.042049 0.466008
O O4 0.918961 0.685786 0.568413
O O5 0.862009 0.829183 0.820019
O O6 0.015136 0.566288 0.873422
O O7 0.810737 0.299356 0.827100
O O8 0.890612 0.715631 0.024317
O O9 0.659890 0.806964 0.798494
O O10 0.468705 0.477745 0.832544
O O11 0.514774 0.030559 0.876299
O O12 0.615390 0.773533 0.009941
O O13 0.220302 0.530937 0.834476
O O14 0.115044 0.658896 0.678070
O O15 0.320747 0.957090 0.761024
O O16 0.946048 0.887292 0.264131
#
# Coordination Sequence:
#
# PCOD9010438 Si02
#       8
#     2   2   2   2   2   2   2   2
#     4  10  23  39  61  94 128 177 219 257 306 380
#     4  11  25  38  63  96 137 167 210 259 324 395
#     4  12  24  43  66  92 131 176 211 262 328 384
#     4  10  23  43  67  94 125 161 208 278 327 384
#     4  11  23  38  68  90 128 175 220 264 313 382
#     4  10  21  40  63  90 132 175 217 261 304 380
#     4  10  23  37  59  99 129 169 210 266 318 383
#     4  10  23  43  67  95 124 159 216 268 330 380
#
# _framework density 22.801361
#
# number of rings (size 3 to 8) (size 9 to 14) (size 15 to 20)
#    0.000    1.500    1.250    2.625    8.750    2.000 
#    0.000    1.250    0.000    0.000    0.000    0.000 
#    0.000    0.000    0.000    0.000    0.000    0.000 
#
# Total GULP energy -89541.879115 kJ/mol
# GULP energy per Si atom -5596.367445 kJ/mol
# Density = 2.274946 g / cm^3
# Si number density = 22.801361 Si / 1000 Ang^3
#
#
#
# Elastic Constant Matrix: (Units=GPa)
#
#
# Indices 1 2 3 4 5 6 
#
# 1 47.6534 9.2836 35.9079 -8.5563 -22.7503 14.5394
# 2 9.2836 81.5320 44.6015 12.0438 -18.0610 12.3493
# 3 35.9079 44.6015 156.8024 -0.2483 -34.7589 25.7190
# 4 -8.5563 12.0438 -0.2483 40.6917 11.9463 4.5958
# 5 -22.7503 -18.0610 -34.7589 11.9463 32.3083 -9.5974
# 6 14.5394 12.3493 25.7190 4.5958 -9.5974 43.9593
#
#
#
# Elastic Compliance Matrix: (Units=1/GPa)
#
#
# Indices 1 2 3 4 5 6 
#
# 1 0.034645 0.003157 -0.003309 0.001018 0.020425 -0.006057
# 2 0.003157 0.017315 -0.003028 -0.007673 0.011219 -0.000885
# 3 -0.003309 -0.003028 0.009761 -0.001337 0.006305 -0.002249
# 4 0.001018 -0.007673 -0.001337 0.033107 -0.018722 -0.004948
# 5 0.020425 0.011219 0.006305 -0.018722 0.066144 0.002802
# 6 -0.006057 -0.000885 -0.002249 -0.004948 0.002802 0.027445
#
#
# Mechanical properties :
#
#
# Convention : Reuss Voigt Hill
#
# Bulk Modulus (GPa) = 18.06340 51.73043 34.89692
# Shear Modulus (GPa) = 23.44866 36.47151 29.96009
#
# Velocity S-wave (km/s) = 3.21033 4.00375 3.62879
# Velocity P-wave (km/s) = 4.65627 6.64154 5.73546
#
# Compressibility (1/GPa) = 0.05536056
#
# Stress axis : x y z
#
# Youngs Moduli (GPa) = 28.86406 57.75377 102.44919
#
# Poissons Ratio (x) = -0.18232 0.33900
# Poissons Ratio (y) = -0.09112 0.31023
# Poissons Ratio (z) = 0.09551 0.17488
#
# Static dielectric constant tensor:
#      x y z
#    x 1.879310 -0.018060 0.025750 
#    y -0.018060 1.864790 -0.011660 
#    z 0.025750 -0.011660 1.891190 
# 
# From -- ./inp_files/70859.got.cif
#   From: 2010.05.17/outbox.cif.g08.bks.cpg/sg2_36_cif.got.tgz:70859.got - 2010.06.03 11:33:40.
