data_PCOD9010940
_publ_section_title
;
Structure prediction by ZEFSAII (Michael W. Deem and Ramdas Pophale) SiO2 
 PCOD9010940
Probable space group: P -1
;
_chemical_formula_sum "Si O2"
_cell_formula_units_Z 14
_cell_length_a 7.452121
_cell_length_b 17.344438
_cell_length_c 8.838314
_cell_angle_alpha 61.117955
_cell_angle_beta 127.128529
_cell_angle_gamma 133.538554
_cell_volume 655.767200
_symmetry_space_group_name_H-M "P -1"
_symmetry_group_IT_number 2
_symmetry_cell_setting 'triclinic'
loop_
_space_group_symop_operation_xyz
x,y,z
-x,-y,-z
loop_
_atom_site_type_symbol
_atom_site_label
_atom_site_fract_x
_atom_site_fract_y
_atom_site_fract_z
Si Si1 0.826317 0.778747 0.566937
Si Si2 0.932040 0.324726 0.394653
Si Si3 0.671003 0.900334 0.164432
Si Si4 0.210326 0.550127 0.196663
Si Si5 0.412156 0.261358 0.981781
Si Si6 0.906613 0.144082 0.043747
Si Si7 0.809766 0.378791 0.579548
O O1 0.979054 0.747583 0.560037
O O2 0.801742 0.867491 0.389610
O O3 0.516343 0.676416 0.537628
O O4 0.985985 0.818739 0.766828
O O5 0.168864 0.448536 0.355868
O O6 0.658641 0.295832 0.192591
O O7 0.868229 0.315253 0.549143
O O8 0.841058 0.026142 0.100321
O O9 0.633976 0.833274 0.059257
O O10 0.374883 0.865795 0.105585
O O11 0.133962 0.609510 0.222937
O O12 0.492690 0.639680 0.176818
O O13 0.000000 0.500000 0.000000
O O14 0.143726 0.223527 0.974592
O O15 0.000000 0.500000 0.500000
#
# Coordination Sequence:
#
# PCOD9010940 Si02
#       7
#     2   2   2   2   2   2   2
#     4  12  23  44  69  98 136 176 218 280 337 397
#     4  10  22  40  68  97 136 174 215 275 332 395
#     4  11  25  45  66  99 131 174 236 275 334 394
#     4   9  20  39  65  97 135 169 219 266 321 408
#     4  11  20  44  66  96 134 174 222 273 335 392
#     4  11  25  45  70  93 135 178 223 288 329 389
#     4  10  21  40  64  96 133 176 220 262 328 400
#
# _framework density 21.349042000000001
#
# number of rings (size 3 to 8) (size 9 to 14) (size 15 to 20)
#    0.000    1.429    4.286    0.857    0.000    3.429 
#    2.571    1.429    0.000    0.000    0.000    0.000 
#    0.000    0.000    0.000    0.000    0.000    0.000 
#
# Total GULP energy -78250.104380 kJ/mol
# GULP energy per Si atom -5589.293170 kJ/mol
# Density = 2.130045 g / cm^3
# Si number density = 21.349042 Si / 1000 Ang^3
#
#
#
# Elastic Constant Matrix: (Units=GPa)
#
#
# Indices 1 2 3 4 5 6 
#
# 1 131.9303 30.9027 51.6963 -3.7864 -24.6796 13.4128
# 2 30.9027 59.7924 25.3482 7.2716 -14.6539 3.0129
# 3 51.6963 25.3482 77.3809 -8.0521 -13.1952 6.9594
# 4 -3.7864 7.2716 -8.0521 27.7841 -5.2665 -3.0877
# 5 -24.6796 -14.6539 -13.1952 -5.2665 38.0192 2.7350
# 6 13.4128 3.0129 6.9594 -3.0877 2.7350 33.1673
#
#
#
# Elastic Compliance Matrix: (Units=1/GPa)
#
#
# Indices 1 2 3 4 5 6 
#
# 1 0.011749 -0.002315 -0.005769 0.001105 0.005148 -0.003652
# 2 -0.002315 0.022269 -0.005692 -0.007100 0.004186 -0.000898
# 3 -0.005769 -0.005692 0.019736 0.006691 0.001897 -0.000824
# 4 0.001105 -0.007100 0.006691 0.041291 0.005868 0.002154
# 5 0.005148 0.004186 0.001897 0.005868 0.033091 -0.005042
# 6 -0.003652 -0.000898 -0.000824 0.002154 -0.005042 0.032498
#
#
# Mechanical properties :
#
#
# Convention : Reuss Voigt Hill
#
# Bulk Modulus (GPa) = 38.16809 53.88865 46.02837
# Shear Modulus (GPa) = 25.39095 30.53791 27.96443
#
# Velocity S-wave (km/s) = 3.45240 3.78618 3.62314
# Velocity P-wave (km/s) = 5.81455 6.66409 6.25376
#
# Compressibility (1/GPa) = 0.02619990
#
# Stress axis : x y z
#
# Youngs Moduli (GPa) = 85.11618 44.90598 50.66871
#
# Poissons Ratio (x) = 0.10396 0.29233
# Poissons Ratio (y) = 0.19704 0.28842
# Poissons Ratio (z) = 0.49108 0.25562
#
# Static dielectric constant tensor:
#      x y z
#    x 1.754950 -0.013680 0.006580 
#    y -0.013680 1.789880 -0.010860 
#    z 0.006580 -0.010860 1.781490 
# 
# From -- ./inp_files/43831.got.cif
#   From: 2010.05.17/outbox.cif.g08.bks.cpg/sg2_22_cif.got.tgz:43831.got - 2010.06.03 11:33:40.
