data_PCOD9010610
_publ_section_title
;
Structure prediction by ZEFSAII (Michael W. Deem and Ramdas Pophale) SiO2 
 PCOD9010610
Probable space group: P -1
;
_chemical_formula_sum "Si O2"
_cell_formula_units_Z 12
_cell_length_a 13.863871
_cell_length_b 11.110214
_cell_length_c 14.236532
_cell_angle_alpha 147.020250
_cell_angle_beta 144.944017
_cell_angle_gamma 32.213897
_cell_volume 589.848837
_symmetry_space_group_name_H-M "P -1"
_symmetry_group_IT_number 2
_symmetry_cell_setting 'triclinic'
loop_
_space_group_symop_operation_xyz
x,y,z
-x,-y,-z
loop_
_atom_site_type_symbol
_atom_site_label
_atom_site_fract_x
_atom_site_fract_y
_atom_site_fract_z
Si Si1 0.147206 0.494853 0.691127
Si Si2 0.617042 0.254085 0.498738
Si Si3 0.729105 0.098301 0.998497
Si Si4 0.523827 0.958076 0.602152
Si Si5 0.300878 0.288379 0.861730
Si Si6 0.082021 0.636485 0.088958
O O1 0.208443 0.697109 0.842458
O O2 0.128479 0.491643 0.786678
O O3 0.000000 0.500000 0.500000
O O4 0.328427 0.209935 0.642710
O O5 0.500000 0.500000 0.500000
O O6 0.488317 0.260805 0.491618
O O7 0.803814 0.253954 0.689283
O O8 0.674206 0.994075 0.315456
O O9 0.517202 0.237370 0.973044
O O10 0.897637 0.870654 0.043561
O O11 0.696520 0.985857 0.802008
O O12 0.500000 0.000000 0.500000
O O13 0.232734 0.423318 0.996203
O O14 0.000000 0.500000 0.000000
#
# Coordination Sequence:
#
# PCOD9010610 Si02
#       6
#     2   2   2   2   2   2
#     4  10  21  40  63  97 131 168 217 269 339 394
#     4  10  23  45  66  95 134 174 225 269 334 402
#     4  10  22  42  65  95 131 170 220 266 333 401
#     4  10  22  38  64  98 128 167 218 276 329 387
#     4  10  24  44  65  95 137 169 216 284 322 387
#     4  12  26  43  68  98 130 179 227 268 332 397
#
# _framework density 20.344197000000001
#
# number of rings (size 3 to 8) (size 9 to 14) (size 15 to 20)
#    0.000    2.000    0.000    6.000    7.000    4.000 
#    0.000    0.000    0.000    0.000    0.000    0.000 
#    0.000    0.000    0.000    0.000    0.000    0.000 
#
# Total GULP energy -66876.409931 kJ/mol
# GULP energy per Si atom -5573.034161 kJ/mol
# Density = 2.029789 g / cm^3
# Si number density = 20.344197 Si / 1000 Ang^3
#
#
#
# Elastic Constant Matrix: (Units=GPa)
#
#
# Indices 1 2 3 4 5 6 
#
# 1 91.6032 41.5616 43.9786 10.7160 2.7032 24.9689
# 2 41.5616 126.0932 41.5580 -17.5832 2.8417 28.4894
# 3 43.9786 41.5580 131.5371 -22.0677 28.6088 17.1488
# 4 10.7160 -17.5832 -22.0677 38.2026 7.3628 -1.5174
# 5 2.7032 2.8417 28.6088 7.3628 27.5376 5.9787
# 6 24.9689 28.4894 17.1488 -1.5174 5.9787 40.4931
#
#
#
# Elastic Compliance Matrix: (Units=1/GPa)
#
#
# Indices 1 2 3 4 5 6 
#
# 1 0.023298 -0.004658 -0.012429 -0.019776 0.018410 -0.009285
# 2 -0.004658 0.011511 -0.000019 0.006688 -0.001467 -0.004752
# 3 -0.012429 -0.000019 0.020444 0.020501 -0.026296 0.003670
# 4 -0.019776 0.006688 0.020501 0.053776 -0.035750 0.006100
# 5 0.018410 -0.001467 -0.026296 -0.035750 0.074022 -0.011452
# 6 -0.009285 -0.004752 0.003670 0.006100 -0.011452 0.034129
#
#
# Mechanical properties :
#
#
# Convention : Reuss Voigt Hill
#
# Bulk Modulus (GPa) = 47.52454 67.04777 57.28615
# Shear Modulus (GPa) = 19.34935 36.05568 27.70252
#
# Velocity S-wave (km/s) = 3.08734 4.21442 3.69411
# Velocity P-wave (km/s) = 6.00998 7.53060 6.81285
#
# Compressibility (1/GPa) = 0.02104176
#
# Stress axis : x y z
#
# Youngs Moduli (GPa) = 42.92212 86.87095 48.91351
#
# Poissons Ratio (x) = 0.40461 0.60796
# Poissons Ratio (y) = 0.19991 0.00093
# Poissons Ratio (z) = 0.53349 0.00165
#
# Static dielectric constant tensor:
#      x y z
#    x 1.865620 0.007460 -0.115190 
#    y 0.007460 1.702400 -0.028140 
#    z -0.115190 -0.028140 1.736380 
# 
# From -- ./inp_files/162391.got.cif
#   From: 2010.05.17/outbox.cif.g08.bks.cpg/sg2_82_cif.got.tgz:162391.got - 2010.06.03 11:33:40.
