data_PCOD9010421
_publ_section_title
;
Structure prediction by ZEFSAII (Michael W. Deem and Ramdas Pophale) SiO2 
 PCOD9010421
Probable space group: P -1
;
_chemical_formula_sum "Si O2"
_cell_formula_units_Z 16
_cell_length_a 12.446212
_cell_length_b 14.426163
_cell_length_c 20.993033
_cell_angle_alpha 28.094802
_cell_angle_beta 28.278659
_cell_angle_gamma 29.880186
_cell_volume 769.205381
_symmetry_space_group_name_H-M "P -1"
_symmetry_group_IT_number 2
_symmetry_cell_setting 'triclinic'
loop_
_space_group_symop_operation_xyz
x,y,z
-x,-y,-z
loop_
_atom_site_type_symbol
_atom_site_label
_atom_site_fract_x
_atom_site_fract_y
_atom_site_fract_z
Si Si1 0.585293 0.087381 0.340126
Si Si2 0.084833 0.679184 0.920510
Si Si3 0.175360 0.754261 0.573594
Si Si4 0.753002 0.624534 0.332750
Si Si5 0.136174 0.214247 0.161056
Si Si6 0.911076 0.258291 0.715747
Si Si7 0.315657 0.072978 0.924909
Si Si8 0.923071 0.620466 0.571135
O O1 0.722067 0.242438 0.194123
O O2 0.322577 0.207912 0.370223
O O3 0.500000 0.000000 0.500000
O O4 0.808989 0.881501 0.320110
O O5 0.979473 0.806179 0.833294
O O6 0.194620 0.427783 0.999307
O O7 0.845791 0.745561 0.050756
O O8 0.464397 0.704728 0.452177
O O9 0.160603 0.580800 0.635782
O O10 0.072887 0.732191 0.709185
O O11 0.000000 0.000000 0.500000
O O12 0.768293 0.821075 0.164850
O O13 0.908153 0.537005 0.368431
O O14 0.388811 0.011181 0.169401
O O15 0.936960 0.283675 0.610296
O O16 0.822267 0.487962 0.655882
O O17 0.755958 0.125008 0.899473
#
# Coordination Sequence:
#
# PCOD9010421 Si02
#       8
#     2   2   2   2   2   2   2   2
#     4   9  19  38  58  88 121 154 202 255 297 361
#     4  10  22  38  62  94 124 157 209 256 310 365
#     4  11  24  43  60  86 124 165 206 250 304 380
#     4  11  25  41  63  90 129 162 205 256 313 372
#     4  11  22  38  65  90 121 167 203 254 313 367
#     4   9  21  38  63  90 124 157 209 256 299 364
#     4  11  21  41  61  93 132 157 201 260 311 368
#     4  10  21  40  63  90 120 165 207 250 305 365
#
# _framework density 20.800687
#
# number of rings (size 3 to 8) (size 9 to 14) (size 15 to 20)
#    0.000    1.750    2.500    1.125    0.000    9.500 
#    0.000    2.500    0.000    0.000    0.000    0.000 
#    0.000    0.000    0.000    0.000    0.000    0.000 
#
# Total GULP energy -89228.007405 kJ/mol
# GULP energy per Si atom -5576.750463 kJ/mol
# Density = 2.075334 g / cm^3
# Si number density = 20.800687 Si / 1000 Ang^3
#
#
#
# Elastic Constant Matrix: (Units=GPa)
#
#
# Indices 1 2 3 4 5 6 
#
# 1 70.8563 26.4716 33.8157 5.7278 33.2213 -16.1718
# 2 26.4716 107.4368 25.8369 14.0219 11.6874 -13.6834
# 3 33.8157 25.8369 94.0329 0.9150 26.6364 -2.9207
# 4 5.7278 14.0219 0.9150 39.0055 3.6936 7.1285
# 5 33.2213 11.6874 26.6364 3.6936 21.1527 -10.3078
# 6 -16.1718 -13.6834 -2.9207 7.1285 -10.3078 25.3633
#
#
#
# Elastic Compliance Matrix: (Units=1/GPa)
#
#
# Indices 1 2 3 4 5 6 
#
# 1 0.062325 -0.008109 0.012193 0.006678 -0.115867 -0.012198
# 2 -0.008109 0.012914 -0.005733 -0.007183 0.019466 0.011066
# 3 0.012193 -0.005733 0.022496 0.007931 -0.053914 -0.016868
# 4 0.006678 -0.007183 0.007931 0.034157 -0.033066 -0.021742
# 5 -0.115867 0.019466 -0.053914 -0.033066 0.327673 0.072877
# 6 -0.012198 0.011066 -0.016868 -0.021742 0.072877 0.071405
#
#
# Mechanical properties :
#
#
# Convention : Reuss Voigt Hill
#
# Bulk Modulus (GPa) = 10.58912 49.39717 29.99315
# Shear Modulus (GPa) = 8.83787 29.51777 19.17782
#
# Velocity S-wave (km/s) = 2.06351 3.77115 3.03971
# Velocity P-wave (km/s) = 3.28317 6.53923 5.17401
#
# Compressibility (1/GPa) = 0.09443652
#
# Stress axis : x y z
#
# Youngs Moduli (GPa) = 16.04495 77.43738 44.45221
#
# Poissons Ratio (x) = 0.62795 -0.54199
# Poissons Ratio (y) = 0.13011 0.25482
# Poissons Ratio (z) = -0.19563 0.44391
#
# Static dielectric constant tensor:
#      x y z
#    x 1.723550 -0.014030 0.008750 
#    y -0.014030 1.787360 -0.037770 
#    z 0.008750 -0.037770 1.781020 
# 
# From -- ./inp_files/464296.got.cif
#   From: 2010.05.17/outbox.cif.g08.bks.cpg/sg2_233_cif.got.tgz:464296.got - 2010.06.03 11:33:40.
