data_PCOD9010809
_publ_section_title
;
Structure prediction by ZEFSAII (Michael W. Deem and Ramdas Pophale) SiO2 
 PCOD9010809
Probable space group: P -1
;
_chemical_formula_sum "Si O2"
_cell_formula_units_Z 16
_cell_length_a 26.934735
_cell_length_b 9.753159
_cell_length_c 9.084409
_cell_angle_alpha 42.017364
_cell_angle_beta 153.512577
_cell_angle_gamma 132.258526
_cell_volume 712.213285
_symmetry_space_group_name_H-M "P -1"
_symmetry_group_IT_number 2
_symmetry_cell_setting 'triclinic'
loop_
_space_group_symop_operation_xyz
x,y,z
-x,-y,-z
loop_
_atom_site_type_symbol
_atom_site_label
_atom_site_fract_x
_atom_site_fract_y
_atom_site_fract_z
Si Si1 0.051530 0.062487 0.244261
Si Si2 0.186054 0.445316 0.304484
Si Si3 0.490957 0.544021 0.267278
Si Si4 0.702111 0.165497 0.586398
Si Si5 0.834860 0.901925 0.920700
Si Si6 0.622320 0.837952 0.867423
Si Si7 0.269642 0.461609 0.176472
Si Si8 0.270753 0.937323 0.790548
O O1 0.072992 0.307582 0.117931
O O2 0.171919 0.961175 0.630989
O O3 0.963153 0.975549 0.195622
O O4 0.000000 0.000000 0.000000
O O5 0.205562 0.672823 0.233912
O O6 0.228601 0.446419 0.247760
O O7 0.270314 0.307658 0.731334
O O8 0.500000 0.500000 0.500000
O O9 0.469242 0.330571 0.290779
O O10 0.609456 0.630866 0.455931
O O11 0.391911 0.699590 0.849421
O O12 0.766206 0.010687 0.776479
O O13 0.639149 0.026314 0.651535
O O14 0.775840 0.966112 0.558873
O O15 0.817658 0.657505 0.065474
O O16 0.625234 0.941054 0.955420
O O17 0.283536 0.699711 0.985957
#
# Coordination Sequence:
#
# PCOD9010809 Si02
#       8
#     2   2   2   2   2   2   2   2
#     4   9  18  40  64  92 129 157 205 269 298 360
#     4  10  21  42  62  93 129 157 213 261 297 376
#     4  11  26  42  61  95 130 160 208 262 306 371
#     4  11  24  42  66  89 130 168 201 256 321 362
#     4  11  23  41  64  95 125 166 209 255 312 368
#     4  10  21  42  62  88 128 161 203 263 301 358
#     4  12  22  39  67  89 121 169 211 246 310 373
#     4  10  21  40  64  93 122 163 207 262 302 365
#
# _framework density 22.46518
#
# number of rings (size 3 to 8) (size 9 to 14) (size 15 to 20)
#    0.000    1.500    5.000    1.500    0.000    7.500 
#    0.000    2.500    0.000    0.000    0.000    0.000 
#    0.000    0.000    0.000    0.000    0.000    0.000 
#
# Total GULP energy -89316.023729 kJ/mol
# GULP energy per Si atom -5582.251483 kJ/mol
# Density = 2.241405 g / cm^3
# Si number density = 22.465180 Si / 1000 Ang^3
#
#
#
# Elastic Constant Matrix: (Units=GPa)
#
#
# Indices 1 2 3 4 5 6 
#
# 1 52.0510 18.3199 2.6916 10.8206 11.3527 -6.8041
# 2 18.3199 108.9624 11.2953 9.5637 0.8656 8.0725
# 3 2.6916 11.2953 27.8263 0.2425 -3.0902 3.3719
# 4 10.8206 9.5637 0.2425 35.1189 8.7268 8.9289
# 5 11.3527 0.8656 -3.0902 8.7268 29.2389 1.1918
# 6 -6.8041 8.0725 3.3719 8.9289 1.1918 31.0266
#
#
#
# Elastic Compliance Matrix: (Units=1/GPa)
#
#
# Indices 1 2 3 4 5 6 
#
# 1 0.025192 -0.003949 -0.002802 -0.006946 -0.008261 0.009173
# 2 -0.003949 0.010503 -0.003365 -0.001208 0.001347 -0.002937
# 3 -0.002802 -0.003365 0.038672 0.001416 0.005037 -0.004543
# 4 -0.006946 -0.001208 0.001416 0.035628 -0.007289 -0.011336
# 5 -0.008261 0.001347 0.005037 -0.007289 0.040164 -0.002155
# 6 0.009173 -0.002937 -0.004543 -0.011336 -0.002155 0.038845
#
#
# Mechanical properties :
#
#
# Convention : Reuss Voigt Hill
#
# Bulk Modulus (GPa) = 18.47294 28.16149 23.31721
# Shear Modulus (GPa) = 21.99909 29.51240 25.75575
#
# Velocity S-wave (km/s) = 3.13270 3.62843 3.38964
# Velocity P-wave (km/s) = 4.61799 5.48788 5.07162
#
# Compressibility (1/GPa) = 0.05413325
#
# Stress axis : x y z
#
# Youngs Moduli (GPa) = 39.69557 95.20826 25.85851
#
# Poissons Ratio (x) = 0.37601 0.07246
# Poissons Ratio (y) = 0.15677 0.08703
# Poissons Ratio (z) = 0.11123 0.32042
#
# Static dielectric constant tensor:
#      x y z
#    x 1.802500 0.012650 0.005740 
#    y 0.012650 1.888130 0.025540 
#    z 0.005740 0.025540 1.881580 
# 
# From -- ./inp_files/356374.got.cif
#   From: 2010.05.17/outbox.cif.g08.bks.cpg/sg2_179_cif.got.tgz:356374.got - 2010.06.03 11:33:40.
