data_PCOD9010489
_publ_section_title
;
Structure prediction by ZEFSAII (Michael W. Deem and Ramdas Pophale) SiO2 
 PCOD9010489
Probable space group: P -1
;
_chemical_formula_sum "Si O2"
_cell_formula_units_Z 16
_cell_length_a 8.748168
_cell_length_b 18.808622
_cell_length_c 6.452526
_cell_angle_alpha 116.266110
_cell_angle_beta 69.461840
_cell_angle_gamma 71.561850
_cell_volume 737.737459
_symmetry_space_group_name_H-M "P -1"
_symmetry_group_IT_number 2
_symmetry_cell_setting 'triclinic'
loop_
_space_group_symop_operation_xyz
x,y,z
-x,-y,-z
loop_
_atom_site_type_symbol
_atom_site_label
_atom_site_fract_x
_atom_site_fract_y
_atom_site_fract_z
Si Si1 0.425392 0.105843 0.089856
Si Si2 0.458997 0.617134 0.241002
Si Si3 0.773711 0.054316 0.606216
Si Si4 0.148411 0.122416 0.882324
Si Si5 0.178067 0.821439 0.574056
Si Si6 0.955680 0.753589 0.299196
Si Si7 0.858911 0.470686 0.107106
Si Si8 0.634696 0.497757 0.618415
O O1 0.269054 0.184996 0.428251
O O2 0.615736 0.105289 0.932186
O O3 0.297485 0.125188 0.968605
O O4 0.500000 0.000000 0.000000
O O5 0.365128 0.727149 0.462996
O O6 0.659645 0.543676 0.169831
O O7 0.313585 0.589340 0.366798
O O8 0.508615 0.590312 0.941817
O O9 0.754477 0.122582 0.519519
O O10 0.746437 0.973219 0.427415
O O11 0.000000 0.000000 0.500000
O O12 0.048970 0.211150 0.886239
O O13 0.986540 0.121122 0.098560
O O14 0.076952 0.784127 0.419338
O O15 0.054288 0.640530 0.116672
O O16 0.812585 0.487966 0.397052
O O17 0.000000 0.500000 0.000000
O O18 0.500000 0.500000 0.500000
#
# Coordination Sequence:
#
# PCOD9010489 Si02
#       8
#     2   2   2   2   2   2   2   2
#     4  11  24  44  68  96 133 176 218 263 327 396
#     4  10  21  40  63  92 127 166 213 271 319 377
#     4  12  23  44  65 100 135 168 217 278 318 388
#     4  11  23  44  68  94 136 176 212 265 338 387
#     4  11  23  39  67  99 127 168 225 269 328 381
#     4  11  23  43  67  91 132 178 215 266 331 392
#     4  11  25  42  61  95 133 171 222 265 322 391
#     4   9  18  37  64  84 119 159 207 260 320 369
#
# _framework density 21.687933000000001
#
# number of rings (size 3 to 8) (size 9 to 14) (size 15 to 20)
#    0.000    1.250    2.500    4.500    0.000    4.500 
#    2.250    0.000    0.000    0.000    0.000    0.000 
#    0.000    0.000    0.000    0.000    0.000    0.000 
#
# Total GULP energy -89410.893492 kJ/mol
# GULP energy per Si atom -5588.180843 kJ/mol
# Density = 2.163857 g / cm^3
# Si number density = 21.687933 Si / 1000 Ang^3
#
#
#
# Elastic Constant Matrix: (Units=GPa)
#
#
# Indices 1 2 3 4 5 6 
#
# 1 48.9964 24.2889 17.4067 -15.1148 -18.9963 2.6490
# 2 24.2889 123.3319 24.6136 -4.9307 -24.8124 0.7984
# 3 17.4067 24.6136 101.2868 -20.1773 -30.2751 2.1374
# 4 -15.1148 -4.9307 -20.1773 38.9175 3.8892 -8.4501
# 5 -18.9963 -24.8124 -30.2751 3.8892 38.9155 -8.1264
# 6 2.6490 0.7984 2.1374 -8.4501 -8.1264 31.4148
#
#
#
# Elastic Compliance Matrix: (Units=1/GPa)
#
#
# Indices 1 2 3 4 5 6 
#
# 1 0.030064 -0.003063 0.002037 0.011861 0.014002 0.004217
# 2 -0.003063 0.009711 -0.000609 -0.000489 0.004498 0.001085
# 3 0.002037 -0.000609 0.014848 0.008097 0.012219 0.004172
# 4 0.011861 -0.000489 0.008097 0.035733 0.010456 0.010778
# 5 0.014002 0.004498 0.012219 0.010456 0.046517 0.012719
# 6 0.004217 0.001085 0.004172 0.010778 0.012719 0.037354
#
#
# Mechanical properties :
#
#
# Convention : Reuss Voigt Hill
#
# Bulk Modulus (GPa) = 19.47340 45.13707 32.30524
# Shear Modulus (GPa) = 25.69132 35.66995 30.68064
#
# Velocity S-wave (km/s) = 3.44552 4.05988 3.76525
# Velocity P-wave (km/s) = 4.98269 6.54477 5.81641
#
# Compressibility (1/GPa) = 0.05135210
#
# Stress axis : x y z
#
# Youngs Moduli (GPa) = 33.26204 102.97104 67.34729
#
# Poissons Ratio (x) = 0.31545 -0.13717
# Poissons Ratio (y) = 0.10190 0.04104
# Poissons Ratio (z) = -0.06775 0.06275
#
# Static dielectric constant tensor:
#      x y z
#    x 1.951260 0.068450 -0.127850 
#    y 0.068450 1.825590 -0.080900 
#    z -0.127850 -0.080900 1.899700 
# 
# From -- ./inp_files/48564.got.cif
#   From: 2010.05.17/outbox.cif.g08.bks.cpg/sg2_25_cif.got.tgz:48564.got - 2010.06.03 11:33:40.
