data_PCOD9010753
_publ_section_title
;
Structure prediction by ZEFSAII (Michael W. Deem and Ramdas Pophale) SiO2 
 PCOD9010753
Probable space group: P -1
;
_chemical_formula_sum "Si O2"
_cell_formula_units_Z 12
_cell_length_a 9.585832
_cell_length_b 5.171475
_cell_length_c 11.315963
_cell_angle_alpha 67.669444
_cell_angle_beta 95.641906
_cell_angle_gamma 121.192430
_cell_volume 440.430715
_symmetry_space_group_name_H-M "P -1"
_symmetry_group_IT_number 2
_symmetry_cell_setting 'triclinic'
loop_
_space_group_symop_operation_xyz
x,y,z
-x,-y,-z
loop_
_atom_site_type_symbol
_atom_site_label
_atom_site_fract_x
_atom_site_fract_y
_atom_site_fract_z
Si Si1 0.671630 0.949874 0.395797
Si Si2 0.190572 0.663570 0.146126
Si Si3 0.485991 0.321294 0.336429
Si Si4 0.364621 0.172292 0.909437
Si Si5 0.017973 0.342101 0.410916
Si Si6 0.153357 0.448994 0.936469
O O1 0.623773 0.622814 0.376830
O O2 0.659339 0.862083 0.550458
O O3 0.545290 0.074753 0.349149
O O4 0.855068 0.241166 0.340226
O O5 0.169264 0.561426 0.297677
O O6 0.033698 0.700262 0.093062
O O7 0.157484 0.394240 0.089267
O O8 0.358562 0.999681 0.063586
O O9 0.476751 0.530803 0.191465
O O10 0.250074 0.320403 0.894314
O O11 0.266369 0.847064 0.878736
O O12 0.000000 0.500000 0.500000
O O13 0.000000 0.000000 0.500000
#
# Coordination Sequence:
#
# PCOD9010753 Si02
#       6
#     2   2   2   2   2   2
#     4  10  22  37  55  85 116 148 192 223 284 342
#     4   9  21  32  52  78 108 136 192 222 282 320
#     4  10  19  35  62  86 113 141 177 254 291 320
#     4  10  17  29  51  82 104 130 169 232 297 320
#     4  12  26  39  57  78 119 166 187 220 264 349
#     4   9  19  28  53  82 106 135 164 251 284 318
#
# _framework density 27.246054999999998
#
# number of rings (size 3 to 8) (size 9 to 14) (size 15 to 20)
#    1.000    1.000    0.000    4.500    2.333    0.000 
#    0.000    0.000    0.000    2.000    0.000    0.000 
#    0.000    0.000    0.000    0.000    0.000    0.000 
#
# Total GULP energy -67081.021292 kJ/mol
# GULP energy per Si atom -5590.085108 kJ/mol
# Density = 2.718404 g / cm^3
# Si number density = 27.246055 Si / 1000 Ang^3
#
#
#
# Elastic Constant Matrix: (Units=GPa)
#
#
# Indices 1 2 3 4 5 6 
#
# 1 76.8637 29.4028 15.7691 9.1807 7.2621 -11.0294
# 2 29.4028 132.5205 45.8559 12.6353 -2.5341 -28.7566
# 3 15.7691 45.8559 205.6186 -32.2558 -15.8642 -5.8570
# 4 9.1807 12.6353 -32.2558 63.4187 2.3814 -8.5024
# 5 7.2621 -2.5341 -15.8642 2.3814 32.3846 -2.9737
# 6 -11.0294 -28.7566 -5.8570 -8.5024 -2.9737 49.3344
#
#
#
# Elastic Compliance Matrix: (Units=1/GPa)
#
#
# Indices 1 2 3 4 5 6 
#
# 1 0.014991 -0.002568 -0.001148 -0.001943 -0.003877 0.001150
# 2 -0.002568 0.010130 -0.002197 -0.002160 0.000887 0.004751
# 3 -0.001148 -0.002197 0.006239 0.003671 0.002873 0.000009
# 4 -0.001943 -0.002160 0.003671 0.018582 0.000882 0.001998
# 5 -0.003877 0.000887 0.002873 0.000882 0.033358 0.002154
# 6 0.001150 0.004751 0.000009 0.001998 0.002154 0.023771
#
#
# Mechanical properties :
#
#
# Convention : Reuss Voigt Hill
#
# Bulk Modulus (GPa) = 51.19490 66.33979 58.76734
# Shear Modulus (GPa) = 39.86932 50.62588 45.24760
#
# Velocity S-wave (km/s) = 3.82947 4.31524 4.07959
# Velocity P-wave (km/s) = 6.19546 7.01639 6.61866
#
# Compressibility (1/GPa) = 0.01953320
#
# Stress axis : x y z
#
# Youngs Moduli (GPa) = 66.70529 98.71619 160.27768
#
# Poissons Ratio (x) = 0.25354 0.18400
# Poissons Ratio (y) = 0.17132 0.35218
# Poissons Ratio (z) = 0.07658 0.21691
#
# Static dielectric constant tensor:
#      x y z
#    x 2.096580 -0.025230 0.031890 
#    y -0.025230 2.037570 -0.036210 
#    z 0.031890 -0.036210 2.341960 
# 
# From -- ./inp_files/361241.got.cif
#   From: 2010.05.17/outbox.cif.g08.bks.cpg/sg2_181_cif.got.tgz:361241.got - 2010.06.03 11:33:40.
