data_PCOD9010652
_publ_section_title
;
Structure prediction by ZEFSAII (Michael W. Deem and Ramdas Pophale) SiO2 
 PCOD9010652
Probable space group: P -1
;
_chemical_formula_sum "Si O2"
_cell_formula_units_Z 12
_cell_length_a 22.608454
_cell_length_b 8.863584
_cell_length_c 11.410657
_cell_angle_alpha 36.973292
_cell_angle_beta 150.860516
_cell_angle_gamma 142.674243
_cell_volume 631.547479
_symmetry_space_group_name_H-M "P -1"
_symmetry_group_IT_number 2
_symmetry_cell_setting 'triclinic'
loop_
_space_group_symop_operation_xyz
x,y,z
-x,-y,-z
loop_
_atom_site_type_symbol
_atom_site_label
_atom_site_fract_x
_atom_site_fract_y
_atom_site_fract_z
Si Si1 0.029897 0.275869 0.529390
Si Si2 0.429763 0.936099 0.082759
Si Si3 0.382872 0.845601 0.308933
Si Si4 0.088596 0.736592 0.923174
Si Si5 0.185701 0.773771 0.621097
Si Si6 0.393984 0.277779 0.610011
O O1 0.142367 0.545285 0.591773
O O2 0.964208 0.313367 0.270670
O O3 0.929058 0.229326 0.490017
O O4 0.073788 0.018749 0.756356
O O5 0.400248 0.009168 0.116002
O O6 0.537366 0.798714 0.335601
O O7 0.297854 0.740350 0.919316
O O8 0.462397 0.189648 0.895334
O O9 0.395463 0.570241 0.454083
O O10 0.500000 0.000000 0.500000
O O11 0.240834 0.776455 0.161093
O O12 0.000000 0.500000 0.000000
O O13 0.250202 0.065891 0.496833
#
# Coordination Sequence:
#
# PCOD9010652 Si02
#       6
#     2   2   2   2   2   2
#     4  10  21  40  64  83 118 156 197 243 291 349
#     4   9  20  40  60  81 119 152 194 245 287 341
#     4  12  25  38  59  90 124 158 191 240 301 351
#     4  11  24  41  58  89 125 156 194 239 294 358
#     4   9  18  40  64  84 109 154 199 246 289 329
#     4   9  20  39  61  85 117 149 200 244 286 349
#
# _framework density 19.000945000000002
#
# number of rings (size 3 to 8) (size 9 to 14) (size 15 to 20)
#    1.000    1.000    1.667    1.500    2.333    2.000 
#    3.000    2.500    0.000    0.000    0.000    0.000 
#    0.000    0.000    0.000    0.000    0.000    0.000 
#
# Total GULP energy -66827.439217 kJ/mol
# GULP energy per Si atom -5568.953268 kJ/mol
# Density = 1.895770 g / cm^3
# Si number density = 19.000945 Si / 1000 Ang^3
#
#
#
# Elastic Constant Matrix: (Units=GPa)
#
#
# Indices 1 2 3 4 5 6 
#
# 1 101.8992 42.5800 31.8288 10.5051 9.6317 7.4517
# 2 42.5800 100.7196 27.7293 16.7099 -5.6253 -8.5536
# 3 31.8288 27.7293 54.9867 10.2690 7.1267 1.5692
# 4 10.5051 16.7099 10.2690 33.5605 -1.7396 -3.5194
# 5 9.6317 -5.6253 7.1267 -1.7396 24.3085 4.2790
# 6 7.4517 -8.5536 1.5692 -3.5194 4.2790 26.5469
#
#
#
# Elastic Compliance Matrix: (Units=1/GPa)
#
#
# Indices 1 2 3 4 5 6 
#
# 1 0.014422 -0.005284 -0.004699 -0.001204 -0.004790 -0.004860
# 2 -0.005284 0.014764 -0.004631 -0.003445 0.005717 0.005136
# 3 -0.004699 -0.004631 0.024940 -0.004319 -0.006628 -0.001152
# 4 -0.001204 -0.003445 -0.004319 0.033721 0.002741 0.003512
# 5 -0.004790 0.005717 -0.006628 0.002741 0.047142 -0.003657
# 6 -0.004860 0.005136 -0.001152 0.003512 -0.003657 0.041811
#
#
# Mechanical properties :
#
#
# Convention : Reuss Voigt Hill
#
# Bulk Modulus (GPa) = 40.16364 51.32018 45.74191
# Shear Modulus (GPa) = 23.32878 27.24768 25.28823
#
# Velocity S-wave (km/s) = 3.50776 3.79095 3.65210
# Velocity P-wave (km/s) = 6.13102 6.79924 6.47376
#
# Compressibility (1/GPa) = 0.02489814
#
# Stress axis : x y z
#
# Youngs Moduli (GPa) = 69.34088 67.73047 40.09593
#
# Poissons Ratio (x) = 0.35787 0.18841
# Poissons Ratio (y) = 0.36638 0.18569
# Poissons Ratio (z) = 0.32583 0.31368
#
# Static dielectric constant tensor:
#      x y z
#    x 1.672680 0.033760 -0.014790 
#    y 0.033760 1.647470 -0.008390 
#    z -0.014790 -0.008390 1.693220 
# 
# From -- ./inp_files/473789.got.cif
#   From: 2010.05.17/outbox.cif.g08.bks.cpg/sg2_237_cif.got.tgz:473789.got - 2010.06.03 11:33:40.
