data_PCOD9010841
_publ_section_title
;
Structure prediction by ZEFSAII (Michael W. Deem and Ramdas Pophale) SiO2 
 PCOD9010841
Probable space group: P -1
;
_chemical_formula_sum "Si O2"
_cell_formula_units_Z 14
_cell_length_a 11.561463
_cell_length_b 5.418259
_cell_length_c 9.245473
_cell_angle_alpha 108.875652
_cell_angle_beta 98.155680
_cell_angle_gamma 97.042358
_cell_volume 533.625977
_symmetry_space_group_name_H-M "P -1"
_symmetry_group_IT_number 2
_symmetry_cell_setting 'triclinic'
loop_
_space_group_symop_operation_xyz
x,y,z
-x,-y,-z
loop_
_atom_site_type_symbol
_atom_site_label
_atom_site_fract_x
_atom_site_fract_y
_atom_site_fract_z
Si Si1 0.269314 0.928367 0.235811
Si Si2 0.511223 0.770524 0.144499
Si Si3 0.711152 0.210478 0.186213
Si Si4 0.319862 0.307578 0.571439
Si Si5 0.077039 0.632619 0.336307
Si Si6 0.108574 0.994041 0.656074
Si Si7 0.908922 0.314971 0.058430
O O1 0.383595 0.839329 0.169977
O O2 0.203585 0.705888 0.294481
O O3 0.318602 0.190932 0.388250
O O4 0.164098 0.925777 0.097087
O O5 0.579861 0.748959 0.306762
O O6 0.592858 0.000364 0.110589
O O7 0.500000 0.500000 0.000000
O O8 0.681803 0.383817 0.349289
O O9 0.808916 0.027239 0.197841
O O10 0.788945 0.405780 0.120746
O O11 0.194429 0.162179 0.584815
O O12 0.087043 0.707695 0.519971
O O13 0.002137 0.352902 0.217522
O O14 0.999012 0.853945 0.313516
O O15 0.000000 0.500000 0.000000
#
# Coordination Sequence:
#
# PCOD9010841 Si02
#       7
#     2   2   2   2   2   2   2
#     4  10  22  40  65  93 133 176 212 272 333 376
#     4  11  25  43  70  96 128 173 225 276 331 389
#     4  11  23  41  71  94 128 179 224 266 333 394
#     4  10  21  42  67  94 131 170 221 278 319 395
#     4   9  18  39  65  92 137 168 214 275 321 388
#     4   9  19  37  67 100 124 176 219 266 330 386
#     4  10  21  40  64  93 134 172 214 275 324 384
#
# _framework density 26.235602
#
# number of rings (size 3 to 8) (size 9 to 14) (size 15 to 20)
#    0.000    2.000    1.429    1.286    2.000    3.429 
#    0.000    7.143    3.143    0.000    0.000    0.000 
#    0.000    0.000    0.000    0.000    0.000    0.000 
#
# Total GULP energy -78021.097343 kJ/mol
# GULP energy per Si atom -5572.935525 kJ/mol
# Density = 2.617589 g / cm^3
# Si number density = 26.235602 Si / 1000 Ang^3
#
#
#
# Elastic Constant Matrix: (Units=GPa)
#
#
# Indices 1 2 3 4 5 6 
#
# 1 190.7994 58.5650 61.1909 13.8702 2.0617 30.1550
# 2 58.5650 66.0114 39.0660 20.8928 5.6838 7.5442
# 3 61.1909 39.0660 216.3513 16.7288 7.7447 5.5645
# 4 13.8702 20.8928 16.7288 47.7229 1.8931 12.8531
# 5 2.0617 5.6838 7.7447 1.8931 56.0826 -8.3839
# 6 30.1550 7.5442 5.5645 12.8531 -8.3839 37.5726
#
#
#
# Elastic Compliance Matrix: (Units=1/GPa)
#
#
# Indices 1 2 3 4 5 6 
#
# 1 0.008583 -0.007003 -0.001193 0.002717 -0.000481 -0.006343
# 2 -0.007003 0.025074 -0.001888 -0.009251 -0.001147 0.003774
# 3 -0.001193 -0.001888 0.005363 -0.000900 -0.000360 0.000770
# 4 0.002717 -0.009251 -0.000900 0.027233 -0.001426 -0.009824
# 5 -0.000481 -0.001147 -0.000360 -0.001426 0.018865 0.005367
# 6 -0.006343 0.003774 0.000770 -0.009824 0.005367 0.035392
#
#
# Mechanical properties :
#
#
# Convention : Reuss Voigt Hill
#
# Bulk Modulus (GPa) = 53.03875 87.86731 70.45303
# Shear Modulus (GPa) = 34.02270 49.23165 41.62717
#
# Velocity S-wave (km/s) = 3.60504 4.33658 3.98762
# Velocity P-wave (km/s) = 6.13095 7.65761 6.93641
#
# Compressibility (1/GPa) = 0.01885414
#
# Stress axis : x y z
#
# Youngs Moduli (GPa) = 116.50664 39.88171 186.46194
#
# Poissons Ratio (x) = 0.27927 0.22242
# Poissons Ratio (y) = 0.81584 0.35199
# Poissons Ratio (z) = 0.13898 0.07529
#
# Static dielectric constant tensor:
#      x y z
#    x 2.008990 0.041080 0.030480 
#    y 0.041080 2.220130 -0.087570 
#    z 0.030480 -0.087570 2.271500 
# 
# From -- ./inp_files/409690.got.cif
#   From: 2010.05.17/outbox.cif.g08.bks.cpg/sg2_205_cif.got.tgz:409690.got - 2010.06.03 11:33:40.
