data_PCOD9010002
_publ_section_title
;
Structure prediction by ZEFSAII (Michael W. Deem and Ramdas Pophale) SiO2 
 PCOD9010002
Probable space group: P -1
;
_chemical_formula_sum "Si O2"
_cell_formula_units_Z 12
_cell_length_a 19.910781
_cell_length_b 5.161414
_cell_length_c 6.008271
_cell_angle_alpha 103.294136
_cell_angle_beta 65.376702
_cell_angle_gamma 119.205746
_cell_volume 489.675530
_symmetry_space_group_name_H-M "P -1"
_symmetry_group_IT_number 2
_symmetry_cell_setting 'triclinic'
loop_
_space_group_symop_operation_xyz
x,y,z
-x,-y,-z
loop_
_atom_site_type_symbol
_atom_site_label
_atom_site_fract_x
_atom_site_fract_y
_atom_site_fract_z
Si Si1 0.176321 0.664199 0.116863
Si Si2 0.092555 0.062263 0.341801
Si Si3 0.466000 0.147882 0.760605
Si Si4 0.377669 0.693841 0.181594
Si Si5 0.766958 0.833237 0.551279
Si Si6 0.322607 0.060622 0.675329
O O1 0.134714 0.319105 0.152530
O O2 0.107444 0.781898 0.189828
O O3 0.214225 0.835232 0.331395
O O4 0.249521 0.809347 0.868699
O O5 0.146443 0.169841 0.518395
O O6 0.000000 0.000000 0.500000
O O7 0.589259 0.112103 0.044960
O O8 0.404039 0.253587 0.746717
O O9 0.500000 0.000000 0.500000
O O10 0.451462 0.639404 0.180038
O O11 0.296110 0.387429 0.224642
O O12 0.355693 0.898039 0.421306
O O13 0.719791 0.769696 0.371451
#
# Coordination Sequence:
#
# PCOD9010002 Si02
#       6
#     2   2   2   2   2   2
#     4  10  24  41  69  96 130 174 213 267 325 390
#     4  10  22  45  69  96 131 171 213 267 328 390
#     4   9  20  37  62  90 133 173 225 266 321 381
#     4  10  21  40  61  89 134 174 218 273 322 378
#     4  10  23  36  66  92 129 170 215 268 326 381
#     4  11  21  38  61  96 128 172 222 266 322 385
#
# _framework density 24.506018999999998
#
# number of rings (size 3 to 8) (size 9 to 14) (size 15 to 20)
#    1.000    1.000    0.000    3.500    2.333    2.000 
#    0.000   13.333    0.000    0.000    0.000    0.000 
#    0.000    0.000    0.000    0.000    0.000    0.000 
#
# Total GULP energy -67076.406814 kJ/mol
# GULP energy per Si atom -5589.700568 kJ/mol
# Density = 2.445024 g / cm^3
# Si number density = 24.506019 Si / 1000 Ang^3
#
#
#
# Elastic Constant Matrix: (Units=GPa)
#
#
# Indices 1 2 3 4 5 6 
#
# 1 235.4985 36.0990 62.4161 -21.7798 -18.4834 6.4574
# 2 36.0990 59.6872 9.0655 -12.6957 2.4524 -10.0904
# 3 62.4161 9.0655 97.7923 -16.8267 -11.6643 1.4942
# 4 -21.7798 -12.6957 -16.8267 31.5958 -1.7943 -8.3584
# 5 -18.4834 2.4524 -11.6643 -1.7943 28.3096 -2.9867
# 6 6.4574 -10.0904 1.4942 -8.3584 -2.9867 32.8965
#
#
#
# Elastic Compliance Matrix: (Units=1/GPa)
#
#
# Indices 1 2 3 4 5 6 
#
# 1 0.005874 -0.003288 -0.002927 0.000922 0.002810 -0.001539
# 2 -0.003288 0.022385 0.001362 0.009943 -0.001859 0.009807
# 3 -0.002927 0.001362 0.013581 0.006652 0.004247 0.002451
# 4 0.000922 0.009943 0.006652 0.044008 0.006786 0.014364
# 5 0.002810 -0.001859 0.004247 0.006786 0.039925 0.004034
# 6 -0.001539 0.009807 0.002451 0.014364 0.004034 0.037613
#
#
# Mechanical properties :
#
#
# Convention : Reuss Voigt Hill
#
# Bulk Modulus (GPa) = 31.11836 67.57103 49.34469
# Shear Modulus (GPa) = 27.20298 37.58687 32.39493
#
# Velocity S-wave (km/s) = 3.33536 3.92060 3.63976
# Velocity P-wave (km/s) = 5.24963 6.93743 6.15169
#
# Compressibility (1/GPa) = 0.03213537
#
# Stress axis : x y z
#
# Youngs Moduli (GPa) = 170.24034 44.67357 73.62993
#
# Poissons Ratio (x) = 0.14687 0.21552
# Poissons Ratio (y) = 0.55970 -0.10032
# Poissons Ratio (z) = 0.49831 -0.06086
#
# Static dielectric constant tensor:
#      x y z
#    x 1.991300 -0.021430 0.046130 
#    y -0.021430 1.904570 0.068910 
#    z 0.046130 0.068910 1.976650 
# 
# From -- ./inp_files/121011.got.cif
#   From: 2010.05.17/outbox.cif.g08.bks.cpg/sg2_61_cif.got.tgz:121011.got - 2010.06.03 11:33:40.
