data_PCOD9010001
_publ_section_title
;
Structure prediction by ZEFSAII (Michael W. Deem and Ramdas Pophale) SiO2 
 PCOD9010001
Probable space group: P -1
;
_chemical_formula_sum "Si O2"
_cell_formula_units_Z 14
_cell_length_a 15.316414
_cell_length_b 7.467117
_cell_length_c 12.657249
_cell_angle_alpha 78.978090
_cell_angle_beta 151.009901
_cell_angle_gamma 105.195553
_cell_volume 674.814277
_symmetry_space_group_name_H-M "P -1"
_symmetry_group_IT_number 2
_symmetry_cell_setting 'triclinic'
loop_
_space_group_symop_operation_xyz
x,y,z
-x,-y,-z
loop_
_atom_site_type_symbol
_atom_site_label
_atom_site_fract_x
_atom_site_fract_y
_atom_site_fract_z
Si Si1 0.021620 0.976479 0.711465
Si Si2 0.479833 0.306192 0.939326
Si Si3 0.205516 0.912457 0.717550
Si Si4 0.112693 0.131469 0.012861
Si Si5 0.494582 0.279151 0.514949
Si Si6 0.338936 0.299452 0.563165
Si Si7 0.856516 0.387593 0.776492
O O1 0.127145 0.055990 0.918903
O O2 0.952796 0.108775 0.536268
O O3 0.130936 0.863750 0.762156
O O4 0.834668 0.857455 0.572989
O O5 0.458804 0.347221 0.788665
O O6 0.312886 0.130571 0.808908
O O7 0.500000 0.500000 0.000000
O O8 0.655949 0.216149 0.154004
O O9 0.984463 0.286130 0.852030
O O10 0.316893 0.199594 0.265977
O O11 0.000000 0.000000 0.000000
O O12 0.500000 0.500000 0.500000
O O13 0.449939 0.223795 0.595046
O O14 0.688901 0.253024 0.676426
O O15 0.248365 0.471705 0.410767
O O16 0.000000 0.500000 0.000000
#
# Coordination Sequence:
#
# PCOD9010001 Si02
#       7
#     2   2   2   2   2   2   2
#     4  10  21  43  64  88 131 171 217 271 335 388
#     4  10  22  41  65  95 124 165 230 271 333 399
#     4   9  22  44  63  91 131 171 212 286 330 379
#     4  12  23  40  64  98 129 171 222 264 329 410
#     4  10  21  41  60  93 129 168 212 263 329 391
#     4  10  21  40  61  89 129 169 212 274 331 390
#     4  11  22  40  63  92 133 171 212 272 325 393
#
# _framework density 20.746447
#
# number of rings (size 3 to 8) (size 9 to 14) (size 15 to 20)
#    0.000    1.714    4.286    0.000    2.000    5.143 
#    7.714    2.143    0.000    0.000    0.000    0.000 
#    0.000    0.000    0.000    0.000    0.000    0.000 
#
# Total GULP energy -78068.478750 kJ/mol
# GULP energy per Si atom -5576.319911 kJ/mol
# Density = 2.069923 g / cm^3
# Si number density = 20.746447 Si / 1000 Ang^3
#
#
#
# Elastic Constant Matrix: (Units=GPa)
#
#
# Indices 1 2 3 4 5 6 
#
# 1 124.5466 15.9732 52.0195 12.7822 -9.1404 6.2087
# 2 15.9732 50.7776 26.3594 -0.4044 -4.8858 -9.7302
# 3 52.0195 26.3594 127.1036 14.5779 -10.8611 -5.8228
# 4 12.7822 -0.4044 14.5779 27.3349 -3.9696 0.7697
# 5 -9.1404 -4.8858 -10.8611 -3.9696 47.7492 2.0402
# 6 6.2087 -9.7302 -5.8228 0.7697 2.0402 22.5577
#
#
#
# Elastic Compliance Matrix: (Units=1/GPa)
#
#
# Indices 1 2 3 4 5 6 
#
# 1 0.010413 -0.002238 -0.003627 -0.002700 0.000918 -0.004758
# 2 -0.002238 0.024514 -0.004017 0.003420 0.001026 0.009944
# 3 -0.003627 -0.004017 0.010828 -0.004062 0.000929 0.002115
# 4 -0.002700 0.003420 -0.004062 0.040407 0.002286 -0.000415
# 5 0.000918 0.001026 0.000929 0.002286 0.021694 -0.001610
# 6 -0.004758 0.009944 0.002115 -0.000415 -0.001610 0.050635
#
#
# Mechanical properties :
#
#
# Convention : Reuss Voigt Hill
#
# Bulk Modulus (GPa) = 38.47592 54.57023 46.52308
# Shear Modulus (GPa) = 26.74960 33.40007 30.07483
#
# Velocity S-wave (km/s) = 3.59466 4.01673 3.81154
# Velocity P-wave (km/s) = 5.98455 6.91901 6.46867
#
# Compressibility (1/GPa) = 0.02599028
#
# Stress axis : x y z
#
# Youngs Moduli (GPa) = 96.03471 40.79238 92.35711
#
# Poissons Ratio (x) = 0.09127 0.33502
# Poissons Ratio (y) = 0.21488 0.37103
# Poissons Ratio (z) = 0.34836 0.16387
#
# Static dielectric constant tensor:
#      x y z
#    x 1.896130 0.168010 0.138310 
#    y 0.168010 2.021440 0.186810 
#    z 0.138310 0.186810 1.906400 
# 
# From -- ./inp_files/447414.got.cif
#   From: 2010.05.17/outbox.cif.g08.bks.cpg/sg2_224_cif.got.tgz:447414.got - 2010.06.03 11:33:40.
