data_PCOD9010796
_publ_section_title
;
Structure prediction by ZEFSAII (Michael W. Deem and Ramdas Pophale) SiO2 
 PCOD9010796
Probable space group: P -1
;
_chemical_formula_sum "Si O2"
_cell_formula_units_Z 14
_cell_length_a 19.150370
_cell_length_b 6.572453
_cell_length_c 5.804185
_cell_angle_alpha 73.595156
_cell_angle_beta 51.338337
_cell_angle_gamma 74.784052
_cell_volume 543.600464
_symmetry_space_group_name_H-M "P -1"
_symmetry_group_IT_number 2
_symmetry_cell_setting 'triclinic'
loop_
_space_group_symop_operation_xyz
x,y,z
-x,-y,-z
loop_
_atom_site_type_symbol
_atom_site_label
_atom_site_fract_x
_atom_site_fract_y
_atom_site_fract_z
Si Si1 0.094158 0.844513 0.165249
Si Si2 0.737191 0.217599 0.834543
Si Si3 0.369405 0.049481 0.176090
Si Si4 0.966943 0.691858 0.835174
Si Si5 0.626343 0.522339 0.263044
Si Si6 0.798142 0.484460 0.248018
Si Si7 0.529361 0.817397 0.682677
O O1 0.178498 0.867822 0.154851
O O2 0.030263 0.696576 0.480048
O O3 0.036600 0.065244 0.151244
O O4 0.137910 0.726482 0.892608
O O5 0.712790 0.053936 0.739278
O O6 0.764221 0.431815 0.586516
O O7 0.648723 0.305869 0.139151
O O8 0.380331 0.119730 0.395143
O O9 0.450962 0.860308 0.019896
O O10 0.380012 0.268097 0.949834
O O11 0.862156 0.665751 0.026865
O O12 0.000000 0.500000 0.000000
O O13 0.715814 0.514283 0.235206
O O14 0.547301 0.589332 0.591242
O O15 0.500000 0.000000 0.500000
#
# Coordination Sequence:
#
# PCOD9010796 Si02
#       7
#     2   2   2   2   2   2   2
#     4  10  24  43  64  97 133 175 225 273 333 397
#     4  11  23  40  63  98 130 172 225 273 330 400
#     4  10  21  40  64  92 130 170 221 276 335 393
#     4  11  22  44  68  92 135 176 222 276 332 394
#     4  10  22  40  63  90 131 171 222 273 331 393
#     4  11  23  40  63  95 131 173 221 275 334 393
#     4   9  20  40  64  92 127 173 218 273 337 394
#
# _framework density 25.754207999999998
#
# number of rings (size 3 to 8) (size 9 to 14) (size 15 to 20)
#    0.000    1.714    1.429    2.143    0.000    8.000 
#    2.571   10.000    0.000    0.000    0.000    0.000 
#    0.000    0.000    0.000    0.000    0.000    0.000 
#
# Total GULP energy -78258.155360 kJ/mol
# GULP energy per Si atom -5589.868240 kJ/mol
# Density = 2.569559 g / cm^3
# Si number density = 25.754208 Si / 1000 Ang^3
#
#
#
# Elastic Constant Matrix: (Units=GPa)
#
#
# Indices 1 2 3 4 5 6 
#
# 1 98.0098 26.0007 5.4145 -11.4027 15.4661 -0.5691
# 2 26.0007 119.3401 50.2432 -7.0088 16.5627 -19.1649
# 3 5.4145 50.2432 74.7464 8.5208 -2.8408 -10.3356
# 4 -11.4027 -7.0088 8.5208 41.2179 4.9753 5.3759
# 5 15.4661 16.5627 -2.8408 4.9753 30.4245 -1.6593
# 6 -0.5691 -19.1649 -10.3356 5.3759 -1.6593 47.5446
#
#
#
# Elastic Compliance Matrix: (Units=1/GPa)
#
#
# Indices 1 2 3 4 5 6 
#
# 1 0.012078 -0.001369 -0.000848 0.004204 -0.006231 -0.001284
# 2 -0.001369 0.015228 -0.010678 0.005161 -0.009278 0.002894
# 3 -0.000848 -0.010678 0.022144 -0.008029 0.009720 0.001747
# 4 0.004204 0.005161 -0.008029 0.029694 -0.010734 -0.003347
# 5 -0.006231 -0.009278 0.009720 -0.010734 0.043806 0.001041
# 6 -0.001284 0.002894 0.001747 -0.003347 0.001041 0.022978
#
#
# Mechanical properties :
#
#
# Convention : Reuss Voigt Hill
#
# Bulk Modulus (GPa) = 42.26574 50.60145 46.43359
# Shear Modulus (GPa) = 27.83878 37.86659 32.85269
#
# Velocity S-wave (km/s) = 3.29133 3.83862 3.57546
# Velocity P-wave (km/s) = 5.55794 6.27193 5.92570
#
# Compressibility (1/GPa) = 0.02365983
#
# Stress axis : x y z
#
# Youngs Moduli (GPa) = 82.79539 65.66637 45.15940
#
# Poissons Ratio (x) = 0.08988 0.03832
# Poissons Ratio (y) = 0.11333 0.48221
# Poissons Ratio (z) = 0.07025 0.70118
#
# Static dielectric constant tensor:
#      x y z
#    x 2.073990 0.039460 -0.042920 
#    y 0.039460 2.004810 0.063630 
#    z -0.042920 0.063630 2.094930 
# 
# From -- ./inp_files/7860.got.cif
#   From: 2010.05.17/outbox.cif.g08.bks.cpg/sg2_4_cif.got.tgz:7860.got - 2010.06.03 11:33:40.
