data_PCOD9010468
_publ_section_title
;
Structure prediction by ZEFSAII (Michael W. Deem and Ramdas Pophale) SiO2 
 PCOD9010468
Probable space group: P -1
;
_chemical_formula_sum "Si O2"
_cell_formula_units_Z 16
_cell_length_a 12.535591
_cell_length_b 6.079947
_cell_length_c 12.431600
_cell_angle_alpha 56.023579
_cell_angle_beta 86.119121
_cell_angle_gamma 62.417265
_cell_volume 672.470095
_symmetry_space_group_name_H-M "P -1"
_symmetry_group_IT_number 2
_symmetry_cell_setting 'triclinic'
loop_
_space_group_symop_operation_xyz
x,y,z
-x,-y,-z
loop_
_atom_site_type_symbol
_atom_site_label
_atom_site_fract_x
_atom_site_fract_y
_atom_site_fract_z
Si Si1 0.461501 0.386848 0.811383
Si Si2 0.746654 0.728659 0.172647
Si Si3 0.129510 0.883436 0.963393
Si Si4 0.337817 0.495974 0.189938
Si Si5 0.721059 0.902896 0.371239
Si Si6 0.075200 0.959536 0.692989
Si Si7 0.416290 0.837545 0.362617
Si Si8 0.216251 0.718408 0.363002
O O1 0.367182 0.271849 0.881507
O O2 0.563147 0.401386 0.875475
O O3 0.537594 0.201313 0.752623
O O4 0.371198 0.745192 0.684388
O O5 0.700815 0.879384 0.251978
O O6 0.852045 0.370097 0.280540
O O7 0.816105 0.893445 0.073985
O O8 0.106648 0.888550 0.837064
O O9 0.242275 0.553161 0.085341
O O10 0.000000 0.000000 0.000000
O O11 0.249821 0.691327 0.242053
O O12 0.413686 0.140564 0.320112
O O13 0.713832 0.631685 0.502798
O O14 0.858875 0.849749 0.395077
O O15 0.928448 0.126457 0.644919
O O16 0.500000 0.500000 0.500000
O O17 0.276877 0.899274 0.362613
#
# Coordination Sequence:
#
# PCOD9010468 Si02
#       8
#     2   2   2   2   2   2   2   2
#     4  10  21  41  62  91 124 161 213 251 313 373
#     4  10  23  41  65  89 124 169 205 261 309 365
#     4  11  24  44  64  89 129 165 207 264 308 362
#     4  11  24  40  64  94 127 168 206 258 312 366
#     4  10  21  40  63  91 131 163 202 264 310 369
#     4  10  23  40  63  93 123 166 213 255 310 370
#     4  11  23  38  63  95 128 164 206 258 310 373
#     4  11  22  37  63  94 126 166 208 253 316 375
#
# _framework density 23.792877000000001
#
# number of rings (size 3 to 8) (size 9 to 14) (size 15 to 20)
#    0.000    1.500    1.250    3.375    1.750    6.500 
#    0.000    8.750    0.000    0.000    0.000    0.000 
#    0.000    0.000    0.000    0.000    0.000    0.000 
#
# Total GULP energy -89462.267313 kJ/mol
# GULP energy per Si atom -5591.391707 kJ/mol
# Density = 2.373872 g / cm^3
# Si number density = 23.792877 Si / 1000 Ang^3
#
#
#
# Elastic Constant Matrix: (Units=GPa)
#
#
# Indices 1 2 3 4 5 6 
#
# 1 190.6311 23.3843 26.4646 -16.8685 -5.8456 4.9839
# 2 23.3843 59.3439 -7.6179 -12.8056 -8.7360 -7.5682
# 3 26.4646 -7.6179 59.9972 -13.0754 -13.1718 7.1873
# 4 -16.8685 -12.8056 -13.0754 29.0837 -1.6865 -4.5843
# 5 -5.8456 -8.7360 -13.1718 -1.6865 37.7782 -9.0906
# 6 4.9839 -7.5682 7.1873 -4.5843 -9.0906 27.2050
#
#
#
# Elastic Compliance Matrix: (Units=1/GPa)
#
#
# Indices 1 2 3 4 5 6 
#
# 1 0.006088 -0.003020 -0.003025 0.000548 -0.001134 -0.001443
# 2 -0.003020 0.026409 0.009687 0.016936 0.012772 0.012462
# 3 -0.003025 0.009687 0.024663 0.014781 0.011792 0.003165
# 4 0.000548 0.016936 0.014781 0.051950 0.014953 0.014457
# 5 -0.001134 0.012772 0.011792 0.014953 0.037831 0.015806
# 6 -0.001443 0.012462 0.003165 0.014457 0.015806 0.047371
#
#
# Mechanical properties :
#
#
# Convention : Reuss Voigt Hill
#
# Bulk Modulus (GPa) = 15.51748 43.82602 29.67175
# Shear Modulus (GPa) = 23.97992 36.66277 30.32135
#
# Velocity S-wave (km/s) = 3.17813 3.92971 3.57373
# Velocity P-wave (km/s) = 4.47251 6.24899 5.43384
#
# Compressibility (1/GPa) = 0.06444343
#
# Stress axis : x y z
#
# Youngs Moduli (GPa) = 164.26840 37.86650 40.54637
#
# Poissons Ratio (x) = 0.11435 0.12267
# Poissons Ratio (y) = 0.49606 -0.39278
# Poissons Ratio (z) = 0.49697 -0.36682
#
# Static dielectric constant tensor:
#      x y z
#    x 1.908790 0.025350 0.028210 
#    y 0.025350 1.874780 -0.000380 
#    z 0.028210 -0.000380 1.948270 
# 
# From -- ./inp_files/69713.got.cif
#   From: 2010.05.17/outbox.cif.g08.bks.cpg/sg2_35_cif.got.tgz:69713.got - 2010.06.03 11:33:40.
