data_PCOD9010618
_publ_section_title
;
Structure prediction by ZEFSAII (Michael W. Deem and Ramdas Pophale) SiO2 
 PCOD9010618
Probable space group: P -1
;
_chemical_formula_sum "Si O2"
_cell_formula_units_Z 14
_cell_length_a 10.166812
_cell_length_b 14.372771
_cell_length_c 21.042455
_cell_angle_alpha 154.842799
_cell_angle_beta 138.735700
_cell_angle_gamma 32.156448
_cell_volume 694.239759
_symmetry_space_group_name_H-M "P -1"
_symmetry_group_IT_number 2
_symmetry_cell_setting 'triclinic'
loop_
_space_group_symop_operation_xyz
x,y,z
-x,-y,-z
loop_
_atom_site_type_symbol
_atom_site_label
_atom_site_fract_x
_atom_site_fract_y
_atom_site_fract_z
Si Si1 0.773709 0.841969 0.568952
Si Si2 0.448297 0.793833 0.667731
Si Si3 0.873987 0.093949 0.080570
Si Si4 0.936812 0.190257 0.655667
Si Si5 0.214459 0.256672 0.353491
Si Si6 0.556905 0.317304 0.701983
Si Si7 0.315995 0.209976 0.117060
O O1 0.651139 0.892705 0.624716
O O2 0.646907 0.741576 0.416415
O O3 0.057862 0.579143 0.511045
O O4 0.735980 0.105383 0.689898
O O5 0.500000 0.500000 0.500000
O O6 0.624825 0.801412 0.685660
O O7 0.523776 0.816537 0.780019
O O8 0.172326 0.029943 0.689445
O O9 0.594048 0.367388 0.141904
O O10 0.030557 0.172811 0.224180
O O11 0.857598 0.873856 0.973397
O O12 0.000000 0.000000 0.000000
O O13 0.708241 0.247647 0.649356
O O14 0.849170 0.483529 0.780033
O O15 0.000000 0.000000 0.500000
O O16 0.500000 0.000000 0.000000
#
# Coordination Sequence:
#
# PCOD9010618 Si02
#       7
#     2   2   2   2   2   2   2
#     4   9  20  36  66  94 128 169 223 289 345 398
#     4  12  25  43  73 104 140 182 242 293 344 419
#     4  11  23  44  66  89 138 183 221 281 349 410
#     4  12  25  43  73 103 138 187 239 287 354 416
#     4  10  21  40  64  98 131 176 225 283 348 409
#     4  10  21  40  63  97 134 173 229 286 340 414
#     4  12  27  48  70 103 147 189 230 291 357 422
#
# _framework density 20.165942999999999
#
# number of rings (size 3 to 8) (size 9 to 14) (size 15 to 20)
#    0.000    1.143    4.286    1.714    0.000    5.143 
#    2.571    1.429    0.000    0.000    0.000    0.000 
#    0.000    0.000    0.000    0.000    0.000    0.000 
#
# Total GULP energy -78160.853672 kJ/mol
# GULP energy per Si atom -5582.918119 kJ/mol
# Density = 2.012004 g / cm^3
# Si number density = 20.165943 Si / 1000 Ang^3
#
#
#
# Elastic Constant Matrix: (Units=GPa)
#
#
# Indices 1 2 3 4 5 6 
#
# 1 113.2334 21.6674 38.5813 21.2981 -9.5790 13.5322
# 2 21.6674 88.8570 47.0699 22.3365 1.0135 18.6430
# 3 38.5813 47.0699 98.7430 16.9681 -4.6609 12.0720
# 4 21.2981 22.3365 16.9681 40.6182 7.4857 4.0244
# 5 -9.5790 1.0135 -4.6609 7.4857 43.2398 1.1982
# 6 13.5322 18.6430 12.0720 4.0244 1.1982 34.1098
#
#
#
# Elastic Compliance Matrix: (Units=1/GPa)
#
#
# Indices 1 2 3 4 5 6 
#
# 1 0.011516 0.001098 -0.003527 -0.005418 0.003177 -0.003393
# 2 0.001098 0.017806 -0.006860 -0.006901 0.000474 -0.006942
# 3 -0.003527 -0.006860 0.014985 -0.000839 0.001143 -0.000096
# 4 -0.005418 -0.006901 -0.000839 0.032609 -0.006847 0.002612
# 5 0.003177 0.000474 0.001143 -0.006847 0.025184 -0.002001
# 6 -0.003393 -0.006942 -0.000096 0.002612 -0.002001 0.034254
#
#
# Mechanical properties :
#
#
# Convention : Reuss Voigt Hill
#
# Bulk Modulus (GPa) = 38.86611 57.27452 48.07031
# Shear Modulus (GPa) = 30.57922 36.49456 33.53689
#
# Velocity S-wave (km/s) = 3.89830 4.25869 4.08247
# Velocity P-wave (km/s) = 6.29105 7.25570 6.79052
#
# Compressibility (1/GPa) = 0.02572936
#
# Stress axis : x y z
#
# Youngs Moduli (GPa) = 86.83233 56.16020 66.73121
#
# Poissons Ratio (x) = -0.06166 0.23538
# Poissons Ratio (y) = -0.09533 0.45778
# Poissons Ratio (z) = 0.30628 0.38526
#
# Static dielectric constant tensor:
#      x y z
#    x 1.706880 -0.006480 0.001220 
#    y -0.006480 1.786300 0.003200 
#    z 0.001220 0.003200 1.732700 
# 
# From -- ./inp_files/188986.got.cif
#   From: 2010.05.17/outbox.cif.g08.bks.cpg/sg2_95_cif.got.tgz:188986.got - 2010.06.03 11:33:40.
