data_PCOD9010183
_publ_section_title
;
Structure prediction by ZEFSAII (Michael W. Deem and Ramdas Pophale) SiO2 
 PCOD9010183
Probable space group: P -1
;
_chemical_formula_sum "Si O2"
_cell_formula_units_Z 16
_cell_length_a 5.387829
_cell_length_b 23.523165
_cell_length_c 5.725860
_cell_angle_alpha 80.442870
_cell_angle_beta 94.007392
_cell_angle_gamma 58.285345
_cell_volume 597.978542
_symmetry_space_group_name_H-M "P -1"
_symmetry_group_IT_number 2
_symmetry_cell_setting 'triclinic'
loop_
_space_group_symop_operation_xyz
x,y,z
-x,-y,-z
loop_
_atom_site_type_symbol
_atom_site_label
_atom_site_fract_x
_atom_site_fract_y
_atom_site_fract_z
Si Si1 0.341460 0.979550 0.315745
Si Si2 0.685368 0.392053 0.660501
Si Si3 0.754182 0.484188 0.217486
Si Si4 0.816768 0.642045 0.902449
Si Si5 0.087227 0.268283 0.476868
Si Si6 0.223523 0.768392 0.893678
Si Si7 0.763354 0.105913 0.292917
Si Si8 0.734434 0.854390 0.125515
O O1 0.221009 0.935104 0.449161
O O2 0.599930 0.926137 0.198195
O O3 0.500000 0.000000 0.500000
O O4 0.043841 0.052305 0.185822
O O5 0.732223 0.438673 0.449549
O O6 0.356383 0.443199 0.713244
O O7 0.794316 0.323375 0.568579
O O8 0.918417 0.370211 0.902811
O O9 0.071588 0.432972 0.147286
O O10 0.500000 0.500000 0.000000
O O11 0.516811 0.692837 0.987304
O O12 0.785841 0.688646 0.646386
O O13 0.992658 0.243848 0.263027
O O14 0.292439 0.201216 0.690186
O O15 0.256065 0.823906 0.716899
O O16 0.072621 0.809048 0.093805
O O17 0.468403 0.124723 0.128671
#
# Coordination Sequence:
#
# PCOD9010183 Si02
#       8
#     2   2   2   2   2   2   2   2
#     4  11  25  47  70  95 125 159 204 258 310 369
#     4   9  17  35  63  90 121 167 214 260 314 368
#     4   8  16  32  61  93 123 163 212 262 314 369
#     4  10  21  40  62  90 126 167 211 259 316 373
#     4  11  23  40  62  89 128 166 210 262 311 369
#     4  12  25  40  61  93 128 164 208 256 308 372
#     4  11  25  44  67  93 125 163 206 252 311 373
#     4  12  25  42  64  92 125 163 205 253 310 374
#
# _framework density 26.756812
#
# number of rings (size 3 to 8) (size 9 to 14) (size 15 to 20)
#    0.000    1.500    0.000    5.625    0.000    8.000 
#    0.000    1.875    0.000   30.750    0.000    0.000 
#    0.000    0.000    0.000    0.000    0.000    0.000 
#
# Total GULP energy -89568.896554 kJ/mol
# GULP energy per Si atom -5598.056035 kJ/mol
# Density = 2.669591 g / cm^3
# Si number density = 26.756812 Si / 1000 Ang^3
#
#
#
# Elastic Constant Matrix: (Units=GPa)
#
#
# Indices 1 2 3 4 5 6 
#
# 1 46.8315 46.4779 0.9837 9.0057 -8.8427 -14.9405
# 2 46.4779 300.1804 42.9521 32.4772 -9.5735 -37.3905
# 3 0.9837 42.9521 60.6571 -6.8614 -16.2125 -10.7557
# 4 9.0057 32.4772 -6.8614 62.6747 -1.9817 -15.4716
# 5 -8.8427 -9.5735 -16.2125 -1.9817 27.9351 3.9865
# 6 -14.9405 -37.3905 -10.7557 -15.4716 3.9865 53.9310
#
#
#
# Elastic Compliance Matrix: (Units=1/GPa)
#
#
# Indices 1 2 3 4 5 6 
#
# 1 0.029483 -0.004532 0.006734 0.000610 0.010912 0.005737
# 2 -0.004532 0.004893 -0.004140 -0.002202 -0.002439 0.000860
# 3 0.006734 -0.004140 0.024647 0.005423 0.014778 0.004374
# 4 0.000610 -0.002202 0.005423 0.018917 0.003227 0.004912
# 5 0.010912 -0.002439 0.014778 0.003227 0.046974 0.001732
# 6 0.005737 0.000860 0.004374 0.004912 0.001732 0.022881
#
#
# Mechanical properties :
#
#
# Convention : Reuss Voigt Hill
#
# Bulk Modulus (GPa) = 18.13331 65.38849 41.76090
# Shear Modulus (GPa) = 29.40259 50.05849 39.73054
#
# Velocity S-wave (km/s) = 3.31854 4.33005 3.85759
# Velocity P-wave (km/s) = 4.63415 7.03493 5.95674
#
# Compressibility (1/GPa) = 0.05514712
#
# Stress axis : x y z
#
# Youngs Moduli (GPa) = 33.91825 204.37539 40.57236
#
# Poissons Ratio (x) = 0.92620 -0.27321
# Poissons Ratio (y) = 0.15371 0.16797
# Poissons Ratio (z) = -0.22840 0.84610
#
# Static dielectric constant tensor:
#      x y z
#    x 2.137020 -0.084870 -0.106080 
#    y -0.084870 2.122090 0.050390 
#    z -0.106080 0.050390 2.112140 
# 
# From -- ./inp_files/14491.got.cif
#   From: 2010.05.17/outbox.cif.g08.bks.cpg/sg2_8_cif.got.tgz:14491.got - 2010.06.03 11:33:40.
