data_PCOD9010523
_publ_section_title
;
Structure prediction by ZEFSAII (Michael W. Deem and Ramdas Pophale) SiO2 
 PCOD9010523
Probable space group: P -1
;
_chemical_formula_sum "Si O2"
_cell_formula_units_Z 16
_cell_length_a 6.527667
_cell_length_b 8.104527
_cell_length_c 16.793011
_cell_angle_alpha 106.762677
_cell_angle_beta 123.669529
_cell_angle_gamma 65.286448
_cell_volume 669.773037
_symmetry_space_group_name_H-M "P -1"
_symmetry_group_IT_number 2
_symmetry_cell_setting 'triclinic'
loop_
_space_group_symop_operation_xyz
x,y,z
-x,-y,-z
loop_
_atom_site_type_symbol
_atom_site_label
_atom_site_fract_x
_atom_site_fract_y
_atom_site_fract_z
Si Si1 0.104402 0.526415 0.393150
Si Si2 0.424618 0.311804 0.882621
Si Si3 0.615545 0.402105 0.215069
Si Si4 0.167613 0.630001 0.247670
Si Si5 0.320988 0.134595 0.384337
Si Si6 0.880997 0.866958 0.500602
Si Si7 0.690812 0.117717 0.062622
Si Si8 0.749797 0.054887 0.799484
O O1 0.861583 0.457077 0.306666
O O2 0.009864 0.666714 0.464546
O O3 0.163085 0.627922 0.342106
O O4 0.336158 0.336644 0.432328
O O5 0.488706 0.460660 0.862730
O O6 0.506686 0.138255 0.816240
O O7 0.118324 0.367296 0.840871
O O8 0.595727 0.261809 0.991147
O O9 0.393831 0.452467 0.240646
O O10 0.674965 0.208653 0.158932
O O11 0.227385 0.798450 0.241484
O O12 0.104185 0.124675 0.399921
O O13 0.574866 0.960474 0.429754
O O14 0.260165 0.117340 0.276900
O O15 0.000000 0.000000 0.500000
O O16 0.989140 0.997142 0.100227
O O17 0.500000 0.000000 0.000000
#
# Coordination Sequence:
#
# PCOD9010523 Si02
#       8
#     2   2   2   2   2   2   2   2
#     4  11  23  44  68 100 132 175 217 263 337 394
#     4  10  22  40  62  87 127 177 219 269 326 376
#     4  10  23  42  64  90 132 174 215 273 320 388
#     4  10  21  40  63  93 128 172 218 269 321 385
#     4  11  24  43  70  99 132 174 216 265 336 394
#     4  11  25  44  70 102 133 166 216 274 326 399
#     4  12  23  41  62  97 128 171 226 270 322 380
#     4  11  22  43  65  92 134 172 214 276 326 389
#
# _framework density 23.88869
#
# number of rings (size 3 to 8) (size 9 to 14) (size 15 to 20)
#    0.000    1.250    2.500    4.125    0.000    4.000 
#    6.750    0.000    0.000    0.000    0.000    0.000 
#    0.000    0.000    0.000    0.000    0.000    0.000 
#
# Total GULP energy -89472.951618 kJ/mol
# GULP energy per Si atom -5592.059476 kJ/mol
# Density = 2.383432 g / cm^3
# Si number density = 23.888690 Si / 1000 Ang^3
#
#
#
# Elastic Constant Matrix: (Units=GPa)
#
#
# Indices 1 2 3 4 5 6 
#
# 1 91.3201 12.1142 22.6495 10.1644 -14.5799 -17.6173
# 2 12.1142 83.2544 8.5573 17.7414 -7.9377 -17.0688
# 3 22.6495 8.5573 69.9275 14.4236 -11.0620 -11.1276
# 4 10.1644 17.7414 14.4236 51.2382 -3.6237 -12.3174
# 5 -14.5799 -7.9377 -11.0620 -3.6237 26.2763 2.0410
# 6 -17.6173 -17.0688 -11.1276 -12.3174 2.0410 39.0302
#
#
#
# Elastic Compliance Matrix: (Units=1/GPa)
#
#
# Indices 1 2 3 4 5 6 
#
# 1 0.013542 -0.000052 -0.002579 -0.000332 0.005983 0.004937
# 2 -0.000052 0.014081 0.000363 -0.003532 0.003507 0.004940
# 3 -0.002579 0.000363 0.017016 -0.003440 0.005174 0.002490
# 4 -0.000332 -0.003532 -0.003440 0.022872 0.000102 0.004537
# 5 0.005983 0.003507 0.005174 0.000102 0.044363 0.003422
# 6 0.004937 0.004940 0.002490 0.004537 0.003422 0.031973
#
#
# Mechanical properties :
#
#
# Convention : Reuss Voigt Hill
#
# Bulk Modulus (GPa) = 24.93597 36.79379 30.86488
# Shear Modulus (GPa) = 30.91188 36.72100 33.81644
#
# Velocity S-wave (km/s) = 3.60112 3.92493 3.76651
# Velocity P-wave (km/s) = 5.26800 5.99798 5.64480
#
# Compressibility (1/GPa) = 0.04010271
#
# Stress axis : x y z
#
# Youngs Moduli (GPa) = 73.84614 71.01523 58.76932
#
# Poissons Ratio (x) = 0.00369 0.15158
# Poissons Ratio (y) = 0.00384 -0.02134
# Poissons Ratio (z) = 0.19046 -0.02578
#
# Static dielectric constant tensor:
#      x y z
#    x 1.877320 -0.011660 0.015480 
#    y -0.011660 2.033000 -0.020110 
#    z 0.015480 -0.020110 1.924060 
# 
# From -- ./inp_files/44543.got.cif
#   From: 2010.05.17/outbox.cif.g08.bks.cpg/sg2_23_cif.got.tgz:44543.got - 2010.06.03 11:33:40.
