data_PCOD9010241
_publ_section_title
;
Structure prediction by ZEFSAII (Michael W. Deem and Ramdas Pophale) SiO2 
 PCOD9010241
Probable space group: P -1
;
_chemical_formula_sum "Si O2"
_cell_formula_units_Z 16
_cell_length_a 6.617977
_cell_length_b 19.225185
_cell_length_c 9.364940
_cell_angle_alpha 130.389166
_cell_angle_beta 57.996637
_cell_angle_gamma 107.319018
_cell_volume 767.673302
_symmetry_space_group_name_H-M "P -1"
_symmetry_group_IT_number 2
_symmetry_cell_setting 'triclinic'
loop_
_space_group_symop_operation_xyz
x,y,z
-x,-y,-z
loop_
_atom_site_type_symbol
_atom_site_label
_atom_site_fract_x
_atom_site_fract_y
_atom_site_fract_z
Si Si1 0.311465 0.085226 0.657965
Si Si2 0.337154 0.801979 0.656402
Si Si3 0.945767 0.377267 0.476668
Si Si4 0.173189 0.155263 0.488325
Si Si5 0.657696 0.219607 0.693050
Si Si6 0.597968 0.530744 0.653889
Si Si7 0.668261 0.422766 0.912461
Si Si8 0.888996 0.018877 0.911337
O O1 0.236260 0.107493 0.552982
O O2 0.445361 0.171054 0.781164
O O3 0.083050 0.060579 0.794507
O O4 0.500000 0.000000 0.500000
O O5 0.159357 0.721926 0.642230
O O6 0.620753 0.775673 0.528378
O O7 0.295326 0.829293 0.542460
O O8 0.300359 0.894785 0.883174
O O9 0.767756 0.449476 0.553697
O O10 0.901342 0.405142 0.699197
O O11 0.215482 0.390610 0.341743
O O12 0.910559 0.207240 0.660555
O O13 0.179040 0.074056 0.261704
O O14 0.574143 0.321809 0.815966
O O15 0.500000 0.500000 0.500000
O O16 0.370452 0.552630 0.873363
O O17 0.500000 0.500000 0.000000
O O18 0.000000 0.000000 0.000000
#
# Coordination Sequence:
#
# PCOD9010241 Si02
#       8
#     2   2   2   2   2   2   2   2
#     4  11  23  40  62  88 127 171 214 264 320 377
#     4  10  22  39  62  90 121 167 211 262 313 374
#     4   9  21  41  61  88 127 160 208 260 316 378
#     4  11  22  42  61  89 131 167 217 262 316 384
#     4  10  21  41  63  91 125 166 216 263 317 390
#     4  10  21  40  62  93 124 156 207 263 316 387
#     4   9  20  41  68  90 125 173 205 262 332 382
#     4  12  22  40  62  90 125 170 213 261 318 373
#
# _framework density 20.842200999999999
#
# number of rings (size 3 to 8) (size 9 to 14) (size 15 to 20)
#    0.000    1.750    2.500    1.500    1.750    2.500 
#    2.250    5.000    0.000    0.000    0.000    0.000 
#    0.000    0.000    0.000    0.000    0.000    0.000 
#
# Total GULP energy -89088.352353 kJ/mol
# GULP energy per Si atom -5568.022022 kJ/mol
# Density = 2.079476 g / cm^3
# Si number density = 20.842201 Si / 1000 Ang^3
#
#
#
# Elastic Constant Matrix: (Units=GPa)
#
#
# Indices 1 2 3 4 5 6 
#
# 1 90.2789 37.2623 18.8998 -3.2581 6.9943 16.1654
# 2 37.2623 104.5404 11.8370 2.3056 8.0095 10.3197
# 3 18.8998 11.8370 71.3208 -4.9304 13.0267 -8.0571
# 4 -3.2581 2.3056 -4.9304 30.3099 -9.7829 1.2474
# 5 6.9943 8.0095 13.0267 -9.7829 16.2417 -0.4100
# 6 16.1654 10.3197 -8.0571 1.2474 -0.4100 20.0176
#
#
#
# Elastic Compliance Matrix: (Units=1/GPa)
#
#
# Indices 1 2 3 4 5 6 
#
# 1 0.016166 -0.003911 -0.004927 0.001637 -0.000427 -0.013133
# 2 -0.003911 0.011818 -0.000432 -0.003122 -0.005754 -0.003031
# 3 -0.004927 -0.000432 0.019154 -0.002451 -0.014207 0.011773
# 4 0.001637 -0.003122 -0.002451 0.042208 0.028154 -0.002752
# 5 -0.000427 -0.005754 -0.014207 0.028154 0.092887 -0.002259
# 6 -0.013133 -0.003031 0.011773 -0.002752 -0.002259 0.066988
#
#
# Mechanical properties :
#
#
# Convention : Reuss Voigt Hill
#
# Bulk Modulus (GPa) = 34.96968 44.68203 39.82585
# Shear Modulus (GPa) = 18.03135 26.52324 22.27730
#
# Velocity S-wave (km/s) = 2.94451 3.57119 3.27288
# Velocity P-wave (km/s) = 5.32681 6.20397 5.78205
#
# Compressibility (1/GPa) = 0.02859620
#
# Stress axis : x y z
#
# Youngs Moduli (GPa) = 61.85645 84.61892 52.20826
#
# Poissons Ratio (x) = 0.33098 0.25725
# Poissons Ratio (y) = 0.24195 0.02256
# Poissons Ratio (z) = 0.30479 0.03657
#
# Static dielectric constant tensor:
#      x y z
#    x 1.432500 -0.074620 0.054280 
#    y -0.074620 1.723380 -0.012460 
#    z 0.054280 -0.012460 1.769420 
# 
# From -- ./inp_files/90967.got.cif
#   From: 2010.05.17/outbox.cif.g08.bks.cpg/sg2_46_cif.got.tgz:90967.got - 2010.06.03 11:33:40.
