data_PCOD9010931
_publ_section_title
;
Structure prediction by ZEFSAII (Michael W. Deem and Ramdas Pophale) SiO2 
 PCOD9010931
Probable space group: P -1
;
_chemical_formula_sum "Si O2"
_cell_formula_units_Z 14
_cell_length_a 11.405930
_cell_length_b 11.226336
_cell_length_c 10.436325
_cell_angle_alpha 109.912106
_cell_angle_beta 87.760686
_cell_angle_gamma 34.989563
_cell_volume 581.719921
_symmetry_space_group_name_H-M "P -1"
_symmetry_group_IT_number 2
_symmetry_cell_setting 'triclinic'
loop_
_space_group_symop_operation_xyz
x,y,z
-x,-y,-z
loop_
_atom_site_type_symbol
_atom_site_label
_atom_site_fract_x
_atom_site_fract_y
_atom_site_fract_z
Si Si1 0.241918 0.551336 0.531641
Si Si2 0.175788 0.355920 0.562377
Si Si3 0.198184 0.064495 0.516063
Si Si4 0.863161 0.080550 0.875562
Si Si5 0.013745 0.602947 0.934134
Si Si6 0.417015 0.442062 0.832714
Si Si7 0.219549 0.968283 0.753552
O O1 0.502660 0.356090 0.395239
O O2 0.326457 0.332835 0.498975
O O3 0.043795 0.730626 0.488444
O O4 0.071593 0.771400 0.735481
O O5 0.027732 0.532158 0.764313
O O6 0.000000 0.500000 0.500000
O O7 0.308462 0.095013 0.481584
O O8 0.403590 0.759960 0.368099
O O9 0.132668 0.127236 0.689399
O O10 0.620043 0.266538 0.874284
O O11 0.738629 0.276834 0.071487
O O12 0.014976 0.052823 0.798633
O O13 0.250347 0.476706 0.884896
O O14 0.000000 0.500000 0.000000
O O15 0.791456 0.918311 0.089690
#
# Coordination Sequence:
#
# PCOD9010931 Si02
#       7
#     2   2   2   2   2   2   2
#     4  10  22  39  64  95 134 177 221 272 334 398
#     4  10  22  42  64  94 138 173 218 271 336 404
#     4  10  21  40  64  96 130 176 224 271 335 398
#     4   9  20  42  61  95 135 174 230 265 332 399
#     4  11  22  39  65 102 132 168 227 276 330 397
#     4   9  20  37  65  93 127 179 221 272 326 394
#     4  11  22  39  67  98 134 172 223 281 332 387
#
# _framework density 24.066566000000002
#
# number of rings (size 3 to 8) (size 9 to 14) (size 15 to 20)
#    0.000    2.000    1.429    1.286    2.000    3.429 
#    0.000   22.143    0.000    0.000    0.000    0.000 
#    0.000    0.000    0.000    0.000    0.000    0.000 
#
# Total GULP energy -78089.254494 kJ/mol
# GULP energy per Si atom -5577.803892 kJ/mol
# Density = 2.401179 g / cm^3
# Si number density = 24.066566 Si / 1000 Ang^3
#
#
#
# Elastic Constant Matrix: (Units=GPa)
#
#
# Indices 1 2 3 4 5 6 
#
# 1 103.7902 32.9209 35.9659 0.7733 10.5728 -10.1468
# 2 32.9209 84.8706 38.2315 13.4132 4.3234 -11.9581
# 3 35.9659 38.2315 125.1979 8.7205 22.5639 -15.5542
# 4 0.7733 13.4132 8.7205 43.6753 3.9975 10.1793
# 5 10.5728 4.3234 22.5639 3.9975 39.9538 -4.4183
# 6 -10.1468 -11.9581 -15.5542 10.1793 -4.4183 38.6856
#
#
#
# Elastic Compliance Matrix: (Units=1/GPa)
#
#
# Indices 1 2 3 4 5 6 
#
# 1 0.011703 -0.003702 -0.001950 0.001331 -0.001662 0.000601
# 2 -0.003702 0.016068 -0.003312 -0.005412 0.002132 0.004332
# 3 -0.001950 -0.003312 0.010843 -0.001279 -0.004833 0.002609
# 4 0.001331 -0.005412 -0.001279 0.027218 -0.002798 -0.009320
# 5 -0.001662 0.002132 -0.004833 -0.002798 0.028498 0.002271
# 6 0.000601 0.004332 0.002609 -0.009320 0.002271 0.031107
#
#
# Mechanical properties :
#
#
# Convention : Reuss Voigt Hill
#
# Bulk Modulus (GPa) = 48.34338 58.67726 53.51032
# Shear Modulus (GPa) = 33.27539 38.24563 35.76051
#
# Velocity S-wave (km/s) = 3.72242 3.99075 3.85892
# Velocity P-wave (km/s) = 6.21339 6.75788 6.49135
#
# Compressibility (1/GPa) = 0.02068536
#
# Stress axis : x y z
#
# Youngs Moduli (GPa) = 85.44866 62.23615 92.22381
#
# Poissons Ratio (x) = 0.23041 0.17983
# Poissons Ratio (y) = 0.31634 0.30546
# Poissons Ratio (z) = 0.16662 0.20614
#
# Static dielectric constant tensor:
#      x y z
#    x 1.959860 -0.052390 0.061660 
#    y -0.052390 1.991770 0.030190 
#    z 0.061660 0.030190 1.981660 
# 
# From -- ./inp_files/428544.got.cif
#   From: 2010.05.17/outbox.cif.g08.bks.cpg/sg2_215_cif.got.tgz:428544.got - 2010.06.03 11:33:40.
