data_PCOD9010597
_publ_section_title
;
Structure prediction by ZEFSAII (Michael W. Deem and Ramdas Pophale) SiO2 
 PCOD9010597
Probable space group: P -1
;
_chemical_formula_sum "Si O2"
_cell_formula_units_Z 16
_cell_length_a 14.938339
_cell_length_b 11.614586
_cell_length_c 9.013648
_cell_angle_alpha 41.095547
_cell_angle_beta 69.678449
_cell_angle_gamma 46.134352
_cell_volume 688.785882
_symmetry_space_group_name_H-M "P -1"
_symmetry_group_IT_number 2
_symmetry_cell_setting 'triclinic'
loop_
_space_group_symop_operation_xyz
x,y,z
-x,-y,-z
loop_
_atom_site_type_symbol
_atom_site_label
_atom_site_fract_x
_atom_site_fract_y
_atom_site_fract_z
Si Si1 0.119810 0.345876 0.198473
Si Si2 0.583978 0.415665 0.242369
Si Si3 0.209786 0.740319 0.964118
Si Si4 0.548711 0.784220 0.566483
Si Si5 0.715848 0.043614 0.759270
Si Si6 0.139193 0.185103 0.667793
Si Si7 0.008865 0.212133 0.991653
Si Si8 0.605581 0.014962 0.138647
O O1 0.242257 0.123417 0.247269
O O2 0.102236 0.256114 0.446965
O O3 0.109534 0.553124 0.067703
O O4 0.000000 0.500000 0.000000
O O5 0.717878 0.296068 0.193523
O O6 0.524439 0.312272 0.304284
O O7 0.623082 0.313913 0.485537
O O8 0.489142 0.707279 0.015716
O O9 0.214667 0.900728 0.912111
O O10 0.300863 0.470237 0.239326
O O11 0.052903 0.896597 0.895325
O O12 0.500000 0.000000 0.500000
O O13 0.543502 0.902507 0.303181
O O14 0.851779 0.947853 0.847005
O O15 0.647684 0.013872 0.951128
O O16 0.025317 0.304949 0.741574
O O17 0.256100 0.163912 0.673021
#
# Coordination Sequence:
#
# PCOD9010597 Si02
#       8
#     2   2   2   2   2   2   2   2
#     4  10  21  40  63  96 134 178 221 276 343 405
#     4  12  24  44  69  99 143 181 229 284 340 408
#     4  12  23  40  70 101 133 180 230 284 340 407
#     4  12  25  41  70 107 135 177 236 283 344 405
#     4  10  24  44  68  98 143 181 223 286 345 408
#     4  11  21  43  69  97 140 175 227 291 337 411
#     4  10  24  41  67 101 131 181 233 272 347 412
#     4  11  24  45  72 102 136 184 230 281 344 406
#
# _framework density 23.229279999999999
#
# number of rings (size 3 to 8) (size 9 to 14) (size 15 to 20)
#    0.000    1.000    3.750    3.000    1.750    3.000 
#    0.000    1.250    0.000    0.000    0.000    0.000 
#    0.000    0.000    0.000    0.000    0.000    0.000 
#
# Total GULP energy -89287.675946 kJ/mol
# GULP energy per Si atom -5580.479747 kJ/mol
# Density = 2.317641 g / cm^3
# Si number density = 23.229280 Si / 1000 Ang^3
#
#
#
# Elastic Constant Matrix: (Units=GPa)
#
#
# Indices 1 2 3 4 5 6 
#
# 1 70.8788 14.8356 39.6202 18.7595 -6.0514 -7.6726
# 2 14.8356 105.4101 28.0690 20.4164 -3.9245 0.0169
# 3 39.6202 28.0690 136.9700 18.7446 -4.6634 2.1719
# 4 18.7595 20.4164 18.7446 39.4366 -0.3646 -6.7058
# 5 -6.0514 -3.9245 -4.6634 -0.3646 43.2247 2.1713
# 6 -7.6726 0.0169 2.1719 -6.7058 2.1713 24.7772
#
#
#
# Elastic Compliance Matrix: (Units=1/GPa)
#
#
# Indices 1 2 3 4 5 6 
#
# 1 0.018960 -0.000219 -0.004638 -0.005916 0.001857 0.004514
# 2 -0.000219 0.010916 -0.001425 -0.005101 0.000834 -0.001404
# 3 -0.004638 -0.001425 0.009254 -0.001927 0.000344 -0.002798
# 4 -0.005916 -0.005101 -0.001927 0.032973 -0.001593 0.007404
# 5 0.001857 0.000834 0.000344 -0.001593 0.023593 -0.001954
# 6 0.004514 -0.001404 -0.002798 0.007404 -0.001954 0.044179
#
#
# Mechanical properties :
#
#
# Convention : Reuss Voigt Hill
#
# Bulk Modulus (GPa) = 37.64152 53.14538 45.39345
# Shear Modulus (GPa) = 30.99913 36.86997 33.93455
#
# Velocity S-wave (km/s) = 3.65702 3.98831 3.82626
# Velocity P-wave (km/s) = 5.83706 6.64358 6.25334
#
# Compressibility (1/GPa) = 0.02656641
#
# Stress axis : x y z
#
# Youngs Moduli (GPa) = 52.74189 91.60626 108.05681
#
# Poissons Ratio (x) = 0.02007 0.50119
# Poissons Ratio (y) = 0.01155 0.15398
# Poissons Ratio (z) = 0.24463 0.13054
#
# Static dielectric constant tensor:
#      x y z
#    x 1.902530 0.005450 0.010720 
#    y 0.005450 1.974360 -0.035270 
#    z 0.010720 -0.035270 1.940260 
# 
# From -- ./inp_files/306212.got.cif
#   From: 2010.05.17/outbox.cif.g08.bks.cpg/sg2_154_cif.got.tgz:306212.got - 2010.06.03 11:33:40.
