data_PCOD9010684
_publ_section_title
;
Structure prediction by ZEFSAII (Michael W. Deem and Ramdas Pophale) SiO2 
 PCOD9010684
Probable space group: P -1
;
_chemical_formula_sum "Si O2"
_cell_formula_units_Z 12
_cell_length_a 5.515267
_cell_length_b 20.323273
_cell_length_c 7.529371
_cell_angle_alpha 138.473647
_cell_angle_beta 59.054678
_cell_angle_gamma 106.770847
_cell_volume 472.919098
_symmetry_space_group_name_H-M "P -1"
_symmetry_group_IT_number 2
_symmetry_cell_setting 'triclinic'
loop_
_space_group_symop_operation_xyz
x,y,z
-x,-y,-z
loop_
_atom_site_type_symbol
_atom_site_label
_atom_site_fract_x
_atom_site_fract_y
_atom_site_fract_z
Si Si1 0.697042 0.047941 0.893496
Si Si2 0.949036 0.689693 0.117103
Si Si3 0.455411 0.767459 0.928429
Si Si4 0.670882 0.426307 0.532529
Si Si5 0.335043 0.640157 0.207807
Si Si6 0.748121 0.909597 0.279618
O O1 0.977944 0.086245 0.938526
O O2 0.806984 0.951687 0.533630
O O3 0.541279 0.146953 0.047778
O O4 0.500000 0.000000 0.000000
O O5 0.085606 0.683508 0.251173
O O6 0.913497 0.409560 0.253811
O O7 0.605939 0.699423 0.256061
O O8 0.126281 0.767718 0.112726
O O9 0.537121 0.652349 0.608793
O O10 0.639254 0.804800 0.090890
O O11 0.773288 0.384835 0.606043
O O12 0.488615 0.535349 0.849283
O O13 0.500000 0.000000 0.500000
#
# Coordination Sequence:
#
# PCOD9010684 Si02
#       6
#     2   2   2   2   2   2
#     4  10  21  40  64  88 123 168 210 268 334 392
#     4  10  24  40  66  93 136 171 220 268 330 374
#     4   9  22  39  57  97 123 164 212 277 304 400
#     4   9  23  40  63  98 131 167 234 258 317 398
#     4  11  22  44  65  94 132 188 207 271 327 379
#     4   9  20  41  60  86 122 161 206 266 330 390
#
# _framework density 25.374319
#
# number of rings (size 3 to 8) (size 9 to 14) (size 15 to 20)
#    1.000    1.333    0.000    1.000    2.333    8.000 
#   15.000    0.000    0.000    0.000    0.000    0.000 
#    0.000    0.000    0.000    0.000    0.000    0.000 
#
# Total GULP energy -66925.157889 kJ/mol
# GULP energy per Si atom -5577.096491 kJ/mol
# Density = 2.531657 g / cm^3
# Si number density = 25.374319 Si / 1000 Ang^3
#
#
#
# Elastic Constant Matrix: (Units=GPa)
#
#
# Indices 1 2 3 4 5 6 
#
# 1 129.1846 49.1943 25.0320 -3.1492 12.8680 23.8387
# 2 49.1943 107.8195 3.0430 -0.3779 -1.5022 10.6673
# 3 25.0320 3.0430 64.0767 14.5082 25.1645 17.0417
# 4 -3.1492 -0.3779 14.5082 39.4476 12.6961 9.4192
# 5 12.8680 -1.5022 25.1645 12.6961 26.0615 2.3519
# 6 23.8387 10.6673 17.0417 9.4192 2.3519 36.9631
#
#
#
# Elastic Compliance Matrix: (Units=1/GPa)
#
#
# Indices 1 2 3 4 5 6 
#
# 1 0.011804 -0.004782 -0.001034 0.005108 -0.006997 -0.006612
# 2 -0.004782 0.011514 0.000396 -0.001436 0.003366 -0.000270
# 3 -0.001034 0.000396 0.029672 0.000565 -0.027352 -0.011531
# 4 0.005108 -0.001436 0.000565 0.034134 -0.018818 -0.010641
# 5 -0.006997 0.003366 -0.027352 -0.018818 0.076144 0.016102
# 6 -0.006612 -0.000270 -0.011531 -0.010641 0.016102 0.038400
#
#
# Mechanical properties :
#
#
# Convention : Reuss Voigt Hill
#
# Bulk Modulus (GPa) = 23.72472 50.62438 37.17455
# Shear Modulus (GPa) = 22.06946 35.41522 28.74234
#
# Velocity S-wave (km/s) = 2.95236 3.73997 3.36926
# Velocity P-wave (km/s) = 4.58171 6.21645 5.46060
#
# Compressibility (1/GPa) = 0.04215013
#
# Stress axis : x y z
#
# Youngs Moduli (GPa) = 84.71812 86.85124 33.70149
#
# Poissons Ratio (x) = 0.41531 0.03486
# Poissons Ratio (y) = 0.40511 -0.01335
# Poissons Ratio (z) = 0.08763 -0.03442
#
# Static dielectric constant tensor:
#      x y z
#    x 1.958200 -0.098580 0.062460 
#    y -0.098580 2.407530 -0.106680 
#    z 0.062460 -0.106680 2.042790 
# 
# From -- ./inp_files/139950.got.cif
#   From: 2010.05.17/outbox.cif.g08.bks.cpg/sg2_70_cif.got.tgz:139950.got - 2010.06.03 11:33:40.
