data_PCOD9010855
_publ_section_title
;
Structure prediction by ZEFSAII (Michael W. Deem and Ramdas Pophale) SiO2 
 PCOD9010855
Probable space group: P -1
;
_chemical_formula_sum "Si O2"
_cell_formula_units_Z 14
_cell_length_a 14.708517
_cell_length_b 15.388430
_cell_length_c 7.958498
_cell_angle_alpha 95.217576
_cell_angle_beta 69.220184
_cell_angle_gamma 155.030050
_cell_volume 576.882875
_symmetry_space_group_name_H-M "P -1"
_symmetry_group_IT_number 2
_symmetry_cell_setting 'triclinic'
loop_
_space_group_symop_operation_xyz
x,y,z
-x,-y,-z
loop_
_atom_site_type_symbol
_atom_site_label
_atom_site_fract_x
_atom_site_fract_y
_atom_site_fract_z
Si Si1 0.686046 0.094872 0.013244
Si Si2 0.204808 0.102685 0.467276
Si Si3 0.301649 0.767939 0.698242
Si Si4 0.336897 0.385692 0.760464
Si Si5 0.270869 0.618876 0.399531
Si Si6 0.723793 0.849716 0.178335
Si Si7 0.191076 0.890315 0.385196
O O1 0.840340 0.284519 0.085426
O O2 0.456413 0.839697 0.206665
O O3 0.854025 0.175239 0.790229
O O4 0.500000 0.000000 0.000000
O O5 0.514067 0.397272 0.255850
O O6 0.174473 0.078201 0.684171
O O7 0.140323 0.949327 0.437383
O O8 0.000000 0.000000 0.500000
O O9 0.160234 0.586717 0.619640
O O10 0.500000 0.000000 0.500000
O O11 0.505477 0.877351 0.694998
O O12 0.500000 0.500000 0.500000
O O13 0.387822 0.341051 0.831517
O O14 0.997013 0.107089 0.935812
O O15 0.487817 0.724546 0.323744
O O16 0.020950 0.355689 0.426848
#
# Coordination Sequence:
#
# PCOD9010855 Si02
#       7
#     2   2   2   2   2   2   2
#     4   9  22  40  62  96 128 166 220 269 333 389
#     4  11  23  39  62  97 137 172 218 271 326 397
#     4   9  20  42  64  92 129 168 221 270 327 393
#     4   9  21  40  64  88 131 167 219 272 318 384
#     4  11  22  40  68  91 134 173 217 272 326 400
#     4  10  21  40  64  94 124 181 222 261 336 388
#     4  11  23  41  65  98 136 171 221 270 332 389
#
# _framework density 24.268357000000002
#
# number of rings (size 3 to 8) (size 9 to 14) (size 15 to 20)
#    0.000    2.000    1.429    0.857    0.000   13.143 
#    0.000    2.857    0.000    0.000    0.000    0.000 
#    0.000    0.000    0.000    0.000    0.000    0.000 
#
# Total GULP energy -78160.738547 kJ/mol
# GULP energy per Si atom -5582.909896 kJ/mol
# Density = 2.421312 g / cm^3
# Si number density = 24.268357 Si / 1000 Ang^3
#
#
#
# Elastic Constant Matrix: (Units=GPa)
#
#
# Indices 1 2 3 4 5 6 
#
# 1 105.2206 33.8689 8.9040 3.7956 0.7743 -17.9222
# 2 33.8689 113.7090 19.2916 -18.8438 1.5685 -47.7137
# 3 8.9040 19.2916 75.5913 -12.0224 -2.4180 -11.8529
# 4 3.7956 -18.8438 -12.0224 36.5729 -5.3573 -1.1283
# 5 0.7743 1.5685 -2.4180 -5.3573 32.3670 -1.4483
# 6 -17.9222 -47.7137 -11.8529 -1.1283 -1.4483 52.3948
#
#
#
# Elastic Compliance Matrix: (Units=1/GPa)
#
#
# Indices 1 2 3 4 5 6 
#
# 1 0.010883 -0.003555 -0.000901 -0.003354 -0.000702 0.000189
# 2 -0.003555 0.018055 -0.000062 0.010365 0.001614 0.015479
# 3 -0.000901 -0.000062 0.014760 0.005326 0.002150 0.003149
# 4 -0.003354 0.010365 0.005326 0.036043 0.006409 0.010450
# 5 -0.000702 0.001614 0.002150 0.006409 0.032178 0.002743
# 6 0.000189 0.015479 0.003149 0.010450 0.002743 0.034260
#
#
# Mechanical properties :
#
#
# Convention : Reuss Voigt Hill
#
# Bulk Modulus (GPa) = 28.84986 46.51666 37.68326
# Shear Modulus (GPa) = 29.98153 39.76404 34.87279
#
# Velocity S-wave (km/s) = 3.51866 4.05225 3.79484
# Velocity P-wave (km/s) = 5.33119 6.41120 5.89598
#
# Compressibility (1/GPa) = 0.03466221
#
# Stress axis : x y z
#
# Youngs Moduli (GPa) = 91.88685 55.38784 67.74858
#
# Poissons Ratio (x) = 0.19693 0.06103
# Poissons Ratio (y) = 0.32670 0.00417
# Poissons Ratio (z) = 0.08277 0.00341
#
# Static dielectric constant tensor:
#      x y z
#    x 1.887370 -0.029680 -0.003040 
#    y -0.029680 2.065240 0.015090 
#    z -0.003040 0.015090 1.949380 
# 
# From -- ./inp_files/315235.got.cif
#   From: 2010.05.17/outbox.cif.g08.bks.cpg/sg2_158_cif.got.tgz:315235.got - 2010.06.03 11:33:40.
