data_PCOD9010135
_publ_section_title
;
Structure prediction by ZEFSAII (Michael W. Deem and Ramdas Pophale) SiO2 
 PCOD9010135
Probable space group: P -1
;
_chemical_formula_sum "Si O2"
_cell_formula_units_Z 16
_cell_length_a 13.849149
_cell_length_b 14.641684
_cell_length_c 9.157543
_cell_angle_alpha 105.820860
_cell_angle_beta 97.481538
_cell_angle_gamma 145.519633
_cell_volume 767.181935
_symmetry_space_group_name_H-M "P -1"
_symmetry_group_IT_number 2
_symmetry_cell_setting 'triclinic'
loop_
_space_group_symop_operation_xyz
x,y,z
-x,-y,-z
loop_
_atom_site_type_symbol
_atom_site_label
_atom_site_fract_x
_atom_site_fract_y
_atom_site_fract_z
Si Si1 0.622102 0.570581 0.911634
Si Si2 0.545558 0.852060 0.111650
Si Si3 0.108200 0.559846 0.896482
Si Si4 0.333117 0.863809 0.546475
Si Si5 0.867870 0.976855 0.143733
Si Si6 0.684739 0.722320 0.543159
Si Si7 0.371556 0.981463 0.113239
Si Si8 0.921991 0.110337 0.899985
O O1 0.435988 0.370592 0.675908
O O2 0.500000 0.500000 0.000000
O O3 0.750095 0.778502 0.971523
O O4 0.828816 0.680615 0.025177
O O5 0.684308 0.876795 0.151919
O O6 0.640303 0.011461 0.315170
O O7 0.278319 0.622299 0.982343
O O8 0.576956 0.918392 0.981338
O O9 0.915707 0.368397 0.661262
O O10 0.254910 0.778694 0.968040
O O11 0.000000 0.500000 0.000000
O O12 0.500000 0.000000 0.500000
O O13 0.413794 0.856043 0.675715
O O14 0.083237 0.134042 0.348299
O O15 0.947980 0.106996 0.075773
O O16 0.500000 0.500000 0.500000
O O17 0.758766 0.887509 0.699915
O O18 0.198920 0.894850 0.133097
#
# Coordination Sequence:
#
# PCOD9010135 Si02
#       8
#     2   2   2   2   2   2   2   2
#     4  11  23  39  57  93 123 157 195 247 300 348
#     4  10  23  40  60  91 120 153 204 252 289 350
#     4  11  21  39  62  81 120 161 189 244 309 347
#     4  11  21  41  62  87 120 157 197 242 303 363
#     4  10  21  40  62  88 122 156 202 247 290 357
#     4  11  19  39  69  84 117 165 201 234 299 357
#     4  10  23  40  60  91 120 153 204 252 289 350
#     4  10  21  40  62  88 122 156 202 247 290 357
#
# _framework density 20.855549
#
# number of rings (size 3 to 8) (size 9 to 14) (size 15 to 20)
#    0.000    1.500    5.000    2.250    0.000    7.000 
#    4.500    0.000    0.000    0.000    0.000    0.000 
#    0.000    0.000    0.000    0.000    0.000    0.000 
#
# Total GULP energy -89370.158041 kJ/mol
# GULP energy per Si atom -5585.634878 kJ/mol
# Density = 2.080808 g / cm^3
# Si number density = 20.855549 Si / 1000 Ang^3
#
#
#
# Elastic Constant Matrix: (Units=GPa)
#
#
# Indices 1 2 3 4 5 6 
#
# 1 149.0166 17.7481 50.6068 20.7616 -2.3212 40.6675
# 2 17.7481 50.9363 17.0618 3.5566 6.3078 22.2935
# 3 50.6068 17.0618 164.6346 23.2576 9.8574 21.2497
# 4 20.7616 3.5566 23.2576 32.2418 14.2798 5.4913
# 5 -2.3212 6.3078 9.8574 14.2798 15.5258 -0.4564
# 6 40.6675 22.2935 21.2497 5.4913 -0.4564 43.6230
#
#
#
# Elastic Compliance Matrix: (Units=1/GPa)
#
#
# Indices 1 2 3 4 5 6 
#
# 1 0.010988 -0.000628 -0.001641 -0.009612 0.011551 -0.007793
# 2 -0.000628 0.028555 -0.000962 0.009443 -0.020209 -0.014940
# 3 -0.001641 -0.000962 0.007386 -0.003267 -0.001574 -0.001182
# 4 -0.009612 0.009443 -0.003267 0.068498 -0.066305 -0.003590
# 5 0.011551 -0.020209 -0.001574 -0.066305 0.136626 0.010102
# 6 -0.007793 -0.014940 -0.001182 -0.003590 0.010102 0.038957
#
#
# Mechanical properties :
#
#
# Convention : Reuss Voigt Hill
#
# Bulk Modulus (GPa) = 24.70995 59.49123 42.10059
# Shear Modulus (GPa) = 16.07915 36.88950 26.48432
#
# Velocity S-wave (km/s) = 2.77966 4.21028 3.56742
# Velocity P-wave (km/s) = 4.70913 7.22652 6.09912
#
# Compressibility (1/GPa) = 0.04046952
#
# Stress axis : x y z
#
# Youngs Moduli (GPa) = 91.00470 35.01992 135.38336
#
# Poissons Ratio (x) = 0.02198 0.22210
# Poissons Ratio (y) = 0.05711 0.13026
# Poissons Ratio (z) = 0.14930 0.03369
#
# Static dielectric constant tensor:
#      x y z
#    x 1.764390 0.002020 0.020610 
#    y 0.002020 1.811060 -0.018960 
#    z 0.020610 -0.018960 1.716050 
# 
# From -- ./inp_files/217987.got.cif
#   From: 2010.05.17/outbox.cif.g08.bks.cpg/sg2_109_cif.got.tgz:217987.got - 2010.06.03 11:33:40.
