data_PCOD9010518
_publ_section_title
;
Structure prediction by ZEFSAII (Michael W. Deem and Ramdas Pophale) SiO2 
 PCOD9010518
Probable space group: P -1
;
_chemical_formula_sum "Si O2"
_cell_formula_units_Z 16
_cell_length_a 18.068975
_cell_length_b 8.031702
_cell_length_c 8.755240
_cell_angle_alpha 51.128455
_cell_angle_beta 54.222113
_cell_angle_gamma 79.843785
_cell_volume 765.152192
_symmetry_space_group_name_H-M "P -1"
_symmetry_group_IT_number 2
_symmetry_cell_setting 'triclinic'
loop_
_space_group_symop_operation_xyz
x,y,z
-x,-y,-z
loop_
_atom_site_type_symbol
_atom_site_label
_atom_site_fract_x
_atom_site_fract_y
_atom_site_fract_z
Si Si1 0.764691 0.966946 0.240487
Si Si2 0.902062 0.832209 0.760911
Si Si3 0.438079 0.025636 0.412329
Si Si4 0.058697 0.567335 0.228970
Si Si5 0.722805 0.931255 0.954628
Si Si6 0.576488 0.192586 0.893317
Si Si7 0.075741 0.211097 0.875478
Si Si8 0.598991 0.449489 0.430964
O O1 0.663799 0.930162 0.467864
O O2 0.734422 0.959567 0.105111
O O3 0.820533 0.785755 0.316753
O O4 0.850752 0.204441 0.010383
O O5 0.896101 0.613847 0.793781
O O6 0.824907 0.960827 0.742404
O O7 0.907974 0.801816 0.954763
O O8 0.000000 0.000000 0.500000
O O9 0.407500 0.780726 0.511671
O O10 0.500000 0.000000 0.500000
O O11 0.514536 0.204020 0.110698
O O12 0.000000 0.500000 0.500000
O O13 0.973590 0.597763 0.206610
O O14 0.673568 0.665497 0.146325
O O15 0.661803 0.087978 0.883411
O O16 0.611654 0.408628 0.618981
O O17 0.500000 0.000000 0.000000
O O18 0.000000 0.000000 0.000000
O O19 0.500000 0.500000 0.500000
#
# Coordination Sequence:
#
# PCOD9010518 Si02
#       8
#     2   2   2   2   2   2   2   2
#     4  10  21  40  63  93 126 164 208 265 321 372
#     4  11  23  42  66  95 124 166 213 263 322 385
#     4  11  20  39  64  90 129 166 207 264 317 378
#     4  11  22  43  64  92 129 166 209 265 323 385
#     4  11  21  43  65  91 129 166 214 265 317 383
#     4  10  21  40  65  89 125 170 206 258 319 370
#     4   9  20  40  63  88 125 160 204 261 313 377
#     4  11  21  40  64  88 125 168 215 259 312 380
#
# _framework density 20.910869999999999
#
# number of rings (size 3 to 8) (size 9 to 14) (size 15 to 20)
#    0.000    1.500    3.750    3.375    0.000    0.000 
#   24.750    2.500    0.000    0.000    0.000    0.000 
#    0.000    0.000    0.000    0.000    0.000    0.000 
#
# Total GULP energy -89137.299870 kJ/mol
# GULP energy per Si atom -5571.081242 kJ/mol
# Density = 2.086328 g / cm^3
# Si number density = 20.910870 Si / 1000 Ang^3
#
#
#
# Elastic Constant Matrix: (Units=GPa)
#
#
# Indices 1 2 3 4 5 6 
#
# 1 112.5978 29.6878 26.1122 20.2144 -8.8825 -41.5262
# 2 29.6878 81.5452 15.0419 26.9984 -10.4628 -24.6458
# 3 26.1122 15.0419 80.1785 21.0569 -13.5330 -24.4204
# 4 20.2144 26.9984 21.0569 34.1786 -6.8482 -11.6386
# 5 -8.8825 -10.4628 -13.5330 -6.8482 34.8085 9.1624
# 6 -41.5262 -24.6458 -24.4204 -11.6386 9.1624 52.7915
#
#
#
# Elastic Compliance Matrix: (Units=1/GPa)
#
#
# Indices 1 2 3 4 5 6 
#
# 1 0.013180 -0.000717 -0.000406 -0.003944 -0.000156 0.009003
# 2 -0.000717 0.018528 0.002398 -0.013247 0.002159 0.005900
# 3 -0.000406 0.002398 0.017084 -0.009376 0.003843 0.005968
# 4 -0.003944 -0.013247 -0.009376 0.046932 0.001532 -0.003544
# 5 -0.000156 0.002159 0.003843 0.001532 0.031796 -0.002517
# 6 0.009003 0.005900 0.005968 -0.003544 -0.002517 0.031195
#
#
# Mechanical properties :
#
#
# Convention : Reuss Voigt Hill
#
# Bulk Modulus (GPa) = 19.47735 46.22281 32.85008
# Shear Modulus (GPa) = 28.85509 37.92103 33.38806
#
# Velocity S-wave (km/s) = 3.71874 4.26309 4.00019
# Velocity P-wave (km/s) = 5.27005 6.81063 6.08925
#
# Compressibility (1/GPa) = 0.05134168
#
# Stress axis : x y z
#
# Youngs Moduli (GPa) = 75.87006 53.97241 58.53564
#
# Poissons Ratio (x) = 0.03868 0.02379
# Poissons Ratio (y) = 0.05438 -0.14037
# Poissons Ratio (z) = 0.03084 -0.12943
#
# Static dielectric constant tensor:
#      x y z
#    x 1.760890 -0.064360 0.037580 
#    y -0.064360 1.755280 -0.016990 
#    z 0.037580 -0.016990 1.825580 
# 
# From -- ./inp_files/217997.got.cif
#   From: 2010.05.17/outbox.cif.g08.bks.cpg/sg2_109_cif.got.tgz:217997.got - 2010.06.03 11:33:40.
