data_PCOD9010166
_publ_section_title
;
Structure prediction by ZEFSAII (Michael W. Deem and Ramdas Pophale) SiO2 
 PCOD9010166
Probable space group: P -1
;
_chemical_formula_sum "Si O2"
_cell_formula_units_Z 16
_cell_length_a 9.022624
_cell_length_b 21.327027
_cell_length_c 22.821227
_cell_angle_alpha 160.441752
_cell_angle_beta 27.871032
_cell_angle_gamma 143.749844
_cell_volume 677.274334
_symmetry_space_group_name_H-M "P -1"
_symmetry_group_IT_number 2
_symmetry_cell_setting 'triclinic'
loop_
_space_group_symop_operation_xyz
x,y,z
-x,-y,-z
loop_
_atom_site_type_symbol
_atom_site_label
_atom_site_fract_x
_atom_site_fract_y
_atom_site_fract_z
Si Si1 0.408895 0.335301 0.260977
Si Si2 0.177419 0.642406 0.759185
Si Si3 0.670149 0.434932 0.144553
Si Si4 0.022564 0.302614 0.476452
Si Si5 0.579502 0.848985 0.489220
Si Si6 0.334939 0.106459 0.909717
Si Si7 0.455200 0.048292 0.187510
Si Si8 0.164573 0.085771 0.663333
O O1 0.726104 0.294381 0.155391
O O2 0.473056 0.474871 0.309762
O O3 0.115801 0.377463 0.445711
O O4 0.377499 0.144470 0.070927
O O5 0.500000 0.500000 0.500000
O O6 0.929675 0.490921 0.714081
O O7 0.018857 0.802288 0.910170
O O8 0.700724 0.632486 0.277675
O O9 0.496425 0.284849 0.034957
O O10 0.014811 0.305204 0.923925
O O11 0.756879 0.174716 0.445395
O O12 0.332297 0.181705 0.293252
O O13 0.793601 0.917657 0.424256
O O14 0.511755 0.997162 0.696149
O O15 0.349848 0.950274 0.818805
O O16 0.106370 0.027923 0.319142
O O17 0.500000 0.000000 0.500000
#
# Coordination Sequence:
#
# PCOD9010166 Si02
#       8
#     2   2   2   2   2   2   2   2
#     4   9  21  40  64  87 131 170 208 264 322 372
#     4  10  21  40  62  89 133 171 210 264 319 380
#     4  10  24  44  65  95 133 167 219 269 313 390
#     4  11  21  38  65  94 127 169 215 260 321 388
#     4  12  23  41  71  93 130 173 216 262 329 379
#     4  10  23  41  64  96 128 166 217 270 316 374
#     4  10  22  41  63  93 130 162 222 265 309 393
#     4  10  21  41  67  95 127 170 214 267 323 377
#
# _framework density 23.624105
#
# number of rings (size 3 to 8) (size 9 to 14) (size 15 to 20)
#    0.000    2.000    2.500    1.500    3.500    3.500 
#    2.250    5.000    0.000    7.500    0.000    0.000 
#    0.000    0.000    0.000    0.000    0.000    0.000 
#
# Total GULP energy -89200.258242 kJ/mol
# GULP energy per Si atom -5575.016140 kJ/mol
# Density = 2.357034 g / cm^3
# Si number density = 23.624105 Si / 1000 Ang^3
#
#
#
# Elastic Constant Matrix: (Units=GPa)
#
#
# Indices 1 2 3 4 5 6 
#
# 1 133.2486 28.5252 40.8447 0.5831 -10.7742 -12.5448
# 2 28.5252 39.9590 23.7641 -4.2819 12.5604 -3.2961
# 3 40.8447 23.7641 82.6005 0.3208 -14.2046 -9.7959
# 4 0.5831 -4.2819 0.3208 30.6919 -1.6611 -2.3149
# 5 -10.7742 12.5604 -14.2046 -1.6611 55.4098 -9.0417
# 6 -12.5448 -3.2961 -9.7959 -2.3149 -9.0417 41.0162
#
#
#
# Elastic Compliance Matrix: (Units=1/GPa)
#
#
# Indices 1 2 3 4 5 6 
#
# 1 0.010181 -0.006944 -0.002114 -0.000745 0.003441 0.002768
# 2 -0.006944 0.041466 -0.011491 0.004933 -0.014266 -0.004402
# 3 -0.002114 -0.011491 0.018286 -0.001012 0.007571 0.004409
# 4 -0.000745 0.004933 -0.001012 0.033415 -0.000233 0.001761
# 5 0.003441 -0.014266 0.007571 -0.000233 0.025063 0.007226
# 6 0.002768 -0.004402 0.004409 0.001761 0.007226 0.027619
#
#
# Mechanical properties :
#
#
# Convention : Reuss Voigt Hill
#
# Bulk Modulus (GPa) = 34.67800 49.11956 41.89878
# Shear Modulus (GPa) = 24.18493 36.26851 30.22672
#
# Velocity S-wave (km/s) = 3.20306 3.92246 3.58087
# Velocity P-wave (km/s) = 5.32827 6.43051 5.90516
#
# Compressibility (1/GPa) = 0.02883672
#
# Stress axis : x y z
#
# Youngs Moduli (GPa) = 98.21853 24.11600 54.68591
#
# Poissons Ratio (x) = 0.16747 0.11559
# Poissons Ratio (y) = 0.68206 0.62837
# Poissons Ratio (z) = 0.20761 0.27711
#
# Static dielectric constant tensor:
#      x y z
#    x 1.966170 0.010420 -0.046700 
#    y 0.010420 2.127760 0.000490 
#    z -0.046700 0.000490 1.884570 
# 
# From -- ./inp_files/608783.got.cif
#   From: 2010.05.17/outbox.cif.g08.bks.cpg/sg2_305_cif.got.tgz:608783.got - 2010.06.03 11:33:40.
