data_PCOD9010070
_publ_section_title
;
Structure prediction by ZEFSAII (Michael W. Deem and Ramdas Pophale) SiO2 
 PCOD9010070
Probable space group: P -1
;
_chemical_formula_sum "Si O2"
_cell_formula_units_Z 16
_cell_length_a 8.717950
_cell_length_b 10.490071
_cell_length_c 13.889777
_cell_angle_alpha 55.074634
_cell_angle_beta 52.128965
_cell_angle_gamma 80.801666
_cell_volume 785.282144
_symmetry_space_group_name_H-M "P -1"
_symmetry_group_IT_number 2
_symmetry_cell_setting 'triclinic'
loop_
_space_group_symop_operation_xyz
x,y,z
-x,-y,-z
loop_
_atom_site_type_symbol
_atom_site_label
_atom_site_fract_x
_atom_site_fract_y
_atom_site_fract_z
Si Si1 0.326903 0.513232 0.489828
Si Si2 0.402990 0.459751 0.271899
Si Si3 0.789825 0.370960 0.100621
Si Si4 0.324885 0.017597 0.133257
Si Si5 0.024515 0.138991 0.070516
Si Si6 0.953041 0.326600 0.532867
Si Si7 0.360054 0.712668 0.017650
Si Si8 0.052553 0.211729 0.821482
O O1 0.500000 0.500000 0.500000
O O2 0.411233 0.543500 0.336597
O O3 0.199518 0.639600 0.504065
O O4 0.168889 0.336733 0.643298
O O5 0.593762 0.389805 0.222758
O O6 0.403663 0.587519 0.131732
O O7 0.177066 0.329570 0.411196
O O8 0.852180 0.205237 0.154265
O O9 0.721422 0.376028 0.012942
O O10 0.000000 0.500000 0.000000
O O11 0.193839 0.119486 0.086487
O O12 0.174635 0.841089 0.295920
O O13 0.442924 0.128827 0.128023
O O14 0.500000 0.000000 0.000000
O O15 0.926691 0.961360 0.140360
O O16 0.116572 0.246314 0.893779
O O17 0.000000 0.500000 0.500000
O O18 0.177017 0.779950 0.094671
#
# Coordination Sequence:
#
# PCOD9010070 Si02
#       8
#     2   2   2   2   2   2   2   2
#     4  11  24  36  64  99 136 173 223 272 344 396
#     4  11  23  43  65  96 138 181 222 277 337 405
#     4  11  26  44  67  94 136 185 232 274 334 412
#     4  12  22  37  68 103 133 174 221 281 343 394
#     4  10  22  38  64  93 134 166 225 277 333 388
#     4  10  22  40  62  97 138 173 219 276 334 398
#     4  11  23  41  71  99 133 173 234 280 333 398
#     4  10  21  40  61  98 134 171 215 287 336 386
#
# _framework density 20.374844
#
# number of rings (size 3 to 8) (size 9 to 14) (size 15 to 20)
#    0.000    1.250    2.500    4.125    7.000    0.000 
#    0.000    3.125    0.000    1.500    0.000    0.000 
#    0.000    0.000    0.000    0.000    0.000    0.000 
#
# Total GULP energy -89179.446547 kJ/mol
# GULP energy per Si atom -5573.715409 kJ/mol
# Density = 2.032847 g / cm^3
# Si number density = 20.374844 Si / 1000 Ang^3
#
#
#
# Elastic Constant Matrix: (Units=GPa)
#
#
# Indices 1 2 3 4 5 6 
#
# 1 156.1075 43.4218 43.0521 1.7922 -16.2134 -14.0728
# 2 43.4218 80.0410 36.6580 6.8383 -18.9719 -23.7030
# 3 43.0521 36.6580 99.5319 -13.2552 -22.7793 -3.6143
# 4 1.7922 6.8383 -13.2552 23.6757 -7.5352 -10.2681
# 5 -16.2134 -18.9719 -22.7793 -7.5352 35.7506 4.3006
# 6 -14.0728 -23.7030 -3.6143 -10.2681 4.3006 48.6696
#
#
#
# Elastic Compliance Matrix: (Units=1/GPa)
#
#
# Indices 1 2 3 4 5 6 
#
# 1 0.007966 -0.002946 -0.002371 -0.000759 0.000318 0.000504
# 2 -0.002946 0.020081 -0.005487 -0.004200 0.004064 0.007275
# 3 -0.002371 -0.005487 0.017413 0.014835 0.010215 0.000163
# 4 -0.000759 -0.004200 0.014835 0.062257 0.018760 0.010314
# 5 0.000318 0.004064 0.010215 0.018760 0.040348 0.003223
# 6 0.000504 0.007275 0.000163 0.010314 0.003223 0.026139
#
#
# Mechanical properties :
#
#
# Convention : Reuss Voigt Hill
#
# Bulk Modulus (GPa) = 41.92353 64.66047 53.29200
# Shear Modulus (GPa) = 24.53827 35.78909 30.16368
#
# Velocity S-wave (km/s) = 3.47413 4.19565 3.85182
# Velocity P-wave (km/s) = 6.05917 7.43476 6.78193
#
# Compressibility (1/GPa) = 0.02385295
#
# Stress axis : x y z
#
# Youngs Moduli (GPa) = 125.52735 49.79710 57.42949
#
# Poissons Ratio (x) = 0.14672 0.13615
# Poissons Ratio (y) = 0.36985 0.31510
# Poissons Ratio (z) = 0.29759 0.27322
#
# Static dielectric constant tensor:
#      x y z
#    x 1.935390 0.070960 -0.021670 
#    y 0.070960 1.770730 -0.000090 
#    z -0.021670 -0.000090 1.755480 
# 
# From -- ./inp_files/500005.got.cif
#   From: 2010.05.17/outbox.cif.g08.bks.cpg/sg2_251_cif.got.tgz:500005.got - 2010.06.03 11:33:40.
