data_PCOD9010401
_publ_section_title
;
Structure prediction by ZEFSAII (Michael W. Deem and Ramdas Pophale) SiO2 
 PCOD9010401
Probable space group: P -1
;
_chemical_formula_sum "Si O2"
_cell_formula_units_Z 12
_cell_length_a 12.831764
_cell_length_b 26.748070
_cell_length_c 13.837653
_cell_angle_alpha 17.362783
_cell_angle_beta 148.862029
_cell_angle_gamma 158.836200
_cell_volume 485.344272
_symmetry_space_group_name_H-M "P -1"
_symmetry_group_IT_number 2
_symmetry_cell_setting 'triclinic'
loop_
_space_group_symop_operation_xyz
x,y,z
-x,-y,-z
loop_
_atom_site_type_symbol
_atom_site_label
_atom_site_fract_x
_atom_site_fract_y
_atom_site_fract_z
Si Si1 0.036000 0.411625 0.095732
Si Si2 0.647820 0.914955 0.615436
Si Si3 0.535675 0.534887 0.350711
Si Si4 0.267456 0.556486 0.486798
Si Si5 0.226635 0.222701 0.375745
Si Si6 0.124097 0.803585 0.992691
O O1 0.201417 0.346856 0.385947
O O2 0.738404 0.156885 0.276815
O O3 0.000000 0.500000 0.000000
O O4 0.293351 0.665319 0.767358
O O5 0.893552 0.014647 0.547116
O O6 0.676569 0.798597 0.940362
O O7 0.500000 0.500000 0.500000
O O8 0.715014 0.499465 0.504189
O O9 0.529049 0.619403 0.636942
O O10 0.967460 0.325633 0.736710
O O11 0.307579 0.779311 0.123746
O O12 0.178792 0.342967 0.040248
O O13 0.269374 0.073654 0.629839
#
# Coordination Sequence:
#
# PCOD9010401 Si02
#       6
#     2   2   2   2   2   2
#     4  10  21  40  63  89 125 173 216 273 326 391
#     4  10  21  40  65  90 134 170 214 282 330 398
#     4  10  23  40  63  90 130 175 217 273 334 393
#     4  11  21  43  61  95 133 169 223 277 332 399
#     4  11  20  41  64  96 129 169 220 273 346 392
#     4  10  23  37  68  94 127 174 220 273 341 403
#
# _framework density 24.724716000000001
#
# number of rings (size 3 to 8) (size 9 to 14) (size 15 to 20)
#    1.000    0.667    3.333    1.500    0.000    2.000 
#    0.000    0.000    0.000    0.000    0.000    0.000 
#    0.000    0.000    0.000    0.000    0.000    0.000 
#
# Total GULP energy -66983.405998 kJ/mol
# GULP energy per Si atom -5581.950500 kJ/mol
# Density = 2.466844 g / cm^3
# Si number density = 24.724716 Si / 1000 Ang^3
#
#
#
# Elastic Constant Matrix: (Units=GPa)
#
#
# Indices 1 2 3 4 5 6 
#
# 1 187.3469 9.8769 58.2216 -0.4342 9.3314 -16.9412
# 2 9.8769 60.0016 18.9171 -3.0549 4.1265 -5.9138
# 3 58.2216 18.9171 95.9790 -11.0474 4.0300 -12.6139
# 4 -0.4342 -3.0549 -11.0474 39.2585 -5.0319 4.3161
# 5 9.3314 4.1265 4.0300 -5.0319 37.8851 2.7684
# 6 -16.9412 -5.9138 -12.6139 4.3161 2.7684 28.0296
#
#
#
# Elastic Compliance Matrix: (Units=1/GPa)
#
#
# Indices 1 2 3 4 5 6 
#
# 1 0.006901 0.000450 -0.004003 -0.001554 -0.001740 0.002876
# 2 0.000450 0.018064 -0.003401 -0.000097 -0.001931 0.002758
# 3 -0.004003 -0.003401 0.014268 0.003416 0.000091 0.002749
# 4 -0.001554 -0.000097 0.003416 0.027359 0.003958 -0.004027
# 5 -0.001740 -0.001931 0.000091 0.003958 0.027900 -0.004783
# 6 0.002876 0.002758 0.002749 -0.004027 -0.004783 0.040326
#
#
# Mechanical properties :
#
#
# Convention : Reuss Voigt Hill
#
# Bulk Modulus (GPa) = 39.48567 57.48428 48.48498
# Shear Modulus (GPa) = 31.81327 38.12211 34.96769
#
# Velocity S-wave (km/s) = 3.59095 3.93092 3.76477
# Velocity P-wave (km/s) = 5.76177 6.62593 6.20891
#
# Compressibility (1/GPa) = 0.02532564
#
# Stress axis : x y z
#
# Youngs Moduli (GPa) = 144.90668 55.35834 70.08709
#
# Poissons Ratio (x) = -0.02491 0.28054
# Poissons Ratio (y) = -0.06520 0.23836
# Poissons Ratio (z) = 0.58003 0.18827
#
# Static dielectric constant tensor:
#      x y z
#    x 1.998730 0.022960 -0.035610 
#    y 0.022960 2.056240 -0.008680 
#    z -0.035610 -0.008680 2.014470 
# 
# From -- ./inp_files/115220.got.cif
#   From: 2010.05.17/outbox.cif.g08.bks.cpg/sg2_58_cif.got.tgz:115220.got - 2010.06.03 11:33:40.
