data_PCOD9010786
_publ_section_title
;
Structure prediction by ZEFSAII (Michael W. Deem and Ramdas Pophale) SiO2 
 PCOD9010786
Probable space group: P -1
;
_chemical_formula_sum "Si O2"
_cell_formula_units_Z 16
_cell_length_a 14.537455
_cell_length_b 9.033480
_cell_length_c 5.621529
_cell_angle_alpha 88.873180
_cell_angle_beta 86.663155
_cell_angle_gamma 100.055019
_cell_volume 725.335065
_symmetry_space_group_name_H-M "P -1"
_symmetry_group_IT_number 2
_symmetry_cell_setting 'triclinic'
loop_
_space_group_symop_operation_xyz
x,y,z
-x,-y,-z
loop_
_atom_site_type_symbol
_atom_site_label
_atom_site_fract_x
_atom_site_fract_y
_atom_site_fract_z
Si Si1 0.250547 0.148717 0.056471
Si Si2 0.463725 0.751626 0.130364
Si Si3 0.417548 0.051929 0.257035
Si Si4 0.052438 0.975282 0.242297
Si Si5 0.647031 0.725316 0.361801
Si Si6 0.696270 0.518681 0.736212
Si Si7 0.100798 0.426489 0.243171
Si Si8 0.965380 0.657778 0.248793
O O1 0.329966 0.046689 0.089678
O O2 0.284804 0.315516 0.152993
O O3 0.155494 0.070202 0.193348
O O4 0.257593 0.188794 0.776067
O O5 0.557565 0.694150 0.201954
O O6 0.381415 0.609642 0.139759
O O7 0.436640 0.884320 0.299090
O O8 0.492874 0.844512 0.881768
O O9 0.384437 0.149551 0.467323
O O10 0.049734 0.797334 0.238339
O O11 0.000000 0.000000 0.500000
O O12 0.000000 0.000000 0.000000
O O13 0.663389 0.569957 0.482269
O O14 0.797616 0.471643 0.746080
O O15 0.090107 0.335647 0.496265
O O16 0.012254 0.510188 0.250279
O O17 0.092111 0.345130 0.989269
#
# Coordination Sequence:
#
# PCOD9010786 Si02
#       8
#     2   2   2   2   2   2   2   2
#     4  10  24  40  61  91 128 166 216 269 320 391
#     4  10  21  40  64  92 124 171 209 269 331 391
#     4   9  21  41  64  88 129 162 214 268 325 395
#     4  12  26  41  70  97 133 178 220 270 331 397
#     4  10  22  40  61  91 127 166 212 271 325 389
#     4  11  23  37  63  91 126 167 217 265 325 393
#     4  10  23  42  68  94 133 169 216 278 324 390
#     4  10  22  45  65  94 132 172 218 268 334 387
#
# _framework density 22.058769000000002
#
# number of rings (size 3 to 8) (size 9 to 14) (size 15 to 20)
#    0.000    1.750    0.000    3.000    8.750    5.500 
#    0.000    1.250    0.000    0.000    0.000    0.000 
#    0.000    0.000    0.000    0.000    0.000    0.000 
#
# Total GULP energy -89130.699090 kJ/mol
# GULP energy per Si atom -5570.668693 kJ/mol
# Density = 2.200856 g / cm^3
# Si number density = 22.058769 Si / 1000 Ang^3
#
#
#
# Elastic Constant Matrix: (Units=GPa)
#
#
# Indices 1 2 3 4 5 6 
#
# 1 105.2426 33.2324 47.7203 -16.3987 -7.7435 21.8631
# 2 33.2324 85.9706 43.7032 -20.4437 -6.7762 38.1154
# 3 47.7203 43.7032 128.2105 -11.6070 -15.4042 17.5163
# 4 -16.3987 -20.4437 -11.6070 17.2315 3.7116 -7.7568
# 5 -7.7435 -6.7762 -15.4042 3.7116 36.0340 -14.0959
# 6 21.8631 38.1154 17.5163 -7.7568 -14.0959 38.3586
#
#
#
# Elastic Compliance Matrix: (Units=1/GPa)
#
#
# Indices 1 2 3 4 5 6 
#
# 1 0.013513 0.001982 -0.004166 0.009915 -0.002079 -0.006529
# 2 0.001982 0.032069 -0.006742 0.024681 -0.010182 -0.028668
# 3 -0.004166 -0.006742 0.011262 -0.003142 0.004980 0.005125
# 4 0.009915 0.024681 -0.003142 0.090390 -0.009313 -0.013885
# 5 -0.002079 -0.010182 0.004980 -0.009313 0.036524 0.020567
# 6 -0.006529 -0.028668 0.005125 -0.013885 0.020567 0.060687
#
#
# Mechanical properties :
#
#
# Convention : Reuss Voigt Hill
#
# Bulk Modulus (GPa) = 25.64458 63.19285 44.41872
# Shear Modulus (GPa) = 18.16247 31.30931 24.73589
#
# Velocity S-wave (km/s) = 2.87255 3.77153 3.35231
# Velocity P-wave (km/s) = 4.75950 6.90475 5.92994
#
# Compressibility (1/GPa) = 0.03899459
#
# Stress axis : x y z
#
# Youngs Moduli (GPa) = 74.00359 31.18229 88.79569
#
# Poissons Ratio (x) = -0.06182 0.36988
# Poissons Ratio (y) = -0.14671 0.59863
# Poissons Ratio (z) = 0.30827 0.21022
#
# Static dielectric constant tensor:
#      x y z
#    x 1.825280 -0.023860 0.015340 
#    y -0.023860 1.776700 0.005690 
#    z 0.015340 0.005690 1.906230 
# 
# From -- ./inp_files/90395.got.cif
#   From: 2010.05.17/outbox.cif.g08.bks.cpg/sg2_46_cif.got.tgz:90395.got - 2010.06.03 11:33:40.
