data_PCOD9010378
_publ_section_title
;
Structure prediction by ZEFSAII (Michael W. Deem and Ramdas Pophale) SiO2 
 PCOD9010378
Probable space group: P -1
;
_chemical_formula_sum "Si O2"
_cell_formula_units_Z 16
_cell_length_a 21.117846
_cell_length_b 9.416848
_cell_length_c 11.843608
_cell_angle_alpha 67.342362
_cell_angle_beta 41.593634
_cell_angle_gamma 35.057063
_cell_volume 721.645819
_symmetry_space_group_name_H-M "P -1"
_symmetry_group_IT_number 2
_symmetry_cell_setting 'triclinic'
loop_
_space_group_symop_operation_xyz
x,y,z
-x,-y,-z
loop_
_atom_site_type_symbol
_atom_site_label
_atom_site_fract_x
_atom_site_fract_y
_atom_site_fract_z
Si Si1 0.928213 0.030781 0.773964
Si Si2 0.687737 0.836259 0.825786
Si Si3 0.926309 0.460077 0.854087
Si Si4 0.781838 0.196112 0.396257
Si Si5 0.916612 0.309029 0.547943
Si Si6 0.650020 0.246947 0.781153
Si Si7 0.990832 0.643147 0.871498
Si Si8 0.692909 0.646007 0.316541
O O1 0.026273 0.991793 0.752454
O O2 0.081357 0.752150 0.562947
O O3 0.839138 0.996874 0.950994
O O4 0.824295 0.304898 0.752190
O O5 0.811673 0.624713 0.838125
O O6 0.821205 0.602097 0.615442
O O7 0.639905 0.080954 0.820687
O O8 0.500000 0.000000 0.000000
O O9 0.970736 0.568146 0.809894
O O10 0.787182 0.576393 0.096995
O O11 0.124182 0.086204 0.698762
O O12 0.647821 0.338265 0.636608
O O13 0.684141 0.472359 0.374603
O O14 0.137521 0.015456 0.376368
O O15 0.500000 0.500000 0.000000
O O16 0.169340 0.494611 0.721500
O O17 0.000000 0.500000 0.000000
O O18 0.500000 0.000000 0.500000
#
# Coordination Sequence:
#
# PCOD9010378 Si02
#       8
#     2   2   2   2   2   2   2   2
#     4   9  18  34  67  84 121 168 221 256 320 385
#     4  12  27  41  64 101 135 172 226 278 338 391
#     4  11  22  44  69  93 131 177 222 271 328 401
#     4  10  22  42  66  95 129 176 221 264 330 398
#     4  10  21  40  63  88 127 176 218 268 323 396
#     4  11  25  40  64  92 135 174 224 270 331 399
#     4   9  20  38  65  94 121 170 214 262 330 392
#     4  10  23  43  69 100 130 165 225 279 330 392
#
# _framework density 22.171541000000001
#
# number of rings (size 3 to 8) (size 9 to 14) (size 15 to 20)
#    0.000    1.750    2.500    1.500    8.750    1.000 
#    0.000    0.625    0.000    0.000    0.000    0.000 
#    0.000    0.000    0.000    0.000    0.000    0.000 
#
# Total GULP energy -89143.474107 kJ/mol
# GULP energy per Si atom -5571.467132 kJ/mol
# Density = 2.212108 g / cm^3
# Si number density = 22.171541 Si / 1000 Ang^3
#
#
#
# Elastic Constant Matrix: (Units=GPa)
#
#
# Indices 1 2 3 4 5 6 
#
# 1 79.7869 9.7949 -0.6869 -2.7739 -7.9826 21.7859
# 2 9.7949 82.9581 31.4560 -20.5564 -8.3291 31.4501
# 3 -0.6869 31.4560 95.1322 0.3461 7.1293 5.3961
# 4 -2.7739 -20.5564 0.3461 39.6279 1.6212 5.5585
# 5 -7.9826 -8.3291 7.1293 1.6212 27.5695 -0.7860
# 6 21.7859 31.4501 5.3961 5.5585 -0.7860 47.5894
#
#
#
# Elastic Compliance Matrix: (Units=1/GPa)
#
#
# Indices 1 2 3 4 5 6 
#
# 1 0.015462 0.003997 -0.001064 0.004348 0.005418 -0.010018
# 2 0.003997 0.028758 -0.009102 0.017893 0.010528 -0.021719
# 3 -0.001064 -0.009102 0.013681 -0.005435 -0.006120 0.005485
# 4 0.004348 0.017893 -0.005435 0.037094 0.005391 -0.017443
# 5 0.005418 0.010528 -0.006120 0.005391 0.042039 -0.008679
# 6 -0.010018 -0.021719 0.005485 -0.017443 -0.008679 0.041224
#
#
# Mechanical properties :
#
#
# Convention : Reuss Voigt Hill
#
# Bulk Modulus (GPa) = 21.94736 37.66723 29.80730
# Shear Modulus (GPa) = 24.29710 37.44493 30.87102
#
# Velocity S-wave (km/s) = 3.31398 4.11405 3.73550
# Velocity P-wave (km/s) = 4.95618 6.29230 5.66378
#
# Compressibility (1/GPa) = 0.04556357
#
# Stress axis : x y z
#
# Youngs Moduli (GPa) = 64.67408 34.77238 73.09385
#
# Poissons Ratio (x) = -0.13898 0.07774
# Poissons Ratio (y) = -0.25850 0.66533
# Poissons Ratio (z) = 0.06879 0.31651
#
# Static dielectric constant tensor:
#      x y z
#    x 1.837910 -0.035870 -0.024470 
#    y -0.035870 2.068640 -0.100240 
#    z -0.024470 -0.100240 1.895810 
# 
# From -- ./inp_files/469941.got.cif
#   From: 2010.05.17/outbox.cif.g08.bks.cpg/sg2_235_cif.got.tgz:469941.got - 2010.06.03 11:33:40.
