data_PCOD9010588
_publ_section_title
;
Structure prediction by ZEFSAII (Michael W. Deem and Ramdas Pophale) SiO2 
 PCOD9010588
Probable space group: P -1
;
_chemical_formula_sum "Si O2"
_cell_formula_units_Z 16
_cell_length_a 17.009680
_cell_length_b 9.678157
_cell_length_c 11.164434
_cell_angle_alpha 122.055653
_cell_angle_beta 51.551372
_cell_angle_gamma 151.614368
_cell_volume 683.635811
_symmetry_space_group_name_H-M "P -1"
_symmetry_group_IT_number 2
_symmetry_cell_setting 'triclinic'
loop_
_space_group_symop_operation_xyz
x,y,z
-x,-y,-z
loop_
_atom_site_type_symbol
_atom_site_label
_atom_site_fract_x
_atom_site_fract_y
_atom_site_fract_z
Si Si1 0.158261 0.426772 0.058746
Si Si2 0.536419 0.164778 0.366086
Si Si3 0.358681 0.026709 0.718259
Si Si4 0.042574 0.578072 0.135640
Si Si5 0.700091 0.705390 0.402844
Si Si6 0.035492 0.863208 0.439567
Si Si7 0.844179 0.424045 0.613978
Si Si8 0.765613 0.816028 0.122991
O O1 0.135564 0.441395 0.225602
O O2 0.189967 0.642593 0.064220
O O3 0.287095 0.444171 0.949442
O O4 0.973689 0.116167 0.025627
O O5 0.595399 0.056293 0.272097
O O6 0.686592 0.490026 0.325624
O O7 0.480657 0.155578 0.546660
O O8 0.351261 0.919554 0.356720
O O9 0.145313 0.719424 0.756401
O O10 0.362399 0.223805 0.836547
O O11 0.080733 0.807766 0.258885
O O12 0.000000 0.500000 0.000000
O O13 0.500000 0.500000 0.500000
O O14 0.808413 0.920852 0.510422
O O15 0.769161 0.857657 0.280098
O O16 0.000000 0.000000 0.500000
O O17 0.868088 0.565116 0.536666
O O18 0.000000 0.500000 0.500000
#
# Coordination Sequence:
#
# PCOD9010588 Si02
#       8
#     2   2   2   2   2   2   2   2
#     4  10  22  39  70  91 130 176 230 271 342 393
#     4  11  23  38  68  95 133 176 214 277 349 395
#     4  10  21  41  63  92 129 178 218 266 347 407
#     4  11  24  42  68  99 138 181 224 283 341 409
#     4  12  24  40  67 101 137 172 225 285 337 395
#     4  12  26  40  68 105 135 169 236 287 320 402
#     4  12  21  44  68  98 126 176 234 274 330 414
#     4  10  21  40  63  96 126 176 222 281 329 403
#
# _framework density 23.404274999999998
#
# number of rings (size 3 to 8) (size 9 to 14) (size 15 to 20)
#    0.000    1.000    5.000    2.250    5.250    1.000 
#    0.000    2.500    0.000    0.000    0.000    0.000 
#    0.000    0.000    0.000    0.000    0.000    0.000 
#
# Total GULP energy -89353.043536 kJ/mol
# GULP energy per Si atom -5584.565221 kJ/mol
# Density = 2.335101 g / cm^3
# Si number density = 23.404275 Si / 1000 Ang^3
#
#
#
# Elastic Constant Matrix: (Units=GPa)
#
#
# Indices 1 2 3 4 5 6 
#
# 1 108.1749 13.2680 54.1621 22.9431 -35.3032 -31.4634
# 2 13.2680 65.1959 12.2942 7.7982 -0.7913 -10.8389
# 3 54.1621 12.2942 114.6478 30.3851 -10.3368 -19.4774
# 4 22.9431 7.7982 30.3851 32.7186 -12.8262 -4.2921
# 5 -35.3032 -0.7913 -10.3368 -12.8262 47.3577 8.8042
# 6 -31.4634 -10.8389 -19.4774 -4.2921 8.8042 46.1743
#
#
#
# Elastic Compliance Matrix: (Units=1/GPa)
#
#
# Indices 1 2 3 4 5 6 
#
# 1 0.018305 -0.000983 -0.005719 -0.002228 0.010356 0.007648
# 2 -0.000983 0.016486 0.000032 -0.003643 -0.002044 0.003265
# 3 -0.005719 0.000032 0.014170 -0.010631 -0.004410 0.001941
# 4 -0.002228 -0.003643 -0.010631 0.045903 0.009198 -0.004345
# 5 0.010356 -0.002044 -0.004410 0.009198 0.030371 -0.000219
# 6 0.007648 0.003265 0.001941 -0.004345 -0.000219 0.028092
#
#
# Mechanical properties :
#
#
# Convention : Reuss Voigt Hill
#
# Bulk Modulus (GPa) = 28.07227 49.71860 38.89543
# Shear Modulus (GPa) = 28.00502 39.13641 33.57072
#
# Velocity S-wave (km/s) = 3.46291 4.09368 3.79143
# Velocity P-wave (km/s) = 5.29240 6.60559 5.98512
#
# Compressibility (1/GPa) = 0.03562235
#
# Stress axis : x y z
#
# Youngs Moduli (GPa) = 54.63051 60.65735 70.57026
#
# Poissons Ratio (x) = 0.05963 0.40357
# Poissons Ratio (y) = 0.05371 -0.00229
# Poissons Ratio (z) = 0.31242 -0.00197
#
# Static dielectric constant tensor:
#      x y z
#    x 1.920860 -0.056030 -0.057990 
#    y -0.056030 2.003710 0.023760 
#    z -0.057990 0.023760 1.924520 
# 
# From -- ./inp_files/462444.got.cif
#   From: 2010.05.17/outbox.cif.g08.bks.cpg/sg2_232_cif.got.tgz:462444.got - 2010.06.03 11:33:40.
