data_PCOD9010511
_publ_section_title
;
Structure prediction by ZEFSAII (Michael W. Deem and Ramdas Pophale) SiO2 
 PCOD9010511
Probable space group: P -1
;
_chemical_formula_sum "Si O2"
_cell_formula_units_Z 16
_cell_length_a 14.938049
_cell_length_b 8.051986
_cell_length_c 11.921200
_cell_angle_alpha 132.973988
_cell_angle_beta 130.028989
_cell_angle_gamma 78.211695
_cell_volume 729.821390
_symmetry_space_group_name_H-M "P -1"
_symmetry_group_IT_number 2
_symmetry_cell_setting 'triclinic'
loop_
_space_group_symop_operation_xyz
x,y,z
-x,-y,-z
loop_
_atom_site_type_symbol
_atom_site_label
_atom_site_fract_x
_atom_site_fract_y
_atom_site_fract_z
Si Si1 0.148651 0.585133 0.632164
Si Si2 0.126352 0.473500 0.129629
Si Si3 0.874562 0.938243 0.224038
Si Si4 0.876413 0.749383 0.756034
Si Si5 0.415465 0.288215 0.749940
Si Si6 0.415260 0.780404 0.530035
Si Si7 0.178113 0.257320 0.668544
Si Si8 0.403599 0.417971 0.544936
O O1 0.145667 0.386012 0.443981
O O2 0.210405 0.530333 0.768375
O O3 0.000000 0.500000 0.500000
O O4 0.191036 0.869159 0.758650
O O5 0.113325 0.449730 0.241501
O O6 0.269353 0.678775 0.318588
O O7 0.128926 0.225070 0.962163
O O8 0.000000 0.500000 0.000000
O O9 0.809633 0.765004 0.199140
O O10 0.027044 0.090922 0.444321
O O11 0.744353 0.774256 0.686405
O O12 0.000000 0.000000 0.000000
O O13 0.271909 0.169743 0.634003
O O14 0.419487 0.409898 0.687496
O O15 0.467331 0.074671 0.694202
O O16 0.500000 0.500000 0.000000
O O17 0.414727 0.669799 0.604664
O O18 0.496001 0.668575 0.470992
#
# Coordination Sequence:
#
# PCOD9010511 Si02
#       8
#     2   2   2   2   2   2   2   2
#     4  10  21  40  63  92 136 170 214 275 330 398
#     4  11  25  41  70 102 133 177 227 282 345 401
#     4  10  23  41  64  98 131 175 218 272 343 398
#     4  11  23  42  68 102 135 179 224 280 343 398
#     4  12  26  44  70 100 130 180 230 278 346 400
#     4  10  25  49  70  95 139 181 226 285 338 409
#     4  10  22  40  65  93 137 166 217 282 327 397
#     4  10  24  49  68  97 139 179 231 282 333 409
#
# _framework density 21.923172000000001
#
# number of rings (size 3 to 8) (size 9 to 14) (size 15 to 20)
#    0.000    1.500    1.250    2.625   12.250    0.500 
#   11.250    0.000    0.000    0.000    0.000    0.000 
#    0.000    0.000    0.000    0.000    0.000    0.000 
#
# Total GULP energy -89268.508173 kJ/mol
# GULP energy per Si atom -5579.281761 kJ/mol
# Density = 2.187327 g / cm^3
# Si number density = 21.923172 Si / 1000 Ang^3
#
#
#
# Elastic Constant Matrix: (Units=GPa)
#
#
# Indices 1 2 3 4 5 6 
#
# 1 95.4053 41.5853 15.5627 -20.7352 -0.7259 4.8935
# 2 41.5853 125.2684 50.8067 -22.8655 -10.7569 4.4701
# 3 15.5627 50.8067 75.7970 -4.2355 2.5894 6.5996
# 4 -20.7352 -22.8655 -4.2355 26.9458 -0.5025 -10.3253
# 5 -0.7259 -10.7569 2.5894 -0.5025 25.6062 -12.0643
# 6 4.8935 4.4701 6.5996 -10.3253 -12.0643 38.6729
#
#
#
# Elastic Compliance Matrix: (Units=1/GPa)
#
#
# Indices 1 2 3 4 5 6 
#
# 1 0.013549 -0.002844 -0.000480 0.008253 -0.000207 0.000835
# 2 -0.002844 0.016406 -0.010725 0.013111 0.011654 0.007430
# 3 -0.000480 -0.010725 0.021025 -0.009487 -0.010671 -0.008149
# 4 0.008253 0.013111 -0.009487 0.061490 0.017819 0.021035
# 5 -0.000207 0.011654 -0.010671 0.017819 0.056093 0.022756
# 6 0.000835 0.007430 -0.008149 0.021035 0.022756 0.038999
#
#
# Mechanical properties :
#
#
# Convention : Reuss Voigt Hill
#
# Bulk Modulus (GPa) = 43.70464 56.93111 50.31787
# Shear Modulus (GPa) = 20.55182 30.81274 25.68228
#
# Velocity S-wave (km/s) = 3.06510 3.75305 3.42638
# Velocity P-wave (km/s) = 5.70132 6.69368 6.21733
#
# Compressibility (1/GPa) = 0.02288087
#
# Stress axis : x y z
#
# Youngs Moduli (GPa) = 73.80623 60.95380 47.56302
#
# Poissons Ratio (x) = 0.17337 0.02282
# Poissons Ratio (y) = 0.20993 0.51012
# Poissons Ratio (z) = 0.03541 0.65374
#
# Static dielectric constant tensor:
#      x y z
#    x 1.823510 0.003280 0.000100 
#    y 0.003280 1.868870 0.008730 
#    z 0.000100 0.008730 1.782820 
# 
# From -- ./inp_files/448415.got.cif
#   From: 2010.05.17/outbox.cif.g08.bks.cpg/sg2_225_cif.got.tgz:448415.got - 2010.06.03 11:33:40.
