data_PCOD9010423
_publ_section_title
;
Structure prediction by ZEFSAII (Michael W. Deem and Ramdas Pophale) SiO2 
 PCOD9010423
Probable space group: P -1
;
_chemical_formula_sum "Si O2"
_cell_formula_units_Z 10
_cell_length_a 9.448185
_cell_length_b 12.400327
_cell_length_c 12.406829
_cell_angle_alpha 146.943745
_cell_angle_beta 40.163091
_cell_angle_gamma 113.761506
_cell_volume 377.152746
_symmetry_space_group_name_H-M "P -1"
_symmetry_group_IT_number 2
_symmetry_cell_setting 'triclinic'
loop_
_space_group_symop_operation_xyz
x,y,z
-x,-y,-z
loop_
_atom_site_type_symbol
_atom_site_label
_atom_site_fract_x
_atom_site_fract_y
_atom_site_fract_z
Si Si1 0.698377 0.374957 0.672818
Si Si2 0.537050 0.448937 0.273400
Si Si3 0.896555 0.606378 0.419708
Si Si4 0.179444 0.096545 0.705582
Si Si5 0.310857 0.216279 0.532492
O O1 0.518955 0.546855 0.816645
O O2 0.980721 0.337408 0.507817
O O3 0.773819 0.097870 0.395102
O O4 0.500000 0.500000 0.000000
O O5 0.326534 0.426981 0.439462
O O6 0.479322 0.720357 0.549948
O O7 0.868828 0.221313 0.934314
O O8 0.757030 0.814964 0.575374
O O9 0.150070 0.322066 0.974288
O O10 0.386820 0.012229 0.409273
O O11 0.000000 0.500000 0.000000
#
# Coordination Sequence:
#
# PCOD9010423 Si02
#       5
#     2   2   2   2   2
#     4  12  25  39  61  91 119 158 206 242 290 358
#     4  10  21  40  63  90 122 154 197 248 298 355
#     4  10  21  40  63  90 122 154 197 248 298 355
#     4  10  22  42  64  86 120 160 196 246 298 346
#     4   8  16  35  62  85 113 156 194 232 291 352
#
# _framework density 26.514455000000002
#
# number of rings (size 3 to 8) (size 9 to 14) (size 15 to 20)
#    0.000    2.400    0.000    6.600    0.000    8.000 
#    0.000    6.000    0.000    0.000    0.000    0.000 
#    0.000    0.000    0.000    0.000    0.000    0.000 
#
# Total GULP energy -55924.829784 kJ/mol
# GULP energy per Si atom -5592.482978 kJ/mol
# Density = 2.645411 g / cm^3
# Si number density = 26.514455 Si / 1000 Ang^3
#
#
#
# Elastic Constant Matrix: (Units=GPa)
#
#
# Indices 1 2 3 4 5 6 
#
# 1 173.0299 45.2231 24.2801 -1.6203 -26.4336 -14.1943
# 2 45.2231 133.2494 28.3200 -18.5368 -20.8801 -10.8487
# 3 24.2801 28.3200 15.0750 -3.0818 -7.6719 -0.1192
# 4 -1.6203 -18.5368 -3.0818 34.8774 11.2965 -5.7638
# 5 -26.4336 -20.8801 -7.6719 11.2965 38.7255 -0.5900
# 6 -14.1943 -10.8487 -0.1192 -5.7638 -0.5900 70.6341
#
#
#
# Elastic Compliance Matrix: (Units=1/GPa)
#
#
# Indices 1 2 3 4 5 6 
#
# 1 0.008063 0.000315 -0.011954 -0.001474 0.003759 0.001560
# 2 0.000315 0.013761 -0.024627 0.005158 0.001290 0.002567
# 3 -0.011954 -0.024627 0.134086 -0.004934 0.006469 -0.006307
# 4 -0.001474 0.005158 -0.004934 0.034419 -0.009193 0.003220
# 5 0.003759 0.001290 0.006469 -0.009193 0.033055 0.000490
# 6 0.001560 0.002567 -0.006307 0.003220 0.000490 0.015121
#
#
# Mechanical properties :
#
#
# Convention : Reuss Voigt Hill
#
# Bulk Modulus (GPa) = 11.99362 57.44452 34.71907
# Shear Modulus (GPa) = 14.75669 43.74947 29.25308
#
# Velocity S-wave (km/s) = 2.36170 4.06645 3.32518
# Velocity P-wave (km/s) = 3.45978 6.61517 5.27876
#
# Compressibility (1/GPa) = 0.08337768
#
# Stress axis : x y z
#
# Youngs Moduli (GPa) = 124.02594 72.67152 7.45788
#
# Poissons Ratio (x) = -0.02291 0.08915
# Poissons Ratio (y) = -0.03910 0.18366
# Poissons Ratio (z) = 1.48265 1.78968
#
# Static dielectric constant tensor:
#      x y z
#    x 2.062310 0.016040 -0.020620 
#    y 0.016040 2.136980 0.115230 
#    z -0.020620 0.115230 2.280010 
# 
# From -- ./inp_files/144155.got.cif
#   From: 2010.05.17/outbox.cif.g08.bks.cpg/sg2_73_cif.got.tgz:144155.got - 2010.06.03 11:33:40.
