data_PCOD9010283
_publ_section_title
;
Structure prediction by ZEFSAII (Michael W. Deem and Ramdas Pophale) SiO2 
 PCOD9010283
Probable space group: P -1
;
_chemical_formula_sum "Si O2"
_cell_formula_units_Z 16
_cell_length_a 9.026540
_cell_length_b 9.122494
_cell_length_c 23.539060
_cell_angle_alpha 52.338717
_cell_angle_beta 31.133719
_cell_angle_gamma 47.735214
_cell_volume 738.493635
_symmetry_space_group_name_H-M "P -1"
_symmetry_group_IT_number 2
_symmetry_cell_setting 'triclinic'
loop_
_space_group_symop_operation_xyz
x,y,z
-x,-y,-z
loop_
_atom_site_type_symbol
_atom_site_label
_atom_site_fract_x
_atom_site_fract_y
_atom_site_fract_z
Si Si1 0.961727 0.911335 0.912731
Si Si2 0.497944 0.275214 0.912244
Si Si3 0.682338 0.513847 0.879874
Si Si4 0.842782 0.809884 0.686017
Si Si5 0.752209 0.848879 0.179723
Si Si6 0.770506 0.956369 0.466506
Si Si7 0.629545 0.300700 0.739064
Si Si8 0.419832 0.268249 0.317694
O O1 0.245587 0.851371 0.790349
O O2 0.678742 0.103150 0.937970
O O3 0.824980 0.738757 0.995740
O O4 0.078846 0.989943 0.912100
O O5 0.492693 0.471839 0.899339
O O6 0.685600 0.238295 0.801067
O O7 0.743657 0.712362 0.796672
O O8 0.017235 0.338674 0.817242
O O9 0.500000 0.500000 0.000000
O O10 0.821087 0.686723 0.666742
O O11 0.573556 0.025846 0.713705
O O12 0.149608 0.851785 0.587127
O O13 0.647905 0.762614 0.178532
O O14 0.685040 0.856842 0.572770
O O15 0.074676 0.808653 0.370211
O O16 0.500000 0.000000 0.500000
O O17 0.560518 0.534721 0.707037
#
# Coordination Sequence:
#
# PCOD9010283 Si02
#       8
#     2   2   2   2   2   2   2   2
#     4   9  21  39  65  88 132 171 214 264 324 384
#     4  10  21  40  62  96 127 174 216 266 322 394
#     4  11  24  40  66  98 132 172 223 269 328 389
#     4  10  23  46  66  90 133 175 215 269 330 393
#     4   9  23  40  60  93 132 169 212 265 319 388
#     4  11  25  42  68  96 126 170 219 273 332 381
#     4  11  23  40  65  92 135 163 221 267 328 385
#     4  11  22  42  66  93 131 172 218 266 326 388
#
# _framework density 21.665724999999998
#
# number of rings (size 3 to 8) (size 9 to 14) (size 15 to 20)
#    0.000    1.750    1.250    1.500    3.500    9.500 
#    0.000    0.625    0.000    0.000    0.000    0.000 
#    0.000    0.000    0.000    0.000    0.000    0.000 
#
# Total GULP energy -89247.646271 kJ/mol
# GULP energy per Si atom -5577.977892 kJ/mol
# Density = 2.161641 g / cm^3
# Si number density = 21.665725 Si / 1000 Ang^3
#
#
#
# Elastic Constant Matrix: (Units=GPa)
#
#
# Indices 1 2 3 4 5 6 
#
# 1 120.4846 37.7581 55.1390 -6.9472 -20.8652 28.2533
# 2 37.7581 55.2172 29.2505 -14.9994 -18.8897 16.4224
# 3 55.1390 29.2505 112.7677 -7.5297 -2.8728 18.7162
# 4 -6.9472 -14.9994 -7.5297 24.1978 4.8191 -9.9674
# 5 -20.8652 -18.8897 -2.8728 4.8191 45.9181 -4.5521
# 6 28.2533 16.4224 18.7162 -9.9674 -4.5521 39.6910
#
#
#
# Elastic Compliance Matrix: (Units=1/GPa)
#
#
# Indices 1 2 3 4 5 6 
#
# 1 0.013835 -0.004929 -0.004623 -0.003805 0.003759 -0.006153
# 2 -0.004929 0.031193 -0.004038 0.013686 0.008599 -0.003070
# 3 -0.004623 -0.004038 0.012298 0.000140 -0.003122 -0.001160
# 4 -0.003805 0.013686 0.000140 0.053109 -0.000648 0.010242
# 5 0.003759 0.008599 -0.003122 -0.000648 0.026712 -0.001861
# 6 -0.006153 -0.003070 -0.001160 0.010242 -0.001861 0.033751
#
#
# Mechanical properties :
#
#
# Convention : Reuss Voigt Hill
#
# Bulk Modulus (GPa) = 33.17367 59.19606 46.18487
# Shear Modulus (GPa) = 24.02392 33.04952 28.53672
#
# Velocity S-wave (km/s) = 3.33354 3.90991 3.63317
# Velocity P-wave (km/s) = 5.49195 6.91122 6.24205
#
# Compressibility (1/GPa) = 0.03014439
#
# Stress axis : x y z
#
# Youngs Moduli (GPa) = 72.28227 32.05890 81.31244
#
# Poissons Ratio (x) = 0.15802 0.37592
# Poissons Ratio (y) = 0.35627 0.32837
# Poissons Ratio (z) = 0.33417 0.12947
#
# Static dielectric constant tensor:
#      x y z
#    x 1.822930 0.035510 -0.028240 
#    y 0.035510 1.834430 -0.026480 
#    z -0.028240 -0.026480 1.780980 
# 
# From -- ./inp_files/214711.got.cif
#   From: 2010.05.17/outbox.cif.g08.bks.cpg/sg2_108_cif.got.tgz:214711.got - 2010.06.03 11:33:40.
