data_PCOD9010512
_publ_section_title
;
Structure prediction by ZEFSAII (Michael W. Deem and Ramdas Pophale) SiO2 
 PCOD9010512
Probable space group: P -1
;
_chemical_formula_sum "Si O2"
_cell_formula_units_Z 16
_cell_length_a 16.832902
_cell_length_b 19.083162
_cell_length_c 10.174050
_cell_angle_alpha 43.826964
_cell_angle_beta 146.260531
_cell_angle_gamma 158.257090
_cell_volume 651.460225
_symmetry_space_group_name_H-M "P -1"
_symmetry_group_IT_number 2
_symmetry_cell_setting 'triclinic'
loop_
_space_group_symop_operation_xyz
x,y,z
-x,-y,-z
loop_
_atom_site_type_symbol
_atom_site_label
_atom_site_fract_x
_atom_site_fract_y
_atom_site_fract_z
Si Si1 0.403434 0.259545 0.244769
Si Si2 0.311661 0.688509 0.125838
Si Si3 0.622008 0.369008 0.115762
Si Si4 0.218610 0.765588 0.433134
Si Si5 0.395097 0.346453 0.388671
Si Si6 0.227198 0.233036 0.587523
Si Si7 0.190383 0.959064 0.517540
Si Si8 0.028023 0.651455 0.610033
O O1 0.454239 0.316279 0.084066
O O2 0.319623 0.287941 0.208640
O O3 0.212751 0.046745 0.303219
O O4 0.719251 0.422744 0.498454
O O5 0.425612 0.644632 0.341659
O O6 0.501142 0.869550 0.237531
O O7 0.269507 0.721631 0.887404
O O8 0.000000 0.500000 0.000000
O O9 0.688261 0.295357 0.354770
O O10 0.926257 0.595013 0.180984
O O11 0.409465 0.249481 0.865862
O O12 0.086589 0.716408 0.455492
O O13 0.500000 0.000000 0.500000
O O14 0.176995 0.213702 0.389117
O O15 0.578244 0.555903 0.383302
O O16 0.957366 0.074620 0.519508
O O17 0.045626 0.765654 0.558860
#
# Coordination Sequence:
#
# PCOD9010512 Si02
#       8
#     2   2   2   2   2   2   2   2
#     4  10  21  40  63  93 123 162 213 267 307 372
#     4  11  20  38  62  92 124 167 209 263 319 363
#     4  10  23  43  68  90 130 169 204 270 317 371
#     4  10  22  44  63  96 124 161 218 258 316 383
#     4  10  22  41  62  90 132 163 213 266 305 378
#     4  11  23  43  61  93 133 171 210 256 325 374
#     4  11  22  38  63  93 130 168 212 260 309 389
#     4  11  20  39  62  93 127 161 213 266 317 367
#
# _framework density 24.560209
#
# number of rings (size 3 to 8) (size 9 to 14) (size 15 to 20)
#    0.000    1.500    3.750    1.875    0.000    3.000 
#   11.250    0.000    0.000    0.000    0.000    0.000 
#    0.000    0.000    0.000    0.000    0.000    0.000 
#
# Total GULP energy -89208.487291 kJ/mol
# GULP energy per Si atom -5575.530456 kJ/mol
# Density = 2.450431 g / cm^3
# Si number density = 24.560209 Si / 1000 Ang^3
#
#
#
# Elastic Constant Matrix: (Units=GPa)
#
#
# Indices 1 2 3 4 5 6 
#
# 1 101.4172 24.7191 7.4596 5.5418 8.4522 17.0458
# 2 24.7191 115.2824 20.0901 12.5799 8.8984 12.3692
# 3 7.4596 20.0901 30.2038 1.7271 1.5409 -3.9747
# 4 5.5418 12.5799 1.7271 26.6399 -2.0387 7.0799
# 5 8.4522 8.8984 1.5409 -2.0387 28.6789 -1.6114
# 6 17.0458 12.3692 -3.9747 7.0799 -1.6114 45.8766
#
#
#
# Elastic Compliance Matrix: (Units=1/GPa)
#
#
# Indices 1 2 3 4 5 6 
#
# 1 0.011319 -0.001272 -0.002281 -0.000767 -0.003101 -0.004051
# 2 -0.001272 0.011146 -0.007051 -0.004085 -0.003142 -0.002623
# 3 -0.002281 -0.007051 0.039143 -0.000305 0.001085 0.006225
# 4 -0.000767 -0.004085 -0.000305 0.041257 0.004170 -0.004861
# 5 -0.003101 -0.003142 0.001085 0.004170 0.037151 0.002755
# 6 -0.004051 -0.002623 0.006225 -0.004861 0.002755 0.025396
#
#
# Mechanical properties :
#
#
# Convention : Reuss Voigt Hill
#
# Bulk Modulus (GPa) = 24.75181 39.04899 31.90040
# Shear Modulus (GPa) = 24.98941 33.21470 29.10206
#
# Velocity S-wave (km/s) = 3.19325 3.68146 3.44601
# Velocity P-wave (km/s) = 4.86782 5.83135 5.37124
#
# Compressibility (1/GPa) = 0.04040109
#
# Stress axis : x y z
#
# Youngs Moduli (GPa) = 88.34511 89.72184 25.54752
#
# Poissons Ratio (x) = 0.11412 0.05826
# Poissons Ratio (y) = 0.11237 0.18013
# Poissons Ratio (z) = 0.20148 0.63260
#
# Static dielectric constant tensor:
#      x y z
#    x 2.043560 0.001370 -0.048010 
#    y 0.001370 2.097490 -0.039730 
#    z -0.048010 -0.039730 2.072410 
# 
# From -- ./inp_files/467107.got.cif
#   From: 2010.05.17/outbox.cif.g08.bks.cpg/sg2_234_cif.got.tgz:467107.got - 2010.06.03 11:33:40.
