data_PCOD9010938
_publ_section_title
;
Structure prediction by ZEFSAII (Michael W. Deem and Ramdas Pophale) SiO2 
 PCOD9010938
Probable space group: P -1
;
_chemical_formula_sum "Si O2"
_cell_formula_units_Z 16
_cell_length_a 11.923513
_cell_length_b 11.726567
_cell_length_c 5.936945
_cell_angle_alpha 98.274991
_cell_angle_beta 130.215151
_cell_angle_gamma 78.509496
_cell_volume 621.061994
_symmetry_space_group_name_H-M "P -1"
_symmetry_group_IT_number 2
_symmetry_cell_setting 'triclinic'
loop_
_space_group_symop_operation_xyz
x,y,z
-x,-y,-z
loop_
_atom_site_type_symbol
_atom_site_label
_atom_site_fract_x
_atom_site_fract_y
_atom_site_fract_z
Si Si1 0.145259 0.357262 0.989108
Si Si2 0.353612 0.173861 0.955374
Si Si3 0.600611 0.264436 0.617187
Si Si4 0.161762 0.697867 0.424778
Si Si5 0.173135 0.527953 0.746504
Si Si6 0.026288 0.052941 0.802085
Si Si7 0.633585 0.659628 0.354021
Si Si8 0.646268 0.023825 0.829082
O O1 0.198130 0.258354 0.837710
O O2 0.231316 0.316173 0.310134
O O3 0.206189 0.473900 0.019128
O O4 0.972450 0.374686 0.824494
O O5 0.470977 0.214264 0.294084
O O6 0.358844 0.034997 0.945084
O O7 0.406239 0.221609 0.803702
O O8 0.703708 0.312078 0.577782
O O9 0.508590 0.358210 0.688906
O O10 0.671568 0.153666 0.829280
O O11 0.185187 0.655746 0.703997
O O12 0.083081 0.827948 0.326514
O O13 0.294248 0.448537 0.729206
O O14 0.000000 0.500000 0.500000
O O15 0.000000 0.000000 0.500000
O O16 0.201393 0.057218 0.060976
O O17 0.000000 0.000000 0.000000
O O18 0.500000 0.000000 0.500000
#
# Coordination Sequence:
#
# PCOD9010938 Si02
#       8
#     2   2   2   2   2   2   2   2
#     4   9  19  40  66  94 130 168 235 285 350 420
#     4   9  19  39  63  87 131 176 232 283 343 418
#     4  10  22  39  61  96 138 177 233 283 356 432
#     4  11  22  43  67  97 138 183 226 296 366 431
#     4   9  21  41  64  97 133 172 239 284 358 427
#     4  12  27  50  72 110 156 191 246 315 377 445
#     4  10  21  40  64  96 132 178 229 302 345 430
#     4  10  21  44  67 100 139 192 247 294 362 442
#
# _framework density 25.762324
#
# number of rings (size 3 to 8) (size 9 to 14) (size 15 to 20)
#    0.000    2.000    2.500    0.000    0.000    5.000 
#    2.250    5.625    0.000    0.000    0.000    0.000 
#    0.000    0.000    0.000    0.000    0.000    0.000 
#
# Total GULP energy -89152.330881 kJ/mol
# GULP energy per Si atom -5572.020680 kJ/mol
# Density = 2.570369 g / cm^3
# Si number density = 25.762324 Si / 1000 Ang^3
#
#
#
# Elastic Constant Matrix: (Units=GPa)
#
#
# Indices 1 2 3 4 5 6 
#
# 1 186.7476 45.7283 16.7278 -9.3918 -3.2469 6.5681
# 2 45.7283 105.8402 40.4315 -26.6490 -19.2822 23.6330
# 3 16.7278 40.4315 78.9430 -19.7545 -3.8841 11.4565
# 4 -9.3918 -26.6490 -19.7545 45.1979 11.5347 -11.1726
# 5 -3.2469 -19.2822 -3.8841 11.5347 42.6873 -9.5919
# 6 6.5681 23.6330 11.4565 -11.1726 -9.5919 34.7652
#
#
#
# Elastic Compliance Matrix: (Units=1/GPa)
#
#
# Indices 1 2 3 4 5 6 
#
# 1 0.006024 -0.002916 0.000068 -0.000115 -0.000688 0.000595
# 2 -0.002916 0.015851 -0.005464 0.003817 0.004043 -0.006082
# 3 0.000068 -0.005464 0.016580 0.004396 -0.002367 -0.001003
# 4 -0.000115 0.003817 0.004396 0.028416 -0.004707 0.003812
# 5 -0.000688 0.004043 -0.002367 -0.004707 0.027189 0.004151
# 6 0.000595 -0.006082 -0.001003 0.003812 0.004151 0.035487
#
#
# Mechanical properties :
#
#
# Convention : Reuss Voigt Hill
#
# Bulk Modulus (GPa) = 45.80452 64.14509 54.97481
# Shear Modulus (GPa) = 32.58442 42.43964 37.51203
#
# Velocity S-wave (km/s) = 3.56027 4.06316 3.82000
# Velocity P-wave (km/s) = 5.89228 6.85312 6.39078
#
# Compressibility (1/GPa) = 0.02183191
#
# Stress axis : x y z
#
# Youngs Moduli (GPa) = 166.00152 63.08906 60.31261
#
# Poissons Ratio (x) = 0.18395 -0.00409
# Poissons Ratio (y) = 0.48402 0.32953
# Poissons Ratio (z) = -0.01127 0.34470
#
# Static dielectric constant tensor:
#      x y z
#    x 2.109090 -0.000890 -0.055340 
#    y -0.000890 1.954520 0.001330 
#    z -0.055340 0.001330 2.114600 
# 
# From -- ./inp_files/70816.got.cif
#   From: 2010.05.17/outbox.cif.g08.bks.cpg/sg2_36_cif.got.tgz:70816.got - 2010.06.03 11:33:40.
