data_PCOD9010298
_publ_section_title
;
Structure prediction by ZEFSAII (Michael W. Deem and Ramdas Pophale) SiO2 
 PCOD9010298
Probable space group: P -1
;
_chemical_formula_sum "Si O2"
_cell_formula_units_Z 16
_cell_length_a 7.845772
_cell_length_b 22.280564
_cell_length_c 12.282682
_cell_angle_alpha 151.015037
_cell_angle_beta 106.740733
_cell_angle_gamma 55.720196
_cell_volume 738.948984
_symmetry_space_group_name_H-M "P -1"
_symmetry_group_IT_number 2
_symmetry_cell_setting 'triclinic'
loop_
_space_group_symop_operation_xyz
x,y,z
-x,-y,-z
loop_
_atom_site_type_symbol
_atom_site_label
_atom_site_fract_x
_atom_site_fract_y
_atom_site_fract_z
Si Si1 0.491989 0.556330 0.209707
Si Si2 0.270446 0.194745 0.758861
Si Si3 0.197865 0.182447 0.480357
Si Si4 0.747888 0.502057 0.769340
Si Si5 0.345540 0.034929 0.919865
Si Si6 0.908176 0.406970 0.419471
Si Si7 0.049258 0.942349 0.793176
Si Si8 0.907975 0.412808 0.198872
O O1 0.458973 0.457205 0.128482
O O2 0.265979 0.747786 0.497014
O O3 0.719268 0.526061 0.247717
O O4 0.500000 0.500000 0.000000
O O5 0.160024 0.231926 0.677473
O O6 0.500000 0.000000 0.500000
O O7 0.303547 0.327999 0.983094
O O8 0.096170 0.237566 0.894214
O O9 0.998283 0.347997 0.633429
O O10 0.173331 0.043642 0.252627
O O11 0.459914 0.090658 0.334914
O O12 0.777563 0.424294 0.532915
O O13 0.146049 0.021441 0.880560
O O14 0.177403 0.229585 0.174148
O O15 0.500000 0.000000 0.000000
O O16 0.788898 0.430887 0.320059
O O17 0.948726 0.532133 0.651435
O O18 0.000000 0.000000 0.000000
#
# Coordination Sequence:
#
# PCOD9010298 Si02
#       8
#     2   2   2   2   2   2   2   2
#     4  11  24  42  65  96 130 173 218 269 331 395
#     4  11  24  44  63  93 129 172 219 265 335 399
#     4  11  23  40  66  94 133 171 216 276 325 392
#     4  10  22  41  65  93 127 167 222 263 327 397
#     4  12  20  36  65  94 126 167 212 268 330 382
#     4  10  21  40  62  97 125 165 220 259 331 398
#     4  11  23  39  60 100 131 162 220 271 322 384
#     4  10  22  41  65  88 131 171 210 269 324 403
#
# _framework density 21.652373999999998
#
# number of rings (size 3 to 8) (size 9 to 14) (size 15 to 20)
#    0.000    1.250    2.500    4.125    3.500    0.500 
#    2.250    0.625    0.000    0.000    0.000    0.000 
#    0.000    0.000    0.000    0.000    0.000    0.000 
#
# Total GULP energy -89141.287429 kJ/mol
# GULP energy per Si atom -5571.330464 kJ/mol
# Density = 2.160309 g / cm^3
# Si number density = 21.652374 Si / 1000 Ang^3
#
#
#
# Elastic Constant Matrix: (Units=GPa)
#
#
# Indices 1 2 3 4 5 6 
#
# 1 76.9549 21.1807 21.4287 -12.0831 -9.3363 16.1034
# 2 21.1807 96.0782 46.4585 -31.5971 -8.6330 16.0481
# 3 21.4287 46.4585 121.4243 -27.7565 -13.7861 16.0264
# 4 -12.0831 -31.5971 -27.7565 45.7237 11.4801 -2.6177
# 5 -9.3363 -8.6330 -13.7861 11.4801 31.7911 0.0471
# 6 16.1034 16.0481 16.0264 -2.6177 0.0471 18.8648
#
#
#
# Elastic Compliance Matrix: (Units=1/GPa)
#
#
# Indices 1 2 3 4 5 6 
#
# 1 0.016830 -0.000203 -0.000047 0.002485 0.003990 -0.013818
# 2 -0.000203 0.016513 -0.002881 0.009045 -0.000076 -0.010171
# 3 -0.000047 -0.002881 0.011425 0.003852 0.002777 -0.006687
# 4 0.002485 0.009045 0.003852 0.032334 -0.006807 -0.008585
# 5 0.003990 -0.000076 0.002777 -0.006807 0.036279 -0.006735
# 6 -0.013818 -0.010171 -0.006687 -0.008585 -0.006735 0.077963
#
#
# Mechanical properties :
#
#
# Convention : Reuss Voigt Hill
#
# Bulk Modulus (GPa) = 25.97110 52.51034 39.24072
# Shear Modulus (GPa) = 23.75976 32.96855 28.36415
#
# Velocity S-wave (km/s) = 3.31619 3.90632 3.62329
# Velocity P-wave (km/s) = 5.16560 6.68206 5.97216
#
# Compressibility (1/GPa) = 0.03850434
#
# Stress axis : x y z
#
# Youngs Moduli (GPa) = 59.41919 60.55919 87.53092
#
# Poissons Ratio (x) = 0.01231 0.00414
# Poissons Ratio (y) = 0.01208 0.25214
# Poissons Ratio (z) = 0.00281 0.17445
#
# Static dielectric constant tensor:
#      x y z
#    x 1.992980 0.003480 0.028790 
#    y 0.003480 1.875580 -0.022930 
#    z 0.028790 -0.022930 1.785950 
# 
# From -- ./inp_files/406788.got.cif
#   From: 2010.05.17/outbox.cif.g08.bks.cpg/sg2_204_cif.got.tgz:406788.got - 2010.06.03 11:33:40.
