data_PCOD9010192
_publ_section_title
;
Structure prediction by ZEFSAII (Michael W. Deem and Ramdas Pophale) SiO2 
 PCOD9010192
Probable space group: P -1
;
_chemical_formula_sum "Si O2"
_cell_formula_units_Z 16
_cell_length_a 15.523589
_cell_length_b 16.357993
_cell_length_c 5.264040
_cell_angle_alpha 110.214347
_cell_angle_beta 62.121746
_cell_angle_gamma 145.398889
_cell_volume 668.910092
_symmetry_space_group_name_H-M "P -1"
_symmetry_group_IT_number 2
_symmetry_cell_setting 'triclinic'
loop_
_space_group_symop_operation_xyz
x,y,z
-x,-y,-z
loop_
_atom_site_type_symbol
_atom_site_label
_atom_site_fract_x
_atom_site_fract_y
_atom_site_fract_z
Si Si1 0.157376 0.313375 0.653136
Si Si2 0.848728 0.152486 0.632314
Si Si3 0.403449 0.167397 0.397705
Si Si4 0.735961 0.170619 0.208898
Si Si5 0.399310 0.347906 0.355787
Si Si6 0.033851 0.423945 0.317827
Si Si7 0.297529 0.495707 0.160774
Si Si8 0.496989 0.851113 0.285127
O O1 0.227298 0.267768 0.442924
O O2 0.250126 0.440676 0.455823
O O3 0.972016 0.200239 0.724855
O O4 0.204034 0.368556 0.939047
O O5 0.948928 0.288173 0.459920
O O6 0.762349 0.002532 0.506598
O O7 0.714484 0.124572 0.898971
O O8 0.381155 0.252283 0.459687
O O9 0.505138 0.221650 0.567412
O O10 0.480788 0.175555 0.050939
O O11 0.926972 0.330763 0.114925
O O12 0.647963 0.187127 0.484787
O O13 0.654603 0.027316 0.293430
O O14 0.500000 0.500000 0.500000
O O15 0.516337 0.395883 0.025025
O O16 0.000000 0.500000 0.500000
O O17 0.221029 0.533029 0.210666
#
# Coordination Sequence:
#
# PCOD9010192 Si02
#       8
#     2   2   2   2   2   2   2   2
#     4  10  21  41  66  89 121 165 202 264 313 365
#     4  10  22  41  64  88 133 160 215 255 311 371
#     4  11  24  42  66  94 123 168 208 263 312 369
#     4  10  21  40  62  90 132 166 211 252 306 371
#     4  10  24  44  67  93 126 161 212 263 319 374
#     4  11  23  38  62  94 129 171 204 253 309 373
#     4  10  22  41  62  89 128 164 203 254 311 370
#     4  10  24  39  66  93 128 169 208 255 308 370
#
# _framework density 23.919506999999999
#
# number of rings (size 3 to 8) (size 9 to 14) (size 15 to 20)
#    0.000    1.750    2.500    0.375    3.500    6.500 
#    4.500    0.000    0.000    9.000    0.000    0.000 
#    0.000    0.000    0.000    0.000    0.000    0.000 
#
# Total GULP energy -89111.930776 kJ/mol
# GULP energy per Si atom -5569.495674 kJ/mol
# Density = 2.386507 g / cm^3
# Si number density = 23.919507 Si / 1000 Ang^3
#
#
#
# Elastic Constant Matrix: (Units=GPa)
#
#
# Indices 1 2 3 4 5 6 
#
# 1 75.9022 22.9562 39.3309 4.2549 -28.8188 -14.2957
# 2 22.9562 90.0859 18.0875 5.9413 -7.7253 -14.2726
# 3 39.3309 18.0875 81.7115 12.6338 -18.7158 -9.9747
# 4 4.2549 5.9413 12.6338 25.7645 -4.4373 -2.3826
# 5 -28.8188 -7.7253 -18.7158 -4.4373 46.6491 2.9517
# 6 -14.2957 -14.2726 -9.9747 -2.3826 2.9517 37.9735
#
#
#
# Elastic Compliance Matrix: (Units=1/GPa)
#
#
# Indices 1 2 3 4 5 6 
#
# 1 0.022783 -0.002764 -0.007826 0.002961 0.010452 0.004856
# 2 -0.002764 0.012600 -0.000849 -0.001779 -0.000345 0.003387
# 3 -0.007826 -0.000849 0.017679 -0.006860 0.001412 0.000839
# 4 0.002961 -0.001779 -0.006860 0.042678 0.002772 0.001106
# 5 0.010452 -0.000345 0.001412 0.002772 0.028532 0.002132
# 6 0.004856 0.003387 0.000839 0.001106 0.002132 0.029559
#
#
# Mechanical properties :
#
#
# Convention : Reuss Voigt Hill
#
# Bulk Modulus (GPa) = 33.12968 45.38321 39.25644
# Shear Modulus (GPa) = 26.77090 33.23243 30.00167
#
# Velocity S-wave (km/s) = 3.34909 3.73143 3.54542
# Velocity P-wave (km/s) = 5.36989 6.13020 5.76260
#
# Compressibility (1/GPa) = 0.03018442
#
# Stress axis : x y z
#
# Youngs Moduli (GPa) = 43.89277 79.36667 56.56294
#
# Poissons Ratio (x) = 0.21938 0.44263
# Poissons Ratio (y) = 0.12132 0.04803
# Poissons Ratio (z) = 0.34348 0.06739
#
# Static dielectric constant tensor:
#      x y z
#    x 2.007630 0.081620 0.006680 
#    y 0.081620 2.022960 0.027810 
#    z 0.006680 0.027810 1.999740 
# 
# From -- ./inp_files/96977.got.cif
#   From: 2010.05.17/outbox.cif.g08.bks.cpg/sg2_49_cif.got.tgz:96977.got - 2010.06.03 11:33:40.
