data_PCOD9010550
_publ_section_title
;
Structure prediction by ZEFSAII (Michael W. Deem and Ramdas Pophale) SiO2 
 PCOD9010550
Probable space group: P -1
;
_chemical_formula_sum "Si O2"
_cell_formula_units_Z 12
_cell_length_a 11.432777
_cell_length_b 20.326336
_cell_length_c 8.976327
_cell_angle_alpha 152.221502
_cell_angle_beta 137.261202
_cell_angle_gamma 28.957420
_cell_volume 463.351798
_symmetry_space_group_name_H-M "P -1"
_symmetry_group_IT_number 2
_symmetry_cell_setting 'triclinic'
loop_
_space_group_symop_operation_xyz
x,y,z
-x,-y,-z
loop_
_atom_site_type_symbol
_atom_site_label
_atom_site_fract_x
_atom_site_fract_y
_atom_site_fract_z
Si Si1 0.669855 0.456452 0.765109
Si Si2 0.393821 0.061057 0.327321
Si Si3 0.103103 0.086376 0.592151
Si Si4 0.723683 0.324439 0.967415
Si Si5 0.649391 0.686799 0.949519
Si Si6 0.086602 0.428859 0.606724
O O1 0.900985 0.219730 0.537911
O O2 0.412455 0.536365 0.733698
O O3 0.641945 0.554049 0.779652
O O4 0.734031 0.551565 0.128079
O O5 0.307395 0.209651 0.682307
O O6 0.222861 0.202425 0.313987
O O7 0.664598 0.955169 0.319389
O O8 0.410150 0.889370 0.047827
O O9 0.955080 0.220743 0.870287
O O10 0.204794 0.873039 0.300663
O O11 0.500000 0.500000 0.000000
O O12 0.861989 0.562041 0.777626
O O13 0.000000 0.500000 0.500000
#
# Coordination Sequence:
#
# PCOD9010550 Si02
#       6
#     2   2   2   2   2   2
#     4  10  18  33  52  76 106 130 165 209 248 294
#     4  10  19  32  54  74 101 132 171 209 250 296
#     4  10  17  29  51  78 102 127 162 210 260 292
#     4   9  18  29  47  78 106 123 159 211 263 293
#     4  10  20  32  51  75 102 133 170 208 253 292
#     4  11  22  33  46  72 109 143 168 198 247 303
#
# _framework density 25.898250999999998
#
# number of rings (size 3 to 8) (size 9 to 14) (size 15 to 20)
#    0.000    2.000    5.000    2.000    2.333    0.667 
#    0.000    0.000    0.000    0.000    0.000   15.167 
#    0.000    0.000    0.000    0.000    0.000    0.000 
#
# Total GULP energy -66935.321051 kJ/mol
# GULP energy per Si atom -5577.943421 kJ/mol
# Density = 2.583931 g / cm^3
# Si number density = 25.898251 Si / 1000 Ang^3
#
#
#
# Elastic Constant Matrix: (Units=GPa)
#
#
# Indices 1 2 3 4 5 6 
#
# 1 128.8584 65.9083 79.6322 -2.0678 -32.5433 48.3642
# 2 65.9083 161.7567 99.9164 30.7716 2.6832 65.0230
# 3 79.6322 99.9164 85.5369 31.0497 -27.5425 2.8045
# 4 -2.0678 30.7716 31.0497 49.8871 15.8868 13.5276
# 5 -32.5433 2.6832 -27.5425 15.8868 68.3620 6.5419
# 6 48.3642 65.0230 2.8045 13.5276 6.5419 55.1208
#
#
#
# Elastic Compliance Matrix: (Units=1/GPa)
#
#
# Indices 1 2 3 4 5 6 
#
# 1 0.006820 -0.010849 0.009843 -0.003322 0.007817 0.006200
# 2 -0.010849 0.003435 0.010051 -0.011076 0.000596 0.007603
# 3 0.009843 0.010051 -0.010736 0.006594 0.000503 -0.021625
# 4 -0.003322 -0.011076 0.006594 0.021065 -0.004438 0.011002
# 5 0.007817 0.000596 0.000503 -0.004438 0.020414 -0.008921
# 6 0.006200 0.007603 -0.021625 0.011002 -0.008921 0.003192
#
#
# Mechanical properties :
#
#
# Convention : Reuss Voigt Hill
#
# Bulk Modulus (GPa) = 56.78881 96.34064 76.56473
# Shear Modulus (GPa) = 156.39762 43.38699 99.89230
#
# Velocity S-wave (km/s) = 7.77948 4.09747 6.21730
# Velocity P-wave (km/s) = 10.13258 7.72438 9.00930
#
# Compressibility (1/GPa) = 0.01760910
#
# Stress axis : x y z
#
# Youngs Moduli (GPa) = 146.61711 291.12842 -93.14482
#
# Poissons Ratio (x) = 3.15846 0.91681
# Poissons Ratio (y) = 1.59065 0.93620
# Poissons Ratio (z) = -1.44314 -2.92612
#
# Static dielectric constant tensor:
#      x y z
#    x 2.116970 -0.035860 0.077520 
#    y -0.035860 2.106010 -0.009610 
#    z 0.077520 -0.009610 2.124920 
# 
# From -- ./inp_files/265304.got.cif
#   From: 2010.05.17/outbox.cif.g08.bks.cpg/sg2_133_cif.got.tgz:265304.got - 2010.06.03 11:33:40.
