data_PCOD9010432
_publ_section_title
;
Structure prediction by ZEFSAII (Michael W. Deem and Ramdas Pophale) SiO2 
 PCOD9010432
Probable space group: P -1
;
_chemical_formula_sum "Si O2"
_cell_formula_units_Z 10
_cell_length_a 8.109169
_cell_length_b 12.800040
_cell_length_c 5.349209
_cell_angle_alpha 134.665952
_cell_angle_beta 76.171358
_cell_angle_gamma 102.443303
_cell_volume 382.540971
_symmetry_space_group_name_H-M "P -1"
_symmetry_group_IT_number 2
_symmetry_cell_setting 'triclinic'
loop_
_space_group_symop_operation_xyz
x,y,z
-x,-y,-z
loop_
_atom_site_type_symbol
_atom_site_label
_atom_site_fract_x
_atom_site_fract_y
_atom_site_fract_z
Si Si1 0.838836 0.090238 0.147926
Si Si2 0.616450 0.800245 0.620923
Si Si3 0.798519 0.517706 0.116209
Si Si4 0.572668 0.169848 0.756925
Si Si5 0.825856 0.393176 0.400095
O O1 0.759142 0.154994 0.538939
O O2 0.871704 0.228533 0.181247
O O3 0.702590 0.966090 0.878079
O O4 0.000000 0.000000 0.000000
O O5 0.756207 0.685278 0.437793
O O6 0.539076 0.766265 0.319077
O O7 0.478075 0.782821 0.864751
O O8 0.736406 0.423916 0.221031
O O9 0.727471 0.455272 0.775416
O O10 0.000000 0.500000 0.000000
O O11 0.500000 0.000000 0.500000
O O12 0.000000 0.500000 0.500000
#
# Coordination Sequence:
#
# PCOD9010432 Si02
#       5
#     2   2   2   2   2
#     4  11  23  42  71 100 126 171 225 269 317 386
#     4  11  23  45  69  94 132 174 213 268 327 386
#     4  10  21  40  63  90 127 169 210 261 318 376
#     4  10  23  43  65  98 134 168 212 271 330 382
#     4  10  22  40  60  94 132 162 207 269 321 372
#
# _framework density 26.140992000000001
#
# number of rings (size 3 to 8) (size 9 to 14) (size 15 to 20)
#    0.000    1.600    0.000    6.000    0.000    9.600 
#    0.000   22.000    0.000    0.000    0.000    0.000 
#    0.000    0.000    0.000    0.000    0.000    0.000 
#
# Total GULP energy -55974.485360 kJ/mol
# GULP energy per Si atom -5597.448536 kJ/mol
# Density = 2.608149 g / cm^3
# Si number density = 26.140992 Si / 1000 Ang^3
#
#
#
# Elastic Constant Matrix: (Units=GPa)
#
#
# Indices 1 2 3 4 5 6 
#
# 1 98.0081 56.6774 36.6306 -1.8289 -17.0468 -16.3336
# 2 56.6774 248.3406 83.9885 5.9585 -5.3671 -9.1671
# 3 36.6306 83.9885 140.1960 1.7877 3.9691 -40.6150
# 4 -1.8289 5.9585 1.7877 61.9408 -21.0540 15.6276
# 5 -17.0468 -5.3671 3.9691 -21.0540 43.8668 4.1515
# 6 -16.3336 -9.1671 -40.6150 15.6276 4.1515 50.8700
#
#
#
# Elastic Compliance Matrix: (Units=1/GPa)
#
#
# Indices 1 2 3 4 5 6 
#
# 1 0.013635 -0.002278 -0.002142 0.002617 0.006382 0.000933
# 2 -0.002278 0.005675 -0.003631 0.000392 0.000588 -0.002776
# 3 -0.002142 -0.003631 0.013395 -0.004998 -0.005964 0.011375
# 4 0.002617 0.000392 -0.004998 0.024082 0.014177 -0.011634
# 5 0.006382 0.000588 -0.005964 0.014177 0.033610 -0.009704
# 6 0.000933 -0.002776 0.011375 -0.011634 -0.009704 0.032905
#
#
# Mechanical properties :
#
#
# Convention : Reuss Voigt Hill
#
# Bulk Modulus (GPa) = 60.22181 93.45975 76.84078
# Shear Modulus (GPa) = 34.49705 51.95207 43.22456
#
# Velocity S-wave (km/s) = 3.63664 4.46284 4.07076
# Velocity P-wave (km/s) = 6.38129 7.89846 7.18006
#
# Compressibility (1/GPa) = 0.01660528
#
# Stress axis : x y z
#
# Youngs Moduli (GPa) = 73.33859 176.20098 74.65241
#
# Poissons Ratio (x) = 0.40139 0.15989
# Poissons Ratio (y) = 0.16707 0.27103
# Poissons Ratio (z) = 0.15708 0.63971
#
# Static dielectric constant tensor:
#      x y z
#    x 1.818230 -0.263730 -0.553030 
#    y -0.263730 1.812380 -0.607200 
#    z -0.553030 -0.607200 0.743910 
# 
# From -- ./inp_files/17854.got.cif
#   From: 2010.05.17/outbox.cif.g08.bks.cpg/sg2_9_cif.got.tgz:17854.got - 2010.06.03 11:33:40.
