data_PCOD9010476
_publ_section_title
;
Structure prediction by ZEFSAII (Michael W. Deem and Ramdas Pophale) SiO2 
 PCOD9010476
Probable space group: P -1
;
_chemical_formula_sum "Si O2"
_cell_formula_units_Z 16
_cell_length_a 11.875242
_cell_length_b 8.601262
_cell_length_c 18.967766
_cell_angle_alpha 53.822864
_cell_angle_beta 37.710281
_cell_angle_gamma 34.674224
_cell_volume 663.978475
_symmetry_space_group_name_H-M "P -1"
_symmetry_group_IT_number 2
_symmetry_cell_setting 'triclinic'
loop_
_space_group_symop_operation_xyz
x,y,z
-x,-y,-z
loop_
_atom_site_type_symbol
_atom_site_label
_atom_site_fract_x
_atom_site_fract_y
_atom_site_fract_z
Si Si1 0.816450 0.227515 0.968610
Si Si2 0.900409 0.471878 0.358539
Si Si3 0.645430 0.398387 0.616381
Si Si4 0.391613 0.298666 0.222902
Si Si5 0.784561 0.197028 0.743988
Si Si6 0.699508 0.022560 0.286517
Si Si7 0.313790 0.324545 0.993203
Si Si8 0.864079 0.416889 0.225625
O O1 0.724298 0.505072 0.967287
O O2 0.009867 0.107278 0.839419
O O3 0.569612 0.268672 0.082902
O O4 0.000000 0.000000 0.000000
O O5 0.779722 0.388969 0.484445
O O6 0.735589 0.792171 0.367980
O O7 0.889850 0.454208 0.284792
O O8 0.195364 0.294501 0.287274
O O9 0.849000 0.177432 0.635255
O O10 0.434185 0.396587 0.699241
O O11 0.480154 0.693634 0.658054
O O12 0.232793 0.589948 0.263217
O O13 0.571431 0.084481 0.255419
O O14 0.484874 0.331878 0.855266
O O15 0.975824 0.905815 0.766650
O O16 0.023690 0.452625 0.090162
O O17 0.500000 0.000000 0.000000
#
# Coordination Sequence:
#
# PCOD9010476 Si02
#       8
#     2   2   2   2   2   2   2   2
#     4   9  17  37  63  94 125 156 207 261 320 373
#     4  12  24  39  61  93 123 166 212 251 309 372
#     4  11  25  41  61  88 125 172 209 249 310 372
#     4   9  21  39  64  91 123 160 204 262 311 366
#     4   9  21  42  62  89 121 159 205 257 314 371
#     4  10  21  40  63  92 123 159 210 261 310 366
#     4   9  18  38  64  91 127 160 208 259 321 379
#     4  11  23  41  60  88 126 165 205 256 310 375
#
# _framework density 24.097169000000001
#
# number of rings (size 3 to 8) (size 9 to 14) (size 15 to 20)
#    0.000    2.000    1.250    2.250    0.000    5.500 
#    6.750    0.000    0.000    0.000    0.000    0.000 
#    0.000    0.000    0.000    0.000    0.000    0.000 
#
# Total GULP energy -89496.205324 kJ/mol
# GULP energy per Si atom -5593.512833 kJ/mol
# Density = 2.404232 g / cm^3
# Si number density = 24.097169 Si / 1000 Ang^3
#
#
#
# Elastic Constant Matrix: (Units=GPa)
#
#
# Indices 1 2 3 4 5 6 
#
# 1 116.3521 19.6416 34.7469 1.5799 -6.5271 -13.0830
# 2 19.6416 74.9490 8.0171 3.5681 4.6000 8.7999
# 3 34.7469 8.0171 68.2651 -4.0116 1.0506 9.1744
# 4 1.5799 3.5681 -4.0116 23.4013 -2.3077 9.3268
# 5 -6.5271 4.6000 1.0506 -2.3077 38.2064 3.5777
# 6 -13.0830 8.7999 9.1744 9.3268 3.5777 20.8372
#
#
#
# Elastic Compliance Matrix: (Units=1/GPa)
#
#
# Indices 1 2 3 4 5 6 
#
# 1 0.014994 -0.004783 -0.010418 -0.010106 0.000904 0.020390
# 2 -0.004783 0.015672 0.002353 0.002840 -0.001504 -0.011670
# 3 -0.010418 0.002353 0.023788 0.014206 0.000430 -0.024441
# 4 -0.010106 0.002840 0.014206 0.063066 0.005372 -0.042950
# 5 0.000904 -0.001504 0.000430 0.005372 0.027393 -0.006094
# 6 0.020390 -0.011670 -0.024441 -0.042950 -0.006094 0.096754
#
#
# Mechanical properties :
#
#
# Convention : Reuss Voigt Hill
#
# Bulk Modulus (GPa) = 34.77519 42.70862 38.74191
# Shear Modulus (GPa) = 18.05384 29.63300 23.84342
#
# Velocity S-wave (km/s) = 2.74014 3.51055 3.14900
# Velocity P-wave (km/s) = 4.94709 5.84756 5.41607
#
# Compressibility (1/GPa) = 0.02875613
#
# Stress axis : x y z
#
# Youngs Moduli (GPa) = 66.69333 63.80936 42.03749
#
# Poissons Ratio (x) = 0.30522 0.43796
# Poissons Ratio (y) = 0.31902 -0.09890
# Poissons Ratio (z) = 0.69483 -0.15012
#
# Static dielectric constant tensor:
#      x y z
#    x 1.905170 -0.024350 -0.017750 
#    y -0.024350 1.967920 0.041650 
#    z -0.017750 0.041650 1.961740 
# 
# From -- ./inp_files/272051.got.cif
#   From: 2010.05.17/outbox.cif.g08.bks.cpg/sg2_137_cif.got.tgz:272051.got - 2010.06.03 11:33:40.
