data_PCOD9010620
_publ_section_title
;
Structure prediction by ZEFSAII (Michael W. Deem and Ramdas Pophale) SiO2 
 PCOD9010620
Probable space group: P -1
;
_chemical_formula_sum "Si O2"
_cell_formula_units_Z 14
_cell_length_a 13.113707
_cell_length_b 17.952279
_cell_length_c 5.300792
_cell_angle_alpha 113.327983
_cell_angle_beta 121.247746
_cell_angle_gamma 33.058889
_cell_volume 579.972251
_symmetry_space_group_name_H-M "P -1"
_symmetry_group_IT_number 2
_symmetry_cell_setting 'triclinic'
loop_
_space_group_symop_operation_xyz
x,y,z
-x,-y,-z
loop_
_atom_site_type_symbol
_atom_site_label
_atom_site_fract_x
_atom_site_fract_y
_atom_site_fract_z
Si Si1 0.234493 0.878059 0.696432
Si Si2 0.555439 0.181369 0.633071
Si Si3 0.324498 0.653772 0.383459
Si Si4 0.658309 0.865173 0.855320
Si Si5 0.032465 0.571902 0.043046
Si Si6 0.984994 0.291938 0.159215
Si Si7 0.643144 0.551216 0.355582
O O1 0.342599 0.855475 0.556737
O O2 0.299011 0.748837 0.639077
O O3 0.289289 0.898228 0.043242
O O4 0.000000 0.000000 0.500000
O O5 0.442923 0.158143 0.428211
O O6 0.398180 0.341286 0.693953
O O7 0.500000 0.500000 0.500000
O O8 0.424632 0.632401 0.224918
O O9 0.120253 0.715526 0.171701
O O10 0.840781 0.732645 0.097323
O O11 0.222675 0.148967 0.228408
O O12 0.500000 0.000000 0.000000
O O13 0.022138 0.607338 0.789929
O O14 0.000000 0.500000 0.000000
O O15 0.251945 0.477462 0.289181
O O16 0.809000 0.394011 0.275576
#
# Coordination Sequence:
#
# PCOD9010620 Si02
#       7
#     2   2   2   2   2   2   2
#     4  11  27  47  72 103 140 194 241 293 358 433
#     4  11  25  46  76 100 145 188 243 296 356 431
#     4  11  21  42  69 103 140 175 235 295 360 418
#     4  10  24  44  67 102 145 186 237 291 361 422
#     4  10  21  40  63  97 136 180 235 284 344 418
#     4  10  23  39  66 100 139 177 230 296 352 413
#     4  11  21  40  70 107 132 188 239 293 357 426
#
# _framework density 24.139084
#
# number of rings (size 3 to 8) (size 9 to 14) (size 15 to 20)
#    0.857    0.571    2.857    1.714    4.000    4.571 
#    2.571    1.429    0.000    0.000    0.000    0.000 
#    0.000    0.000    0.000    0.000    0.000    0.000 
#
# Total GULP energy -77942.133663 kJ/mol
# GULP energy per Si atom -5567.295262 kJ/mol
# Density = 2.408414 g / cm^3
# Si number density = 24.139084 Si / 1000 Ang^3
#
#
#
# Elastic Constant Matrix: (Units=GPa)
#
#
# Indices 1 2 3 4 5 6 
#
# 1 99.5398 27.6916 42.3932 8.1789 39.9116 -2.4218
# 2 27.6916 107.9555 26.0361 -4.2991 20.5509 -14.6939
# 3 42.3932 26.0361 101.8371 -3.5450 25.2226 3.1652
# 4 8.1789 -4.2991 -3.5450 30.4794 0.7661 4.3333
# 5 39.9116 20.5509 25.2226 0.7661 43.3237 -2.4944
# 6 -2.4218 -14.6939 3.1652 4.3333 -2.4944 32.2680
#
#
#
# Elastic Compliance Matrix: (Units=1/GPa)
#
#
# Indices 1 2 3 4 5 6 
#
# 1 0.017951 -0.001149 -0.004047 -0.005236 -0.013493 0.000881
# 2 -0.001149 0.011255 -0.001772 0.001077 -0.002990 0.004837
# 3 -0.004047 -0.001772 0.012940 0.002849 -0.003188 -0.003009
# 4 -0.005236 0.001077 0.002849 0.035334 0.001753 -0.004791
# 5 -0.013493 -0.002990 -0.003188 0.001753 0.038797 0.000702
# 6 0.000881 0.004837 -0.003009 -0.004791 0.000702 0.034252
#
#
# Mechanical properties :
#
#
# Convention : Reuss Voigt Hill
#
# Bulk Modulus (GPa) = 35.44612 55.73045 45.58829
# Shear Modulus (GPa) = 28.75747 35.42831 32.09289
#
# Velocity S-wave (km/s) = 3.45530 3.83518 3.65019
# Velocity P-wave (km/s) = 5.53487 6.53826 6.05738
#
# Compressibility (1/GPa) = 0.02821183
#
# Stress axis : x y z
#
# Youngs Moduli (GPa) = 55.70661 88.84549 77.28222
#
# Poissons Ratio (x) = 0.10205 0.31275
# Poissons Ratio (y) = 0.06398 0.13693
# Poissons Ratio (z) = 0.22544 0.15741
#
# Static dielectric constant tensor:
#      x y z
#    x 2.065300 -0.029600 -0.069340 
#    y -0.029600 2.040510 0.021630 
#    z -0.069340 0.021630 1.995570 
# 
# From -- ./inp_files/99957.got.cif
#   From: 2010.05.17/outbox.cif.g08.bks.cpg/sg2_50_cif.got.tgz:99957.got - 2010.06.03 11:33:40.
