data_PCOD9010275
_publ_section_title
;
Structure prediction by ZEFSAII (Michael W. Deem and Ramdas Pophale) SiO2 
 PCOD9010275
Probable space group: P -1
;
_chemical_formula_sum "Si O2"
_cell_formula_units_Z 15
_cell_length_a 9.367804
_cell_length_b 9.515106
_cell_length_c 14.088653
_cell_angle_alpha 108.324956
_cell_angle_beta 138.860098
_cell_angle_gamma 97.717107
_cell_volume 630.855639
_symmetry_space_group_name_H-M "P -1"
_symmetry_group_IT_number 2
_symmetry_cell_setting 'triclinic'
loop_
_space_group_symop_operation_xyz
x,y,z
-x,-y,-z
loop_
_atom_site_type_symbol
_atom_site_label
_atom_site_fract_x
_atom_site_fract_y
_atom_site_fract_z
Si Si1 0.500000 0.000000 0.500000
Si Si2 0.519994 0.691121 0.864460
Si Si3 0.933197 0.945950 0.744858
Si Si4 0.783904 0.703607 0.315573
Si Si5 0.806541 0.250934 0.148541
Si Si6 0.931687 0.376109 0.714722
Si Si7 0.358715 0.017230 0.734217
Si Si8 0.428195 0.165570 0.288320
O O1 0.304445 0.067995 0.432107
O O2 0.773923 0.218942 0.681210
O O3 0.445865 0.490113 0.794666
O O4 0.556496 0.755074 0.788558
O O5 0.275541 0.678693 0.790299
O O6 0.789497 0.853618 0.086210
O O7 0.835476 0.917187 0.799628
O O8 0.993801 0.797738 0.730720
O O9 0.683608 0.827812 0.272971
O O10 0.876581 0.658176 0.255691
O O11 0.058205 0.826759 0.541246
O O12 0.914772 0.406072 0.153102
O O13 0.539353 0.070289 0.929385
O O14 0.683778 0.321689 0.509700
O O15 0.517087 0.989189 0.726303
#
# Coordination Sequence:
#
# PCOD9010275 Si02
#       8
#     1   2   2   2   2   2   2   2
#     4  10  24  40  64  90 128 170 212 254 326 374
#     4  11  23  41  68 101 122 174 215 268 317 385
#     4  11  24  44  65  95 131 173 211 272 314 388
#     4   9  22  40  64  93 136 170 211 265 329 374
#     4  11  24  39  69 101 128 161 225 269 320 369
#     4   9  22  42  64  95 129 174 209 265 322 380
#     4  10  21  40  62  95 133 168 209 270 317 382
#     4  10  22  43  63  86 136 172 214 252 327 381
#
# _framework density 23.777229999999999
#
# number of rings (size 3 to 8) (size 9 to 14) (size 15 to 20)
#    0.000    1.867    1.333    0.800    3.733    8.000 
#    0.000    6.000    0.000    0.000    0.000    0.000 
#    0.000    0.000    0.000    0.000    0.000    0.000 
#
# Total GULP energy -83592.892361 kJ/mol
# GULP energy per Si atom -5572.859491 kJ/mol
# Density = 2.372311 g / cm^3
# Si number density = 23.777230 Si / 1000 Ang^3
#
#
#
# Elastic Constant Matrix: (Units=GPa)
#
#
# Indices 1 2 3 4 5 6 
#
# 1 61.0775 32.4259 19.2790 3.0650 26.8087 -6.7018
# 2 32.4259 123.9555 32.0208 20.6493 23.0923 -11.1394
# 3 19.2790 32.0208 44.8702 9.6424 14.7782 -8.6427
# 4 3.0650 20.6493 9.6424 48.0979 3.2473 7.2742
# 5 26.8087 23.0923 14.7782 3.2473 34.7572 -2.0653
# 6 -6.7018 -11.1394 -8.6427 7.2742 -2.0653 33.7615
#
#
#
# Elastic Compliance Matrix: (Units=1/GPa)
#
#
# Indices 1 2 3 4 5 6 
#
# 1 0.026747 -0.002848 -0.003619 0.001076 -0.017172 0.002161
# 2 -0.002848 0.011463 -0.004601 -0.004033 -0.002924 0.002729
# 3 -0.003619 -0.004601 0.031592 -0.004644 -0.006767 0.006437
# 4 0.001076 -0.004033 -0.004644 0.024446 0.001094 -0.007506
# 5 -0.017172 -0.002924 -0.006767 0.001094 0.046526 -0.003495
# 6 0.002161 0.002729 0.006437 -0.007506 -0.003495 0.034000
#
#
# Mechanical properties :
#
#
# Convention : Reuss Voigt Hill
#
# Bulk Modulus (GPa) = 20.97999 44.15052 32.56526
# Shear Modulus (GPa) = 23.49631 33.06851 28.28241
#
# Velocity S-wave (km/s) = 3.14695 3.73334 3.45262
# Velocity P-wave (km/s) = 4.69544 6.09856 5.44241
#
# Compressibility (1/GPa) = 0.04766447
#
# Stress axis : x y z
#
# Youngs Moduli (GPa) = 37.38685 87.23915 31.65360
#
# Poissons Ratio (x) = 0.24847 0.11456
# Poissons Ratio (y) = 0.10648 0.14565
# Poissons Ratio (z) = 0.13531 0.40142
#
# Static dielectric constant tensor:
#      x y z
#    x 1.924460 0.079050 -0.016780 
#    y 0.079050 1.939820 -0.026270 
#    z -0.016780 -0.026270 1.928210 
# 
# From -- ./inp_files/593257.got.cif
#   From: 2010.05.17/outbox.cif.g08.bks.cpg/sg2_297_cif.got.tgz:593257.got - 2010.06.03 11:33:40.
