data_PCOD9010843
_publ_section_title
;
Structure prediction by ZEFSAII (Michael W. Deem and Ramdas Pophale) SiO2 
 PCOD9010843
Probable space group: P -1
;
_chemical_formula_sum "Si O2"
_cell_formula_units_Z 16
_cell_length_a 10.664060
_cell_length_b 9.285494
_cell_length_c 8.713243
_cell_angle_alpha 48.764002
_cell_angle_beta 89.937675
_cell_angle_gamma 75.893895
_cell_volume 614.013441
_symmetry_space_group_name_H-M "P -1"
_symmetry_group_IT_number 2
_symmetry_cell_setting 'triclinic'
loop_
_space_group_symop_operation_xyz
x,y,z
-x,-y,-z
loop_
_atom_site_type_symbol
_atom_site_label
_atom_site_fract_x
_atom_site_fract_y
_atom_site_fract_z
Si Si1 0.552643 0.674806 0.446558
Si Si2 0.819685 0.025597 0.597590
Si Si3 0.586748 0.229167 0.291301
Si Si4 0.000140 0.748642 0.571765
Si Si5 0.874492 0.042701 0.085378
Si Si6 0.658549 0.633049 0.973252
Si Si7 0.812956 0.516251 0.748748
Si Si8 0.662975 0.958182 0.943003
O O1 0.500000 0.500000 0.500000
O O2 0.486336 0.725087 0.578581
O O3 0.707666 0.599138 0.550542
O O4 0.481906 0.872948 0.202469
O O5 0.715167 0.041802 0.450366
O O6 0.752848 0.001124 0.771888
O O7 0.853182 0.236544 0.450620
O O8 0.948520 0.846841 0.669454
O O9 0.482314 0.204055 0.189161
O O10 0.629942 0.423036 0.118567
O O11 0.951843 0.556075 0.689969
O O12 0.929196 0.903448 0.329072
O O13 0.830401 0.282789 0.937554
O O14 0.744574 0.994439 0.061004
O O15 0.000000 0.000000 0.000000
O O16 0.757914 0.618552 0.842127
O O17 0.684175 0.722638 0.071129
#
# Coordination Sequence:
#
# PCOD9010843 Si02
#       8
#     2   2   2   2   2   2   2   2
#     4  10  21  40  64  93 135 171 209 274 333 390
#     4  10  21  42  64  94 128 173 224 271 314 392
#     4   9  21  37  66  92 131 169 220 271 326 387
#     4  11  24  42  68  96 131 178 222 266 329 387
#     4  12  26  45  64  99 139 171 217 276 322 394
#     4  10  21  41  66 101 124 169 222 277 328 388
#     4  11  24  43  69  97 133 174 222 270 333 390
#     4  11  22  42  68  95 134 167 219 274 329 384
#
# _framework density 26.058062
#
# number of rings (size 3 to 8) (size 9 to 14) (size 15 to 20)
#    0.000    1.500    3.750    0.750    1.750    4.000 
#    0.000    3.750    0.000    0.000    0.000    0.000 
#    0.000    0.000    0.000    0.000    0.000    0.000 
#
# Total GULP energy -89480.272986 kJ/mol
# GULP energy per Si atom -5592.517062 kJ/mol
# Density = 2.599875 g / cm^3
# Si number density = 26.058062 Si / 1000 Ang^3
#
#
#
# Elastic Constant Matrix: (Units=GPa)
#
#
# Indices 1 2 3 4 5 6 
#
# 1 37.2597 6.4283 -5.4657 -1.8069 3.6238 3.5619
# 2 6.4283 99.1234 10.6429 -18.6085 1.6619 19.7284
# 3 -5.4657 10.6429 77.7752 -8.1734 1.0810 4.1456
# 4 -1.8069 -18.6085 -8.1734 34.3712 12.9621 -7.6329
# 5 3.6238 1.6619 1.0810 12.9621 40.1784 -0.8404
# 6 3.5619 19.7284 4.1456 -7.6329 -0.8404 36.9107
#
#
#
# Elastic Compliance Matrix: (Units=1/GPa)
#
#
# Indices 1 2 3 4 5 6 
#
# 1 0.028036 -0.001229 0.002522 0.002221 -0.003303 -0.001948
# 2 -0.001229 0.012526 -0.000823 0.006313 -0.002531 -0.005236
# 3 0.002522 -0.000823 0.013562 0.003394 -0.001667 -0.000663
# 4 0.002221 0.006313 0.003394 0.039243 -0.013133 0.003846
# 5 -0.003303 -0.002531 -0.001667 -0.013133 0.029569 -0.000183
# 6 -0.001948 -0.005236 -0.000663 0.003846 -0.000183 0.030945
#
#
# Mechanical properties :
#
#
# Convention : Reuss Voigt Hill
#
# Bulk Modulus (GPa) = 18.16061 26.37437 22.26749
# Shear Modulus (GPa) = 29.18924 35.79559 32.49242
#
# Velocity S-wave (km/s) = 3.35051 3.71035 3.53501
# Velocity P-wave (km/s) = 4.68533 5.33844 5.02251
#
# Compressibility (1/GPa) = 0.05506424
#
# Stress axis : x y z
#
# Youngs Moduli (GPa) = 35.66887 79.83219 73.73273
#
# Poissons Ratio (x) = 0.09810 -0.18592
# Poissons Ratio (y) = 0.04383 0.06066
# Poissons Ratio (z) = -0.08994 0.06568
#
# Static dielectric constant tensor:
#      x y z
#    x 2.171990 -0.024680 0.003910 
#    y -0.024680 2.000640 -0.018750 
#    z 0.003910 -0.018750 2.044300 
# 
# From -- ./inp_files/242074.got.cif
#   From: 2010.05.17/outbox.cif.g08.bks.cpg/sg2_122_cif.got.tgz:242074.got - 2010.06.03 11:33:40.
