data_PCOD9010954
_publ_section_title
;
Structure prediction by ZEFSAII (Michael W. Deem and Ramdas Pophale) SiO2 
 PCOD9010954
Probable space group: P -1
;
_chemical_formula_sum "Si O2"
_cell_formula_units_Z 13
_cell_length_a 8.653457
_cell_length_b 4.950666
_cell_length_c 13.021233
_cell_angle_alpha 95.908013
_cell_angle_beta 66.609295
_cell_angle_gamma 88.608274
_cell_volume 507.973180
_symmetry_space_group_name_H-M "P -1"
_symmetry_group_IT_number 2
_symmetry_cell_setting 'triclinic'
loop_
_space_group_symop_operation_xyz
x,y,z
-x,-y,-z
loop_
_atom_site_type_symbol
_atom_site_label
_atom_site_fract_x
_atom_site_fract_y
_atom_site_fract_z
Si Si1 0.500000 0.500000 0.500000
Si Si2 0.208882 0.653314 0.506296
Si Si3 0.538228 0.021761 0.651885
Si Si4 0.249575 0.024328 0.864155
Si Si5 0.857392 0.755518 0.666940
Si Si6 0.895336 0.877002 0.882889
Si Si7 0.390562 0.747884 0.993672
O O1 0.285581 0.444364 0.562145
O O2 0.484978 0.743960 0.606587
O O3 0.161879 0.510277 0.407865
O O4 0.047002 0.835986 0.592555
O O5 0.395508 0.773223 0.444336
O O6 0.383649 0.153074 0.762414
O O7 0.704781 0.958358 0.675187
O O8 0.090471 0.919545 0.844554
O O9 0.355161 0.772504 0.883060
O O10 0.175023 0.201315 0.988873
O O11 0.851668 0.712399 0.787787
O O12 0.792256 0.171569 0.906391
O O13 0.500000 0.500000 0.000000
O O14 0.500000 0.000000 0.000000
#
# Coordination Sequence:
#
# PCOD9010954 Si02
#       7
#     1   2   2   2   2   2   2
#     4  10  22  38  60  92 128 172 222 280 338 420
#     4  10  22  40  67  92 133 172 227 287 344 410
#     4  11  21  40  65  94 130 173 229 280 356 404
#     4   9  21  42  66  98 138 182 229 286 352 420
#     4  10  21  40  64  97 129 174 231 282 345 412
#     4   9  20  43  65  97 141 180 232 284 351 420
#     4  10  21  43  72  99 140 184 237 288 350 423
#
# _framework density 25.591899000000002
#
# number of rings (size 3 to 8) (size 9 to 14) (size 15 to 20)
#    0.923    1.231    0.000    2.769    0.000    0.000 
#   16.615    3.846    0.000    0.000    0.000    0.000 
#    0.000    0.000    0.000    0.000    0.000    0.000 
#
# Total GULP energy -72415.701349 kJ/mol
# GULP energy per Si atom -5570.438565 kJ/mol
# Density = 2.553365 g / cm^3
# Si number density = 25.591899 Si / 1000 Ang^3
#
#
#
# Elastic Constant Matrix: (Units=GPa)
#
#
# Indices 1 2 3 4 5 6 
#
# 1 204.5121 29.3337 71.9113 -5.4123 3.6967 -0.6343
# 2 29.3337 86.7901 26.9131 -0.8274 0.8966 -0.9381
# 3 71.9113 26.9131 135.8524 -11.7453 -2.3830 15.4530
# 4 -5.4123 -0.8274 -11.7453 26.5131 10.8782 3.5035
# 5 3.6967 0.8966 -2.3830 10.8782 54.7072 2.7216
# 6 -0.6343 -0.9381 15.4530 3.5035 2.7216 25.3273
#
#
#
# Elastic Compliance Matrix: (Units=1/GPa)
#
#
# Indices 1 2 3 4 5 6 
#
# 1 0.006243 -0.001027 -0.003401 -0.000321 -0.000604 0.002303
# 2 -0.001027 0.012585 -0.002266 -0.001029 -0.000129 0.001979
# 3 -0.003401 -0.002266 0.010901 0.005010 0.000120 -0.007526
# 4 -0.000321 -0.001029 0.005010 0.044279 -0.008132 -0.008354
# 5 -0.000604 -0.000129 0.000120 -0.008132 0.020000 -0.001117
# 6 0.002303 0.001979 -0.007526 -0.008354 -0.001117 0.045482
#
#
# Mechanical properties :
#
#
# Convention : Reuss Voigt Hill
#
# Bulk Modulus (GPa) = 61.19736 75.94120 68.56928
# Shear Modulus (GPa) = 31.58062 41.24262 36.41162
#
# Velocity S-wave (km/s) = 3.51666 4.01877 3.77607
# Velocity P-wave (km/s) = 6.36034 7.16047 6.77223
#
# Compressibility (1/GPa) = 0.01634057
#
# Stress axis : x y z
#
# Youngs Moduli (GPa) = 160.19222 79.46147 91.73074
#
# Poissons Ratio (x) = 0.08162 0.31199
# Poissons Ratio (y) = 0.16454 0.20784
# Poissons Ratio (z) = 0.54484 0.18004
#
# Static dielectric constant tensor:
#      x y z
#    x 2.177040 -0.165820 0.010190 
#    y -0.165820 2.306600 -0.067160 
#    z 0.010190 -0.067160 2.114540 
# 
# From -- ./inp_files/487265.got.cif
#   From: 2010.05.17/outbox.cif.g08.bks.cpg/sg2_244_cif.got.tgz:487265.got - 2010.06.03 11:33:40.
