data_PCOD9010868
_publ_section_title
;
Structure prediction by ZEFSAII (Michael W. Deem and Ramdas Pophale) SiO2 
 PCOD9010868
Probable space group: P -1
;
_chemical_formula_sum "Si O2"
_cell_formula_units_Z 16
_cell_length_a 6.142735
_cell_length_b 7.811162
_cell_length_c 17.247023
_cell_angle_alpha 100.872664
_cell_angle_beta 92.626726
_cell_angle_gamma 58.514157
_cell_volume 691.663634
_symmetry_space_group_name_H-M "P -1"
_symmetry_group_IT_number 2
_symmetry_cell_setting 'triclinic'
loop_
_space_group_symop_operation_xyz
x,y,z
-x,-y,-z
loop_
_atom_site_type_symbol
_atom_site_label
_atom_site_fract_x
_atom_site_fract_y
_atom_site_fract_z
Si Si1 0.010172 0.945762 0.257060
Si Si2 0.715010 0.267714 0.076319
Si Si3 0.975152 0.324001 0.217913
Si Si4 0.351392 0.758639 0.102467
Si Si5 0.511556 0.634695 0.326276
Si Si6 0.530930 0.066032 0.183704
Si Si7 0.261180 0.226178 0.521710
Si Si8 0.702862 0.488958 0.563730
O O1 0.131104 0.827686 0.168095
O O2 0.237986 0.823509 0.310661
O O3 0.965881 0.168941 0.265089
O O4 0.729291 0.979712 0.251915
O O5 0.949489 0.257133 0.125174
O O6 0.518334 0.512839 0.089298
O O7 0.625595 0.150133 0.122062
O O8 0.748413 0.190311 0.982818
O O9 0.719773 0.535249 0.252764
O O10 0.263202 0.266664 0.221864
O O11 0.486279 0.885824 0.138700
O O12 0.656273 0.682637 0.398750
O O13 0.424698 0.492181 0.354384
O O14 0.241485 0.339656 0.449941
O O15 0.977315 0.277315 0.541581
O O16 0.500000 0.000000 0.500000
O O17 0.500000 0.500000 0.500000
#
# Coordination Sequence:
#
# PCOD9010868 Si02
#       8
#     2   2   2   2   2   2   2   2
#     4  10  23  41  62  95 130 171 221 275 328 391
#     4  10  21  40  65  91 129 176 222 286 334 387
#     4  10  23  42  61  93 131 171 222 272 326 394
#     4  10  21  40  64  94 129 171 231 278 332 398
#     4  11  23  43  69  91 134 172 208 266 322 385
#     4  10  23  40  64  93 131 172 228 279 333 390
#     4  10  23  43  69 100 130 165 212 259 315 390
#     4   9  22  42  66  96 128 166 205 255 314 383
#
# _framework density 23.132633999999999
#
# number of rings (size 3 to 8) (size 9 to 14) (size 15 to 20)
#    0.000    2.000    1.250    0.375    0.000   16.500 
#    0.000    3.750    0.000    0.000    0.000    0.000 
#    0.000    0.000    0.000    0.000    0.000    0.000 
#
# Total GULP energy -89256.133198 kJ/mol
# GULP energy per Si atom -5578.508325 kJ/mol
# Density = 2.307998 g / cm^3
# Si number density = 23.132634 Si / 1000 Ang^3
#
#
#
# Elastic Constant Matrix: (Units=GPa)
#
#
# Indices 1 2 3 4 5 6 
#
# 1 83.7544 17.6105 27.3151 -3.3513 16.1466 -34.4572
# 2 17.6105 86.1557 6.3737 -19.3562 7.1305 -18.7612
# 3 27.3151 6.3737 53.5595 -9.0522 13.6639 -5.8877
# 4 -3.3513 -19.3562 -9.0522 32.8208 -6.1033 6.4190
# 5 16.1466 7.1305 13.6639 -6.1033 33.1988 -4.1766
# 6 -34.4572 -18.7612 -5.8877 6.4190 -4.1766 41.0128
#
#
#
# Elastic Compliance Matrix: (Units=1/GPa)
#
#
# Indices 1 2 3 4 5 6 
#
# 1 0.023698 -0.000849 -0.009293 -0.005395 -0.006195 0.018401
# 2 -0.000849 0.014549 0.000771 0.007583 -0.001036 0.004761
# 3 -0.009293 0.000771 0.025229 0.006497 -0.005516 -0.005412
# 4 -0.005395 0.007583 0.006497 0.038142 0.004625 -0.005630
# 5 -0.006195 -0.001036 -0.005516 0.004625 0.036034 -0.003525
# 6 0.018401 0.004761 -0.005412 -0.005630 -0.003525 0.041765
#
#
# Mechanical properties :
#
#
# Convention : Reuss Voigt Hill
#
# Bulk Modulus (GPa) = 22.35451 36.22980 29.29215
# Shear Modulus (GPa) = 23.46627 32.88450 28.17539
#
# Velocity S-wave (km/s) = 3.18846 3.77445 3.49376
# Velocity P-wave (km/s) = 4.82075 5.88991 5.38195
#
# Compressibility (1/GPa) = 0.04473371
#
# Stress axis : x y z
#
# Youngs Moduli (GPa) = 42.19812 68.73129 39.63710
#
# Poissons Ratio (x) = 0.05833 0.36836
# Poissons Ratio (y) = 0.03581 -0.03055
# Poissons Ratio (z) = 0.39216 -0.05298
#
# Static dielectric constant tensor:
#      x y z
#    x 1.923860 -0.032910 -0.004380 
#    y -0.032910 1.952390 -0.006290 
#    z -0.004380 -0.006290 1.895130 
# 
# From -- ./inp_files/52649.got.cif
#   From: 2010.05.17/outbox.cif.g08.bks.cpg/sg2_27_cif.got.tgz:52649.got - 2010.06.03 11:33:40.
