data_PCOD9010929
_publ_section_title
;
Structure prediction by ZEFSAII (Michael W. Deem and Ramdas Pophale) SiO2 
 PCOD9010929
Probable space group: P -1
;
_chemical_formula_sum "Si O2"
_cell_formula_units_Z 16
_cell_length_a 19.519103
_cell_length_b 6.607584
_cell_length_c 18.574529
_cell_angle_alpha 111.057866
_cell_angle_beta 156.806820
_cell_angle_gamma 83.103166
_cell_volume 722.273110
_symmetry_space_group_name_H-M "P -1"
_symmetry_group_IT_number 2
_symmetry_cell_setting 'triclinic'
loop_
_space_group_symop_operation_xyz
x,y,z
-x,-y,-z
loop_
_atom_site_type_symbol
_atom_site_label
_atom_site_fract_x
_atom_site_fract_y
_atom_site_fract_z
Si Si1 0.746249 0.125580 0.761001
Si Si2 0.419152 0.402137 0.798593
Si Si3 0.025816 0.741880 0.150232
Si Si4 0.232576 0.658593 0.469402
Si Si5 0.910079 0.471311 0.531926
Si Si6 0.765073 0.930406 0.273787
Si Si7 0.651148 0.156577 0.940518
Si Si8 0.890070 0.089222 0.041182
O O1 0.840719 0.119255 0.775452
O O2 0.500000 0.000000 0.500000
O O3 0.798107 0.002394 0.861288
O O4 0.869758 0.432498 0.942249
O O5 0.219544 0.397912 0.577600
O O6 0.337712 0.220958 0.768976
O O7 0.602910 0.708201 0.032677
O O8 0.523994 0.291565 0.836890
O O9 0.175333 0.775959 0.363770
O O10 0.895983 0.864752 0.057470
O O11 0.119494 0.649496 0.432408
O O12 0.127470 0.357002 0.306259
O O13 0.479483 0.846718 0.749067
O O14 0.161292 0.692066 0.799787
O O15 0.805454 0.218167 0.346726
O O16 0.000000 0.000000 0.500000
O O17 0.752690 0.163489 0.963166
#
# Coordination Sequence:
#
# PCOD9010929 Si02
#       8
#     2   2   2   2   2   2   2   2
#     4  10  21  40  64  96 130 168 219 264 315 381
#     4  11  25  43  67  93 130 169 211 275 320 385
#     4  10  22  41  66  90 134 169 210 274 312 375
#     4  10  23  41  59  93 130 162 218 266 308 386
#     4  11  24  43  65  95 127 171 217 262 335 380
#     4  11  23  45  67  96 130 163 219 270 323 390
#     4  11  23  42  62  95 130 166 223 261 316 393
#     4  10  23  40  62  97 129 175 217 259 329 380
#
# _framework density 22.152284000000002
#
# number of rings (size 3 to 8) (size 9 to 14) (size 15 to 20)
#    0.000    1.500    2.500    1.500    3.500    3.000 
#    6.750    0.000    0.000    0.000    0.000    0.000 
#    0.000    0.000    0.000    0.000    0.000    0.000 
#
# Total GULP energy -89366.610773 kJ/mol
# GULP energy per Si atom -5585.413173 kJ/mol
# Density = 2.210186 g / cm^3
# Si number density = 22.152284 Si / 1000 Ang^3
#
#
#
# Elastic Constant Matrix: (Units=GPa)
#
#
# Indices 1 2 3 4 5 6 
#
# 1 65.5404 17.0874 7.5266 -2.9738 0.0789 -8.8572
# 2 17.0874 69.6236 20.4659 -18.9629 -0.3645 -20.9369
# 3 7.5266 20.4659 130.2721 14.1311 3.4241 -13.7550
# 4 -2.9738 -18.9629 14.1311 24.2761 -5.6062 9.4916
# 5 0.0789 -0.3645 3.4241 -5.6062 30.5059 -1.5778
# 6 -8.8572 -20.9369 -13.7550 9.4916 -1.5778 22.0523
#
#
#
# Elastic Compliance Matrix: (Units=1/GPa)
#
#
# Indices 1 2 3 4 5 6 
#
# 1 0.016659 -0.003594 0.000451 -0.003019 -0.000442 0.004828
# 2 -0.003594 0.025264 -0.004598 0.018345 0.004826 0.012124
# 3 0.000451 -0.004598 0.010846 -0.013884 -0.003395 0.008314
# 4 -0.003019 0.018345 -0.013884 0.076023 0.014508 -0.024139
# 5 -0.000442 0.004826 -0.003395 0.014508 0.035814 -0.001395
# 6 0.004828 0.012124 0.008314 -0.024139 -0.001395 0.074272
#
#
# Mechanical properties :
#
#
# Convention : Reuss Voigt Hill
#
# Bulk Modulus (GPa) = 26.81887 39.51066 33.16477
# Shear Modulus (GPa) = 18.74136 30.05728 24.39932
#
# Velocity S-wave (km/s) = 2.91180 3.68754 3.32239
# Velocity P-wave (km/s) = 4.84125 6.00044 5.45174
#
# Compressibility (1/GPa) = 0.03728717
#
# Stress axis : x y z
#
# Youngs Moduli (GPa) = 60.02784 39.58149 92.20285
#
# Poissons Ratio (x) = 0.14224 -0.04157
# Poissons Ratio (y) = 0.21572 0.42395
# Poissons Ratio (z) = -0.02707 0.18200
#
# Static dielectric constant tensor:
#      x y z
#    x 1.842410 0.006030 0.008080 
#    y 0.006030 1.839500 0.027920 
#    z 0.008080 0.027920 1.825020 
# 
# From -- ./inp_files/600772.got.cif
#   From: 2010.05.17/outbox.cif.g08.bks.cpg/sg2_301_cif.got.tgz:600772.got - 2010.06.03 11:33:40.
