data_PCOD9010666
_publ_section_title
;
Structure prediction by ZEFSAII (Michael W. Deem and Ramdas Pophale) SiO2 
 PCOD9010666
Probable space group: P -1
;
_chemical_formula_sum "Si O2"
_cell_formula_units_Z 12
_cell_length_a 11.166642
_cell_length_b 9.473178
_cell_length_c 8.832908
_cell_angle_alpha 91.202068
_cell_angle_beta 45.884336
_cell_angle_gamma 59.300254
_cell_volume 457.206000
_symmetry_space_group_name_H-M "P -1"
_symmetry_group_IT_number 2
_symmetry_cell_setting 'triclinic'
loop_
_space_group_symop_operation_xyz
x,y,z
-x,-y,-z
loop_
_atom_site_type_symbol
_atom_site_label
_atom_site_fract_x
_atom_site_fract_y
_atom_site_fract_z
Si Si1 0.703528 0.915180 0.443066
Si Si2 0.882940 0.416002 0.131098
Si Si3 0.382843 0.728977 0.409766
Si Si4 0.295046 0.371401 0.401916
Si Si5 0.142681 0.943903 0.140810
Si Si6 0.855850 0.292454 0.629334
O O1 0.759521 0.756092 0.509687
O O2 0.500000 0.000000 0.500000
O O3 0.604047 0.111695 0.622812
O O4 0.931386 0.795956 0.127727
O O5 0.616488 0.552846 0.299314
O O6 0.839778 0.450313 0.348524
O O7 0.000000 0.500000 0.000000
O O8 0.359655 0.654316 0.275359
O O9 0.110324 0.880572 0.725102
O O10 0.206078 0.504120 0.330288
O O11 0.588206 0.202028 0.162311
O O12 0.131284 0.796466 0.226114
O O13 0.095060 0.087401 0.322302
#
# Coordination Sequence:
#
# PCOD9010666 Si02
#       6
#     2   2   2   2   2   2
#     4  11  23  41  59  88 128 163 191 246 308 363
#     4  10  22  38  59  90 125 157 194 248 304 356
#     4  10  21  40  64  86 124 161 194 250 303 356
#     4  11  22  38  66  88 123 159 201 250 297 358
#     4   9  22  42  65  87 122 160 203 249 300 343
#     4   9  22  41  63  89 121 159 203 253 291 350
#
# _framework density 26.246372999999998
#
# number of rings (size 3 to 8) (size 9 to 14) (size 15 to 20)
#    1.000    1.000    3.333    0.500    4.667    1.333 
#    0.000    1.667    3.667    0.000    0.000    0.000 
#    0.000    0.000    0.000    0.000    0.000    0.000 
#
# Total GULP energy -67010.841586 kJ/mol
# GULP energy per Si atom -5584.236799 kJ/mol
# Density = 2.618663 g / cm^3
# Si number density = 26.246373 Si / 1000 Ang^3
#
#
#
# Elastic Constant Matrix: (Units=GPa)
#
#
# Indices 1 2 3 4 5 6 
#
# 1 78.8886 -2.7702 11.9819 -2.3545 -14.7908 -14.5638
# 2 -2.7702 136.6958 28.4458 -8.6585 -2.1569 -8.8081
# 3 11.9819 28.4458 137.4750 4.3500 -16.3503 -22.2555
# 4 -2.3545 -8.6585 4.3500 35.6340 -4.7218 1.8346
# 5 -14.7908 -2.1569 -16.3503 -4.7218 24.4354 14.3009
# 6 -14.5638 -8.8081 -22.2555 1.8346 14.3009 43.5390
#
#
#
# Elastic Compliance Matrix: (Units=1/GPa)
#
#
# Indices 1 2 3 4 5 6 
#
# 1 0.014698 0.000743 -0.000192 0.002105 0.007904 0.002284
# 2 0.000743 0.007859 -0.001613 0.002095 -0.000090 0.000955
# 3 -0.000192 -0.001613 0.008547 -0.001121 0.003575 0.002851
# 4 0.002105 0.002095 -0.001121 0.030172 0.008615 -0.003546
# 5 0.007904 -0.000090 0.003575 0.008615 0.058635 -0.015169
# 6 0.002284 0.000955 0.002851 -0.003546 -0.015169 0.030515
#
#
# Mechanical properties :
#
#
# Convention : Reuss Voigt Hill
#
# Bulk Modulus (GPa) = 34.50688 47.59713 41.05200
# Shear Modulus (GPa) = 30.82436 41.74848 36.28642
#
# Velocity S-wave (km/s) = 3.43070 3.99261 3.72227
# Velocity P-wave (km/s) = 5.37297 6.27922 5.84369
#
# Compressibility (1/GPa) = 0.02897973
#
# Stress axis : x y z
#
# Youngs Moduli (GPa) = 68.03801 127.24125 117.00241
#
# Poissons Ratio (x) = -0.09453 0.02241
# Poissons Ratio (y) = -0.05055 0.18876
# Poissons Ratio (z) = 0.01303 0.20528
#
# Static dielectric constant tensor:
#      x y z
#    x 2.139680 0.008110 -0.015360 
#    y 0.008110 2.112320 -0.045280 
#    z -0.015360 -0.045280 2.070980 
# 
# From -- ./inp_files/232784.got.cif
#   From: 2010.05.17/outbox.cif.g08.bks.cpg/sg2_117_cif.got.tgz:232784.got - 2010.06.03 11:33:40.
