data_PCOD9010037
_publ_section_title
;
Structure prediction by ZEFSAII (Michael W. Deem and Ramdas Pophale) SiO2 
 PCOD9010037
Probable space group: P -1
;
_chemical_formula_sum "Si O2"
_cell_formula_units_Z 16
_cell_length_a 9.320398
_cell_length_b 24.484114
_cell_length_c 9.434176
_cell_angle_alpha 48.508669
_cell_angle_beta 121.012000
_cell_angle_gamma 150.780016
_cell_volume 775.465382
_symmetry_space_group_name_H-M "P -1"
_symmetry_group_IT_number 2
_symmetry_cell_setting 'triclinic'
loop_
_space_group_symop_operation_xyz
x,y,z
-x,-y,-z
loop_
_atom_site_type_symbol
_atom_site_label
_atom_site_fract_x
_atom_site_fract_y
_atom_site_fract_z
Si Si1 0.693075 0.012919 0.987365
Si Si2 0.012158 0.069159 0.500693
Si Si3 0.832772 0.313719 0.275518
Si Si4 0.699141 0.354320 0.406638
Si Si5 0.541691 0.048737 0.591341
Si Si6 0.711204 0.847905 0.912753
Si Si7 0.341830 0.749021 0.166181
Si Si8 0.209685 0.444723 0.970102
O O1 0.700821 0.049104 0.772432
O O2 0.026264 0.115792 0.030729
O O3 0.500000 0.000000 0.000000
O O4 0.509524 0.871812 0.128606
O O5 0.345956 0.213366 0.448287
O O6 0.796566 0.054141 0.358889
O O7 0.000000 0.000000 0.500000
O O8 0.861417 0.979300 0.718447
O O9 0.867850 0.366539 0.352326
O O10 0.714936 0.188263 0.446605
O O11 0.567192 0.260831 0.148213
O O12 0.109020 0.410917 0.141375
O O13 0.768496 0.349839 0.606489
O O14 0.751360 0.458008 0.227812
O O15 0.500000 0.000000 0.500000
O O16 0.576108 0.801995 0.079969
O O17 0.072468 0.684281 0.045591
O O18 0.500000 0.500000 0.000000
#
# Coordination Sequence:
#
# PCOD9010037 Si02
#       8
#     2   2   2   2   2   2   2   2
#     4  12  23  35  60  99 132 158 197 257 319 365
#     4  11  20  38  63  96 125 167 208 251 312 385
#     4  10  23  45  64  92 125 169 216 251 306 391
#     4  12  23  41  71  85 126 171 216 252 308 382
#     4  11  23  35  59  94 135 157 198 254 323 357
#     4  10  21  40  61  92 132 163 198 250 312 380
#     4  11  25  43  62  93 131 163 214 253 308 386
#     4  11  27  46  65  91 120 167 219 271 313 355
#
# _framework density 20.632771000000002
#
# number of rings (size 3 to 8) (size 9 to 14) (size 15 to 20)
#    0.000    1.000    3.750    4.875    5.250    0.000 
#    0.000    0.625    0.000    0.000    0.000    0.000 
#    0.000    0.000    0.000    0.000    0.000    0.000 
#
# Total GULP energy -89432.517840 kJ/mol
# GULP energy per Si atom -5589.532365 kJ/mol
# Density = 2.058581 g / cm^3
# Si number density = 20.632771 Si / 1000 Ang^3
#
#
#
# Elastic Constant Matrix: (Units=GPa)
#
#
# Indices 1 2 3 4 5 6 
#
# 1 123.9648 28.8043 37.7744 -2.6198 -12.6165 14.9622
# 2 28.8043 45.0151 5.7637 -0.3286 -5.7988 14.4285
# 3 37.7744 5.7637 108.4072 0.8198 -10.4169 0.6567
# 4 -2.6198 -0.3286 0.8198 17.6679 2.1121 3.3764
# 5 -12.6165 -5.7988 -10.4169 2.1121 38.8416 -0.2193
# 6 14.9622 14.4285 0.6567 3.3764 -0.2193 39.6150
#
#
#
# Elastic Compliance Matrix: (Units=1/GPa)
#
#
# Indices 1 2 3 4 5 6 
#
# 1 0.010851 -0.005596 -0.003323 0.001869 0.001684 -0.002155
# 2 -0.005596 0.028746 0.000712 0.000978 0.002564 -0.008437
# 3 -0.003323 0.000712 0.010535 -0.001381 0.001933 0.000949
# 4 0.001869 0.000978 -0.001381 0.058451 -0.002830 -0.006037
# 5 0.001684 0.002564 0.001933 -0.002830 0.027341 -0.001209
# 6 -0.002155 -0.008437 0.000949 -0.006037 -0.001209 0.029622
#
#
# Mechanical properties :
#
#
# Convention : Reuss Voigt Hill
#
# Bulk Modulus (GPa) = 29.65833 46.89690 38.27761
# Shear Modulus (GPa) = 25.88002 32.89455 29.38728
#
# Velocity S-wave (km/s) = 3.54547 3.99718 3.77809
# Velocity P-wave (km/s) = 5.58266 6.63943 6.13384
#
# Compressibility (1/GPa) = 0.03371735
#
# Stress axis : x y z
#
# Youngs Moduli (GPa) = 92.16058 34.78694 94.92349
#
# Poissons Ratio (x) = 0.19468 0.31539
# Poissons Ratio (y) = 0.51577 -0.06756
# Poissons Ratio (z) = 0.30621 -0.02476
#
# Static dielectric constant tensor:
#      x y z
#    x 1.454820 0.113290 0.159800 
#    y 0.113290 1.697110 -0.072110 
#    z 0.159800 -0.072110 1.680890 
# 
# From -- ./inp_files/223255.got.cif
#   From: 2010.05.17/outbox.cif.g08.bks.cpg/sg2_112_cif.got.tgz:223255.got - 2010.06.03 11:33:40.
