data_PCOD9010038
_publ_section_title
;
Structure prediction by ZEFSAII (Michael W. Deem and Ramdas Pophale) SiO2 
 PCOD9010038
Probable space group: P -1
;
_chemical_formula_sum "Si O2"
_cell_formula_units_Z 16
_cell_length_a 15.741378
_cell_length_b 7.978009
_cell_length_c 11.890640
_cell_angle_alpha 107.045443
_cell_angle_beta 152.840169
_cell_angle_gamma 77.139346
_cell_volume 649.197933
_symmetry_space_group_name_H-M "P -1"
_symmetry_group_IT_number 2
_symmetry_cell_setting 'triclinic'
loop_
_space_group_symop_operation_xyz
x,y,z
-x,-y,-z
loop_
_atom_site_type_symbol
_atom_site_label
_atom_site_fract_x
_atom_site_fract_y
_atom_site_fract_z
Si Si1 0.976737 0.290071 0.460276
Si Si2 0.778162 0.535870 0.534410
Si Si3 0.152850 0.358711 0.900618
Si Si4 0.411585 0.739482 0.878699
Si Si5 0.354122 0.083359 0.234844
Si Si6 0.978919 0.892195 0.759848
Si Si7 0.612919 0.014314 0.316492
Si Si8 0.491417 0.603380 0.394328
O O1 0.127738 0.269402 0.731442
O O2 0.998255 0.176394 0.353696
O O3 0.000000 0.500000 0.500000
O O4 0.776705 0.231587 0.267993
O O5 0.631272 0.462446 0.250331
O O6 0.875775 0.729534 0.671694
O O7 0.657529 0.538456 0.503826
O O8 0.950418 0.414543 0.708765
O O9 0.237561 0.226963 0.059901
O O10 0.295093 0.534662 0.093891
O O11 0.425426 0.842831 0.795850
O O12 0.571582 0.828800 0.164841
O O13 0.469661 0.192004 0.489369
O O14 0.485070 0.018828 0.277274
O O15 0.184387 0.953839 0.055929
O O16 0.829262 0.036250 0.610218
O O17 0.500000 0.500000 0.500000
#
# Coordination Sequence:
#
# PCOD9010038 Si02
#       8
#     2   2   2   2   2   2   2   2
#     4  11  21  40  65  97 137 168 207 263 328 388
#     4  11  24  43  65 100 125 166 222 260 323 385
#     4  10  23  42  71  94 126 172 216 269 314 379
#     4  10  21  40  61  92 133 167 216 266 308 389
#     4  11  25  45  64  95 133 169 220 265 319 376
#     4  12  25  39  65  98 135 173 202 267 331 384
#     4  11  25  39  62  97 133 171 215 262 320 384
#     4  10  24  44  70  92 125 172 221 272 309 373
#
# _framework density 24.645797000000002
#
# number of rings (size 3 to 8) (size 9 to 14) (size 15 to 20)
#    0.000    1.250    3.750    3.000    5.250    7.000 
#    0.000    1.250    0.000    0.000    0.000    0.000 
#    0.000    0.000    0.000    0.000    0.000    0.000 
#
# Total GULP energy -89565.516772 kJ/mol
# GULP energy per Si atom -5597.844798 kJ/mol
# Density = 2.458970 g / cm^3
# Si number density = 24.645797 Si / 1000 Ang^3
#
#
#
# Elastic Constant Matrix: (Units=GPa)
#
#
# Indices 1 2 3 4 5 6 
#
# 1 138.5647 -1.0066 39.1866 4.4034 29.0545 -4.3121
# 2 -1.0066 58.6858 12.7407 11.0183 10.8333 2.3708
# 3 39.1866 12.7407 140.3144 21.3828 13.0737 0.5749
# 4 4.4034 11.0183 21.3828 44.7601 0.5397 2.2566
# 5 29.0545 10.8333 13.0737 0.5397 30.1072 8.0972
# 6 -4.3121 2.3708 0.5749 2.2566 8.0972 29.1265
#
#
#
# Elastic Compliance Matrix: (Units=1/GPa)
#
#
# Indices 1 2 3 4 5 6 
#
# 1 0.010324 0.002656 -0.001967 -0.000823 -0.011273 0.004549
# 2 0.002656 0.019889 -0.000934 -0.004687 -0.009731 0.001861
# 3 -0.001967 -0.000934 0.008445 -0.003608 -0.001448 0.000300
# 4 -0.000823 -0.004687 -0.003608 0.025391 0.004359 -0.002848
# 5 -0.011273 -0.009731 -0.001448 0.004359 0.052381 -0.015748
# 6 0.004549 0.001861 0.000300 -0.002848 -0.015748 0.039448
#
#
# Mechanical properties :
#
#
# Convention : Reuss Voigt Hill
#
# Bulk Modulus (GPa) = 26.20085 48.82292 37.51189
# Shear Modulus (GPa) = 29.56979 39.90837 34.73908
#
# Velocity S-wave (km/s) = 3.46756 4.02839 3.75845
# Velocity P-wave (km/s) = 5.16585 6.44128 5.83849
#
# Compressibility (1/GPa) = 0.03816670
#
# Stress axis : x y z
#
# Youngs Moduli (GPa) = 96.86207 50.27788 118.41733
#
# Poissons Ratio (x) = -0.13353 0.23296
# Poissons Ratio (y) = -0.25726 0.11065
# Poissons Ratio (z) = 0.19055 0.04698
#
# Static dielectric constant tensor:
#      x y z
#    x 1.877830 0.020510 -0.021310 
#    y 0.020510 2.069820 0.037950 
#    z -0.021310 0.037950 1.960000 
# 
# From -- ./inp_files/447711.got.cif
#   From: 2010.05.17/outbox.cif.g08.bks.cpg/sg2_224_cif.got.tgz:447711.got - 2010.06.03 11:33:40.
