data_PCOD9010724
_publ_section_title
;
Structure prediction by ZEFSAII (Michael W. Deem and Ramdas Pophale) SiO2 
 PCOD9010724
Probable space group: P -1
;
_chemical_formula_sum "Si O2"
_cell_formula_units_Z 14
_cell_length_a 5.326549
_cell_length_b 8.315615
_cell_length_c 20.720486
_cell_angle_alpha 127.040943
_cell_angle_beta 57.440845
_cell_angle_gamma 93.964702
_cell_volume 571.355156
_symmetry_space_group_name_H-M "P -1"
_symmetry_group_IT_number 2
_symmetry_cell_setting 'triclinic'
loop_
_space_group_symop_operation_xyz
x,y,z
-x,-y,-z
loop_
_atom_site_type_symbol
_atom_site_label
_atom_site_fract_x
_atom_site_fract_y
_atom_site_fract_z
Si Si1 0.343229 0.700316 0.838932
Si Si2 0.795826 0.481238 0.600031
Si Si3 0.645378 0.863980 0.009664
Si Si4 0.679298 0.944859 0.709540
Si Si5 0.351147 0.254734 0.567159
Si Si6 0.165219 0.654478 0.234786
Si Si7 0.931274 0.126354 0.829541
O O1 0.545354 0.590963 0.721169
O O2 0.541434 0.560529 0.837885
O O3 0.302090 0.952791 0.907755
O O4 0.990475 0.701217 0.898948
O O5 0.794127 0.693712 0.613619
O O6 0.629755 0.347706 0.550513
O O7 0.123800 0.331247 0.554362
O O8 0.373058 0.792961 0.061379
O O9 0.500000 0.000000 0.000000
O O10 0.762625 0.127664 0.702411
O O11 0.867456 0.941833 0.750291
O O12 0.288272 0.041298 0.788413
O O13 0.126926 0.348232 0.682979
O O14 0.500000 0.000000 0.500000
O O15 0.102228 0.697402 0.178402
#
# Coordination Sequence:
#
# PCOD9010724 Si02
#       7
#     2   2   2   2   2   2   2
#     4  10  22  38  59  95 121 179 211 263 314 367
#     4  11  22  42  70  90 131 170 211 253 325 390
#     4  11  23  36  62  91 134 164 231 262 297 372
#     4  10  21  40  64  90 121 174 213 248 315 384
#     4  11  25  43  70 101 123 159 214 270 315 386
#     4   9  24  40  67  86 135 165 209 261 329 377
#     4  10  22  39  59  89 130 172 207 261 308 374
#
# _framework density 24.503147999999999
#
# number of rings (size 3 to 8) (size 9 to 14) (size 15 to 20)
#    0.857    0.857    1.429    2.143   12.000    0.571 
#    0.000    2.857    0.000    0.000    0.000    0.000 
#    0.000    0.000    0.000    0.000    0.000    0.000 
#
# Total GULP energy -78220.358654 kJ/mol
# GULP energy per Si atom -5587.168475 kJ/mol
# Density = 2.444738 g / cm^3
# Si number density = 24.503148 Si / 1000 Ang^3
#
#
#
# Elastic Constant Matrix: (Units=GPa)
#
#
# Indices 1 2 3 4 5 6 
#
# 1 148.8883 60.3357 38.7508 -0.9139 -27.5544 14.2591
# 2 60.3357 136.7711 25.2230 1.4257 -19.7395 7.2235
# 3 38.7508 25.2230 61.1060 14.3088 -23.0621 -0.9704
# 4 -0.9139 1.4257 14.3088 45.7441 5.6513 5.6542
# 5 -27.5544 -19.7395 -23.0621 5.6513 34.6932 9.4578
# 6 14.2591 7.2235 -0.9704 5.6542 9.4578 51.0925
#
#
#
# Elastic Compliance Matrix: (Units=1/GPa)
#
#
# Indices 1 2 3 4 5 6 
#
# 1 0.010075 -0.002915 -0.003868 0.001374 0.004491 -0.003456
# 2 -0.002915 0.009197 -0.000915 -0.000263 0.002614 -0.000959
# 3 -0.003868 -0.000915 0.028147 -0.010924 0.016948 -0.000185
# 4 0.001374 -0.000263 -0.010924 0.026779 -0.010240 -0.001622
# 5 0.004491 0.002614 0.016948 -0.010240 0.049348 -0.009303
# 6 -0.003456 -0.000959 -0.000185 -0.001622 -0.009303 0.022571
#
#
# Mechanical properties :
#
#
# Convention : Reuss Voigt Hill
#
# Bulk Modulus (GPa) = 31.22727 66.15381 48.69054
# Shear Modulus (GPa) = 29.03855 41.13637 35.08746
#
# Velocity S-wave (km/s) = 3.44626 4.10179 3.78823
# Velocity P-wave (km/s) = 5.34859 7.03488 6.24888
#
# Compressibility (1/GPa) = 0.03202329
#
# Stress axis : x y z
#
# Youngs Moduli (GPa) = 99.25720 108.73505 35.52806
#
# Poissons Ratio (x) = 0.31694 0.13741
# Poissons Ratio (y) = 0.28932 0.03250
# Poissons Ratio (z) = 0.38391 0.09948
#
# Static dielectric constant tensor:
#      x y z
#    x 2.109820 0.063420 -0.027980 
#    y 0.063420 1.912310 -0.030370 
#    z -0.027980 -0.030370 2.118830 
# 
# From -- ./inp_files/109927.got.cif
#   From: 2010.05.17/outbox.cif.g08.bks.cpg/sg2_55_cif.got.tgz:109927.got - 2010.06.03 11:33:40.
