data_PCOD9010902
_publ_section_title
;
Structure prediction by ZEFSAII (Michael W. Deem and Ramdas Pophale) SiO2 
 PCOD9010902
Probable space group: P -1
;
_chemical_formula_sum "Si O2"
_cell_formula_units_Z 16
_cell_length_a 10.737137
_cell_length_b 14.791823
_cell_length_c 8.562818
_cell_angle_alpha 52.611053
_cell_angle_beta 43.303754
_cell_angle_gamma 56.708385
_cell_volume 726.672503
_symmetry_space_group_name_H-M "P -1"
_symmetry_group_IT_number 2
_symmetry_cell_setting 'triclinic'
loop_
_space_group_symop_operation_xyz
x,y,z
-x,-y,-z
loop_
_atom_site_type_symbol
_atom_site_label
_atom_site_fract_x
_atom_site_fract_y
_atom_site_fract_z
Si Si1 0.037435 0.520664 0.624855
Si Si2 0.777424 0.378702 0.163448
Si Si3 0.727640 0.236361 0.061016
Si Si4 0.712891 0.983785 0.878785
Si Si5 0.072366 0.233373 0.560335
Si Si6 0.700337 0.985897 0.261519
Si Si7 0.946697 0.172135 0.415967
Si Si8 0.449775 0.554980 0.161952
O O1 0.902440 0.644093 0.658571
O O2 0.000000 0.500000 0.500000
O O3 0.255003 0.526280 0.432010
O O4 0.960537 0.423282 0.892865
O O5 0.710244 0.289339 0.194142
O O6 0.837458 0.300776 0.341026
O O7 0.611708 0.490714 0.194318
O O8 0.767529 0.097851 0.154926
O O9 0.576332 0.307482 0.002805
O O10 0.909693 0.272589 0.790299
O O11 0.863187 0.868843 0.812142
O O12 0.806686 0.084546 0.612680
O O13 0.710201 0.992203 0.059755
O O14 0.500000 0.000000 0.000000
O O15 0.213160 0.141597 0.623735
O O16 0.005238 0.165589 0.549169
O O17 0.500000 0.000000 0.500000
O O18 0.500000 0.500000 0.000000
#
# Coordination Sequence:
#
# PCOD9010902 Si02
#       8
#     2   2   2   2   2   2   2   2
#     4  11  21  39  66  97 132 171 228 281 327 391
#     4  11  23  40  67  96 132 182 218 276 338 398
#     4  10  21  40  64  95 129 169 226 271 332 391
#     4  11  26  47  66  99 141 179 227 276 340 412
#     4  11  23  43  67  96 133 174 226 276 333 403
#     4  12  26  40  72 103 130 173 227 287 337 400
#     4  11  26  45  68  94 143 187 216 277 347 402
#     4   9  19  37  61  93 126 167 218 268 324 393
#
# _framework density 22.018173000000001
#
# number of rings (size 3 to 8) (size 9 to 14) (size 15 to 20)
#    0.000    1.250    5.000    1.875    7.000    1.500 
#    0.000    2.500    0.000    0.000    0.000    0.000 
#    0.000    0.000    0.000    0.000    0.000    0.000 
#
# Total GULP energy -89191.873206 kJ/mol
# GULP energy per Si atom -5574.492075 kJ/mol
# Density = 2.196806 g / cm^3
# Si number density = 22.018173 Si / 1000 Ang^3
#
#
#
# Elastic Constant Matrix: (Units=GPa)
#
#
# Indices 1 2 3 4 5 6 
#
# 1 60.7389 22.1492 32.4851 9.3803 -1.3488 -15.0109
# 2 22.1492 89.4447 18.9991 1.2881 -2.2025 -17.3568
# 3 32.4851 18.9991 73.5025 -4.7166 -10.7569 -19.2369
# 4 9.3803 1.2881 -4.7166 26.5015 -4.8298 -6.6118
# 5 -1.3488 -2.2025 -10.7569 -4.8298 26.9624 -4.4952
# 6 -15.0109 -17.3568 -19.2369 -6.6118 -4.4952 41.0246
#
#
#
# Elastic Compliance Matrix: (Units=1/GPa)
#
#
# Indices 1 2 3 4 5 6 
#
# 1 0.026229 -0.003946 -0.012489 -0.012641 -0.006368 -0.000663
# 2 -0.003946 0.013080 0.000055 0.002331 0.002098 0.004722
# 3 -0.012489 0.000055 0.024844 0.014029 0.013615 0.010856
# 4 -0.012641 0.002331 0.014029 0.050807 0.016411 0.012926
# 5 -0.006368 0.002098 0.013615 0.016411 0.047445 0.012785
# 6 -0.000663 0.004722 0.010856 0.012926 0.012785 0.034705
#
#
# Mechanical properties :
#
#
# Convention : Reuss Voigt Hill
#
# Bulk Modulus (GPa) = 31.85302 41.21700 36.53501
# Shear Modulus (GPa) = 20.80438 28.90121 24.85280
#
# Velocity S-wave (km/s) = 3.07721 3.62692 3.36332
# Velocity P-wave (km/s) = 5.20805 6.02491 5.63131
#
# Compressibility (1/GPa) = 0.03139420
#
# Stress axis : x y z
#
# Youngs Moduli (GPa) = 38.12545 76.45408 40.25071
#
# Poissons Ratio (x) = 0.30167 0.50269
# Poissons Ratio (y) = 0.15044 -0.00223
# Poissons Ratio (z) = 0.47615 -0.00423
#
# Static dielectric constant tensor:
#      x y z
#    x 1.787640 -0.129390 0.044270 
#    y -0.129390 1.332410 0.263150 
#    z 0.044270 0.263150 1.655980 
# 
# From -- ./inp_files/271710.got.cif
#   From: 2010.05.17/outbox.cif.g08.bks.cpg/sg2_136_cif.got.tgz:271710.got - 2010.06.03 11:33:40.
