data_PCOD9010626
_publ_section_title
;
Structure prediction by ZEFSAII (Michael W. Deem and Ramdas Pophale) SiO2 
 PCOD9010626
Probable space group: P -1
;
_chemical_formula_sum "Si O2"
_cell_formula_units_Z 16
_cell_length_a 19.142539
_cell_length_b 17.599517
_cell_length_c 7.781337
_cell_angle_alpha 150.127418
_cell_angle_beta 41.774963
_cell_angle_gamma 150.964033
_cell_volume 632.906599
_symmetry_space_group_name_H-M "P -1"
_symmetry_group_IT_number 2
_symmetry_cell_setting 'triclinic'
loop_
_space_group_symop_operation_xyz
x,y,z
-x,-y,-z
loop_
_atom_site_type_symbol
_atom_site_label
_atom_site_fract_x
_atom_site_fract_y
_atom_site_fract_z
Si Si1 0.736534 0.537150 0.793916
Si Si2 0.323472 0.258813 0.162551
Si Si3 0.958180 0.862968 0.476414
Si Si4 0.012744 0.265583 0.505263
Si Si5 0.222950 0.740546 0.196739
Si Si6 0.850544 0.444055 0.685040
Si Si7 0.390152 0.279531 0.447729
Si Si8 0.436425 0.155678 0.452905
O O1 0.886470 0.724566 0.792688
O O2 0.769099 0.417687 0.612338
O O3 0.605464 0.361637 0.565142
O O4 0.685426 0.636247 0.188164
O O5 0.167190 0.172053 0.264534
O O6 0.330733 0.175769 0.167066
O O7 0.441090 0.509738 0.465068
O O8 0.371975 0.214049 0.821662
O O9 0.049310 0.883851 0.508141
O O10 0.894302 0.648569 0.086568
O O11 0.000000 0.000000 0.500000
O O12 0.886614 0.227278 0.564172
O O13 0.128657 0.507575 0.836140
O O14 0.245265 0.733184 0.342555
O O15 0.369363 0.931219 0.204978
O O16 0.000000 0.500000 0.500000
O O17 0.381198 0.142829 0.340675
#
# Coordination Sequence:
#
# PCOD9010626 Si02
#       8
#     2   2   2   2   2   2   2   2
#     4  11  21  42  70  94 125 182 219 265 341 400
#     4  10  21  40  63  98 132 169 211 276 338 384
#     4  11  24  39  66  99 124 170 229 274 324 397
#     4  10  22  43  66  87 133 177 218 265 342 392
#     4  10  24  42  61  93 131 177 215 274 329 395
#     4  11  23  43  63  89 137 175 217 266 332 396
#     4  10  21  41  67  97 134 171 212 277 344 396
#     4  11  24  41  67 103 134 165 227 280 332 396
#
# _framework density 25.280189
#
# number of rings (size 3 to 8) (size 9 to 14) (size 15 to 20)
#    0.000    1.500    2.500    3.000    3.500    1.000 
#    2.250    1.875    0.000    0.000    0.000    0.000 
#    0.000    0.000    0.000    0.000    0.000    0.000 
#
# Total GULP energy -89552.498397 kJ/mol
# GULP energy per Si atom -5597.031150 kJ/mol
# Density = 2.522265 g / cm^3
# Si number density = 25.280189 Si / 1000 Ang^3
#
#
#
# Elastic Constant Matrix: (Units=GPa)
#
#
# Indices 1 2 3 4 5 6 
#
# 1 146.5350 47.7226 -12.7838 2.1502 -21.4685 -42.5451
# 2 47.7226 116.5925 10.2725 1.4993 -16.6916 -11.9121
# 3 -12.7838 10.2725 55.1156 6.1370 -14.5720 -2.1648
# 4 2.1502 1.4993 6.1370 39.4836 -1.2262 -4.8723
# 5 -21.4685 -16.6916 -14.5720 -1.2262 21.7448 1.2144
# 6 -42.5451 -11.9121 -2.1648 -4.8723 1.2144 59.5649
#
#
#
# Elastic Compliance Matrix: (Units=1/GPa)
#
#
# Indices 1 2 3 4 5 6 
#
# 1 0.013513 -0.003042 0.008339 -0.000307 0.016076 0.008994
# 2 -0.003042 0.010515 -0.001631 0.000119 0.003994 -0.000201
# 3 0.008339 -0.001631 0.027561 -0.003178 0.024945 0.005863
# 4 -0.000307 0.000119 -0.003178 0.026030 -0.000977 0.001838
# 5 0.016076 0.003994 0.024945 -0.000977 0.080947 0.011457
# 6 0.008994 -0.000201 0.005863 0.001838 0.011457 0.023302
#
#
# Mechanical properties :
#
#
# Convention : Reuss Voigt Hill
#
# Bulk Modulus (GPa) = 16.97119 45.40729 31.18924
# Shear Modulus (GPa) = 25.74988 42.36076 34.05532
#
# Velocity S-wave (km/s) = 3.19498 4.09791 3.67429
# Velocity P-wave (km/s) = 4.50981 6.35540 5.51042
#
# Compressibility (1/GPa) = 0.05892338
#
# Stress axis : x y z
#
# Youngs Moduli (GPa) = 74.00036 95.09980 36.28316
#
# Poissons Ratio (x) = 0.28926 -0.30257
# Poissons Ratio (y) = 0.22508 0.05916
# Poissons Ratio (z) = -0.61709 0.15506
#
# Static dielectric constant tensor:
#      x y z
#    x 2.048800 0.016060 -0.088610 
#    y 0.016060 2.042080 -0.067690 
#    z -0.088610 -0.067690 2.230120 
# 
# From -- ./inp_files/316097.got.cif
#   From: 2010.05.17/outbox.cif.g08.bks.cpg/sg2_159_cif.got.tgz:316097.got - 2010.06.03 11:33:40.
