data_PCOD9010761
_publ_section_title
;
Structure prediction by ZEFSAII (Michael W. Deem and Ramdas Pophale) SiO2 
 PCOD9010761
Probable space group: P -1
;
_chemical_formula_sum "Si O2"
_cell_formula_units_Z 16
_cell_length_a 14.525672
_cell_length_b 20.009829
_cell_length_c 8.547437
_cell_angle_alpha 102.068463
_cell_angle_beta 88.616511
_cell_angle_gamma 159.798460
_cell_volume 721.860129
_symmetry_space_group_name_H-M "P -1"
_symmetry_group_IT_number 2
_symmetry_cell_setting 'triclinic'
loop_
_space_group_symop_operation_xyz
x,y,z
-x,-y,-z
loop_
_atom_site_type_symbol
_atom_site_label
_atom_site_fract_x
_atom_site_fract_y
_atom_site_fract_z
Si Si1 0.201049 0.542417 0.570921
Si Si2 0.401577 0.815634 0.520449
Si Si3 0.728451 0.129062 0.922828
Si Si4 0.700308 0.929555 0.001634
Si Si5 0.585448 0.708470 0.484288
Si Si6 0.334844 0.771386 0.152441
Si Si7 0.736956 0.590131 0.882393
Si Si8 0.761283 0.849279 0.203080
O O1 0.248994 0.635173 0.484144
O O2 0.296974 0.539136 0.494352
O O3 0.855901 0.307291 0.527160
O O4 0.439617 0.726728 0.788425
O O5 0.491247 0.871860 0.364533
O O6 0.615738 0.989085 0.741665
O O7 0.755163 0.213590 0.854103
O O8 0.041007 0.320049 0.075896
O O9 0.500000 0.000000 0.000000
O O10 0.571748 0.905851 0.084727
O O11 0.720998 0.881646 0.098990
O O12 0.023162 0.177871 0.024508
O O13 0.466247 0.553397 0.338878
O O14 0.688727 0.820036 0.373121
O O15 0.878439 0.915476 0.686884
O O16 0.000000 0.500000 0.000000
O O17 0.475351 0.383112 0.920050
#
# Coordination Sequence:
#
# PCOD9010761 Si02
#       8
#     2   2   2   2   2   2   2   2
#     4  11  22  38  62  93 123 164 206 253 316 369
#     4  11  24  38  59  93 130 163 209 250 308 383
#     4  12  22  39  60  89 129 163 204 255 308 373
#     4  12  22  40  66  91 125 165 209 258 313 370
#     4   9  21  43  66  87 125 162 206 264 313 372
#     4  12  24  39  59  92 125 171 208 252 308 376
#     4  10  21  40  64  91 122 162 206 256 311 365
#     4   9  22  43  66  89 120 166 210 258 319 368
#
# _framework density 22.164959
#
# number of rings (size 3 to 8) (size 9 to 14) (size 15 to 20)
#    0.750    0.500    3.750    2.625    3.500    1.000 
#    0.000    0.625    0.000    0.000    0.000    0.000 
#    0.000    0.000    0.000    0.000    0.000    0.000 
#
# Total GULP energy -89118.375024 kJ/mol
# GULP energy per Si atom -5569.898439 kJ/mol
# Density = 2.211451 g / cm^3
# Si number density = 22.164959 Si / 1000 Ang^3
#
#
#
# Elastic Constant Matrix: (Units=GPa)
#
#
# Indices 1 2 3 4 5 6 
#
# 1 19.1630 12.9111 -0.1145 -7.2459 9.3203 -2.8854
# 2 12.9111 43.7351 22.3939 18.0207 10.5827 -2.0458
# 3 -0.1145 22.3939 89.3565 5.5823 8.8158 2.9409
# 4 -7.2459 18.0207 5.5823 33.9041 -0.5233 3.3139
# 5 9.3203 10.5827 8.8158 -0.5233 30.8229 -3.5651
# 6 -2.8854 -2.0458 2.9409 3.3139 -3.5651 32.1824
#
#
#
# Elastic Compliance Matrix: (Units=1/GPa)
#
#
# Indices 1 2 3 4 5 6 
#
# 1 0.127969 -0.065190 0.014817 0.059483 -0.019813 -0.002345
# 2 -0.065190 0.070372 -0.014750 -0.049405 -0.000490 0.005010
# 3 0.014817 -0.014750 0.014808 0.008733 -0.003767 -0.002279
# 4 0.059483 -0.049405 0.008733 0.067559 -0.003057 -0.005901
# 5 -0.019813 -0.000490 -0.003767 -0.003057 0.040008 0.003284
# 6 -0.002345 0.005010 -0.002279 -0.005901 0.003284 0.032361
#
#
# Mechanical properties :
#
#
# Convention : Reuss Voigt Hill
#
# Bulk Modulus (GPa) = 12.06216 24.73728 18.39972
# Shear Modulus (GPa) = 9.78559 27.18615 18.48587
#
# Velocity S-wave (km/s) = 2.10344 3.50600 2.89106
# Velocity P-wave (km/s) = 3.36944 5.25110 4.41176
#
# Compressibility (1/GPa) = 0.08290386
#
# Stress axis : x y z
#
# Youngs Moduli (GPa) = 7.81440 14.21020 67.53258
#
# Poissons Ratio (x) = 0.92636 -1.00065
# Poissons Ratio (y) = 0.50942 0.99609
# Poissons Ratio (z) = -0.11579 0.20960
#
# Static dielectric constant tensor:
#      x y z
#    x 1.825400 -0.019460 -0.034780 
#    y -0.019460 1.861610 -0.011860 
#    z -0.034780 -0.011860 1.860190 
# 
# From -- ./inp_files/218828.got.cif
#   From: 2010.05.17/outbox.cif.g08.bks.cpg/sg2_110_cif.got.tgz:218828.got - 2010.06.03 11:33:40.
