data_PCOD9010396
_publ_section_title
;
Structure prediction by ZEFSAII (Michael W. Deem and Ramdas Pophale) SiO2 
 PCOD9010396
Probable space group: P -1
;
_chemical_formula_sum "Si O2"
_cell_formula_units_Z 16
_cell_length_a 8.088325
_cell_length_b 12.518521
_cell_length_c 12.542930
_cell_angle_alpha 92.039410
_cell_angle_beta 39.762614
_cell_angle_gamma 69.896215
_cell_volume 660.999032
_symmetry_space_group_name_H-M "P -1"
_symmetry_group_IT_number 2
_symmetry_cell_setting 'triclinic'
loop_
_space_group_symop_operation_xyz
x,y,z
-x,-y,-z
loop_
_atom_site_type_symbol
_atom_site_label
_atom_site_fract_x
_atom_site_fract_y
_atom_site_fract_z
Si Si1 0.469249 0.878019 0.277692
Si Si2 0.383977 0.915864 0.785741
Si Si3 0.436545 0.612229 0.960327
Si Si4 0.109067 0.593641 0.919845
Si Si5 0.742515 0.117127 0.376781
Si Si6 0.112555 0.371122 0.374864
Si Si7 0.673388 0.150668 0.872298
Si Si8 0.079010 0.689410 0.715510
O O1 0.373046 0.880744 0.447173
O O2 0.269729 0.865765 0.283975
O O3 0.491819 0.997342 0.240043
O O4 0.813221 0.743219 0.090461
O O5 0.435556 0.897118 0.632085
O O6 0.597003 0.768951 0.726049
O O7 0.000000 0.000000 0.000000
O O8 0.348906 0.584650 0.888104
O O9 0.764809 0.595760 0.788614
O O10 0.500000 0.500000 0.000000
O O11 0.233858 0.756241 0.119267
O O12 0.188025 0.587776 0.755428
O O13 0.000000 0.500000 0.000000
O O14 0.745716 0.240822 0.352993
O O15 0.103061 0.989200 0.189881
O O16 0.867790 0.351837 0.437694
O O17 0.000000 0.500000 0.500000
O O18 0.305976 0.204987 0.075274
#
# Coordination Sequence:
#
# PCOD9010396 Si02
#       8
#     2   2   2   2   2   2   2   2
#     4  11  24  40  63  97 127 163 214 271 322 375
#     4  12  24  44  68  93 130 177 217 259 319 393
#     4  11  23  41  64  89 121 167 212 258 316 386
#     4  11  23  43  65  90 125 169 217 261 317 393
#     4  12  23  38  63  96 128 162 210 273 322 372
#     4  11  25  43  65  96 129 166 214 269 320 375
#     4  10  21  40  63  89 124 171 213 256 320 391
#     4  10  22  41  64  90 124 171 214 259 320 391
#
# _framework density 24.205784000000001
#
# number of rings (size 3 to 8) (size 9 to 14) (size 15 to 20)
#    0.000    1.000    0.000    9.375    0.000    5.000 
#    0.000    1.875    0.000    0.000    0.000    0.000 
#    0.000    0.000    0.000    0.000    0.000    0.000 
#
# Total GULP energy -89320.036539 kJ/mol
# GULP energy per Si atom -5582.502284 kJ/mol
# Density = 2.415069 g / cm^3
# Si number density = 24.205784 Si / 1000 Ang^3
#
#
#
# Elastic Constant Matrix: (Units=GPa)
#
#
# Indices 1 2 3 4 5 6 
#
# 1 110.4740 11.9403 26.5765 7.6140 38.9990 -5.3917
# 2 11.9403 125.5748 31.8509 2.2562 10.3259 5.5773
# 3 26.5765 31.8509 72.5680 7.3442 22.7802 -4.8375
# 4 7.6140 2.2562 7.3442 34.6006 -3.8755 6.9679
# 5 38.9990 10.3259 22.7802 -3.8755 48.3850 4.0161
# 6 -5.3917 5.5773 -4.8375 6.9679 4.0161 46.0966
#
#
#
# Elastic Compliance Matrix: (Units=1/GPa)
#
#
# Indices 1 2 3 4 5 6 
#
# 1 0.013743 -0.000269 -0.000637 -0.004809 -0.011378 0.003291
# 2 -0.000269 0.009086 -0.004232 0.000767 0.000476 -0.001732
# 3 -0.000637 -0.004232 0.019348 -0.005450 -0.008464 0.004029
# 4 -0.004809 0.000767 -0.005450 0.033574 0.009559 -0.007135
# 5 -0.011378 0.000476 -0.008464 0.009559 0.035050 -0.006775
# 6 0.003291 -0.001732 0.004029 -0.007135 -0.006775 0.024380
#
#
# Mechanical properties :
#
#
# Convention : Reuss Voigt Hill
#
# Bulk Modulus (GPa) = 31.34744 49.92802 40.63773
# Shear Modulus (GPa) = 32.03272 41.69972 36.86622
#
# Velocity S-wave (km/s) = 3.64173 4.15507 3.90684
# Velocity P-wave (km/s) = 5.53728 6.60989 6.09722
#
# Compressibility (1/GPa) = 0.03190053
#
# Stress axis : x y z
#
# Youngs Moduli (GPa) = 72.76497 110.05424 51.68516
#
# Poissons Ratio (x) = 0.02964 0.03293
# Poissons Ratio (y) = 0.01960 0.21873
# Poissons Ratio (z) = 0.04636 0.46574
#
# Static dielectric constant tensor:
#      x y z
#    x 2.061310 0.041540 0.136410 
#    y 0.041540 1.899740 0.100920 
#    z 0.136410 0.100920 2.221980 
# 
# From -- ./inp_files/345204.got.cif
#   From: 2010.05.17/outbox.cif.g08.bks.cpg/sg2_173_cif.got.tgz:345204.got - 2010.06.03 11:33:40.
