data_PCOD9010566
_publ_section_title
;
Structure prediction by ZEFSAII (Michael W. Deem and Ramdas Pophale) SiO2 
 PCOD9010566
Probable space group: P -1
;
_chemical_formula_sum "Si O2"
_cell_formula_units_Z 14
_cell_length_a 19.136036
_cell_length_b 9.181069
_cell_length_c 5.270201
_cell_angle_alpha 99.753058
_cell_angle_beta 115.673178
_cell_angle_gamma 59.253070
_cell_volume 715.583524
_symmetry_space_group_name_H-M "P -1"
_symmetry_group_IT_number 2
_symmetry_cell_setting 'triclinic'
loop_
_space_group_symop_operation_xyz
x,y,z
-x,-y,-z
loop_
_atom_site_type_symbol
_atom_site_label
_atom_site_fract_x
_atom_site_fract_y
_atom_site_fract_z
Si Si1 0.262162 0.592653 0.886659
Si Si2 0.447494 0.499842 0.164892
Si Si3 0.740027 0.598922 0.682889
Si Si4 0.597250 0.989270 0.652346
Si Si5 0.946410 0.402524 0.965401
Si Si6 0.055288 0.799784 0.593232
Si Si7 0.538803 0.128274 0.110598
O O1 0.269604 0.468063 0.628378
O O2 0.160205 0.742721 0.768359
O O3 0.343395 0.631008 0.010535
O O4 0.277644 0.504056 0.157927
O O5 0.500000 0.500000 0.500000
O O6 0.458327 0.312455 0.098782
O O7 0.500000 0.500000 0.000000
O O8 0.672549 0.795401 0.689383
O O9 0.842788 0.546889 0.868051
O O10 0.500000 0.000000 0.500000
O O11 0.603002 0.080541 0.436471
O O12 0.591717 0.094312 0.923354
O O13 0.968099 0.282034 0.218325
O O14 0.953435 0.291245 0.698595
O O15 0.000000 0.500000 0.000000
O O16 0.000000 0.000000 0.500000
O O17 0.500000 0.000000 0.000000
#
# Coordination Sequence:
#
# PCOD9010566 Si02
#       7
#     2   2   2   2   2   2   2
#     4  10  20  37  58  82 113 156 201 229 281 365
#     4  12  24  39  57  82 118 155 190 240 292 336
#     4  10  19  34  59  85 112 153 194 234 284 353
#     4  10  17  29  51  78 104 134 182 230 261 308
#     4  10  21  38  61  91 121 150 193 249 305 352
#     4  10  21  39  65  88 116 159 201 242 296 362
#     4  10  20  34  54  76 104 143 185 226 270 328
#
# _framework density 19.564453
#
# number of rings (size 3 to 8) (size 9 to 14) (size 15 to 20)
#    0.000    1.714    0.000    6.857    0.000    0.000 
#    0.000    4.286    0.000    0.000    0.000    0.000 
#    0.000    0.000    0.000    0.000    0.000    0.000 
#
# Total GULP energy -77972.098767 kJ/mol
# GULP energy per Si atom -5569.435626 kJ/mol
# Density = 1.951992 g / cm^3
# Si number density = 19.564453 Si / 1000 Ang^3
#
#
#
# Elastic Constant Matrix: (Units=GPa)
#
#
# Indices 1 2 3 4 5 6 
#
# 1 128.7893 36.0949 55.3201 -7.0890 -1.3093 -2.2993
# 2 36.0949 116.2151 33.3608 -13.6623 9.3064 -13.5455
# 3 55.3201 33.3608 84.5653 -7.9973 -27.7078 -1.7681
# 4 -7.0890 -13.6623 -7.9973 28.2919 -1.8375 -0.9274
# 5 -1.3093 9.3064 -27.7078 -1.8375 47.4363 1.8303
# 6 -2.2993 -13.5455 -1.7681 -0.9274 1.8303 23.5548
#
#
#
# Elastic Compliance Matrix: (Units=1/GPa)
#
#
# Indices 1 2 3 4 5 6 
#
# 1 0.011783 -0.000639 -0.009063 -0.000219 -0.004870 0.000472
# 2 -0.000639 0.012260 -0.005848 0.003955 -0.005962 0.007168
# 3 -0.009063 -0.005848 0.025542 0.003055 0.016068 -0.003459
# 4 -0.000219 0.003955 0.003055 0.038342 0.002341 0.003810
# 5 -0.004870 -0.005962 0.016068 0.002341 0.031788 -0.005076
# 6 0.000472 0.007168 -0.003459 0.003810 -0.005076 0.046907
#
#
# Mechanical properties :
#
#
# Convention : Reuss Voigt Hill
#
# Bulk Modulus (GPa) = 54.09494 64.34678 59.22086
# Shear Modulus (GPa) = 24.52389 33.50953 29.01671
#
# Velocity S-wave (km/s) = 3.54431 4.14306 3.85533
# Velocity P-wave (km/s) = 6.66777 7.47313 7.08191
#
# Compressibility (1/GPa) = 0.01848602
#
# Stress axis : x y z
#
# Youngs Moduli (GPa) = 84.86589 81.56776 39.15111
#
# Poissons Ratio (x) = 0.05212 0.35481
# Poissons Ratio (y) = 0.05422 0.22896
# Poissons Ratio (z) = 0.76910 0.47702
#
# Static dielectric constant tensor:
#      x y z
#    x 1.711550 0.128720 0.002990 
#    y 0.128720 1.550370 -0.119440 
#    z 0.002990 -0.119440 1.669010 
# 
# From -- ./inp_files/45969.got.cif
#   From: 2010.05.17/outbox.cif.g08.bks.cpg/sg2_23_cif.got.tgz:45969.got - 2010.06.03 11:33:40.
