data_PCOD9010596
_publ_section_title
;
Structure prediction by ZEFSAII (Michael W. Deem and Ramdas Pophale) SiO2 
 PCOD9010596
Probable space group: P -1
;
_chemical_formula_sum "Si O2"
_cell_formula_units_Z 14
_cell_length_a 17.365434
_cell_length_b 17.012556
_cell_length_c 6.291861
_cell_angle_alpha 109.103480
_cell_angle_beta 105.017656
_cell_angle_gamma 19.515484
_cell_volume 579.542432
_symmetry_space_group_name_H-M "P -1"
_symmetry_group_IT_number 2
_symmetry_cell_setting 'triclinic'
loop_
_space_group_symop_operation_xyz
x,y,z
-x,-y,-z
loop_
_atom_site_type_symbol
_atom_site_label
_atom_site_fract_x
_atom_site_fract_y
_atom_site_fract_z
Si Si1 0.593994 0.648021 0.850629
Si Si2 0.835387 0.696325 0.869687
Si Si3 0.471859 0.464508 0.755643
Si Si4 0.097847 0.719472 0.917585
Si Si5 0.785008 0.890318 0.714824
Si Si6 0.519790 0.863098 0.683617
Si Si7 0.732878 0.186582 0.318352
O O1 0.828956 0.407319 0.938210
O O2 0.611639 0.686100 0.686970
O O3 0.481020 0.668018 0.752090
O O4 0.413224 0.874290 0.070494
O O5 0.915912 0.687981 0.755294
O O6 0.727612 0.725343 0.686013
O O7 0.000000 0.500000 0.000000
O O8 0.635930 0.940059 0.073811
O O9 0.714376 0.206342 0.579801
O O10 0.315599 0.672227 0.665805
O O11 0.500000 0.500000 0.000000
O O12 0.327334 0.529581 0.800784
O O13 0.943695 0.943095 0.115043
O O14 0.956470 0.800010 0.726604
O O15 0.647939 0.988799 0.503263
#
# Coordination Sequence:
#
# PCOD9010596 Si02
#       7
#     2   2   2   2   2   2   2
#     4  10  22  42  61  97 135 170 224 282 329 402
#     4  10  21  40  63  96 133 174 223 275 335 399
#     4  11  23  45  68  96 137 178 224 285 341 403
#     4  11  23  44  70  98 136 181 227 281 341 407
#     4  10  23  41  63  98 133 175 229 273 336 405
#     4  10  22  39  64  92 136 176 216 283 333 393
#     4  10  24  44  64 100 135 173 230 281 340 406
#
# _framework density 24.15699
#
# number of rings (size 3 to 8) (size 9 to 14) (size 15 to 20)
#    0.000    1.714    1.429    1.714    2.000    2.286 
#   10.286    0.000    0.000    0.000    0.000    0.000 
#    0.000    0.000    0.000    0.000    0.000    0.000 
#
# Total GULP energy -78240.270037 kJ/mol
# GULP energy per Si atom -5588.590717 kJ/mol
# Density = 2.410201 g / cm^3
# Si number density = 24.156990 Si / 1000 Ang^3
#
#
#
# Elastic Constant Matrix: (Units=GPa)
#
#
# Indices 1 2 3 4 5 6 
#
# 1 91.8089 12.9101 40.0284 -11.3350 5.7423 23.4759
# 2 12.9101 49.1862 11.6517 1.2585 -1.0098 23.2636
# 3 40.0284 11.6517 119.1866 0.0171 11.6961 -7.9292
# 4 -11.3350 1.2585 0.0171 44.7762 -8.7341 -3.5357
# 5 5.7423 -1.0098 11.6961 -8.7341 31.0643 -8.9453
# 6 23.4759 23.2636 -7.9292 -3.5357 -8.9453 31.1114
#
#
#
# Elastic Compliance Matrix: (Units=1/GPa)
#
#
# Indices 1 2 3 4 5 6 
#
# 1 0.021183 0.009307 -0.009090 0.001459 -0.007639 -0.027291
# 2 0.009307 0.040122 -0.008856 -0.004215 -0.010593 -0.042806
# 3 -0.009090 -0.008856 0.013335 -0.000471 0.001182 0.017166
# 4 0.001459 -0.004215 -0.000471 0.025151 0.008963 0.007366
# 5 -0.007639 -0.010593 0.001182 0.008963 0.043235 0.027437
# 6 -0.027291 -0.042806 0.017166 0.007366 0.027437 0.097845
#
#
# Mechanical properties :
#
#
# Convention : Reuss Voigt Hill
#
# Bulk Modulus (GPa) = 17.43300 43.26243 30.34772
# Shear Modulus (GPa) = 18.03294 34.42981 26.23138
#
# Velocity S-wave (km/s) = 2.73516 3.77935 3.29883
# Velocity P-wave (km/s) = 4.14813 6.08214 5.20574
#
# Compressibility (1/GPa) = 0.05736246
#
# Stress axis : x y z
#
# Youngs Moduli (GPa) = 47.20735 24.92377 74.99097
#
# Poissons Ratio (x) = -0.23197 0.68169
# Poissons Ratio (y) = -0.43936 0.66410
# Poissons Ratio (z) = 0.42913 0.22072
#
# Static dielectric constant tensor:
#      x y z
#    x 1.949020 0.002950 -0.028180 
#    y 0.002950 1.954210 -0.037950 
#    z -0.028180 -0.037950 2.000970 
# 
# From -- ./inp_files/8104.got.cif
#   From: 2010.05.17/outbox.cif.g08.bks.cpg/sg2_5_cif.got.tgz:8104.got - 2010.06.03 11:33:40.
