data_PCOD9010861
_publ_section_title
;
Structure prediction by ZEFSAII (Michael W. Deem and Ramdas Pophale) SiO2 
 PCOD9010861
Probable space group: P -1
;
_chemical_formula_sum "Si O2"
_cell_formula_units_Z 16
_cell_length_a 15.298174
_cell_length_b 4.923140
_cell_length_c 8.951236
_cell_angle_alpha 74.751642
_cell_angle_beta 94.960056
_cell_angle_gamma 87.056513
_cell_volume 646.065123
_symmetry_space_group_name_H-M "P -1"
_symmetry_group_IT_number 2
_symmetry_cell_setting 'triclinic'
loop_
_space_group_symop_operation_xyz
x,y,z
-x,-y,-z
loop_
_atom_site_type_symbol
_atom_site_label
_atom_site_fract_x
_atom_site_fract_y
_atom_site_fract_z
Si Si1 0.669445 0.348521 0.458535
Si Si2 0.242173 0.113083 0.669252
Si Si3 0.675806 0.929512 0.775388
Si Si4 0.759888 0.578622 0.055109
Si Si5 0.498277 0.699159 0.737507
Si Si6 0.406723 0.771918 0.994507
Si Si7 0.048317 0.619877 0.846757
Si Si8 0.956422 0.775992 0.367050
O O1 0.696938 0.662796 0.426552
O O2 0.694662 0.187283 0.637406
O O3 0.567176 0.333624 0.403164
O O4 0.723249 0.185700 0.354563
O O5 0.142010 0.167196 0.593744
O O6 0.243926 0.212611 0.830382
O O7 0.633898 0.022313 0.915288
O O8 0.761128 0.743216 0.872015
O O9 0.595015 0.788768 0.702976
O O10 0.670636 0.420266 0.041255
O O11 0.846938 0.362844 0.108557
O O12 0.518936 0.412465 0.874963
O O13 0.446691 0.887854 0.831577
O O14 0.048489 0.354490 0.777277
O O15 0.012682 0.907894 0.710671
O O16 0.000000 0.500000 0.000000
O O17 0.000000 0.500000 0.500000
#
# Coordination Sequence:
#
# PCOD9010861 Si02
#       8
#     2   2   2   2   2   2   2   2
#     4  12  26  42  66  98 138 177 230 293 347 404
#     4  11  25  45  69  97 130 188 230 271 346 422
#     4  11  25  38  63  98 135 178 229 297 350 398
#     4  10  23  42  68  94 135 180 231 277 334 429
#     4  10  22  39  62  93 129 183 232 283 345 413
#     4  10  21  40  64  94 127 182 234 276 342 411
#     4  11  25  45  74 111 141 183 229 291 358 413
#     4  11  25  47  75 104 144 183 233 287 349 434
#
# _framework density 24.765305000000001
#
# number of rings (size 3 to 8) (size 9 to 14) (size 15 to 20)
#    0.000    1.250    1.250    3.750    8.750    2.500 
#    0.000    0.000    0.000    0.000    0.000    0.000 
#    0.000    0.000    0.000    0.000    0.000    0.000 
#
# Total GULP energy -89310.173893 kJ/mol
# GULP energy per Si atom -5581.885868 kJ/mol
# Density = 2.470894 g / cm^3
# Si number density = 24.765305 Si / 1000 Ang^3
#
#
#
# Elastic Constant Matrix: (Units=GPa)
#
#
# Indices 1 2 3 4 5 6 
#
# 1 65.5000 13.8565 28.0590 7.8455 5.3583 -12.1521
# 2 13.8565 96.5589 -8.7074 2.5089 -7.2622 3.4291
# 3 28.0590 -8.7074 85.9656 -28.6758 -0.6019 -5.9973
# 4 7.8455 2.5089 -28.6758 36.4894 -6.0616 3.9954
# 5 5.3583 -7.2622 -0.6019 -6.0616 29.9158 -8.1096
# 6 -12.1521 3.4291 -5.9973 3.9954 -8.1096 32.3039
#
#
#
# Elastic Compliance Matrix: (Units=1/GPa)
#
#
# Indices 1 2 3 4 5 6 
#
# 1 0.028301 -0.005948 -0.016249 -0.020841 -0.008718 0.008650
# 2 -0.005948 0.011921 0.004763 0.005187 0.004531 -0.002123
# 3 -0.016249 0.004763 0.025672 0.025123 0.008937 -0.002716
# 4 -0.020841 0.005187 0.025123 0.054456 0.014696 -0.006772
# 5 -0.008718 0.004531 0.008937 0.014696 0.040972 0.006367
# 6 0.008650 -0.002123 -0.002716 -0.006772 0.006367 0.036367
#
#
# Mechanical properties :
#
#
# Convention : Reuss Voigt Hill
#
# Bulk Modulus (GPa) = 32.23233 34.93784 33.58508
# Shear Modulus (GPa) = 20.58475 34.06292 27.32383
#
# Velocity S-wave (km/s) = 2.88617 3.71270 3.32522
# Velocity P-wave (km/s) = 4.91427 5.70237 5.32293
#
# Compressibility (1/GPa) = 0.03102475
#
# Stress axis : x y z
#
# Youngs Moduli (GPa) = 35.33500 83.88732 38.95264
#
# Poissons Ratio (x) = 0.49895 0.63295
# Poissons Ratio (y) = 0.21017 -0.18552
# Poissons Ratio (z) = 0.57417 -0.39953
#
# Static dielectric constant tensor:
#      x y z
#    x 2.060360 -0.053700 0.025370 
#    y -0.053700 2.046400 -0.057040 
#    z 0.025370 -0.057040 2.006090 
# 
# From -- ./inp_files/288530.got.cif
#   From: 2010.05.17/outbox.cif.g08.bks.cpg/sg2_145_cif.got.tgz:288530.got - 2010.06.03 11:33:40.
