data_PCOD9010164
_publ_section_title
;
Structure prediction by ZEFSAII (Michael W. Deem and Ramdas Pophale) SiO2 
 PCOD9010164
Probable space group: P -1
;
_chemical_formula_sum "Si O2"
_cell_formula_units_Z 14
_cell_length_a 9.213182
_cell_length_b 12.486813
_cell_length_c 16.019205
_cell_angle_alpha 23.023778
_cell_angle_beta 131.731134
_cell_angle_gamma 132.605835
_cell_volume 524.673047
_symmetry_space_group_name_H-M "P -1"
_symmetry_group_IT_number 2
_symmetry_cell_setting 'triclinic'
loop_
_space_group_symop_operation_xyz
x,y,z
-x,-y,-z
loop_
_atom_site_type_symbol
_atom_site_label
_atom_site_fract_x
_atom_site_fract_y
_atom_site_fract_z
Si Si1 0.987992 0.704502 0.268749
Si Si2 0.843076 0.694941 0.016309
Si Si3 0.694271 0.589406 0.453872
Si Si4 0.137672 0.469820 0.182154
Si Si5 0.556527 0.137624 0.293844
Si Si6 0.549752 0.508338 0.266169
Si Si7 0.781555 0.013607 0.313662
O O1 0.753343 0.645303 0.198936
O O2 0.000000 0.500000 0.500000
O O3 0.140456 0.598630 0.340639
O O4 0.072191 0.025165 0.097581
O O5 0.649282 0.764029 0.847159
O O6 0.742559 0.366712 0.237171
O O7 0.023957 0.669083 0.044755
O O8 0.500000 0.500000 0.500000
O O9 0.619287 0.569728 0.344741
O O10 0.774494 0.892351 0.305380
O O11 0.339984 0.599608 0.116441
O O12 0.190845 0.254138 0.427006
O O13 0.975788 0.259532 0.216982
O O14 0.513512 0.823645 0.538116
O O15 0.608430 0.106061 0.237149
#
# Coordination Sequence:
#
# PCOD9010164 Si02
#       7
#     2   2   2   2   2   2   2
#     4  10  20  33  51  78 105 139 171 210 258 312
#     4  10  17  29  50  81 102 133 176 216 247 302
#     4  11  17  31  57  77 101 136 181 209 244 312
#     4   9  18  30  52  77 103 134 174 213 254 305
#     4   9  16  29  53  76 100 131 177 211 240 304
#     4  10  19  35  54  80 103 137 174 208 261 307
#     4   9  17  32  51  78 102 136 175 211 253 303
#
# _framework density 26.683284
#
# number of rings (size 3 to 8) (size 9 to 14) (size 15 to 20)
#    0.000    2.286    5.714    0.857    0.000    0.571 
#    0.000    1.429    0.000   13.714    0.000    0.000 
#    0.000    0.000    0.000    0.000    0.000    0.000 
#
# Total GULP energy -78291.920111 kJ/mol
# GULP energy per Si atom -5592.280008 kJ/mol
# Density = 2.662255 g / cm^3
# Si number density = 26.683284 Si / 1000 Ang^3
#
#
#
# Elastic Constant Matrix: (Units=GPa)
#
#
# Indices 1 2 3 4 5 6 
#
# 1 183.9928 62.9275 89.8088 -14.6751 22.7155 43.9841
# 2 62.9275 128.3344 52.9556 -42.4097 14.9604 24.7940
# 3 89.8088 52.9556 167.6291 -36.8373 24.4692 15.2035
# 4 -14.6751 -42.4097 -36.8373 52.6152 6.6860 13.6969
# 5 22.7155 14.9604 24.4692 6.6860 62.1519 7.2228
# 6 43.9841 24.7940 15.2035 13.6969 7.2228 57.9818
#
#
#
# Elastic Compliance Matrix: (Units=1/GPa)
#
#
# Indices 1 2 3 4 5 6 
#
# 1 0.009252 -0.002012 -0.003828 -0.000326 -0.000776 -0.004981
# 2 -0.002012 0.015603 0.000884 0.015361 -0.004033 -0.008504
# 3 -0.003828 0.000884 0.009998 0.007448 -0.003385 -0.001434
# 4 -0.000326 0.015361 0.007448 0.042112 -0.009054 -0.017094
# 5 -0.000776 -0.004033 -0.003385 -0.009054 0.019310 0.002934
# 6 -0.004981 -0.008504 -0.001434 -0.017094 0.002934 0.028710
#
#
# Mechanical properties :
#
#
# Convention : Reuss Voigt Hill
#
# Bulk Modulus (GPa) = 40.09332 99.03779 69.56555
# Shear Modulus (GPa) = 34.91394 52.83408 43.87401
#
# Velocity S-wave (km/s) = 3.62118 4.45460 4.05934
# Velocity P-wave (km/s) = 5.70458 7.97838 6.93530
#
# Compressibility (1/GPa) = 0.02494181
#
# Stress axis : x y z
#
# Youngs Moduli (GPa) = 108.08448 64.08999 100.02113
#
# Poissons Ratio (x) = 0.12896 0.38286
# Poissons Ratio (y) = 0.21749 -0.08846
# Poissons Ratio (z) = 0.41373 -0.05668
#
# Static dielectric constant tensor:
#      x y z
#    x 2.217750 0.011360 -0.212650 
#    y 0.011360 2.216330 -0.056370 
#    z -0.212650 -0.056370 2.418720 
# 
# From -- ./inp_files/181778.got.cif
#   From: 2010.05.17/outbox.cif.g08.bks.cpg/sg2_91_cif.got.tgz:181778.got - 2010.06.03 11:33:40.
