data_PCOD9010633
_publ_section_title
;
Structure prediction by ZEFSAII (Michael W. Deem and Ramdas Pophale) SiO2 
 PCOD9010633
Probable space group: P -1
;
_chemical_formula_sum "Si O2"
_cell_formula_units_Z 14
_cell_length_a 5.169264
_cell_length_b 12.865048
_cell_length_c 13.274886
_cell_angle_alpha 139.655922
_cell_angle_beta 65.015486
_cell_angle_gamma 116.505199
_cell_volume 506.266875
_symmetry_space_group_name_H-M "P -1"
_symmetry_group_IT_number 2
_symmetry_cell_setting 'triclinic'
loop_
_space_group_symop_operation_xyz
x,y,z
-x,-y,-z
loop_
_atom_site_type_symbol
_atom_site_label
_atom_site_fract_x
_atom_site_fract_y
_atom_site_fract_z
Si Si1 0.586749 0.239883 0.960131
Si Si2 0.581663 0.693659 0.156471
Si Si3 0.654289 0.800290 0.448477
Si Si4 0.021008 0.632774 0.821038
Si Si5 0.893898 0.360778 0.495474
Si Si6 0.118244 0.952474 0.641421
Si Si7 0.298866 0.938600 0.893609
O O1 0.290941 0.313633 0.079297
O O2 0.486144 0.043589 0.852514
O O3 0.805504 0.332098 0.076996
O O4 0.666226 0.263236 0.846907
O O5 0.634675 0.704564 0.275470
O O6 0.843669 0.854424 0.202506
O O7 0.500000 0.500000 0.000000
O O8 0.456774 0.683385 0.477119
O O9 0.443756 0.925559 0.553007
O O10 0.941373 0.891785 0.524933
O O11 0.977252 0.447417 0.654113
O O12 0.206103 0.745447 0.785981
O O13 0.992936 0.184676 0.353011
O O14 0.000000 0.500000 0.500000
O O15 0.500000 0.000000 0.000000
O O16 0.000000 0.000000 0.000000
#
# Coordination Sequence:
#
# PCOD9010633 Si02
#       7
#     2   2   2   2   2   2   2
#     4  10  23  40  63  99 138 176 224 289 354 411
#     4  12  26  45  78 107 144 189 246 296 357 428
#     4  10  25  50  72 104 147 191 237 296 359 426
#     4  10  21  40  63  99 136 177 226 288 346 416
#     4  10  25  44  76 100 138 188 244 288 354 429
#     4  10  26  49  72 101 149 187 240 294 360 422
#     4   8  16  33  55  82 125 167 205 263 335 394
#
# _framework density 27.653396000000001
#
# number of rings (size 3 to 8) (size 9 to 14) (size 15 to 20)
#    0.857    1.143    0.000    1.714    6.000    2.857 
#    0.000    5.714    0.000    0.000    0.000    0.000 
#    0.000    0.000    0.000    0.000    0.000    0.000 
#
# Total GULP energy -78106.324710 kJ/mol
# GULP energy per Si atom -5579.023194 kJ/mol
# Density = 2.759046 g / cm^3
# Si number density = 27.653396 Si / 1000 Ang^3
#
#
#
# Elastic Constant Matrix: (Units=GPa)
#
#
# Indices 1 2 3 4 5 6 
#
# 1 148.5289 28.2199 75.7063 0.5141 45.5981 -12.0001
# 2 28.2199 178.3303 50.8900 20.9947 3.3540 -18.5237
# 3 75.7063 50.8900 237.1278 27.3304 35.9119 -5.6406
# 4 0.5141 20.9947 27.3304 43.6240 -3.1751 7.0634
# 5 45.5981 3.3540 35.9119 -3.1751 38.2675 -4.8397
# 6 -12.0001 -18.5237 -5.6406 7.0634 -4.8397 31.7409
#
#
#
# Elastic Compliance Matrix: (Units=1/GPa)
#
#
# Indices 1 2 3 4 5 6 
#
# 1 0.011549 -0.000990 -0.001666 0.000256 -0.011884 0.001623
# 2 -0.000990 0.006848 -0.000932 -0.003295 0.001744 0.004456
# 3 -0.001666 -0.000932 0.005932 -0.003538 -0.003782 0.000091
# 4 0.000256 -0.003295 -0.003538 0.028365 0.004638 -0.008060
# 5 -0.011884 0.001744 -0.003782 0.004638 0.044273 0.001571
# 6 0.001623 0.004456 0.000091 -0.008060 0.001571 0.036768
#
#
# Mechanical properties :
#
#
# Convention : Reuss Voigt Hill
#
# Bulk Modulus (GPa) = 58.29998 97.06882 77.68440
# Shear Modulus (GPa) = 34.10002 50.00454 42.05228
#
# Velocity S-wave (km/s) = 3.51539 4.25698 3.90383
# Velocity P-wave (km/s) = 6.13233 7.70329 6.96226
#
# Compressibility (1/GPa) = 0.01715267
#
# Stress axis : x y z
#
# Youngs Moduli (GPa) = 86.59110 146.02530 168.58669
#
# Poissons Ratio (x) = 0.14460 0.28080
# Poissons Ratio (y) = 0.08574 0.15712
# Poissons Ratio (z) = 0.14423 0.13610
#
# Static dielectric constant tensor:
#      x y z
#    x 2.194400 0.028700 -0.058930 
#    y 0.028700 2.290790 -0.057850 
#    z -0.058930 -0.057850 2.165780 
# 
# From -- ./inp_files/484500.got.cif
#   From: 2010.05.17/outbox.cif.g08.bks.cpg/sg2_243_cif.got.tgz:484500.got - 2010.06.03 11:33:40.
