data_PCOD9010664
_publ_section_title
;
Structure prediction by ZEFSAII (Michael W. Deem and Ramdas Pophale) SiO2 
 PCOD9010664
Probable space group: P -1
;
_chemical_formula_sum "Si O2"
_cell_formula_units_Z 14
_cell_length_a 7.431097
_cell_length_b 19.148270
_cell_length_c 11.136938
_cell_angle_alpha 34.062550
_cell_angle_beta 75.376208
_cell_angle_gamma 50.386484
_cell_volume 525.926055
_symmetry_space_group_name_H-M "P -1"
_symmetry_group_IT_number 2
_symmetry_cell_setting 'triclinic'
loop_
_space_group_symop_operation_xyz
x,y,z
-x,-y,-z
loop_
_atom_site_type_symbol
_atom_site_label
_atom_site_fract_x
_atom_site_fract_y
_atom_site_fract_z
Si Si1 0.580288 0.460827 0.184422
Si Si2 0.113018 0.565556 0.508007
Si Si3 0.423241 0.276261 0.474991
Si Si4 0.218789 0.117394 0.475260
Si Si5 0.097236 0.075465 0.934977
Si Si6 0.377340 0.180966 0.968072
Si Si7 0.481234 0.224472 0.252440
O O1 0.421891 0.420475 0.316202
O O2 0.939308 0.246118 0.426327
O O3 0.500000 0.500000 0.000000
O O4 0.528099 0.628361 0.002817
O O5 0.870795 0.633673 0.545995
O O6 0.160876 0.683341 0.364562
O O7 0.939486 0.666044 0.265305
O O8 0.383011 0.324630 0.796877
O O9 0.453048 0.254656 0.357406
O O10 0.732436 0.047676 0.795192
O O11 0.215010 0.261397 0.221568
O O12 0.241699 0.997422 0.541838
O O13 0.520580 0.946023 0.750670
O O14 0.372755 0.980458 0.943127
O O15 0.000000 0.000000 0.000000
#
# Coordination Sequence:
#
# PCOD9010664 Si02
#       7
#     2   2   2   2   2   2   2
#     4  10  23  41  59  88 124 161 204 250 302 356
#     4  10  22  42  64  89 123 161 202 249 306 363
#     4  10  21  40  64  86 122 166 200 250 306 357
#     4  11  22  39  64  92 122 160 205 251 301 363
#     4  11  22  39  64  93 123 156 201 253 304 362
#     4  10  22  40  64  92 121 160 204 247 302 363
#     4  10  23  40  62  90 122 162 205 252 303 357
#
# _framework density 26.619713999999998
#
# number of rings (size 3 to 8) (size 9 to 14) (size 15 to 20)
#    0.000    1.714    0.000    4.714    0.000   10.857 
#    0.000   11.429    0.000    0.000    0.000    0.000 
#    0.000    0.000    0.000    0.000    0.000    0.000 
#
# Total GULP energy -78299.279568 kJ/mol
# GULP energy per Si atom -5592.805683 kJ/mol
# Density = 2.655913 g / cm^3
# Si number density = 26.619714 Si / 1000 Ang^3
#
#
#
# Elastic Constant Matrix: (Units=GPa)
#
#
# Indices 1 2 3 4 5 6 
#
# 1 100.4048 32.0594 45.7818 -13.0041 -47.0374 20.1400
# 2 32.0594 97.3251 36.3316 -12.5247 -19.8455 24.0315
# 3 45.7818 36.3316 136.1200 -22.4491 -43.3494 19.2060
# 4 -13.0041 -12.5247 -22.4491 42.6437 22.0593 -9.5569
# 5 -47.0374 -19.8455 -43.3494 22.0593 65.0082 -7.2089
# 6 20.1400 24.0315 19.2060 -9.5569 -7.2089 32.3854
#
#
#
# Elastic Compliance Matrix: (Units=1/GPa)
#
#
# Indices 1 2 3 4 5 6 
#
# 1 0.017588 -0.001523 -0.001289 -0.003523 0.011770 -0.007463
# 2 -0.001523 0.013562 -0.001637 0.000421 0.000937 -0.007813
# 3 -0.001289 -0.001637 0.010318 0.001583 0.004622 -0.002606
# 4 -0.003523 0.000421 0.001583 0.030686 -0.010940 0.007560
# 5 0.011770 0.000937 0.004622 -0.010940 0.030173 -0.007267
# 6 -0.007463 -0.007813 -0.002606 0.007560 -0.007267 0.043476
#
#
# Mechanical properties :
#
#
# Convention : Reuss Voigt Hill
#
# Bulk Modulus (GPa) = 30.70389 62.46618 46.58503
# Shear Modulus (GPa) = 30.20100 42.65260 36.42680
#
# Velocity S-wave (km/s) = 3.37194 4.00721 3.70322
# Velocity P-wave (km/s) = 5.16907 6.70279 5.98526
#
# Compressibility (1/GPa) = 0.03256916
#
# Stress axis : x y z
#
# Youngs Moduli (GPa) = 56.85622 73.73449 96.92224
#
# Poissons Ratio (x) = 0.11232 0.12491
# Poissons Ratio (y) = 0.08661 0.15870
# Poissons Ratio (z) = 0.07328 0.12073
#
# Static dielectric constant tensor:
#      x y z
#    x 2.192480 0.033510 0.018980 
#    y 0.033510 2.077620 0.003220 
#    z 0.018980 0.003220 2.147120 
# 
# From -- ./inp_files/404506.got.cif
#   From: 2010.05.17/outbox.cif.g08.bks.cpg/sg2_203_cif.got.tgz:404506.got - 2010.06.03 11:33:40.
