data_PCOD9010114
_publ_section_title
;
Structure prediction by ZEFSAII (Michael W. Deem and Ramdas Pophale) SiO2 
 PCOD9010114
Probable space group: P -1
;
_chemical_formula_sum "Si O2"
_cell_formula_units_Z 16
_cell_length_a 12.610858
_cell_length_b 8.682161
_cell_length_c 14.071118
_cell_angle_alpha 119.498083
_cell_angle_beta 64.745645
_cell_angle_gamma 64.815128
_cell_volume 715.450387
_symmetry_space_group_name_H-M "P -1"
_symmetry_group_IT_number 2
_symmetry_cell_setting 'triclinic'
loop_
_space_group_symop_operation_xyz
x,y,z
-x,-y,-z
loop_
_atom_site_type_symbol
_atom_site_label
_atom_site_fract_x
_atom_site_fract_y
_atom_site_fract_z
Si Si1 0.283553 0.849068 0.187461
Si Si2 0.326382 0.167823 0.190822
Si Si3 0.965207 0.830967 0.450633
Si Si4 0.892311 0.447501 0.043224
Si Si5 0.346456 0.340785 0.630748
Si Si6 0.492906 0.548303 0.628903
Si Si7 0.945963 0.975676 0.306331
Si Si8 0.489063 0.929571 0.715120
O O1 0.111536 0.922087 0.244771
O O2 0.279224 0.018424 0.169423
O O3 0.230170 0.970557 0.353169
O O4 0.500000 0.500000 0.000000
O O5 0.399014 0.127419 0.255929
O O6 0.138134 0.510954 0.336540
O O7 0.500000 0.000000 0.000000
O O8 0.968658 0.799279 0.326679
O O9 0.000000 0.000000 0.500000
O O10 0.850435 0.459219 0.172993
O O11 0.678485 0.734942 0.159864
O O12 0.000000 0.500000 0.000000
O O13 0.015901 0.149253 0.849915
O O14 0.411688 0.460871 0.672720
O O15 0.360837 0.304347 0.499934
O O16 0.500000 0.000000 0.500000
O O17 0.500000 0.500000 0.500000
O O18 0.389748 0.865465 0.770313
O O19 0.717211 0.309595 0.506628
#
# Coordination Sequence:
#
# PCOD9010114 Si02
#       8
#     2   2   2   2   2   2   2   2
#     4  11  24  42  64  96 132 173 221 269 324 395
#     4  12  24  41  64  96 132 172 223 269 320 394
#     4  10  22  41  63  91 126 169 218 265 317 386
#     4  11  22  39  62  95 127 162 213 260 314 393
#     4   9  20  38  62  90 119 162 210 252 311 384
#     4  10  21  41  65  91 122 165 214 261 319 387
#     4  11  23  42  66  93 129 169 207 269 330 378
#     4  10  21  40  62  86 124 170 207 263 319 367
#
# _framework density 22.363534999999999
#
# number of rings (size 3 to 8) (size 9 to 14) (size 15 to 20)
#    0.000    1.500    0.000    7.125    0.000    5.000 
#    0.000   11.875    0.000    1.500    0.000    0.000 
#    0.000    0.000    0.000    0.000    0.000    0.000 
#
# Total GULP energy -89358.408826 kJ/mol
# GULP energy per Si atom -5584.900552 kJ/mol
# Density = 2.231263 g / cm^3
# Si number density = 22.363535 Si / 1000 Ang^3
#
#
#
# Elastic Constant Matrix: (Units=GPa)
#
#
# Indices 1 2 3 4 5 6 
#
# 1 63.7138 19.3555 15.0019 -18.2641 -11.4520 6.6438
# 2 19.3555 111.4389 37.4987 -7.8548 -13.5421 13.3502
# 3 15.0019 37.4987 122.0981 -25.0837 -6.2802 5.8830
# 4 -18.2641 -7.8548 -25.0837 49.8230 0.3938 -3.6694
# 5 -11.4520 -13.5421 -6.2802 0.3938 28.6399 -3.0145
# 6 6.6438 13.3502 5.8830 -3.6694 -3.0145 45.9739
#
#
#
# Elastic Compliance Matrix: (Units=1/GPa)
#
#
# Indices 1 2 3 4 5 6 
#
# 1 0.019545 -0.001952 -0.000021 0.006699 0.006660 -0.001283
# 2 -0.001952 0.010975 -0.002977 -0.000685 0.003518 -0.002348
# 3 -0.000021 -0.002977 0.010089 0.004596 0.000732 -0.000009
# 4 0.006699 -0.000685 0.004596 0.024769 0.003109 0.000823
# 5 0.006660 0.003518 0.000732 0.003109 0.039440 0.000756
# 6 -0.001283 -0.002348 -0.000009 0.000823 0.000756 0.022735
#
#
# Mechanical properties :
#
#
# Convention : Reuss Voigt Hill
#
# Bulk Modulus (GPa) = 32.56555 48.99588 40.78071
# Shear Modulus (GPa) = 33.85452 39.91365 36.88408
#
# Velocity S-wave (km/s) = 3.89501 4.22923 4.06556
# Velocity P-wave (km/s) = 5.90099 6.76793 6.34928
#
# Compressibility (1/GPa) = 0.03070730
#
# Stress axis : x y z
#
# Youngs Moduli (GPa) = 51.16523 91.11612 99.11365
#
# Poissons Ratio (x) = 0.17788 0.00210
# Poissons Ratio (y) = 0.09989 0.29510
# Poissons Ratio (z) = 0.00108 0.27129
#
# Static dielectric constant tensor:
#      x y z
#    x 1.735280 0.021840 -0.057620 
#    y 0.021840 1.864770 0.002440 
#    z -0.057620 0.002440 1.826060 
# 
# From -- ./inp_files/516082.got.cif
#   From: 2010.05.17/outbox.cif.g08.bks.cpg/sg2_259_cif.got.tgz:516082.got - 2010.06.03 11:33:40.
