data_PCOD9010810
_publ_section_title
;
Structure prediction by ZEFSAII (Michael W. Deem and Ramdas Pophale) SiO2 
 PCOD9010810
Probable space group: P -1
;
_chemical_formula_sum "Si O2"
_cell_formula_units_Z 15
_cell_length_a 17.274509
_cell_length_b 8.424905
_cell_length_c 11.662297
_cell_angle_alpha 91.407361
_cell_angle_beta 132.596415
_cell_angle_gamma 126.442375
_cell_volume 697.120277
_symmetry_space_group_name_H-M "P -1"
_symmetry_group_IT_number 2
_symmetry_cell_setting 'triclinic'
loop_
_space_group_symop_operation_xyz
x,y,z
-x,-y,-z
loop_
_atom_site_type_symbol
_atom_site_label
_atom_site_fract_x
_atom_site_fract_y
_atom_site_fract_z
Si Si1 0.559722 0.949571 0.691837
Si Si2 0.527535 0.384403 0.607424
Si Si3 0.138566 0.027014 0.627031
Si Si4 0.233652 0.153333 0.471998
Si Si5 0.000000 0.500000 0.500000
Si Si6 0.137727 0.397364 0.027109
Si Si7 0.799604 0.065963 0.104471
Si Si8 0.148499 0.401198 0.303351
O O1 0.534042 0.840615 0.538408
O O2 0.351847 0.743223 0.520193
O O3 0.718690 0.282051 0.853083
O O4 0.635826 0.907826 0.851392
O O5 0.500000 0.500000 0.500000
O O6 0.741814 0.614679 0.860463
O O7 0.398875 0.258322 0.584061
O O8 0.252486 0.191661 0.627484
O O9 0.020511 0.715668 0.493859
O O10 0.248758 0.135186 0.858469
O O11 0.000000 0.000000 0.500000
O O12 0.204881 0.289976 0.386548
O O13 0.039733 0.823879 0.236589
O O14 0.147239 0.717874 0.758613
O O15 0.079621 0.334172 0.101940
O O16 0.988978 0.259105 0.227554
#
# Coordination Sequence:
#
# PCOD9010810 Si02
#       8
#     2   2   2   2   1   2   2   2
#     4  11  24  42  61  97 132 166 206 268 324 380
#     4  11  23  39  64  95 132 158 210 265 313 387
#     4  10  21  40  64  93 122 170 219 267 311 384
#     4  12  22  40  69  92 125 174 210 260 330 374
#     4   8  20  38  62  88 126 158 218 264 304 374
#     4  11  25  39  63  98 129 165 212 259 326 392
#     4  10  22  42  66  88 128 170 215 266 318 379
#     4  11  22  39  67  92 131 165 210 264 324 386
#
# _framework density 21.517091000000001
#
# number of rings (size 3 to 8) (size 9 to 14) (size 15 to 20)
#    0.800    0.533    4.000    3.600    1.867    5.333 
#    0.000    2.667    0.000    0.000    0.000    0.000 
#    0.000    0.000    0.000    0.000    0.000    0.000 
#
# Total GULP energy -83522.789136 kJ/mol
# GULP energy per Si atom -5568.185942 kJ/mol
# Density = 2.146812 g / cm^3
# Si number density = 21.517091 Si / 1000 Ang^3
#
#
#
# Elastic Constant Matrix: (Units=GPa)
#
#
# Indices 1 2 3 4 5 6 
#
# 1 59.2962 4.1031 25.1672 -6.9151 9.0620 29.4442
# 2 4.1031 80.3915 16.2808 -15.5629 -6.1245 9.4098
# 3 25.1672 16.2808 66.5505 -9.6314 -1.8432 23.8453
# 4 -6.9151 -15.5629 -9.6314 43.3645 -1.0946 -12.3356
# 5 9.0620 -6.1245 -1.8432 -1.0946 19.2639 0.7959
# 6 29.4442 9.4098 23.8453 -12.3356 0.7959 43.1701
#
#
#
# Elastic Compliance Matrix: (Units=1/GPa)
#
#
# Indices 1 2 3 4 5 6 
#
# 1 0.029907 0.000292 -0.005735 -0.001739 -0.013899 -0.017534
# 2 0.000292 0.014234 -0.002577 0.004503 0.004425 -0.000673
# 3 -0.005735 -0.002577 0.020452 0.000920 0.004162 -0.006637
# 4 -0.001739 0.004503 0.000920 0.026764 0.003557 0.007278
# 5 -0.013899 0.004425 0.004162 0.003557 0.060203 0.006123
# 6 -0.017534 -0.000673 -0.006637 0.007278 0.006123 0.040903
#
#
# Mechanical properties :
#
#
# Convention : Reuss Voigt Hill
#
# Bulk Modulus (GPa) = 20.59652 33.03782 26.81717
# Shear Modulus (GPa) = 22.25323 31.87216 27.06270
#
# Velocity S-wave (km/s) = 3.21941 3.85287 3.55030
# Velocity P-wave (km/s) = 4.83863 5.93131 5.41261
#
# Compressibility (1/GPa) = 0.04855190
#
# Stress axis : x y z
#
# Youngs Moduli (GPa) = 33.43746 70.25564 48.89478
#
# Poissons Ratio (x) = -0.02052 0.28042
# Poissons Ratio (y) = -0.00976 0.12601
# Poissons Ratio (z) = 0.19177 0.18106
#
# Static dielectric constant tensor:
#      x y z
#    x 1.790690 0.006830 -0.027070 
#    y 0.006830 1.849120 -0.013170 
#    z -0.027070 -0.013170 1.803130 
# 
# From -- ./inp_files/460629.got.cif
#   From: 2010.05.17/outbox.cif.g08.bks.cpg/sg2_231_cif.got.tgz:460629.got - 2010.06.03 11:33:40.
