data_PCOD9010951
_publ_section_title
;
Structure prediction by ZEFSAII (Michael W. Deem and Ramdas Pophale) SiO2 
 PCOD9010951
Probable space group: P -1
;
_chemical_formula_sum "Si O2"
_cell_formula_units_Z 12
_cell_length_a 11.646527
_cell_length_b 11.791345
_cell_length_c 7.056754
_cell_angle_alpha 125.724478
_cell_angle_beta 47.090749
_cell_angle_gamma 117.043781
_cell_volume 573.568923
_symmetry_space_group_name_H-M "P -1"
_symmetry_group_IT_number 2
_symmetry_cell_setting 'triclinic'
loop_
_space_group_symop_operation_xyz
x,y,z
-x,-y,-z
loop_
_atom_site_type_symbol
_atom_site_label
_atom_site_fract_x
_atom_site_fract_y
_atom_site_fract_z
Si Si1 0.257786 0.524507 0.859886
Si Si2 0.252340 0.323916 0.347192
Si Si3 0.556384 0.937752 0.071474
Si Si4 0.325930 0.833206 0.552137
Si Si5 0.475122 0.590061 0.343094
Si Si6 0.044561 0.654347 0.513056
O O1 0.182791 0.406327 0.684237
O O2 0.351172 0.443951 0.834103
O O3 0.389674 0.610173 0.663808
O O4 0.147556 0.623917 0.183040
O O5 0.376236 0.447387 0.243736
O O6 0.113770 0.283496 0.316351
O O7 0.347571 0.198245 0.187302
O O8 0.666857 0.051215 0.179589
O O9 0.403561 0.899298 0.338294
O O10 0.500000 0.000000 0.000000
O O11 0.156667 0.751378 0.620331
O O12 0.442147 0.720233 0.381691
O O13 0.000000 0.500000 0.500000
#
# Coordination Sequence:
#
# PCOD9010951 Si02
#       6
#     2   2   2   2   2   2
#     4   9  20  36  65 100 130 165 219 273 328 379
#     4  10  21  40  64  97 128 175 215 269 335 389
#     4  11  26  47  67  93 134 179 230 268 325 387
#     4  11  25  42  69  98 132 175 222 277 324 398
#     4   9  19  39  68  98 117 170 230 278 314 372
#     4  12  23  38  64 105 141 165 210 281 338 393
#
# _framework density 20.921638000000002
#
# number of rings (size 3 to 8) (size 9 to 14) (size 15 to 20)
#    1.000    0.667    1.667    2.500    4.667    2.000 
#    0.000    0.833    0.000    0.000    0.000    0.000 
#    0.000    0.000    0.000    0.000    0.000    0.000 
#
# Total GULP energy -67011.156000 kJ/mol
# GULP energy per Si atom -5584.263000 kJ/mol
# Density = 2.087402 g / cm^3
# Si number density = 20.921638 Si / 1000 Ang^3
#
#
#
# Elastic Constant Matrix: (Units=GPa)
#
#
# Indices 1 2 3 4 5 6 
#
# 1 125.4232 48.2542 -1.4623 6.1425 5.6358 2.2429
# 2 48.2542 80.3004 11.7169 15.6505 12.8146 -4.6176
# 3 -1.4623 11.7169 55.1601 9.4284 11.3955 -3.2033
# 4 6.1425 15.6505 9.4284 25.2924 0.1229 4.5080
# 5 5.6358 12.8146 11.3955 0.1229 32.7655 5.1699
# 6 2.2429 -4.6176 -3.2033 4.5080 5.1699 48.8430
#
#
#
# Elastic Compliance Matrix: (Units=1/GPa)
#
#
# Indices 1 2 3 4 5 6 
#
# 1 0.010618 -0.007049 0.001305 0.001521 0.000673 -0.001280
# 2 -0.007049 0.020356 -0.000914 -0.011216 -0.007014 0.003966
# 3 0.001305 -0.000914 0.021541 -0.008252 -0.007777 0.002851
# 4 0.001521 -0.011216 -0.008252 0.050423 0.007936 -0.007165
# 5 0.000673 -0.007014 -0.007777 0.007936 0.036742 -0.005826
# 6 -0.001280 0.003966 0.002851 -0.007165 -0.005826 0.022372
#
#
# Mechanical properties :
#
#
# Convention : Reuss Voigt Hill
#
# Bulk Modulus (GPa) = 25.51032 41.98902 33.74967
# Shear Modulus (GPa) = 26.53466 34.87186 30.70326
#
# Velocity S-wave (km/s) = 3.56517 4.08706 3.83500
# Velocity P-wave (km/s) = 5.40064 6.51040 5.98131
#
# Compressibility (1/GPa) = 0.03919981
#
# Stress axis : x y z
#
# Youngs Moduli (GPa) = 94.17784 49.12636 46.42403
#
# Poissons Ratio (x) = 0.34627 -0.06061
# Poissons Ratio (y) = 0.66382 0.04244
# Poissons Ratio (z) = -0.12295 0.04491
#
# Static dielectric constant tensor:
#      x y z
#    x 1.757750 0.007610 0.057900 
#    y 0.007610 1.775620 -0.038820 
#    z 0.057900 -0.038820 1.811030 
# 
# From -- ./inp_files/198627.got.cif
#   From: 2010.05.17/outbox.cif.g08.bks.cpg/sg2_100_cif.got.tgz:198627.got - 2010.06.03 11:33:40.
