data_PCOD9010849
_publ_section_title
;
Structure prediction by ZEFSAII (Michael W. Deem and Ramdas Pophale) SiO2 
 PCOD9010849
Probable space group: P -1
;
_chemical_formula_sum "Si O2"
_cell_formula_units_Z 14
_cell_length_a 18.752247
_cell_length_b 5.392886
_cell_length_c 10.129817
_cell_angle_alpha 84.535998
_cell_angle_beta 147.086026
_cell_angle_gamma 96.654755
_cell_volume 552.891638
_symmetry_space_group_name_H-M "P -1"
_symmetry_group_IT_number 2
_symmetry_cell_setting 'triclinic'
loop_
_space_group_symop_operation_xyz
x,y,z
-x,-y,-z
loop_
_atom_site_type_symbol
_atom_site_label
_atom_site_fract_x
_atom_site_fract_y
_atom_site_fract_z
Si Si1 0.177422 0.960702 0.107303
Si Si2 0.478289 0.951878 0.177912
Si Si3 0.198128 0.985936 0.833536
Si Si4 0.891668 0.538901 0.004718
Si Si5 0.616705 0.318961 0.205555
Si Si6 0.608787 0.651655 0.579521
Si Si7 0.863482 0.494945 0.426448
O O1 0.140803 0.965467 0.893882
O O2 0.112314 0.184560 0.070200
O O3 0.118288 0.703320 0.088781
O O4 0.331367 0.059566 0.329408
O O5 0.541462 0.696364 0.331720
O O6 0.589494 0.168180 0.305530
O O7 0.400315 0.891462 0.924145
O O8 0.359137 0.015816 0.085030
O O9 0.151959 0.238717 0.681343
O O10 0.158733 0.734487 0.700908
O O11 0.000149 0.526995 0.284914
O O12 0.739788 0.512552 0.821676
O O13 0.753342 0.462455 0.372739
O O14 0.500000 0.500000 0.000000
O O15 0.500000 0.500000 0.500000
#
# Coordination Sequence:
#
# PCOD9010849 Si02
#       7
#     2   2   2   2   2   2   2
#     4  10  23  40  59  94 125 170 208 244 315 380
#     4  10  22  40  63  95 125 161 212 265 313 369
#     4  11  22  36  65  94 123 170 206 259 315 363
#     4  10  23  41  58  91 130 169 208 248 313 372
#     4  10  21  40  64  94 118 162 213 268 320 356
#     4  10  24  41  63  91 131 170 206 253 309 388
#     4  11  23  39  64  90 129 161 211 268 305 373
#
# _framework density 25.321417
#
# number of rings (size 3 to 8) (size 9 to 14) (size 15 to 20)
#    0.857    0.857    1.429    2.571    4.000    6.857 
#    0.000    0.714    0.000    1.714    0.000    0.000 
#    0.000    0.000    0.000    0.000    0.000    0.000 
#
# Total GULP energy -78020.962133 kJ/mol
# GULP energy per Si atom -5572.925867 kJ/mol
# Density = 2.526378 g / cm^3
# Si number density = 25.321417 Si / 1000 Ang^3
#
#
#
# Elastic Constant Matrix: (Units=GPa)
#
#
# Indices 1 2 3 4 5 6 
#
# 1 80.2792 17.4601 28.2052 -6.2766 25.7710 8.1240
# 2 17.4601 148.8223 8.6143 -0.3429 -0.2098 -10.4925
# 3 28.2052 8.6143 95.1346 -6.7687 24.5585 10.6368
# 4 -6.2766 -0.3429 -6.7687 32.0126 -0.7571 -7.6619
# 5 25.7710 -0.2098 24.5585 -0.7571 32.9222 0.5937
# 6 8.1240 -10.4925 10.6368 -7.6619 0.5937 27.1508
#
#
#
# Elastic Compliance Matrix: (Units=1/GPa)
#
#
# Indices 1 2 3 4 5 6 
#
# 1 0.018355 -0.002479 -0.001022 0.001780 -0.013485 -0.005253
# 2 -0.002479 0.007362 -0.001056 0.000404 0.002712 0.004056
# 3 -0.001022 -0.001056 0.014031 0.001329 -0.009552 -0.005016
# 4 0.001780 0.000404 0.001329 0.033916 -0.001759 0.008712
# 5 -0.013485 0.002712 -0.009552 -0.001759 0.047902 0.007282
# 6 -0.005253 0.004056 -0.005016 0.008712 0.007282 0.044235
#
#
# Mechanical properties :
#
#
# Convention : Reuss Voigt Hill
#
# Bulk Modulus (GPa) = 32.64515 48.08836 40.36676
# Shear Modulus (GPa) = 27.00853 36.41422 31.71138
#
# Velocity S-wave (km/s) = 3.26947 3.79632 3.54270
# Velocity P-wave (km/s) = 5.21276 6.18453 5.71932
#
# Compressibility (1/GPa) = 0.03063242
#
# Stress axis : x y z
#
# Youngs Moduli (GPa) = 54.48212 135.83002 71.26918
#
# Poissons Ratio (x) = 0.33679 0.07284
# Poissons Ratio (y) = 0.13509 0.07528
# Poissons Ratio (z) = 0.05569 0.14347
#
# Static dielectric constant tensor:
#      x y z
#    x 2.052930 -0.048860 -0.012060 
#    y -0.048860 2.156220 0.002280 
#    z -0.012060 0.002280 2.063980 
# 
# From -- ./inp_files/127035.got.cif
#   From: 2010.05.17/outbox.cif.g08.bks.cpg/sg2_64_cif.got.tgz:127035.got - 2010.06.03 11:33:40.
