data_PCOD9010469
_publ_section_title
;
Structure prediction by ZEFSAII (Michael W. Deem and Ramdas Pophale) SiO2 
 PCOD9010469
Probable space group: P -1
;
_chemical_formula_sum "Si O2"
_cell_formula_units_Z 16
_cell_length_a 12.530260
_cell_length_b 12.159671
_cell_length_c 11.789076
_cell_angle_alpha 46.370742
_cell_angle_beta 86.715012
_cell_angle_gamma 125.015602
_cell_volume 686.365289
_symmetry_space_group_name_H-M "P -1"
_symmetry_group_IT_number 2
_symmetry_cell_setting 'triclinic'
loop_
_space_group_symop_operation_xyz
x,y,z
-x,-y,-z
loop_
_atom_site_type_symbol
_atom_site_label
_atom_site_fract_x
_atom_site_fract_y
_atom_site_fract_z
Si Si1 0.492422 0.810735 0.135334
Si Si2 0.883251 0.554204 0.868869
Si Si3 0.181397 0.804576 0.333239
Si Si4 0.945897 0.549029 0.117026
Si Si5 0.846609 0.914682 0.231615
Si Si6 0.439097 0.918584 0.406104
Si Si7 0.039032 0.191449 0.531126
Si Si8 0.458437 0.623493 0.511684
O O1 0.270864 0.507382 0.320891
O O2 0.518958 0.782475 0.279335
O O3 0.500000 0.000000 0.000000
O O4 0.661038 0.948015 0.945529
O O5 0.992117 0.660979 0.906665
O O6 0.646586 0.258192 0.125626
O O7 0.960263 0.785377 0.622157
O O8 0.935031 0.462539 0.861925
O O9 0.292511 0.809905 0.395727
O O10 0.000000 0.500000 0.500000
O O11 0.105109 0.852856 0.377807
O O12 0.706303 0.228787 0.371858
O O13 0.025668 0.781951 0.023796
O O14 0.983605 0.984746 0.262770
O O15 0.638737 0.719510 0.446779
O O16 0.754478 0.711704 0.273595
O O17 0.458788 0.759847 0.505039
#
# Coordination Sequence:
#
# PCOD9010469 Si02
#       8
#     2   2   2   2   2   2   2   2
#     4  11  19  35  59  89 127 159 200 259 306 362
#     4  11  23  44  68  91 121 164 220 268 310 351
#     4  12  22  32  60  98 123 160 205 253 310 374
#     4  11  25  42  67  92 123 166 215 268 305 369
#     4  10  23  43  60  93 131 170 200 247 323 381
#     4  12  22  40  67  97 126 159 212 267 310 362
#     4  11  22  41  60  90 125 164 209 251 313 375
#     4  10  21  40  63  91 132 169 196 249 322 384
#
# _framework density 23.311202999999999
#
# number of rings (size 3 to 8) (size 9 to 14) (size 15 to 20)
#    0.000    1.000    6.250    1.125    1.750    1.000 
#    6.750    0.000    0.000    1.500    0.000    0.000 
#    0.000    0.000    0.000    0.000    0.000    0.000 
#
# Total GULP energy -89366.226007 kJ/mol
# GULP energy per Si atom -5585.389125 kJ/mol
# Density = 2.325815 g / cm^3
# Si number density = 23.311203 Si / 1000 Ang^3
#
#
#
# Elastic Constant Matrix: (Units=GPa)
#
#
# Indices 1 2 3 4 5 6 
#
# 1 94.5211 10.5831 9.1600 0.3233 5.4761 2.1650
# 2 10.5831 22.1465 4.8996 7.9279 8.2467 -1.6177
# 3 9.1600 4.8996 89.1770 2.9849 -15.2211 -12.9063
# 4 0.3233 7.9279 2.9849 37.2418 -2.3718 5.3052
# 5 5.4761 8.2467 -15.2211 -2.3718 38.3533 -3.0111
# 6 2.1650 -1.6177 -12.9063 5.3052 -3.0111 29.0042
#
#
#
# Elastic Compliance Matrix: (Units=1/GPa)
#
#
# Indices 1 2 3 4 5 6 
#
# 1 0.011431 -0.005386 -0.001430 0.001398 -0.001125 -0.002163
# 2 -0.005386 0.058992 -0.004261 -0.013472 -0.014221 0.002784
# 3 -0.001430 -0.004261 0.013829 -0.000718 0.007105 0.006892
# 4 0.001398 -0.013472 -0.000718 0.030925 0.003819 -0.006435
# 5 -0.001125 -0.014221 0.007105 0.003819 0.032752 0.005154
# 6 -0.002163 0.002784 0.006892 -0.006435 0.005154 0.039573
#
#
# Mechanical properties :
#
#
# Convention : Reuss Voigt Hill
#
# Bulk Modulus (GPa) = 16.10379 28.34776 22.22578
# Shear Modulus (GPa) = 21.70556 32.99999 27.35278
#
# Velocity S-wave (km/s) = 3.05474 3.76657 3.42917
# Velocity P-wave (km/s) = 4.40058 5.57701 5.02335
#
# Compressibility (1/GPa) = 0.06209717
#
# Stress axis : x y z
#
# Youngs Moduli (GPa) = 87.48001 16.95156 72.31245
#
# Poissons Ratio (x) = 0.09130 0.10341
# Poissons Ratio (y) = 0.47115 0.30815
# Poissons Ratio (z) = 0.12510 0.07224
#
# Static dielectric constant tensor:
#      x y z
#    x 1.979340 0.018670 0.061500 
#    y 0.018670 1.994110 0.062360 
#    z 0.061500 0.062360 1.917670 
# 
# From -- ./inp_files/337661.got.cif
#   From: 2010.05.17/outbox.cif.g08.bks.cpg/sg2_169_cif.got.tgz:337661.got - 2010.06.03 11:33:40.
