data_PCOD9010758
_publ_section_title
;
Structure prediction by ZEFSAII (Michael W. Deem and Ramdas Pophale) SiO2 
 PCOD9010758
Probable space group: P -1
;
_chemical_formula_sum "Si O2"
_cell_formula_units_Z 16
_cell_length_a 16.395494
_cell_length_b 13.648096
_cell_length_c 9.801255
_cell_angle_alpha 60.314327
_cell_angle_beta 111.870921
_cell_angle_gamma 160.385555
_cell_volume 605.479957
_symmetry_space_group_name_H-M "P -1"
_symmetry_group_IT_number 2
_symmetry_cell_setting 'triclinic'
loop_
_space_group_symop_operation_xyz
x,y,z
-x,-y,-z
loop_
_atom_site_type_symbol
_atom_site_label
_atom_site_fract_x
_atom_site_fract_y
_atom_site_fract_z
Si Si1 0.226787 0.768155 0.065192
Si Si2 0.672742 0.128274 0.653549
Si Si3 0.837844 0.547511 0.107905
Si Si4 0.704645 0.619728 0.075750
Si Si5 0.915933 0.648423 0.765816
Si Si6 0.389449 0.346273 0.270480
Si Si7 0.927518 0.226355 0.634371
Si Si8 0.513119 0.707786 0.275806
O O1 0.157436 0.701411 0.225374
O O2 0.266522 0.680516 0.147161
O O3 0.000000 0.500000 0.000000
O O4 0.401784 0.086948 0.915635
O O5 0.742146 0.112599 0.599631
O O6 0.794294 0.389684 0.492690
O O7 0.394662 0.820259 0.760162
O O8 0.674650 0.457385 0.119054
O O9 0.059009 0.803728 0.181351
O O10 0.929769 0.674740 0.923406
O O11 0.611374 0.528007 0.235033
O O12 0.608128 0.573897 0.918395
O O13 0.000000 0.000000 0.000000
O O14 0.761841 0.568781 0.660833
O O15 0.217949 0.988340 0.683244
O O16 0.443966 0.500953 0.315472
O O17 0.148992 0.971954 0.368957
#
# Coordination Sequence:
#
# PCOD9010758 Si02
#       8
#     2   2   2   2   2   2   2   2
#     4  10  21  40  64  91 120 157 211 269 314 357
#     4  11  23  42  58  86 122 164 213 248 312 371
#     4  12  21  36  60  91 122 161 201 257 311 375
#     4  11  20  31  54  82 120 154 193 247 305 368
#     4  11  23  37  64  93 127 151 210 262 326 351
#     4  11  22  34  54  86 124 160 204 242 317 368
#     4  11  24  38  59  85 128 168 200 251 302 392
#     4  11  22  37  59  95 121 161 196 268 310 379
#
# _framework density 26.425317
#
# number of rings (size 3 to 8) (size 9 to 14) (size 15 to 20)
#    0.000    1.000    5.000    3.000    3.500    0.000 
#    0.000    0.000    0.000    3.750    0.000    0.000 
#    0.000    0.000    0.000    0.000    0.000    0.000 
#
# Total GULP energy -89140.547630 kJ/mol
# GULP energy per Si atom -5571.284227 kJ/mol
# Density = 2.636517 g / cm^3
# Si number density = 26.425317 Si / 1000 Ang^3
#
#
#
# Elastic Constant Matrix: (Units=GPa)
#
#
# Indices 1 2 3 4 5 6 
#
# 1 147.4620 30.3357 10.4719 -1.2715 16.6057 -15.1853
# 2 30.3357 97.3507 17.0471 -1.3053 5.6957 -0.8662
# 3 10.4719 17.0471 28.1617 16.9326 2.4700 0.5927
# 4 -1.2715 -1.3053 16.9326 36.6241 -4.8673 1.6422
# 5 16.6057 5.6957 2.4700 -4.8673 24.2369 -14.0710
# 6 -15.1853 -0.8662 0.5927 1.6422 -14.0710 45.9543
#
#
#
# Elastic Compliance Matrix: (Units=1/GPa)
#
#
# Indices 1 2 3 4 5 6 
#
# 1 0.007880 -0.001910 -0.001714 0.000419 -0.003887 0.001385
# 2 -0.001910 0.012674 -0.009996 0.005042 0.000126 -0.000405
# 3 -0.001714 -0.009996 0.061309 -0.030049 -0.010986 -0.003836
# 4 0.000419 0.005042 -0.030049 0.042833 0.011753 0.002689
# 5 -0.003887 0.000126 -0.010986 0.011753 0.056513 0.015744
# 6 0.001385 -0.000405 -0.003836 0.002689 0.015744 0.026985
#
#
# Mechanical properties :
#
#
# Convention : Reuss Voigt Hill
#
# Bulk Modulus (GPa) = 18.30733 43.18708 30.74720
# Shear Modulus (GPa) = 19.71283 35.70439 27.70861
#
# Velocity S-wave (km/s) = 2.73423 3.67978 3.24167
# Velocity P-wave (km/s) = 4.11230 5.86796 5.06675
#
# Compressibility (1/GPa) = 0.05462294
#
# Stress axis : x y z
#
# Youngs Moduli (GPa) = 126.90326 78.90000 16.31078
#
# Poissons Ratio (x) = 0.15069 0.02796
# Poissons Ratio (y) = 0.24237 0.16304
# Poissons Ratio (z) = 0.21757 0.78867
#
# Static dielectric constant tensor:
#      x y z
#    x 2.678580 -0.819560 1.223740 
#    y -0.819560 5.550030 -4.497920 
#    z 1.223740 -4.497920 8.023870 
# 
# From -- ./inp_files/466074.got.cif
#   From: 2010.05.17/outbox.cif.g08.bks.cpg/sg2_234_cif.got.tgz:466074.got - 2010.06.03 11:33:40.
