data_PCOD9010331
_publ_section_title
;
Structure prediction by ZEFSAII (Michael W. Deem and Ramdas Pophale) SiO2 
 PCOD9010331
Probable space group: P -1
;
_chemical_formula_sum "Si O2"
_cell_formula_units_Z 14
_cell_length_a 15.512858
_cell_length_b 7.798204
_cell_length_c 8.116174
_cell_angle_alpha 98.612632
_cell_angle_beta 134.916749
_cell_angle_gamma 68.356724
_cell_volume 637.051335
_symmetry_space_group_name_H-M "P -1"
_symmetry_group_IT_number 2
_symmetry_cell_setting 'triclinic'
loop_
_space_group_symop_operation_xyz
x,y,z
-x,-y,-z
loop_
_atom_site_type_symbol
_atom_site_label
_atom_site_fract_x
_atom_site_fract_y
_atom_site_fract_z
Si Si1 0.324346 0.215584 0.799220
Si Si2 0.084961 0.575153 0.510681
Si Si3 0.196011 0.990225 0.377866
Si Si4 0.605817 0.290989 0.637227
Si Si5 0.023870 0.179418 0.872489
Si Si6 0.427922 0.898357 0.117202
Si Si7 0.193940 0.828052 0.854089
O O1 0.232761 0.430040 0.704624
O O2 0.446050 0.185775 0.838845
O O3 0.240109 0.104615 0.588983
O O4 0.373256 0.118283 0.028223
O O5 0.088952 0.764264 0.619653
O O6 0.000000 0.500000 0.500000
O O7 0.029455 0.620730 0.258624
O O8 0.326774 0.838741 0.446670
O O9 0.099730 0.885173 0.284824
O O10 0.105590 0.142842 0.145638
O O11 0.500000 0.500000 0.500000
O O12 0.553085 0.171154 0.677633
O O13 0.732343 0.299415 0.909115
O O14 0.128047 0.033915 0.869049
O O15 0.314125 0.822455 0.900757
#
# Coordination Sequence:
#
# PCOD9010331 Si02
#       7
#     2   2   2   2   2   2   2
#     4  11  23  39  60  93 123 153 195 246 301 349
#     4  12  24  36  62  91 121 155 204 244 289 358
#     4  10  22  40  63  86 124 156 192 250 297 348
#     4   9  21  40  65  89 112 158 205 236 294 357
#     4  10  21  40  63  85 118 163 201 238 299 344
#     4   9  22  42  60  87 120 157 197 239 303 348
#     4   9  20  41  60  85 118 158 196 245 288 349
#
# _framework density 21.97625
#
# number of rings (size 3 to 8) (size 9 to 14) (size 15 to 20)
#    0.857    1.143    0.000    3.000    2.000    4.000 
#    2.571    0.000    0.000    0.000    0.000    0.000 
#    0.000    0.000    0.000    0.000    0.000    0.000 
#
# Total GULP energy -78055.779846 kJ/mol
# GULP energy per Si atom -5575.412846 kJ/mol
# Density = 2.192623 g / cm^3
# Si number density = 21.976250 Si / 1000 Ang^3
#
#
#
# Elastic Constant Matrix: (Units=GPa)
#
#
# Indices 1 2 3 4 5 6 
#
# 1 80.3293 8.5904 12.9089 -20.0868 7.1777 7.9423
# 2 8.5904 44.3773 15.7542 -27.4940 -11.8982 0.1865
# 3 12.9089 15.7542 64.2252 -24.2440 -8.3941 8.3986
# 4 -20.0868 -27.4940 -24.2440 46.9906 8.8998 1.1546
# 5 7.1777 -11.8982 -8.3941 8.8998 29.9919 -5.1380
# 6 7.9423 0.1865 8.3986 1.1546 -5.1380 22.0157
#
#
#
# Elastic Compliance Matrix: (Units=1/GPa)
#
#
# Indices 1 2 3 4 5 6 
#
# 1 0.016076 0.000218 0.000039 0.008677 -0.007707 -0.008070
# 2 0.000218 0.037475 -0.000648 0.019987 0.008851 0.000869
# 3 0.000039 -0.000648 0.020870 0.010405 0.001071 -0.008266
# 4 0.008677 0.019987 0.010405 0.043460 -0.006007 -0.010950
# 5 -0.007707 0.008851 0.001071 -0.006007 0.042945 0.012634
# 6 -0.008070 0.000869 -0.008266 -0.010950 0.012634 0.055002
#
#
# Mechanical properties :
#
#
# Convention : Reuss Voigt Hill
#
# Bulk Modulus (GPa) = 13.58000 29.27097 21.42549
# Shear Modulus (GPa) = 20.73349 29.91152 25.32251
#
# Velocity S-wave (km/s) = 3.07490 3.69329 3.39819
# Velocity P-wave (km/s) = 4.33583 5.61564 5.01672
#
# Compressibility (1/GPa) = 0.07363770
#
# Stress axis : x y z
#
# Youngs Moduli (GPa) = 62.20624 26.68475 47.91556
#
# Poissons Ratio (x) = -0.00581 -0.00187
# Poissons Ratio (y) = -0.01355 0.03105
# Poissons Ratio (z) = -0.00242 0.01729
#
# Static dielectric constant tensor:
#      x y z
#    x 1.808640 0.005130 -0.033480 
#    y 0.005130 1.806250 -0.016170 
#    z -0.033480 -0.016170 1.895470 
# 
# From -- ./inp_files/326330.got.cif
#   From: 2010.05.17/outbox.cif.g08.bks.cpg/sg2_164_cif.got.tgz:326330.got - 2010.06.03 11:33:40.
