data_PCOD9010814
_publ_section_title
;
Structure prediction by ZEFSAII (Michael W. Deem and Ramdas Pophale) SiO2 
 PCOD9010814
Probable space group: P -1
;
_chemical_formula_sum "Si O2"
_cell_formula_units_Z 16
_cell_length_a 6.567284
_cell_length_b 13.967059
_cell_length_c 8.324789
_cell_angle_alpha 95.319365
_cell_angle_beta 102.239799
_cell_angle_gamma 74.125587
_cell_volume 717.290567
_symmetry_space_group_name_H-M "P -1"
_symmetry_group_IT_number 2
_symmetry_cell_setting 'triclinic'
loop_
_space_group_symop_operation_xyz
x,y,z
-x,-y,-z
loop_
_atom_site_type_symbol
_atom_site_label
_atom_site_fract_x
_atom_site_fract_y
_atom_site_fract_z
Si Si1 0.871833 0.792807 0.541322
Si Si2 0.414336 0.511617 0.169328
Si Si3 0.310200 0.897623 0.131694
Si Si4 0.587582 0.694573 0.303265
Si Si5 0.937907 0.066613 0.229736
Si Si6 0.213400 0.600798 0.606986
Si Si7 0.644227 0.978714 0.358299
Si Si8 0.993739 0.468846 0.740550
O O1 0.906678 0.861104 0.704563
O O2 0.098851 0.712324 0.558665
O O3 0.683881 0.735003 0.485339
O O4 0.812155 0.871933 0.400247
O O5 0.460279 0.609810 0.274639
O O6 0.547906 0.421521 0.288394
O O7 0.163898 0.519470 0.135219
O O8 0.500000 0.500000 0.000000
O O9 0.433862 0.789676 0.204460
O O10 0.484272 0.962576 0.189982
O O11 0.219620 0.895211 0.938806
O O12 0.098978 0.958470 0.203920
O O13 0.809935 0.631771 0.243394
O O14 0.782506 0.055274 0.349345
O O15 0.163943 0.538545 0.437845
O O16 0.089454 0.560882 0.725884
O O17 0.500000 0.000000 0.500000
#
# Coordination Sequence:
#
# PCOD9010814 Si02
#       8
#     2   2   2   2   2   2   2   2
#     4  10  21  40  64  93 124 166 215 257 306 373
#     4  11  23  39  65  93 129 167 202 255 323 375
#     4  10  23  41  64  94 129 164 210 261 318 366
#     4   9  22  40  62  97 126 163 212 259 312 373
#     4  11  23  41  66  92 129 169 208 262 316 370
#     4   9  20  38  61  90 124 158 213 256 302 368
#     4  11  22  42  62  90 126 168 210 259 308 366
#     4   9  19  42  63  88 124 165 204 259 309 368
#
# _framework density 22.306163999999999
#
# number of rings (size 3 to 8) (size 9 to 14) (size 15 to 20)
#    0.000    2.000    1.250    1.875    1.750    5.000 
#    6.750    1.250    5.500    0.000    0.000    0.000 
#    0.000    0.000    0.000    0.000    0.000    0.000 
#
# Total GULP energy -89204.665591 kJ/mol
# GULP energy per Si atom -5575.291599 kJ/mol
# Density = 2.225539 g / cm^3
# Si number density = 22.306164 Si / 1000 Ang^3
#
#
#
# Elastic Constant Matrix: (Units=GPa)
#
#
# Indices 1 2 3 4 5 6 
#
# 1 112.6200 45.7959 53.3931 -4.9994 7.0911 -11.6167
# 2 45.7959 92.8027 31.5432 -12.5541 14.3643 -12.4618
# 3 53.3931 31.5432 91.9534 -5.9915 31.7936 -4.0173
# 4 -4.9994 -12.5541 -5.9915 22.3838 -7.2297 19.9970
# 5 7.0911 14.3643 31.7936 -7.2297 50.3218 -0.4077
# 6 -11.6167 -12.4618 -4.0173 19.9970 -0.4077 33.8491
#
#
#
# Elastic Compliance Matrix: (Units=1/GPa)
#
#
# Indices 1 2 3 4 5 6 
#
# 1 0.015074 -0.005171 -0.008461 -0.005478 0.003955 0.005549
# 2 -0.005171 0.014807 -0.000998 0.006569 -0.001927 -0.000346
# 3 -0.008461 -0.000998 0.019925 0.000517 -0.011048 -0.001345
# 4 -0.005478 0.006569 0.000517 0.107947 0.013568 -0.063009
# 5 0.003955 -0.001927 -0.011048 0.013568 0.028727 -0.008333
# 6 0.005549 -0.000346 -0.001345 -0.063009 -0.008333 0.068284
#
#
# Mechanical properties :
#
#
# Convention : Reuss Voigt Hill
#
# Bulk Modulus (GPa) = 48.66974 62.09338 55.38156
# Shear Modulus (GPa) = 17.18977 32.42053 24.80515
#
# Velocity S-wave (km/s) = 2.77903 3.81653 3.33833
# Velocity P-wave (km/s) = 5.67130 6.87884 6.30405
#
# Compressibility (1/GPa) = 0.02054665
#
# Stress axis : x y z
#
# Youngs Moduli (GPa) = 66.34150 67.53680 50.18776
#
# Poissons Ratio (x) = 0.34921 0.42463
# Poissons Ratio (y) = 0.34303 0.05008
# Poissons Ratio (z) = 0.56131 0.06739
#
# Static dielectric constant tensor:
#      x y z
#    x 1.879220 -0.010450 -0.014730 
#    y -0.010450 1.837320 0.043310 
#    z -0.014730 0.043310 1.854610 
# 
# From -- ./inp_files/135358.got.cif
#   From: 2010.05.17/outbox.cif.g08.bks.cpg/sg2_68_cif.got.tgz:135358.got - 2010.06.03 11:33:40.
