data_PCOD9010569
_publ_section_title
;
Structure prediction by ZEFSAII (Michael W. Deem and Ramdas Pophale) SiO2 
 PCOD9010569
Probable space group: P -1
;
_chemical_formula_sum "Si O2"
_cell_formula_units_Z 16
_cell_length_a 5.212223
_cell_length_b 28.277221
_cell_length_c 8.561783
_cell_angle_alpha 149.670205
_cell_angle_beta 82.807505
_cell_angle_gamma 100.556423
_cell_volume 625.063905
_symmetry_space_group_name_H-M "P -1"
_symmetry_group_IT_number 2
_symmetry_cell_setting 'triclinic'
loop_
_space_group_symop_operation_xyz
x,y,z
-x,-y,-z
loop_
_atom_site_type_symbol
_atom_site_label
_atom_site_fract_x
_atom_site_fract_y
_atom_site_fract_z
Si Si1 0.136522 0.201454 0.334987
Si Si2 0.389394 0.348582 0.521191
Si Si3 0.965091 0.719286 0.923203
Si Si4 0.114776 0.639433 0.010569
Si Si5 0.446896 0.210753 0.631780
Si Si6 0.134535 0.989310 0.293206
Si Si7 0.834685 0.496792 0.845129
Si Si8 0.710551 0.098695 0.515759
O O1 0.344131 0.247479 0.320759
O O2 0.000732 0.286701 0.656447
O O3 0.290551 0.167149 0.371220
O O4 0.920161 0.121135 0.056008
O O5 0.657143 0.394852 0.550423
O O6 0.355883 0.425416 0.878126
O O7 0.164402 0.338285 0.377558
O O8 0.028739 0.658592 0.895645
O O9 0.738088 0.775488 0.169454
O O10 0.198440 0.805430 0.116587
O O11 0.420199 0.681866 0.112580
O O12 0.013119 0.538445 0.805527
O O13 0.655291 0.145555 0.487266
O O14 0.436888 0.035781 0.403106
O O15 0.000000 0.000000 0.500000
O O16 0.949140 0.039336 0.333560
O O17 0.000000 0.500000 0.000000
#
# Coordination Sequence:
#
# PCOD9010569 Si02
#       8
#     2   2   2   2   2   2   2   2
#     4  10  23  40  65  92 129 175 222 273 336 392
#     4  10  22  41  66  93 128 173 218 273 335 400
#     4  10  21  43  66  95 131 178 219 273 334 393
#     4   9  21  40  62  94 129 172 219 275 332 402
#     4  10  21  42  65  94 132 176 221 272 327 398
#     4  12  26  44  65 100 138 176 224 282 329 391
#     4  10  21  40  63  95 130 168 220 274 331 403
#     4  11  24  44  66  96 136 176 224 274 328 391
#
# _framework density 25.597384999999999
#
# number of rings (size 3 to 8) (size 9 to 14) (size 15 to 20)
#    0.000    1.750    1.250    1.875    1.750    4.500 
#    2.250    1.250    0.000    0.000    0.000    0.000 
#    0.000    0.000    0.000    0.000    0.000    0.000 
#
# Total GULP energy -89512.231306 kJ/mol
# GULP energy per Si atom -5594.514457 kJ/mol
# Density = 2.553912 g / cm^3
# Si number density = 25.597385 Si / 1000 Ang^3
#
#
#
# Elastic Constant Matrix: (Units=GPa)
#
#
# Indices 1 2 3 4 5 6 
#
# 1 101.2444 29.3697 35.3968 13.4944 33.4523 16.0763
# 2 29.3697 91.7217 48.2162 19.7497 13.9759 23.2225
# 3 35.3968 48.2162 147.2773 16.9221 35.4080 16.5221
# 4 13.4944 19.7497 16.9221 40.6454 11.2175 12.2788
# 5 33.4523 13.9759 35.4080 11.2175 46.2276 9.2926
# 6 16.0763 23.2225 16.5221 12.2788 9.2926 41.6229
#
#
#
# Elastic Compliance Matrix: (Units=1/GPa)
#
#
# Indices 1 2 3 4 5 6 
#
# 1 0.013873 -0.002471 -0.000186 -0.000369 -0.008687 -0.001858
# 2 -0.002471 0.015742 -0.003997 -0.004102 0.002196 -0.005522
# 3 -0.000186 -0.003997 0.009616 -0.000337 -0.005922 -0.000094
# 4 -0.000369 -0.004102 -0.000337 0.029639 -0.004381 -0.005200
# 5 -0.008687 0.002196 -0.005922 -0.004381 0.033182 -0.001635
# 6 -0.001858 -0.005522 -0.000094 -0.005200 -0.001635 0.029760
#
#
# Mechanical properties :
#
#
# Convention : Reuss Voigt Hill
#
# Bulk Modulus (GPa) = 38.57549 62.91210 50.74380
# Shear Modulus (GPa) = 32.51803 40.84988 36.68395
#
# Velocity S-wave (km/s) = 3.56809 3.99916 3.78976
# Velocity P-wave (km/s) = 5.66373 6.77903 6.24632
#
# Compressibility (1/GPa) = 0.02592319
#
# Stress axis : x y z
#
# Youngs Moduli (GPa) = 72.08077 63.52611 103.99279
#
# Poissons Ratio (x) = 0.15698 0.01935
# Poissons Ratio (y) = 0.17811 0.41563
# Poissons Ratio (z) = 0.01341 0.25390
#
# Static dielectric constant tensor:
#      x y z
#    x 2.096740 0.016820 -0.064740 
#    y 0.016820 2.062620 0.072670 
#    z -0.064740 0.072670 2.061900 
# 
# From -- ./inp_files/143445.got.cif
#   From: 2010.05.17/outbox.cif.g08.bks.cpg/sg2_72_cif.got.tgz:143445.got - 2010.06.03 11:33:40.
