data_PCOD9010939
_publ_section_title
;
Structure prediction by ZEFSAII (Michael W. Deem and Ramdas Pophale) SiO2 
 PCOD9010939
Probable space group: P -1
;
_chemical_formula_sum "Si O2"
_cell_formula_units_Z 14
_cell_length_a 6.536172
_cell_length_b 19.657064
_cell_length_c 10.886254
_cell_angle_alpha 40.980086
_cell_angle_beta 44.590039
_cell_angle_gamma 49.765667
_cell_volume 625.873445
_symmetry_space_group_name_H-M "P -1"
_symmetry_group_IT_number 2
_symmetry_cell_setting 'triclinic'
loop_
_space_group_symop_operation_xyz
x,y,z
-x,-y,-z
loop_
_atom_site_type_symbol
_atom_site_label
_atom_site_fract_x
_atom_site_fract_y
_atom_site_fract_z
Si Si1 0.137942 0.896183 0.737375
Si Si2 0.851877 0.139895 0.504486
Si Si3 0.050420 0.409547 0.496349
Si Si4 0.446023 0.625081 0.851931
Si Si5 0.659795 0.729420 0.847436
Si Si6 0.709612 0.774689 0.205557
Si Si7 0.782053 0.612110 0.198484
O O1 0.226097 0.860605 0.607072
O O2 0.395707 0.836259 0.800920
O O3 0.061178 0.023383 0.601124
O O4 0.844426 0.855958 0.956080
O O5 0.560417 0.160564 0.685596
O O6 0.038226 0.228841 0.328075
O O7 0.389063 0.364701 0.360778
O O8 0.025567 0.300471 0.722216
O O9 0.000000 0.500000 0.500000
O O10 0.854828 0.485080 0.371497
O O11 0.631374 0.667402 0.819430
O O12 0.500000 0.500000 0.000000
O O13 0.097142 0.650419 0.003870
O O14 0.642107 0.649133 0.076223
O O15 0.610317 0.688254 0.275743
#
# Coordination Sequence:
#
# PCOD9010939 Si02
#       7
#     2   2   2   2   2   2   2
#     4  11  24  45  69  95 133 176 222 277 331 387
#     4  11  25  44  69  98 129 175 227 275 332 385
#     4   9  20  36  63  94 127 171 217 259 318 395
#     4  10  21  40  66  92 131 179 216 264 329 390
#     4  12  21  42  68  97 135 172 218 275 330 393
#     4  11  20  44  68  94 135 176 218 272 329 386
#     4  10  21  40  64  96 133 174 214 265 329 394
#
# _framework density 22.368739999999999
#
# number of rings (size 3 to 8) (size 9 to 14) (size 15 to 20)
#    0.000    1.429    2.857    2.571    0.000    2.286 
#    5.143    1.429    0.000    0.000    0.000    0.000 
#    0.000    0.000    0.000    0.000    0.000    0.000 
#
# Total GULP energy -78025.678920 kJ/mol
# GULP energy per Si atom -5573.262780 kJ/mol
# Density = 2.231783 g / cm^3
# Si number density = 22.368740 Si / 1000 Ang^3
#
#
#
# Elastic Constant Matrix: (Units=GPa)
#
#
# Indices 1 2 3 4 5 6 
#
# 1 63.3722 32.5823 17.5589 6.1058 9.5673 -7.5344
# 2 32.5823 106.1821 32.5095 21.7600 10.1620 6.0032
# 3 17.5589 32.5095 87.3502 5.8535 28.6260 -0.0267
# 4 6.1058 21.7600 5.8535 53.9746 -7.4154 -3.4163
# 5 9.5673 10.1620 28.6260 -7.4154 30.8530 -12.0050
# 6 -7.5344 6.0032 -0.0267 -3.4163 -12.0050 19.9748
#
#
#
# Elastic Compliance Matrix: (Units=1/GPa)
#
#
# Indices 1 2 3 4 5 6 
#
# 1 0.020974 -0.007089 -0.003165 0.002259 0.004395 0.013065
# 2 -0.007089 0.014984 -0.000541 -0.007385 -0.009521 -0.014163
# 3 -0.003165 -0.000541 0.022106 -0.006970 -0.028557 -0.019357
# 4 0.002259 -0.007385 -0.006970 0.026497 0.022870 0.021339
# 5 0.004395 -0.009521 -0.028557 0.022870 0.090639 0.062867
# 6 0.013065 -0.014163 -0.019357 0.021339 0.062867 0.100655
#
#
# Mechanical properties :
#
#
# Convention : Reuss Voigt Hill
#
# Bulk Modulus (GPa) = 27.41783 46.91177 37.16480
# Shear Modulus (GPa) = 16.14967 32.57738 24.36352
#
# Velocity S-wave (km/s) = 2.68987 3.82039 3.30385
# Velocity P-wave (km/s) = 4.68306 6.36224 5.58611
#
# Compressibility (1/GPa) = 0.03647262
#
# Stress axis : x y z
#
# Youngs Moduli (GPa) = 47.67850 66.73792 45.23751
#
# Poissons Ratio (x) = 0.47311 0.14319
# Poissons Ratio (y) = 0.33799 0.02447
# Poissons Ratio (z) = 0.15092 0.03610
#
# Static dielectric constant tensor:
#      x y z
#    x 1.889080 -0.042140 0.013190 
#    y -0.042140 1.840870 0.041640 
#    z 0.013190 0.041640 1.925330 
# 
# From -- ./inp_files/138441.got.cif
#   From: 2010.05.17/outbox.cif.g08.bks.cpg/sg2_70_cif.got.tgz:138441.got - 2010.06.03 11:33:40.
