data_PCOD9010310
_publ_section_title
;
Structure prediction by ZEFSAII (Michael W. Deem and Ramdas Pophale) SiO2 
 PCOD9010310
Probable space group: P -1
;
_chemical_formula_sum "Si O2"
_cell_formula_units_Z 16
_cell_length_a 6.478671
_cell_length_b 14.125373
_cell_length_c 11.277552
_cell_angle_alpha 44.012611
_cell_angle_beta 83.074239
_cell_angle_gamma 71.774353
_cell_volume 672.542888
_symmetry_space_group_name_H-M "P -1"
_symmetry_group_IT_number 2
_symmetry_cell_setting 'triclinic'
loop_
_space_group_symop_operation_xyz
x,y,z
-x,-y,-z
loop_
_atom_site_type_symbol
_atom_site_label
_atom_site_fract_x
_atom_site_fract_y
_atom_site_fract_z
Si Si1 0.329800 0.154707 0.907335
Si Si2 0.920820 0.690307 0.442664
Si Si3 0.246803 0.330523 0.161170
Si Si4 0.007577 0.271014 0.019380
Si Si5 0.630747 0.543551 0.345631
Si Si6 0.975501 0.184806 0.456963
Si Si7 0.282594 0.868279 0.674008
Si Si8 0.646836 0.541052 0.737731
O O1 0.168467 0.223169 0.747418
O O2 0.428240 0.284354 0.811296
O O3 0.184074 0.153168 0.034582
O O4 0.500000 0.000000 0.000000
O O5 0.022695 0.786623 0.431236
O O6 0.718500 0.659250 0.552734
O O7 0.116478 0.537924 0.564034
O O8 0.134427 0.353960 0.019312
O O9 0.057386 0.303736 0.279124
O O10 0.463957 0.191395 0.256912
O O11 0.340743 0.431541 0.146495
O O12 0.862981 0.202546 0.172221
O O13 0.837865 0.388292 0.843753
O O14 0.500000 0.500000 0.500000
O O15 0.567880 0.480132 0.285174
O O16 0.758055 0.173333 0.420578
O O17 0.168335 0.036942 0.546251
#
# Coordination Sequence:
#
# PCOD9010310 Si02
#       8
#     2   2   2   2   2   2   2   2
#     4  12  28  48  69 100 142 184 229 290 350 400
#     4  11  23  46  71  96 137 176 234 285 339 405
#     4  10  22  40  67  99 136 177 221 281 346 403
#     4  11  25  42  65  97 145 178 219 284 345 404
#     4  12  24  44  75  99 131 185 236 283 337 408
#     4   9  21  39  66  97 130 181 224 279 334 409
#     4  10  21  40  62  99 139 177 223 275 342 413
#     4  11  23  43  72 103 131 177 232 278 342 410
#
# _framework density 23.790305
#
# number of rings (size 3 to 8) (size 9 to 14) (size 15 to 20)
#    0.000    1.250    2.500    2.625    3.500    1.500 
#    4.500    1.875    0.000    0.000    0.000    0.000 
#    0.000    0.000    0.000    0.000    0.000    0.000 
#
# Total GULP energy -89454.558770 kJ/mol
# GULP energy per Si atom -5590.909923 kJ/mol
# Density = 2.373616 g / cm^3
# Si number density = 23.790305 Si / 1000 Ang^3
#
#
#
# Elastic Constant Matrix: (Units=GPa)
#
#
# Indices 1 2 3 4 5 6 
#
# 1 79.9337 14.4989 40.6343 3.9129 19.7311 2.7652
# 2 14.4989 97.7830 36.4387 -3.9808 12.0129 12.0693
# 3 40.6343 36.4387 71.3227 -0.0753 17.3560 7.2664
# 4 3.9129 -3.9808 -0.0753 39.5637 -2.6676 4.4981
# 5 19.7311 12.0129 17.3560 -2.6676 45.3325 4.7080
# 6 2.7652 12.0693 7.2664 4.4981 4.7080 36.8684
#
#
#
# Elastic Compliance Matrix: (Units=1/GPa)
#
#
# Indices 1 2 3 4 5 6 
#
# 1 0.018785 0.001459 -0.010382 -0.002174 -0.004824 0.001041
# 2 0.001459 0.013187 -0.006998 0.001450 -0.001044 -0.003091
# 3 -0.010382 -0.006998 0.024331 0.000343 -0.002775 -0.001413
# 4 -0.002174 0.001450 0.000343 0.026239 0.002378 -0.003884
# 5 -0.004824 -0.001044 -0.002775 0.002378 0.025881 -0.002345
# 6 0.001041 -0.003091 -0.001413 -0.003884 -0.002345 0.029109
#
#
# Mechanical properties :
#
#
# Convention : Reuss Voigt Hill
#
# Bulk Modulus (GPa) = 40.88250 48.02035 44.45142
# Shear Modulus (GPa) = 28.16471 34.85074 31.50772
#
# Velocity S-wave (km/s) = 3.44448 3.83157 3.64317
# Velocity P-wave (km/s) = 5.74814 6.30898 6.03508
#
# Compressibility (1/GPa) = 0.02446035
#
# Stress axis : x y z
#
# Youngs Moduli (GPa) = 53.23520 75.83247 41.10049
#
# Poissons Ratio (x) = -0.11065 0.42671
# Poissons Ratio (y) = -0.07768 0.28762
# Poissons Ratio (z) = 0.55269 0.53068
#
# Static dielectric constant tensor:
#      x y z
#    x 1.917750 0.012410 -0.008070 
#    y 0.012410 1.965990 0.021950 
#    z -0.008070 0.021950 1.890440 
# 
# From -- ./inp_files/367497.got.cif
#   From: 2010.05.17/outbox.cif.g08.bks.cpg/sg2_184_cif.got.tgz:367497.got - 2010.06.03 11:33:40.
