data_PCOD9010182
_publ_section_title
;
Structure prediction by ZEFSAII (Michael W. Deem and Ramdas Pophale) SiO2 
 PCOD9010182
Probable space group: P -1
;
_chemical_formula_sum "Si O2"
_cell_formula_units_Z 16
_cell_length_a 11.781628
_cell_length_b 13.591988
_cell_length_c 9.772603
_cell_angle_alpha 82.815611
_cell_angle_beta 39.118722
_cell_angle_gamma 54.802830
_cell_volume 629.987709
_symmetry_space_group_name_H-M "P -1"
_symmetry_group_IT_number 2
_symmetry_cell_setting 'triclinic'
loop_
_space_group_symop_operation_xyz
x,y,z
-x,-y,-z
loop_
_atom_site_type_symbol
_atom_site_label
_atom_site_fract_x
_atom_site_fract_y
_atom_site_fract_z
Si Si1 0.575439 0.105491 0.468522
Si Si2 0.601872 0.015059 0.175302
Si Si3 0.171769 0.340282 0.007418
Si Si4 0.353853 0.428236 0.211623
Si Si5 0.761818 0.742667 0.750035
Si Si6 0.742553 0.484704 0.017754
Si Si7 0.809208 0.303316 0.322546
Si Si8 0.143421 0.771708 0.015772
O O1 0.572062 0.110059 0.306490
O O2 0.441802 0.063535 0.674490
O O3 0.389968 0.262841 0.693537
O O4 0.899860 0.953982 0.229720
O O5 0.390481 0.115724 0.229886
O O6 0.917980 0.871617 0.846682
O O7 0.333536 0.225904 0.008968
O O8 0.903800 0.517801 0.896488
O O9 0.923623 0.369265 0.196402
O O10 0.283105 0.342548 0.270952
O O11 0.096636 0.603392 0.475254
O O12 0.390877 0.449884 0.018953
O O13 0.609465 0.322654 0.092807
O O14 0.475847 0.581342 0.347854
O O15 0.951108 0.303251 0.858129
O O16 0.771137 0.270658 0.214686
#
# Coordination Sequence:
#
# PCOD9010182 Si02
#       8
#     2   2   2   2   2   2   2   2
#     4   9  20  38  61  91 124 163 209 253 310 373
#     4   9  19  38  62  87 123 168 207 252 310 370
#     4  10  23  41  62  94 128 161 210 260 307 369
#     4  10  23  39  61  92 125 165 212 256 309 376
#     4  10  21  40  62  90 126 165 210 260 312 367
#     4  11  23  40  64  92 127 168 206 255 313 369
#     4  10  23  41  63  95 127 161 209 259 311 370
#     4  11  22  40  64  91 127 167 206 255 313 375
#
# _framework density 25.397320000000001
#
# number of rings (size 3 to 8) (size 9 to 14) (size 15 to 20)
#    0.000    2.000    0.000    3.000    0.000    6.500 
#    0.000    7.500    0.000    0.000    0.000    0.000 
#    0.000    0.000    0.000    0.000    0.000    0.000 
#
# Total GULP energy -89500.374083 kJ/mol
# GULP energy per Si atom -5593.773380 kJ/mol
# Density = 2.533951 g / cm^3
# Si number density = 25.397320 Si / 1000 Ang^3
#
#
#
# Elastic Constant Matrix: (Units=GPa)
#
#
# Indices 1 2 3 4 5 6 
#
# 1 102.2143 21.3165 31.8857 5.1802 0.3787 -15.9677
# 2 21.3165 94.7283 26.7753 4.0689 -9.7420 -26.4613
# 3 31.8857 26.7753 108.3741 6.8354 -1.4178 -20.0987
# 4 5.1802 4.0689 6.8354 25.4281 -1.7001 -15.6801
# 5 0.3787 -9.7420 -1.4178 -1.7001 25.0171 2.7863
# 6 -15.9677 -26.4613 -20.0987 -15.6801 2.7863 44.6109
#
#
#
# Elastic Compliance Matrix: (Units=1/GPa)
#
#
# Indices 1 2 3 4 5 6 
#
# 1 0.011201 -0.001313 -0.002591 -0.000170 -0.001070 0.002071
# 2 -0.001313 0.013907 -0.001737 0.003775 0.004699 0.008030
# 3 -0.002591 -0.001737 0.010971 -0.000399 -0.000362 0.002867
# 4 -0.000170 0.003775 -0.000399 0.051291 0.002724 0.019856
# 5 -0.001070 0.004699 -0.000362 0.002724 0.041919 0.000581
# 6 0.002071 0.008030 0.002867 0.019856 0.000581 0.036155
#
#
# Mechanical properties :
#
#
# Convention : Reuss Voigt Hill
#
# Bulk Modulus (GPa) = 40.32499 51.69683 46.01091
# Shear Modulus (GPa) = 27.02839 34.03384 30.53112
#
# Velocity S-wave (km/s) = 3.26578 3.66465 3.47095
# Velocity P-wave (km/s) = 5.48931 6.18915 5.84971
#
# Compressibility (1/GPa) = 0.02479852
#
# Stress axis : x y z
#
# Youngs Moduli (GPa) = 89.27535 71.90569 91.15028
#
# Poissons Ratio (x) = 0.09439 0.23613
# Poissons Ratio (y) = 0.11719 0.15834
# Poissons Ratio (z) = 0.23127 0.12491
#
# Static dielectric constant tensor:
#      x y z
#    x 2.119600 0.087690 0.011300 
#    y 0.087690 2.045590 -0.014530 
#    z 0.011300 -0.014530 2.036070 
# 
# From -- ./inp_files/279370.got.cif
#   From: 2010.05.17/outbox.cif.g08.bks.cpg/sg2_140_cif.got.tgz:279370.got - 2010.06.03 11:33:40.
