data_PCOD9010871
_publ_section_title
;
Structure prediction by ZEFSAII (Michael W. Deem and Ramdas Pophale) SiO2 
 PCOD9010871
Probable space group: P -1
;
_chemical_formula_sum "Si O2"
_cell_formula_units_Z 16
_cell_length_a 14.717892
_cell_length_b 16.026638
_cell_length_c 5.517857
_cell_angle_alpha 74.272521
_cell_angle_beta 119.740146
_cell_angle_gamma 143.238505
_cell_volume 656.055491
_symmetry_space_group_name_H-M "P -1"
_symmetry_group_IT_number 2
_symmetry_cell_setting 'triclinic'
loop_
_space_group_symop_operation_xyz
x,y,z
-x,-y,-z
loop_
_atom_site_type_symbol
_atom_site_label
_atom_site_fract_x
_atom_site_fract_y
_atom_site_fract_z
Si Si1 0.543760 0.132564 0.167786
Si Si2 0.759622 0.113572 0.346879
Si Si3 0.777990 0.641057 0.817329
Si Si4 0.161612 0.168964 0.893375
Si Si5 0.192792 0.046170 0.411415
Si Si6 0.288025 0.699853 0.258730
Si Si7 0.981932 0.632055 0.825908
Si Si8 0.425459 0.340588 0.740136
O O1 0.638583 0.101996 0.329920
O O2 0.587286 0.209669 0.413701
O O3 0.623486 0.228120 0.947553
O O4 0.343841 0.979708 0.965988
O O5 0.939962 0.279098 0.391706
O O6 0.770647 0.027687 0.545581
O O7 0.627577 0.481842 0.857016
O O8 0.673704 0.639208 0.507425
O O9 0.920898 0.675261 0.859146
O O10 0.852132 0.755647 0.019581
O O11 0.357115 0.297040 0.954728
O O12 0.154470 0.074022 0.097479
O O13 0.987289 0.065879 0.585335
O O14 0.341982 0.199638 0.621015
O O15 0.182832 0.540575 0.267717
O O16 0.139711 0.677023 0.099668
#
# Coordination Sequence:
#
# PCOD9010871 Si02
#       8
#     2   2   2   2   2   2   2   2
#     4  10  24  48  71 101 141 183 230 294 346 411
#     4  10  23  42  68  99 135 180 231 281 349 414
#     4  10  22  40  63  95 129 176 227 272 335 411
#     4  10  21  40  64  94 130 175 217 290 331 404
#     4  10  22  39  62  95 129 174 219 277 334 415
#     4  10  24  48  73 100 143 181 231 293 348 411
#     4  10  23  42  69 100 135 180 229 286 346 416
#     4  10  21  41  63  89 139 168 223 277 338 400
#
# _framework density 24.388179999999998
#
# number of rings (size 3 to 8) (size 9 to 14) (size 15 to 20)
#    0.000    2.000    0.000    1.500    3.500   11.000 
#    6.750    0.000    0.000    0.000    0.000    0.000 
#    0.000    0.000    0.000    0.000    0.000    0.000 
#
# Total GULP energy -89392.677439 kJ/mol
# GULP energy per Si atom -5587.042340 kJ/mol
# Density = 2.433267 g / cm^3
# Si number density = 24.388180 Si / 1000 Ang^3
#
#
#
# Elastic Constant Matrix: (Units=GPa)
#
#
# Indices 1 2 3 4 5 6 
#
# 1 1747.8597-2688.2542 -941.5577 1194.5909 -178.6144-1961.2235
# 2 -2688.2542 4504.5545 1574.4995-1965.8531 314.9267 3171.2267
# 3 -941.5577 1574.4995 601.4595 -687.6077 100.9995 1114.3490
# 4 1194.5909-1965.8531 -687.6077 894.2229 -142.4585-1416.5411
# 5 -178.6144 314.9267 100.9995 -142.4585 44.2613 224.5714
# 6 -1961.2235 3171.2267 1114.3490-1416.5411 224.5714 2346.9067
#
#
#
# Elastic Compliance Matrix: (Units=1/GPa)
#
#
# Indices 1 2 3 4 5 6 
#
# 1 0.010487 0.002207 -0.001407 -0.001601 -0.006114 0.006068
# 2 0.002207 0.009415 -0.007330 0.008135 -0.004965 -0.002012
# 3 -0.001407 -0.007330 0.021482 0.000657 0.009764 -0.002010
# 4 -0.001601 0.008135 0.000657 0.038391 0.008352 0.009731
# 5 -0.006114 -0.004965 0.009764 0.008352 0.053795 -0.003143
# 6 0.006068 -0.002012 -0.002010 0.009731 -0.003143 0.015344
#
#
# Mechanical properties :
#
#
# Convention : Reuss Voigt Hill
#
# Bulk Modulus (GPa) = 35.30489 304.80545 170.05517
# Shear Modulus (GPa) = 29.16900 1251.02391 640.09646
#
# Velocity S-wave (km/s) = 3.46212 22.67326 16.21825
# Velocity P-wave (km/s) = 5.52172 28.47258 20.50826
#
# Compressibility (1/GPa) = 0.02832469
#
# Stress axis : x y z
#
# Youngs Moduli (GPa) = 95.35749 106.21611 46.55013
#
# Poissons Ratio (x) = -0.23442 0.06549
# Poissons Ratio (y) = -0.21045 0.34120
# Poissons Ratio (z) = 0.13415 0.77853
#
# Static dielectric constant tensor:
#      x y z
#    x 1.945230 0.080970 0.006830 
#    y 0.080970 1.988780 -0.009620 
#    z 0.006830 -0.009620 2.111280 
# 
# From -- ./inp_files/97822.got.cif
#   From: 2010.05.17/outbox.cif.g08.bks.cpg/sg2_49_cif.got.tgz:97822.got - 2010.06.03 11:33:40.
