data_PCOD9010494
_publ_section_title
;
Structure prediction by ZEFSAII (Michael W. Deem and Ramdas Pophale) SiO2 
 PCOD9010494
Probable space group: P -1
;
_chemical_formula_sum "Si O2"
_cell_formula_units_Z 14
_cell_length_a 10.684042
_cell_length_b 13.090753
_cell_length_c 7.804747
_cell_angle_alpha 117.178011
_cell_angle_beta 82.245982
_cell_angle_gamma 50.399562
_cell_volume 586.101680
_symmetry_space_group_name_H-M "P -1"
_symmetry_group_IT_number 2
_symmetry_cell_setting 'triclinic'
loop_
_space_group_symop_operation_xyz
x,y,z
-x,-y,-z
loop_
_atom_site_type_symbol
_atom_site_label
_atom_site_fract_x
_atom_site_fract_y
_atom_site_fract_z
Si Si1 0.901513 0.066549 0.379576
Si Si2 0.015829 0.392585 0.616474
Si Si3 0.510928 0.326781 0.862797
Si Si4 0.885547 0.303683 0.341718
Si Si5 0.413085 0.995296 0.350675
Si Si6 0.737146 0.352455 0.067270
Si Si7 0.217499 0.235965 0.118762
O O1 0.660427 0.233467 0.596414
O O2 0.932121 0.153751 0.319707
O O3 0.000000 0.000000 0.500000
O O4 0.032707 0.866880 0.130255
O O5 0.173941 0.320497 0.379771
O O6 0.846434 0.430613 0.589187
O O7 0.905061 0.587114 0.849301
O O8 0.170659 0.201218 0.547012
O O9 0.545099 0.170639 0.782972
O O10 0.591762 0.354957 0.018657
O O11 0.293593 0.526227 0.976467
O O12 0.093084 0.207784 0.142986
O O13 0.711588 0.414368 0.313623
O O14 0.500000 0.000000 0.500000
O O15 0.552325 0.938282 0.123212
#
# Coordination Sequence:
#
# PCOD9010494 Si02
#       7
#     2   2   2   2   2   2   2
#     4  10  21  40  63  92 128 165 211 268 323 385
#     4   9  21  44  63  96 128 172 219 266 325 380
#     4  10  25  41  61  97 131 171 212 268 327 377
#     4  10  21  41  70  95 123 176 217 266 328 385
#     4  12  26  41  67  97 133 174 216 270 325 389
#     4  10  22  43  63  94 129 169 217 264 324 382
#     4   9  23  43  65  96 129 172 221 266 322 389
#
# _framework density 23.886638999999999
#
# number of rings (size 3 to 8) (size 9 to 14) (size 15 to 20)
#    0.857    1.143    0.000    2.571    4.000    5.714 
#    0.000    1.429    0.000    0.000    0.000    0.000 
#    0.000    0.000    0.000    0.000    0.000    0.000 
#
# Total GULP energy -78008.910908 kJ/mol
# GULP energy per Si atom -5572.065065 kJ/mol
# Density = 2.383227 g / cm^3
# Si number density = 23.886639 Si / 1000 Ang^3
#
#
#
# Elastic Constant Matrix: (Units=GPa)
#
#
# Indices 1 2 3 4 5 6 
#
# 1 74.6806 51.6648 34.4218 -9.9109 -1.5428 -0.3525
# 2 51.6648 143.0019 26.0261 -4.2086 -1.4696 0.1803
# 3 34.4218 26.0261 49.6976 1.8013 -12.4919 0.8175
# 4 -9.9109 -4.2086 1.8013 21.7371 -15.1715 -1.6631
# 5 -1.5428 -1.4696 -12.4919 -15.1715 28.4505 -13.4002
# 6 -0.3525 0.1803 0.8175 -1.6631 -13.4002 27.4789
#
#
#
# Elastic Compliance Matrix: (Units=1/GPa)
#
#
# Indices 1 2 3 4 5 6 
#
# 1 0.026933 -0.006561 -0.014415 0.016690 0.005911 0.004710
# 2 -0.006561 0.009415 -0.000921 -0.003084 -0.002677 -0.001611
# 3 -0.014415 -0.000921 0.036451 0.008819 0.025359 0.011637
# 4 0.016690 -0.003084 0.008819 0.123440 0.095999 0.054257
# 5 0.005911 -0.002677 0.025359 0.095999 0.129925 0.068508
# 6 0.004710 -0.001611 0.011637 0.054257 0.068508 0.072808
#
#
# Mechanical properties :
#
#
# Convention : Reuss Voigt Hill
#
# Bulk Modulus (GPa) = 34.47639 54.62283 44.54961
# Shear Modulus (GPa) = 11.05133 25.88445 18.46789
#
# Velocity S-wave (km/s) = 2.15328 3.29544 2.78357
# Velocity P-wave (km/s) = 4.54388 6.11531 5.38720
#
# Compressibility (1/GPa) = 0.02900536
#
# Stress axis : x y z
#
# Youngs Moduli (GPa) = 37.12946 106.21767 27.43387
#
# Poissons Ratio (x) = 0.69689 0.39546
# Poissons Ratio (y) = 0.24361 0.02526
# Poissons Ratio (z) = 0.53522 0.09778
#
# Static dielectric constant tensor:
#      x y z
#    x 1.930920 -0.024180 -0.010970 
#    y -0.024180 2.006900 -0.025780 
#    z -0.010970 -0.025780 2.081810 
# 
# From -- ./inp_files/254499.got.cif
#   From: 2010.05.17/outbox.cif.g08.bks.cpg/sg2_128_cif.got.tgz:254499.got - 2010.06.03 11:33:40.
