data_PCOD9010190
_publ_section_title
;
Structure prediction by ZEFSAII (Michael W. Deem and Ramdas Pophale) SiO2 
 PCOD9010190
Probable space group: P -1
;
_chemical_formula_sum "Si O2"
_cell_formula_units_Z 16
_cell_length_a 13.135890
_cell_length_b 11.006753
_cell_length_c 5.973388
_cell_angle_alpha 118.509845
_cell_angle_beta 100.411225
_cell_angle_gamma 73.976202
_cell_volume 728.209717
_symmetry_space_group_name_H-M "P -1"
_symmetry_group_IT_number 2
_symmetry_cell_setting 'triclinic'
loop_
_space_group_symop_operation_xyz
x,y,z
-x,-y,-z
loop_
_atom_site_type_symbol
_atom_site_label
_atom_site_fract_x
_atom_site_fract_y
_atom_site_fract_z
Si Si1 0.008796 0.882845 0.596037
Si Si2 0.180744 0.959597 0.069180
Si Si3 0.589478 0.525626 0.398022
Si Si4 0.759541 0.342822 0.047081
Si Si5 0.576659 0.770708 0.285326
Si Si6 0.258939 0.417427 0.114135
Si Si7 0.586099 0.013973 0.857093
Si Si8 0.919696 0.433440 0.552066
O O1 0.104978 0.914875 0.812605
O O2 0.036097 0.712782 0.421999
O O3 0.000000 0.000000 0.500000
O O4 0.897470 0.916179 0.718234
O O5 0.209330 0.823654 0.126386
O O6 0.291832 0.983967 0.037334
O O7 0.500000 0.500000 0.500000
O O8 0.653273 0.383057 0.186310
O O9 0.551721 0.637098 0.286523
O O10 0.668185 0.587988 0.643771
O O11 0.843644 0.391017 0.290608
O O12 0.742647 0.441158 0.908822
O O13 0.475978 0.844920 0.167170
O O14 0.594795 0.885173 0.573284
O O15 0.683333 0.712582 0.131341
O O16 0.141932 0.446577 0.196210
O O17 0.500000 0.000000 0.000000
O O18 0.000000 0.500000 0.500000
#
# Coordination Sequence:
#
# PCOD9010190 Si02
#       8
#     2   2   2   2   2   2   2   2
#     4  10  22  43  68  98 124 168 221 268 335 392
#     4  10  23  41  65  92 129 168 217 273 317 391
#     4  10  22  36  62  90 124 164 208 259 316 383
#     4   9  21  38  60  94 123 165 214 259 325 386
#     4  10  24  41  59  94 130 169 221 256 325 389
#     4  10  21  40  62  90 130 164 209 271 316 388
#     4  11  25  43  64  92 134 178 218 270 322 395
#     4  10  22  41  65  95 129 165 215 273 330 393
#
# _framework density 21.971692999999998
#
# number of rings (size 3 to 8) (size 9 to 14) (size 15 to 20)
#    0.000    2.000    0.000    1.500    5.250    7.500 
#    0.000    3.750    0.000    0.000    0.000    0.000 
#    0.000    0.000    0.000    0.000    0.000    0.000 
#
# Total GULP energy -89300.415373 kJ/mol
# GULP energy per Si atom -5581.275961 kJ/mol
# Density = 2.192168 g / cm^3
# Si number density = 21.971693 Si / 1000 Ang^3
#
#
#
# Elastic Constant Matrix: (Units=GPa)
#
#
# Indices 1 2 3 4 5 6 
#
# 1 154.3991 49.6681 49.0626 12.3215 -40.8100 -8.8999
# 2 49.6681 98.2225 32.4978 5.7658 -4.3789 -20.1362
# 3 49.0626 32.4978 78.6289 15.7668 -30.9230 -8.9542
# 4 12.3215 5.7658 15.7668 36.8496 -9.7558 -5.1754
# 5 -40.8100 -4.3789 -30.9230 -9.7558 37.8559 2.9911
# 6 -8.8999 -20.1362 -8.9542 -5.1754 2.9911 24.7792
#
#
#
# Elastic Compliance Matrix: (Units=1/GPa)
#
#
# Indices 1 2 3 4 5 6 
#
# 1 0.011234 -0.005362 -0.000640 0.000037 0.011126 -0.001889
# 2 -0.005362 0.016686 -0.006277 0.000826 -0.009611 0.010697
# 3 -0.000640 -0.006277 0.022973 -0.004322 0.016226 0.000109
# 4 0.000037 0.000826 -0.004322 0.030637 0.004103 0.005026
# 5 0.011126 -0.009611 0.016226 0.004103 0.051876 -0.003355
# 6 -0.001889 0.010697 0.000109 0.005026 -0.003355 0.049865
#
#
# Mechanical properties :
#
#
# Convention : Reuss Voigt Hill
#
# Bulk Modulus (GPa) = 37.97684 65.96750 51.97217
# Shear Modulus (GPa) = 23.08314 33.23176 28.15745
#
# Velocity S-wave (km/s) = 3.24479 3.89328 3.58373
# Velocity P-wave (km/s) = 5.60002 7.09219 6.38981
#
# Compressibility (1/GPa) = 0.02633184
#
# Stress axis : x y z
#
# Youngs Moduli (GPa) = 89.01370 59.93201 43.53018
#
# Poissons Ratio (x) = 0.32138 0.02788
# Poissons Ratio (y) = 0.47733 0.27326
# Poissons Ratio (z) = 0.05701 0.37622
#
# Static dielectric constant tensor:
#      x y z
#    x 1.838550 -0.016440 0.014250 
#    y -0.016440 1.814620 0.007000 
#    z 0.014250 0.007000 1.813530 
# 
# From -- ./inp_files/71839.got.cif
#   From: 2010.05.17/outbox.cif.g08.bks.cpg/sg2_36_cif.got.tgz:71839.got - 2010.06.03 11:33:40.
