data_PCOD9010564
_publ_section_title
;
Structure prediction by ZEFSAII (Michael W. Deem and Ramdas Pophale) SiO2 
 PCOD9010564
Probable space group: P -1
;
_chemical_formula_sum "Si O2"
_cell_formula_units_Z 16
_cell_length_a 14.124402
_cell_length_b 10.786883
_cell_length_c 10.393400
_cell_angle_alpha 41.883596
_cell_angle_beta 86.743073
_cell_angle_gamma 57.427798
_cell_volume 704.973189
_symmetry_space_group_name_H-M "P -1"
_symmetry_group_IT_number 2
_symmetry_cell_setting 'triclinic'
loop_
_space_group_symop_operation_xyz
x,y,z
-x,-y,-z
loop_
_atom_site_type_symbol
_atom_site_label
_atom_site_fract_x
_atom_site_fract_y
_atom_site_fract_z
Si Si1 0.806270 0.376937 0.905997
Si Si2 0.506438 0.299618 0.232955
Si Si3 0.196933 0.200723 0.311380
Si Si4 0.662167 0.453859 0.631786
Si Si5 0.459569 0.739904 0.207466
Si Si6 0.030419 0.105578 0.528814
Si Si7 0.488280 0.079876 0.174942
Si Si8 0.221700 0.289189 0.972883
O O1 0.646058 0.550741 0.825336
O O2 0.829480 0.561248 0.798430
O O3 0.803464 0.316531 0.801205
O O4 0.908990 0.097521 0.198897
O O5 0.552903 0.090574 0.279890
O O6 0.634622 0.093085 0.482145
O O7 0.500000 0.500000 0.000000
O O8 0.133176 0.117634 0.456372
O O9 0.149369 0.285745 0.099436
O O10 0.610665 0.477159 0.470520
O O11 0.602396 0.355341 0.778890
O O12 0.565145 0.774327 0.400321
O O13 0.488403 0.847310 0.014351
O O14 0.329577 0.009595 0.096195
O O15 0.888356 0.431378 0.316805
O O16 0.000000 0.000000 0.500000
O O17 0.320859 0.294013 0.034967
#
# Coordination Sequence:
#
# PCOD9010564 Si02
#       8
#     2   2   2   2   2   2   2   2
#     4  12  23  42  66  99 136 165 214 275 330 389
#     4  12  21  36  64 105 129 162 207 269 344 376
#     4  12  24  42  67  95 134 166 211 279 330 385
#     4  10  21  40  63  95 129 164 214 264 322 381
#     4  10  23  42  66  95 131 172 214 269 321 378
#     4  12  26  45  62  98 132 176 221 260 327 396
#     4  11  21  41  65  95 132 164 213 272 322 384
#     4  11  23  43  64  93 131 175 217 262 318 393
#
# _framework density 22.695900999999999
#
# number of rings (size 3 to 8) (size 9 to 14) (size 15 to 20)
#    0.000    0.750    5.000    4.500    0.000    1.000 
#    2.250    0.625    0.000    3.750    0.000    0.000 
#    0.000    0.000    0.000    0.000    0.000    0.000 
#
# Total GULP energy -89227.826290 kJ/mol
# GULP energy per Si atom -5576.739143 kJ/mol
# Density = 2.264424 g / cm^3
# Si number density = 22.695901 Si / 1000 Ang^3
#
#
#
# Elastic Constant Matrix: (Units=GPa)
#
#
# Indices 1 2 3 4 5 6 
#
# 1 97.1209 15.9188 30.1583 0.2463 -24.6336 16.4880
# 2 15.9188 37.4188 11.3192 9.2575 -3.7356 11.5126
# 3 30.1583 11.3192 165.2452 4.8838 -2.3648 4.8133
# 4 0.2463 9.2575 4.8838 25.3770 6.7046 -3.6229
# 5 -24.6336 -3.7356 -2.3648 6.7046 37.9027 1.4500
# 6 16.4880 11.5126 4.8133 -3.6229 1.4500 34.5050
#
#
#
# Elastic Compliance Matrix: (Units=1/GPa)
#
#
# Indices 1 2 3 4 5 6 
#
# 1 0.015073 -0.001910 -0.002190 -0.002724 0.010220 -0.006975
# 2 -0.001910 0.036572 -0.001207 -0.016466 0.005702 -0.013090
# 3 -0.002190 -0.001207 0.006515 -0.000430 -0.001081 0.000541
# 4 -0.002724 -0.016466 -0.000430 0.050742 -0.012882 0.012724
# 5 0.010220 0.005702 -0.001081 -0.012882 0.036162 -0.009507
# 6 -0.006975 -0.013090 0.000541 0.012724 -0.009507 0.038342
#
#
# Mechanical properties :
#
#
# Convention : Reuss Voigt Hill
#
# Bulk Modulus (GPa) = 21.03180 46.06417 33.54799
# Shear Modulus (GPa) = 23.82436 35.71618 29.77027
#
# Velocity S-wave (km/s) = 3.24345 3.97127 3.62567
# Velocity P-wave (km/s) = 4.82841 6.43182 5.68691
#
# Compressibility (1/GPa) = 0.04754705
#
# Stress axis : x y z
#
# Youngs Moduli (GPa) = 66.34485 27.34304 153.48021
#
# Poissons Ratio (x) = 0.05221 0.33614
# Poissons Ratio (y) = 0.12669 0.18527
# Poissons Ratio (z) = 0.14530 0.03301
#
# Static dielectric constant tensor:
#      x y z
#    x 1.720220 -0.026720 0.014310 
#    y -0.026720 1.920740 0.029490 
#    z 0.014310 0.029490 1.854210 
# 
# From -- ./inp_files/452150.got.cif
#   From: 2010.05.17/outbox.cif.g08.bks.cpg/sg2_227_cif.got.tgz:452150.got - 2010.06.03 11:33:40.
