data_PCOD9010315
_publ_section_title
;
Structure prediction by ZEFSAII (Michael W. Deem and Ramdas Pophale) SiO2 
 PCOD9010315
Probable space group: P -1
;
_chemical_formula_sum "Si O2"
_cell_formula_units_Z 16
_cell_length_a 11.293064
_cell_length_b 5.309515
_cell_length_c 11.740044
_cell_angle_alpha 87.710235
_cell_angle_beta 92.814168
_cell_angle_gamma 71.122935
_cell_volume 664.114184
_symmetry_space_group_name_H-M "P -1"
_symmetry_group_IT_number 2
_symmetry_cell_setting 'triclinic'
loop_
_space_group_symop_operation_xyz
x,y,z
-x,-y,-z
loop_
_atom_site_type_symbol
_atom_site_label
_atom_site_fract_x
_atom_site_fract_y
_atom_site_fract_z
Si Si1 0.858328 0.532042 0.640424
Si Si2 0.063366 0.778914 0.915528
Si Si3 0.304033 0.747436 0.658870
Si Si4 0.419782 0.026250 0.112482
Si Si5 0.374858 0.213416 0.542403
Si Si6 0.474093 0.545462 0.861279
Si Si7 0.831005 0.590508 0.893901
Si Si8 0.978109 0.069849 0.341393
O O1 0.735362 0.668136 0.557522
O O2 0.814493 0.497362 0.768262
O O3 0.937406 0.739611 0.641045
O O4 0.948658 0.235432 0.616220
O O5 0.060425 0.923381 0.794123
O O6 0.969585 0.609898 0.893635
O O7 0.180016 0.587016 0.995371
O O8 0.000000 0.000000 0.000000
O O9 0.384174 0.482524 0.597619
O O10 0.338819 0.671032 0.794881
O O11 0.160164 0.800792 0.616623
O O12 0.329092 0.023237 0.629134
O O13 0.452091 0.257795 0.175378
O O14 0.271477 0.124899 0.089759
O O15 0.466464 0.747061 0.180075
O O16 0.500000 0.000000 0.000000
O O17 0.500000 0.000000 0.500000
O O18 0.500000 0.500000 0.000000
#
# Coordination Sequence:
#
# PCOD9010315 Si02
#       8
#     2   2   2   2   2   2   2   2
#     4  11  25  46  71 102 138 186 240 289 358 417
#     4  10  21  40  63 101 142 181 225 275 353 417
#     4  12  27  48  76 106 143 182 236 308 352 409
#     4  10  23  39  62  97 135 188 228 273 340 414
#     4  12  29  52  74 104 140 190 241 297 354 423
#     4  10  24  43  64 105 137 182 219 273 357 417
#     4  10  23  39  63  96 138 186 224 289 342 424
#     4  11  25  44  74 110 138 181 237 294 360 421
#
# _framework density 24.092241999999999
#
# number of rings (size 3 to 8) (size 9 to 14) (size 15 to 20)
#    0.000    1.250    1.250    2.625    8.750    4.000 
#    0.000    0.000    0.000    0.000    0.000    0.000 
#    0.000    0.000    0.000    0.000    0.000    0.000 
#
# Total GULP energy -89284.653982 kJ/mol
# GULP energy per Si atom -5580.290874 kJ/mol
# Density = 2.403741 g / cm^3
# Si number density = 24.092242 Si / 1000 Ang^3
#
#
#
# Elastic Constant Matrix: (Units=GPa)
#
#
# Indices 1 2 3 4 5 6 
#
# 1 53.5931 37.6012 16.4974 -8.7156 15.5676 -14.1230
# 2 37.6012 166.9930 33.0759 -38.0117 10.9436 0.6807
# 3 16.4974 33.0759 128.6447 -30.9677 26.0531 -17.4424
# 4 -8.7156 -38.0117 -30.9677 34.2343 -14.0369 7.8914
# 5 15.5676 10.9436 26.0531 -14.0369 28.4374 -3.6235
# 6 -14.1230 0.6807 -17.4424 7.8914 -3.6235 52.6887
#
#
#
# Elastic Compliance Matrix: (Units=1/GPa)
#
#
# Indices 1 2 3 4 5 6 
#
# 1 0.029829 -0.007971 0.000553 -0.009939 -0.017584 0.008561
# 2 -0.007971 0.010327 -0.000444 0.012599 0.006524 -0.003855
# 3 0.000553 -0.000444 0.011038 0.006274 -0.006842 0.002398
# 4 -0.009939 0.012599 0.006274 0.057197 0.022084 -0.007798
# 5 -0.017584 0.006524 -0.006842 0.022084 0.058642 -0.006337
# 6 0.008561 -0.003855 0.002398 -0.007798 -0.006337 0.022850
#
#
# Mechanical properties :
#
#
# Convention : Reuss Voigt Hill
#
# Bulk Modulus (GPa) = 28.19264 58.17555 43.18409
# Shear Modulus (GPa) = 22.99605 40.54249 31.76927
#
# Velocity S-wave (km/s) = 3.09285 4.10665 3.63526
# Velocity P-wave (km/s) = 4.94789 6.83268 5.96520
#
# Compressibility (1/GPa) = 0.03547025
#
# Stress axis : x y z
#
# Youngs Moduli (GPa) = 33.52488 96.83247 90.59949
#
# Poissons Ratio (x) = 0.77185 -0.05014
# Poissons Ratio (y) = 0.26723 0.04023
# Poissons Ratio (z) = -0.01856 0.04300
#
# Static dielectric constant tensor:
#      x y z
#    x 2.010350 0.009620 0.031190 
#    y 0.009620 1.949070 0.003780 
#    z 0.031190 0.003780 2.015690 
# 
# From -- ./inp_files/410272.got.cif
#   From: 2010.05.17/outbox.cif.g08.bks.cpg/sg2_206_cif.got.tgz:410272.got - 2010.06.03 11:33:40.
