data_PCOD9010991
_publ_section_title
;
Structure prediction by ZEFSAII (Michael W. Deem and Ramdas Pophale) SiO2 
 PCOD9010991
Probable space group: P -1
;
_chemical_formula_sum "Si O2"
_cell_formula_units_Z 16
_cell_length_a 8.988935
_cell_length_b 9.189527
_cell_length_c 15.746014
_cell_angle_alpha 113.319674
_cell_angle_beta 40.618611
_cell_angle_gamma 110.470511
_cell_volume 774.958032
_symmetry_space_group_name_H-M "P -1"
_symmetry_group_IT_number 2
_symmetry_cell_setting 'triclinic'
loop_
_space_group_symop_operation_xyz
x,y,z
-x,-y,-z
loop_
_atom_site_type_symbol
_atom_site_label
_atom_site_fract_x
_atom_site_fract_y
_atom_site_fract_z
Si Si1 0.429866 0.614504 0.680192
Si Si2 0.242236 0.313988 0.600830
Si Si3 0.921544 0.170053 0.042473
Si Si4 0.134138 0.352614 0.377037
Si Si5 0.528454 0.987578 0.083947
Si Si6 0.027140 0.009659 0.388538
Si Si7 0.188704 0.503571 0.217751
Si Si8 0.653627 0.673888 0.051311
O O1 0.334869 0.430354 0.663957
O O2 0.557804 0.676186 0.553247
O O3 0.219471 0.724116 0.808506
O O4 0.621841 0.636401 0.676241
O O5 0.034604 0.401754 0.668794
O O6 0.135835 0.132719 0.616452
O O7 0.729208 0.124787 0.046842
O O8 0.157949 0.274319 0.947951
O O9 0.000000 0.000000 0.000000
O O10 0.986079 0.189252 0.424103
O O11 0.160934 0.364630 0.266606
O O12 0.000000 0.500000 0.500000
O O13 0.615367 0.823525 0.042156
O O14 0.289634 0.999386 0.240431
O O15 0.500000 0.000000 0.000000
O O16 0.000000 0.000000 0.500000
O O17 0.409564 0.612605 0.178999
O O18 0.250600 0.452657 0.083982
#
# Coordination Sequence:
#
# PCOD9010991 Si02
#       8
#     2   2   2   2   2   2   2   2
#     4  11  22  42  67  99 135 174 224 283 340 395
#     4  11  22  41  71  96 132 178 227 276 338 410
#     4  10  21  40  64  99 134 179 221 275 336 404
#     4  12  24  41  67  97 133 169 221 286 338 390
#     4  11  22  39  64  99 135 171 224 283 335 392
#     4  12  22  42  69  99 127 178 229 273 337 413
#     4  11  21  41  64  96 129 175 218 272 333 402
#     4  10  22  38  64  92 131 175 222 263 330 414
#
# _framework density 20.646280999999998
#
# number of rings (size 3 to 8) (size 9 to 14) (size 15 to 20)
#    0.000    1.000    6.250    0.750    0.000    0.000 
#    2.250    1.250    0.000    0.000    0.000    0.000 
#    0.000    0.000    0.000    0.000    0.000    0.000 
#
# Total GULP energy -89239.418679 kJ/mol
# GULP energy per Si atom -5577.463667 kJ/mol
# Density = 2.059929 g / cm^3
# Si number density = 20.646281 Si / 1000 Ang^3
#
#
#
# Elastic Constant Matrix: (Units=GPa)
#
#
# Indices 1 2 3 4 5 6 
#
# 1 61.8350 40.1434 31.6771 -9.7609 -7.6550 27.2700
# 2 40.1434 133.0221 11.9435 -3.3240 -5.9600 22.7611
# 3 31.6771 11.9435 64.7436 3.7759 -12.3697 1.2844
# 4 -9.7609 -3.3240 3.7759 37.4302 -5.6951 -5.6163
# 5 -7.6550 -5.9600 -12.3697 -5.6951 29.2163 -4.8989
# 6 27.2700 22.7611 1.2844 -5.6163 -4.8989 39.7661
#
#
#
# Elastic Compliance Matrix: (Units=1/GPa)
#
#
# Indices 1 2 3 4 5 6 
#
# 1 0.042141 -0.006802 -0.019570 0.008747 -0.000823 -0.023239
# 2 -0.006802 0.009574 0.001749 -0.001167 0.000521 -0.000972
# 3 -0.019570 0.001749 0.026144 -0.004691 0.007366 0.011820
# 4 0.008747 -0.001167 -0.004691 0.030243 0.005933 -0.000177
# 5 -0.000823 0.000521 0.007366 0.005933 0.039351 0.005714
# 6 -0.023239 -0.000972 0.011820 -0.000177 0.005714 0.041937
#
#
# Mechanical properties :
#
#
# Convention : Reuss Voigt Hill
#
# Bulk Modulus (GPa) = 34.94970 47.45874 41.20422
# Shear Modulus (GPa) = 20.14705 33.00497 26.57601
#
# Velocity S-wave (km/s) = 3.12720 4.00258 3.59166
# Velocity P-wave (km/s) = 5.47757 6.66313 6.09922
#
# Compressibility (1/GPa) = 0.02861255
#
# Stress axis : x y z
#
# Youngs Moduli (GPa) = 23.72981 104.45148 38.24920
#
# Poissons Ratio (x) = 0.71049 0.74854
# Poissons Ratio (y) = 0.16141 -0.06689
# Poissons Ratio (z) = 0.46439 -0.18266
#
# Static dielectric constant tensor:
#      x y z
#    x 1.697770 -0.032310 -0.013370 
#    y -0.032310 1.669440 -0.001450 
#    z -0.013370 -0.001450 1.740640 
# 
# From -- ./inp_files/405585.got.cif
#   From: 2010.05.17/outbox.cif.g08.bks.cpg/sg2_203_cif.got.tgz:405585.got - 2010.06.03 11:33:40.
