data_PCOD9010364
_publ_section_title
;
Structure prediction by ZEFSAII (Michael W. Deem and Ramdas Pophale) SiO2 
 PCOD9010364
Probable space group: P -1
;
_chemical_formula_sum "Si O2"
_cell_formula_units_Z 14
_cell_length_a 8.552824
_cell_length_b 11.939350
_cell_length_c 7.861433
_cell_angle_alpha 81.273641
_cell_angle_beta 104.875397
_cell_angle_gamma 55.211623
_cell_volume 590.520731
_symmetry_space_group_name_H-M "P -1"
_symmetry_group_IT_number 2
_symmetry_cell_setting 'triclinic'
loop_
_space_group_symop_operation_xyz
x,y,z
-x,-y,-z
loop_
_atom_site_type_symbol
_atom_site_label
_atom_site_fract_x
_atom_site_fract_y
_atom_site_fract_z
Si Si1 0.894106 0.143610 0.747097
Si Si2 0.292290 0.984284 0.080717
Si Si3 0.421719 0.264331 0.002229
Si Si4 0.652979 0.406496 0.406658
Si Si5 0.700348 0.354910 0.958386
Si Si6 0.639949 0.850244 0.683707
Si Si7 0.069999 0.584157 0.737939
O O1 0.794426 0.070063 0.796259
O O2 0.792247 0.235274 0.526428
O O3 0.828798 0.261162 0.849699
O O4 0.143077 0.035199 0.862092
O O5 0.521988 0.852573 0.102177
O O6 0.277167 0.107788 0.147697
O O7 0.185298 0.420014 0.877789
O O8 0.581170 0.294085 0.992151
O O9 0.462168 0.202407 0.218064
O O10 0.500000 0.500000 0.500000
O O11 0.817181 0.434431 0.404378
O O12 0.484735 0.478279 0.191620
O O13 0.847667 0.350086 0.133898
O O14 0.820951 0.709425 0.653741
O O15 0.500000 0.000000 0.500000
#
# Coordination Sequence:
#
# PCOD9010364 Si02
#       7
#     2   2   2   2   2   2   2
#     4   9  18  36  63  94 122 156 206 255 310 363
#     4  10  21  40  63  87 126 169 203 252 314 370
#     4  10  22  41  65  88 125 167 207 248 318 378
#     4   9  18  32  60  96 122 146 202 261 303 361
#     4   9  18  38  66  94 120 160 205 260 310 367
#     4  12  27  43  60  92 130 168 212 257 305 371
#     4  11  22  42  66  91 127 168 206 256 316 366
#
# _framework density 23.707886999999999
#
# number of rings (size 3 to 8) (size 9 to 14) (size 15 to 20)
#    0.000    2.000    1.429    3.429    2.000    2.286 
#    0.000    2.143    0.000    0.000    0.000    0.000 
#    0.000    0.000    0.000    0.000    0.000    0.000 
#
# Total GULP energy -78110.503964 kJ/mol
# GULP energy per Si atom -5579.321712 kJ/mol
# Density = 2.365393 g / cm^3
# Si number density = 23.707887 Si / 1000 Ang^3
#
#
#
# Elastic Constant Matrix: (Units=GPa)
#
#
# Indices 1 2 3 4 5 6 
#
# 1 39.6676 13.7814 41.5774 -7.1207 -15.7934 -14.1800
# 2 13.7814 109.2479 3.8508 -15.9933 0.1968 -25.2199
# 3 41.5774 3.8508 105.6074 -36.0322 -25.6833 -9.2586
# 4 -7.1207 -15.9933 -36.0322 39.9862 1.5965 0.4096
# 5 -15.7934 0.1968 -25.6833 1.5965 24.4527 0.3830
# 6 -14.1800 -25.2199 -9.2586 0.4096 0.3830 37.3614
#
#
#
# Elastic Compliance Matrix: (Units=1/GPa)
#
#
# Indices 1 2 3 4 5 6 
#
# 1 0.059396 -0.005572 -0.022737 -0.012880 0.015161 0.013133
# 2 -0.005572 0.012880 0.006188 0.009571 0.002046 0.007987
# 3 -0.022737 0.006188 0.031269 0.025921 0.016371 0.002844
# 4 -0.012880 0.009571 0.025921 0.049207 0.015502 0.007298
# 5 0.015161 0.002046 0.016371 0.015502 0.066692 0.010339
# 6 0.013133 0.007987 0.002844 0.007298 0.010339 0.037660
#
#
# Mechanical properties :
#
#
# Convention : Reuss Voigt Hill
#
# Bulk Modulus (GPa) = 16.86287 41.43800 29.15043
# Shear Modulus (GPa) = 15.57080 33.38095 24.47588
#
# Velocity S-wave (km/s) = 2.56555 3.75642 3.21657
# Velocity P-wave (km/s) = 3.98801 6.02750 5.11053
#
# Compressibility (1/GPa) = 0.05930188
#
# Stress axis : x y z
#
# Youngs Moduli (GPa) = 16.83620 77.64245 31.98012
#
# Poissons Ratio (x) = 0.43265 0.72713
# Poissons Ratio (y) = 0.09382 -0.19789
# Poissons Ratio (z) = 0.38280 -0.48043
#
# Static dielectric constant tensor:
#      x y z
#    x 1.936860 -0.026340 -0.033420 
#    y -0.026340 1.973340 -0.057660 
#    z -0.033420 -0.057660 1.981400 
# 
# From -- ./inp_files/200880.got.cif
#   From: 2010.05.17/outbox.cif.g08.bks.cpg/sg2_101_cif.got.tgz:200880.got - 2010.06.03 11:33:40.
