data_PCOD9010170
_publ_section_title
;
Structure prediction by ZEFSAII (Michael W. Deem and Ramdas Pophale) SiO2 
 PCOD9010170
Probable space group: P -1
;
_chemical_formula_sum "Si O2"
_cell_formula_units_Z 16
_cell_length_a 8.734449
_cell_length_b 8.646961
_cell_length_c 16.952937
_cell_angle_alpha 66.584155
_cell_angle_beta 97.429182
_cell_angle_gamma 52.481744
_cell_volume 801.518499
_symmetry_space_group_name_H-M "P -1"
_symmetry_group_IT_number 2
_symmetry_cell_setting 'triclinic'
loop_
_space_group_symop_operation_xyz
x,y,z
-x,-y,-z
loop_
_atom_site_type_symbol
_atom_site_label
_atom_site_fract_x
_atom_site_fract_y
_atom_site_fract_z
Si Si1 0.629305 0.247383 0.218208
Si Si2 0.427145 0.202780 0.014908
Si Si3 0.964785 0.276767 0.193905
Si Si4 0.208691 0.245111 0.678361
Si Si5 0.171760 0.258703 0.369941
Si Si6 0.659621 0.017300 0.413255
Si Si7 0.270967 0.790815 0.052496
Si Si8 0.618758 0.062733 0.822133
O O1 0.817878 0.230832 0.212548
O O2 0.632890 0.206437 0.320895
O O3 0.392008 0.512212 0.119990
O O4 0.703447 0.008442 0.237160
O O5 0.201736 0.468757 0.915643
O O6 0.624849 0.187744 0.019624
O O7 0.365354 0.137970 0.099183
O O8 0.500000 0.000000 0.000000
O O9 0.046953 0.294072 0.277039
O O10 0.178199 0.067974 0.197002
O O11 0.973231 0.481097 0.651083
O O12 0.218305 0.210428 0.592158
O O13 0.385648 0.242483 0.722480
O O14 0.412305 0.140619 0.385787
O O15 0.213876 0.082632 0.475043
O O16 0.365926 0.815541 0.130584
O O17 0.000000 0.000000 0.000000
#
# Coordination Sequence:
#
# PCOD9010170 Si02
#       8
#     2   2   2   2   2   2   2   2
#     4   9  22  39  56  88 125 149 205 246 307 351
#     4   9  20  36  56  82 111 156 201 237 294 353
#     4  11  21  38  57  89 120 159 198 250 304 354
#     4  10  21  40  62  90 119 159 201 251 294 359
#     4  11  20  39  68  85 122 160 202 252 294 358
#     4   9  22  39  62  92 119 156 210 243 302 356
#     4  10  22  40  60  87 122 159 200 249 305 354
#     4  11  22  38  60  86 118 160 205 243 294 365
#
# _framework density 19.962111
#
# number of rings (size 3 to 8) (size 9 to 14) (size 15 to 20)
#    0.750    1.250    1.250    3.000    0.000    8.500 
#    0.000    2.500    0.000    3.000    0.000    2.625 
#    0.000    0.000    0.000    0.000    0.000    0.000 
#
# Total GULP energy -89174.610102 kJ/mol
# GULP energy per Si atom -5573.413131 kJ/mol
# Density = 1.991668 g / cm^3
# Si number density = 19.962111 Si / 1000 Ang^3
#
#
#
# Elastic Constant Matrix: (Units=GPa)
#
#
# Indices 1 2 3 4 5 6 
#
# 1 44.1763 10.9666 14.2713 -2.5752 -11.4541 -8.5540
# 2 10.9666 78.2196 -6.3098 -7.6660 -2.3644 -15.0230
# 3 14.2713 -6.3098 45.4015 3.2154 -15.0322 -4.8870
# 4 -2.5752 -7.6660 3.2154 32.3245 1.5478 -6.4095
# 5 -11.4541 -2.3644 -15.0322 1.5478 25.4928 2.7051
# 6 -8.5540 -15.0230 -4.8870 -6.4095 2.7051 24.9573
#
#
#
# Elastic Compliance Matrix: (Units=1/GPa)
#
#
# Indices 1 2 3 4 5 6 
#
# 1 0.028989 -0.002634 -0.006256 0.003325 0.008137 0.007097
# 2 -0.002634 0.016151 0.004330 0.005279 0.001394 0.010872
# 3 -0.006256 0.004330 0.030210 -0.002381 0.015111 0.004129
# 4 0.003325 0.005279 -0.002381 0.035467 -0.002984 0.013283
# 5 0.008137 0.001394 0.015111 -0.002984 0.052085 0.000175
# 6 0.007097 0.010872 0.004129 0.013283 0.000175 0.053246
#
#
# Mechanical properties :
#
#
# Convention : Reuss Voigt Hill
#
# Bulk Modulus (GPa) = 15.09864 22.85042 18.97453
# Shear Modulus (GPa) = 20.21477 26.47954 23.34716
#
# Velocity S-wave (km/s) = 3.18568 3.64605 3.42361
# Velocity P-wave (km/s) = 4.59472 5.40339 5.01538
#
# Compressibility (1/GPa) = 0.06623115
#
# Stress axis : x y z
#
# Youngs Moduli (GPa) = 34.49548 61.91703 33.10130
#
# Poissons Ratio (x) = 0.16310 0.20708
# Poissons Ratio (y) = 0.09086 -0.14334
# Poissons Ratio (z) = 0.21580 -0.26813
#
# Static dielectric constant tensor:
#      x y z
#    x 1.680750 0.006160 -0.007840 
#    y 0.006160 1.681040 0.035440 
#    z -0.007840 0.035440 1.774260 
# 
# From -- ./inp_files/557121.got.cif
#   From: 2010.05.17/outbox.cif.g08.bks.cpg/sg2_279_cif.got.tgz:557121.got - 2010.06.03 11:33:40.
