data_PCOD9010028
_publ_section_title
;
Structure prediction by ZEFSAII (Michael W. Deem and Ramdas Pophale) SiO2 
 PCOD9010028
Probable space group: P -1
;
_chemical_formula_sum "Si O2"
_cell_formula_units_Z 16
_cell_length_a 8.165866
_cell_length_b 14.901629
_cell_length_c 14.901610
_cell_angle_alpha 31.226440
_cell_angle_beta 52.107923
_cell_angle_gamma 52.108032
_cell_volume 724.103595
_symmetry_space_group_name_H-M "P -1"
_symmetry_group_IT_number 2
_symmetry_cell_setting 'triclinic'
loop_
_space_group_symop_operation_xyz
x,y,z
-x,-y,-z
loop_
_atom_site_type_symbol
_atom_site_label
_atom_site_fract_x
_atom_site_fract_y
_atom_site_fract_z
Si Si1 0.190675 0.517497 0.135322
Si Si2 0.809328 0.864679 0.482500
Si Si3 0.331073 0.714870 0.084471
Si Si4 0.307353 0.467131 0.467137
Si Si5 0.239960 0.910657 0.521129
Si Si6 0.668927 0.915534 0.285124
Si Si7 0.202281 0.592201 0.592200
Si Si8 0.760039 0.478870 0.089345
O O1 0.273993 0.316527 0.316529
O O2 0.233738 0.653370 0.078540
O O3 0.937304 0.524184 0.208287
O O4 0.278407 0.536046 0.991583
O O5 0.766265 0.921461 0.346626
O O6 0.062699 0.791714 0.475813
O O7 0.721597 0.008417 0.463952
O O8 0.260817 0.611126 0.280633
O O9 0.583882 0.638810 0.051137
O O10 0.282385 0.926125 0.926131
O O11 0.260819 0.280626 0.611134
O O12 0.194529 0.537492 0.537496
O O13 0.558914 0.433856 0.433857
O O14 0.416119 0.948867 0.361187
O O15 0.263807 0.701230 0.701228
O O16 0.000000 0.000000 0.500000
O O17 0.000000 0.500000 0.000000
#
# Coordination Sequence:
#
# PCOD9010028 Si02
#       8
#     2   2   2   2   2   2   2   2
#     4  10  21  40  61  91 127 168 211 258 327 376
#     4  10  21  40  61  91 127 168 211 258 327 376
#     4  12  24  40  65  95 130 171 213 266 322 387
#     4  11  21  47  67  97 125 169 226 263 330 375
#     4  12  23  38  60  95 134 170 214 264 319 390
#     4  12  24  40  65  95 130 171 213 266 322 387
#     4   9  23  41  73  87 131 175 208 281 320 381
#     4  12  23  38  60  95 134 170 214 264 319 390
#
# _framework density 22.096285999999999
#
# number of rings (size 3 to 8) (size 9 to 14) (size 15 to 20)
#    0.750    0.250    2.500    5.250    0.000    2.000 
#    0.000    7.500    0.000    0.000    0.000    0.000 
#    0.000    0.000    0.000    0.000    0.000    0.000 
#
# Total GULP energy -89524.625890 kJ/mol
# GULP energy per Si atom -5595.289118 kJ/mol
# Density = 2.204599 g / cm^3
# Si number density = 22.096286 Si / 1000 Ang^3
#
#
#
# Elastic Constant Matrix: (Units=GPa)
#
#
# Indices 1 2 3 4 5 6 
#
# 1 78.0137 -2.3975 8.8503 -3.9063 0.0415 0.1311
# 2 -2.3975 89.0952 37.2265 7.3410 -0.5274 21.1006
# 3 8.8503 37.2265 140.9142 -25.3381 11.8316 14.9928
# 4 -3.9063 7.3410 -25.3381 26.7078 9.5793 -2.2231
# 5 0.0415 -0.5274 11.8316 9.5793 28.8545 4.4567
# 6 0.1311 21.1006 14.9928 -2.2231 4.4567 41.6907
#
#
#
# Elastic Compliance Matrix: (Units=1/GPa)
#
#
# Indices 1 2 3 4 5 6 
#
# 1 0.012976 0.000604 -0.000798 0.000975 -0.000003 -0.000007
# 2 0.000604 0.017811 -0.007681 -0.016437 0.010201 -0.008221
# 3 -0.000798 -0.007681 0.013554 0.019397 -0.012348 0.001370
# 4 0.000975 -0.016437 0.019397 0.073444 -0.034011 0.008893
# 5 -0.000003 0.010201 -0.012348 -0.034011 0.052455 -0.008143
# 6 -0.000007 -0.008221 0.001370 0.008893 -0.008143 0.028999
#
#
# Mechanical properties :
#
#
# Convention : Reuss Voigt Hill
#
# Bulk Modulus (GPa) = 34.97440 43.93127 39.45284
# Shear Modulus (GPa) = 22.26971 37.07354 29.67162
#
# Velocity S-wave (km/s) = 3.17811 4.10056 3.66844
# Velocity P-wave (km/s) = 5.41569 6.50726 5.98640
#
# Compressibility (1/GPa) = 0.02859234
#
# Stress axis : x y z
#
# Youngs Moduli (GPa) = 77.06404 56.14465 73.77631
#
# Poissons Ratio (x) = -0.03391 0.05889
# Poissons Ratio (y) = -0.04655 0.56664
# Poissons Ratio (z) = 0.06152 0.43122
#
# Static dielectric constant tensor:
#      x y z
#    x 1.870910 -0.009550 -0.002990 
#    y -0.009550 1.781500 -0.000040 
#    z -0.002990 -0.000040 1.781620 
# 
# From -- ./inp_files/503548.got.cif
#   From: 2010.05.17/outbox.cif.g08.bks.cpg/sg2_252_cif.got.tgz:503548.got - 2010.06.03 11:33:40.
