data_PCOD9010145
_publ_section_title
;
Structure prediction by ZEFSAII (Michael W. Deem and Ramdas Pophale) SiO2 
 PCOD9010145
Probable space group: P -1
;
_chemical_formula_sum "Si O2"
_cell_formula_units_Z 14
_cell_length_a 5.182297
_cell_length_b 23.759355
_cell_length_c 5.634549
_cell_angle_alpha 54.151680
_cell_angle_beta 96.663836
_cell_angle_gamma 89.855173
_cell_volume 556.405998
_symmetry_space_group_name_H-M "P -1"
_symmetry_group_IT_number 2
_symmetry_cell_setting 'triclinic'
loop_
_space_group_symop_operation_xyz
x,y,z
-x,-y,-z
loop_
_atom_site_type_symbol
_atom_site_label
_atom_site_fract_x
_atom_site_fract_y
_atom_site_fract_z
Si Si1 0.912365 0.593065 0.689339
Si Si2 0.836598 0.735994 0.071286
Si Si3 0.155017 0.662268 0.930048
Si Si4 0.066629 0.079686 0.796080
Si Si5 0.707716 0.202878 0.272917
Si Si6 0.761491 0.950567 0.611436
Si Si7 0.398638 0.555647 0.547569
O O1 0.632685 0.563447 0.739755
O O2 0.096885 0.598483 0.920205
O O3 0.107620 0.551158 0.628614
O O4 0.864674 0.676292 0.419520
O O5 0.572683 0.784292 0.905639
O O6 0.879600 0.688024 0.957393
O O7 0.084352 0.780646 0.951574
O O8 0.264641 0.734301 0.688543
O O9 0.354890 0.631050 0.228281
O O10 0.240994 0.083154 0.568154
O O11 0.813202 0.131622 0.583052
O O12 0.189849 0.094366 0.030012
O O13 0.000000 0.000000 0.000000
O O14 0.500000 0.000000 0.500000
O O15 0.000000 0.000000 0.500000
O O16 0.500000 0.500000 0.500000
#
# Coordination Sequence:
#
# PCOD9010145 Si02
#       7
#     2   2   2   2   2   2   2
#     4  11  21  39  66  88 123 172 207 262 325 381
#     4   9  20  40  56  89 121 158 209 262 314 374
#     4   9  23  39  63  87 128 158 220 255 319 386
#     4  10  23  43  66  99 133 178 223 283 343 405
#     4  10  21  40  62  88 125 162 210 271 318 391
#     4  10  22  41  64  90 129 171 214 270 336 401
#     4  11  24  40  61  93 129 160 211 266 317 388
#
# _framework density 25.161483
#
# number of rings (size 3 to 8) (size 9 to 14) (size 15 to 20)
#    0.857    1.143    1.429    0.857    2.000    6.857 
#    2.571    0.000    0.000    0.000    0.000    0.000 
#    0.000    0.000    0.000    0.000    0.000    0.000 
#
# Total GULP energy -78072.314263 kJ/mol
# GULP energy per Si atom -5576.593876 kJ/mol
# Density = 2.510421 g / cm^3
# Si number density = 25.161483 Si / 1000 Ang^3
#
#
#
# Elastic Constant Matrix: (Units=GPa)
#
#
# Indices 1 2 3 4 5 6 
#
# 1 165.4979 23.6725 38.7208 -11.7256 25.7115 -16.3431
# 2 23.6725 75.7068 36.7893 -2.7251 3.4026 -10.5583
# 3 38.7208 36.7893 137.0651 -20.1583 23.0216 -13.0057
# 4 -11.7256 -2.7251 -20.1583 61.4235 -8.1615 1.3954
# 5 25.7115 3.4026 23.0216 -8.1615 34.0462 -9.7236
# 6 -16.3431 -10.5583 -13.0057 1.3954 -9.7236 41.7360
#
#
#
# Elastic Compliance Matrix: (Units=1/GPa)
#
#
# Indices 1 2 3 4 5 6 
#
# 1 0.007265 -0.001542 -0.000718 0.000472 -0.004393 0.001192
# 2 -0.001542 0.015963 -0.004183 -0.000616 0.003069 0.002867
# 3 -0.000718 -0.004183 0.009838 0.002228 -0.005020 0.000482
# 4 0.000472 -0.000616 0.002228 0.017401 0.002582 0.000743
# 5 -0.004393 0.003069 -0.005020 0.002582 0.038197 0.006304
# 6 0.001192 0.002867 0.000482 0.000743 0.006304 0.026746
#
#
# Mechanical properties :
#
#
# Convention : Reuss Voigt Hill
#
# Bulk Modulus (GPa) = 49.55466 64.07056 56.81261
# Shear Modulus (GPa) = 37.03084 46.04697 41.53891
#
# Velocity S-wave (km/s) = 3.84047 4.28256 4.06753
# Velocity P-wave (km/s) = 6.27718 7.06914 6.68490
#
# Compressibility (1/GPa) = 0.02017974
#
# Stress axis : x y z
#
# Youngs Moduli (GPa) = 137.65508 62.64302 101.64582
#
# Poissons Ratio (x) = 0.09660 0.07298
# Poissons Ratio (y) = 0.21226 0.42520
# Poissons Ratio (z) = 0.09884 0.26205
#
# Static dielectric constant tensor:
#      x y z
#    x 1.977130 0.011060 -0.059350 
#    y 0.011060 2.097470 0.065760 
#    z -0.059350 0.065760 2.067820 
# 
# From -- ./inp_files/12233.got.cif
#   From: 2010.05.17/outbox.cif.g08.bks.cpg/sg2_7_cif.got.tgz:12233.got - 2010.06.03 11:33:40.
