data_PCOD9010405
_publ_section_title
;
Structure prediction by ZEFSAII (Michael W. Deem and Ramdas Pophale) SiO2 
 PCOD9010405
Probable space group: P -1
;
_chemical_formula_sum "Si O2"
_cell_formula_units_Z 14
_cell_length_a 20.079971
_cell_length_b 11.924404
_cell_length_c 9.087442
_cell_angle_alpha 115.164560
_cell_angle_beta 37.925132
_cell_angle_gamma 144.496195
_cell_volume 616.797270
_symmetry_space_group_name_H-M "P -1"
_symmetry_group_IT_number 2
_symmetry_cell_setting 'triclinic'
loop_
_space_group_symop_operation_xyz
x,y,z
-x,-y,-z
loop_
_atom_site_type_symbol
_atom_site_label
_atom_site_fract_x
_atom_site_fract_y
_atom_site_fract_z
Si Si1 0.028460 0.358766 0.437490
Si Si2 0.970653 0.996072 0.719580
Si Si3 0.977072 0.678707 0.246487
Si Si4 0.765312 0.781809 0.359505
Si Si5 0.306404 0.811937 0.620410
Si Si6 0.717895 0.154994 0.649772
Si Si7 0.361876 0.507162 0.817189
O O1 0.006546 0.268799 0.581084
O O2 0.097601 0.560313 0.492120
O O3 0.821404 0.156537 0.581567
O O4 0.228733 0.498851 0.078417
O O5 0.967011 0.140502 0.834861
O O6 0.180604 0.158100 0.531239
O O7 0.000000 0.000000 0.500000
O O8 0.768349 0.724543 0.988695
O O9 0.757680 0.393253 0.424873
O O10 0.135546 0.723359 0.958732
O O11 0.606788 0.735176 0.561932
O O12 0.655441 0.551413 0.354675
O O13 0.000000 0.000000 0.000000
O O14 0.319583 0.897045 0.487983
O O15 0.500000 0.000000 0.500000
O O16 0.500000 0.000000 0.000000
#
# Coordination Sequence:
#
# PCOD9010405 Si02
#       7
#     2   2   2   2   2   2   2
#     4  10  21  40  63  89 128 164 209 265 314 380
#     4  11  22  40  64  95 129 169 210 262 320 386
#     4  10  22  41  63  90 128 165 210 264 319 374
#     4   9  22  41  61  88 127 165 219 257 310 382
#     4  10  22  42  65  91 125 165 211 266 321 374
#     4  10  22  39  62  95 122 165 217 258 318 377
#     4  10  21  42  64  90 127 172 210 265 321 378
#
# _framework density 22.697896
#
# number of rings (size 3 to 8) (size 9 to 14) (size 15 to 20)
#    0.000    2.000    1.429    0.857    2.000    5.143 
#   10.286    0.000    0.000    0.000    0.000    0.000 
#    0.000    0.000    0.000    0.000    0.000    0.000 
#
# Total GULP energy -77997.987704 kJ/mol
# GULP energy per Si atom -5571.284836 kJ/mol
# Density = 2.264623 g / cm^3
# Si number density = 22.697896 Si / 1000 Ang^3
#
#
#
# Elastic Constant Matrix: (Units=GPa)
#
#
# Indices 1 2 3 4 5 6 
#
# 1 112.0638 62.1434 31.3574 -11.8174 -14.1104 48.6257
# 2 62.1434 103.4448 12.3136 0.8396 -5.7673 24.7802
# 3 31.3574 12.3136 89.6197 5.4931 -15.6818 37.0883
# 4 -11.8174 0.8396 5.4931 31.1851 6.7125 1.6660
# 5 -14.1104 -5.7673 -15.6818 6.7125 40.1983 -3.4990
# 6 48.6257 24.7802 37.0883 1.6660 -3.4990 61.5302
#
#
#
# Elastic Compliance Matrix: (Units=1/GPa)
#
#
# Indices 1 2 3 4 5 6 
#
# 1 0.021078 -0.009490 -0.000924 0.008374 0.003206 -0.012324
# 2 -0.009490 0.015065 0.001177 -0.004270 0.000076 0.000843
# 3 -0.000924 0.001177 0.016456 -0.004113 0.006150 -0.009202
# 4 0.008374 -0.004270 -0.004113 0.037545 -0.005875 -0.003770
# 5 0.003206 0.000076 0.006150 -0.005875 0.029005 -0.004463
# 6 -0.012324 0.000843 -0.009202 -0.003770 -0.004463 0.031047
#
#
# Mechanical properties :
#
#
# Convention : Reuss Voigt Hill
#
# Bulk Modulus (GPa) = 29.30346 57.41748 43.36047
# Shear Modulus (GPa) = 27.77088 39.87033 33.82061
#
# Velocity S-wave (km/s) = 3.50165 4.19569 3.86428
# Velocity P-wave (km/s) = 5.41175 6.98735 6.24940
#
# Compressibility (1/GPa) = 0.03412567
#
# Stress axis : x y z
#
# Youngs Moduli (GPa) = 47.44184 66.38022 60.76751
#
# Poissons Ratio (x) = 0.62994 0.05613
# Poissons Ratio (y) = 0.45021 -0.07150
# Poissons Ratio (z) = 0.04382 -0.07810
#
# Static dielectric constant tensor:
#      x y z
#    x 1.973930 -0.069670 0.014110 
#    y -0.069670 1.996760 -0.038130 
#    z 0.014110 -0.038130 1.852230 
# 
# From -- ./inp_files/77194.got.cif
#   From: 2010.05.17/outbox.cif.g08.bks.cpg/sg2_39_cif.got.tgz:77194.got - 2010.06.03 11:33:40.
