data_PCOD9010647
_publ_section_title
;
Structure prediction by ZEFSAII (Michael W. Deem and Ramdas Pophale) SiO2 
 PCOD9010647
Probable space group: P -1
;
_chemical_formula_sum "Si O2"
_cell_formula_units_Z 16
_cell_length_a 10.925296
_cell_length_b 10.209872
_cell_length_c 7.477552
_cell_angle_alpha 100.385280
_cell_angle_beta 115.589686
_cell_angle_gamma 65.166528
_cell_volume 682.712666
_symmetry_space_group_name_H-M "P -1"
_symmetry_group_IT_number 2
_symmetry_cell_setting 'triclinic'
loop_
_space_group_symop_operation_xyz
x,y,z
-x,-y,-z
loop_
_atom_site_type_symbol
_atom_site_label
_atom_site_fract_x
_atom_site_fract_y
_atom_site_fract_z
Si Si1 0.866858 0.452588 0.848102
Si Si2 0.463366 0.326105 0.777698
Si Si3 0.434730 0.885370 0.711734
Si Si4 0.457333 0.424742 0.199225
Si Si5 0.024138 0.118944 0.793992
Si Si6 0.343266 0.980180 0.091760
Si Si7 0.853910 0.614779 0.525793
Si Si8 0.869939 0.905731 0.557941
O O1 0.719066 0.514044 0.885083
O O2 0.822148 0.530650 0.649423
O O3 0.923607 0.280096 0.828740
O O4 0.000000 0.500000 0.000000
O O5 0.485129 0.448665 0.701936
O O6 0.581193 0.165143 0.782532
O O7 0.297679 0.331852 0.669143
O O8 0.494939 0.366655 0.007039
O O9 0.464886 0.718194 0.669781
O O10 0.583785 0.909151 0.777443
O O11 0.300876 0.992593 0.540764
O O12 0.390873 0.933112 0.903127
O O13 0.070534 0.130245 0.618577
O O14 0.950963 0.001463 0.716706
O O15 0.169414 0.055684 0.990952
O O16 0.887966 0.755944 0.623892
O O17 0.000000 0.500000 0.500000
#
# Coordination Sequence:
#
# PCOD9010647 Si02
#       8
#     2   2   2   2   2   2   2   2
#     4  12  26  44  65  99 140 179 217 276 345 397
#     4  10  22  42  67 100 125 175 231 274 324 399
#     4   9  17  33  62  89 127 168 214 264 322 391
#     4  10  23  40  66  95 136 176 220 274 333 399
#     4  10  22  39  67  96 134 176 219 273 333 397
#     4   9  17  34  63  91 123 165 220 266 315 389
#     4  12  24  41  70  98 134 170 225 280 333 400
#     4  10  21  40  64 102 127 169 229 275 326 396
#
# _framework density 23.435919999999999
#
# number of rings (size 3 to 8) (size 9 to 14) (size 15 to 20)
#    0.000    1.750    2.500    1.500    3.500    4.500 
#    0.000    4.375    0.000    0.000    0.000    0.000 
#    0.000    0.000    0.000    0.000    0.000    0.000 
#
# Total GULP energy -89545.367525 kJ/mol
# GULP energy per Si atom -5596.585470 kJ/mol
# Density = 2.338258 g / cm^3
# Si number density = 23.435920 Si / 1000 Ang^3
#
#
#
# Elastic Constant Matrix: (Units=GPa)
#
#
# Indices 1 2 3 4 5 6 
#
# 1 64.4653 45.1135 10.7026 0.7232 11.8498 12.7598
# 2 45.1135 196.4222 25.5531 -22.0747 4.3831 18.9499
# 3 10.7026 25.5531 35.4249 -6.0831 12.9705 1.1960
# 4 0.7232 -22.0747 -6.0831 29.9829 -8.6178 4.4607
# 5 11.8498 4.3831 12.9705 -8.6178 33.9472 7.2747
# 6 12.7598 18.9499 1.1960 4.4607 7.2747 34.8392
#
#
#
# Elastic Compliance Matrix: (Units=1/GPa)
#
#
# Indices 1 2 3 4 5 6 
#
# 1 0.021108 -0.004968 -0.001081 -0.006078 -0.007279 -0.002693
# 2 -0.004968 0.007969 -0.004808 0.007188 0.005305 -0.004378
# 3 -0.001081 -0.004808 0.036980 -0.000871 -0.014393 0.004859
# 4 -0.006078 0.007188 -0.000871 0.044510 0.015076 -0.010501
# 5 -0.007279 0.005305 -0.014393 0.015076 0.042915 -0.010617
# 6 -0.002693 -0.004378 0.004859 -0.010501 -0.010617 0.035466
#
#
# Mechanical properties :
#
#
# Convention : Reuss Voigt Hill
#
# Bulk Modulus (GPa) = 22.55145 51.00564 36.77854
# Shear Modulus (GPa) = 22.17856 34.08340 28.13098
#
# Velocity S-wave (km/s) = 3.07962 3.81770 3.46835
# Velocity P-wave (km/s) = 4.72111 6.42216 5.63618
#
# Compressibility (1/GPa) = 0.04434305
#
# Stress axis : x y z
#
# Youngs Moduli (GPa) = 47.37610 125.47913 27.04170
#
# Poissons Ratio (x) = 0.62339 0.02923
# Poissons Ratio (y) = 0.23537 0.13002
# Poissons Ratio (z) = 0.05121 0.60331
#
# Static dielectric constant tensor:
#      x y z
#    x 1.883680 0.020210 -0.050640 
#    y 0.020210 1.850740 -0.009430 
#    z -0.050640 -0.009430 1.924440 
# 
# From -- ./inp_files/244718.got.cif
#   From: 2010.05.17/outbox.cif.g08.bks.cpg/sg2_123_cif.got.tgz:244718.got - 2010.06.03 11:33:40.
