data_PCOD9010619
_publ_section_title
;
Structure prediction by ZEFSAII (Michael W. Deem and Ramdas Pophale) SiO2 
 PCOD9010619
Probable space group: P -1
;
_chemical_formula_sum "Si O2"
_cell_formula_units_Z 16
_cell_length_a 5.417095
_cell_length_b 22.513460
_cell_length_c 25.657171
_cell_angle_alpha 17.219088
_cell_angle_beta 124.480213
_cell_angle_gamma 131.847622
_cell_volume 653.134303
_symmetry_space_group_name_H-M "P -1"
_symmetry_group_IT_number 2
_symmetry_cell_setting 'triclinic'
loop_
_space_group_symop_operation_xyz
x,y,z
-x,-y,-z
loop_
_atom_site_type_symbol
_atom_site_label
_atom_site_fract_x
_atom_site_fract_y
_atom_site_fract_z
Si Si1 0.420703 0.552609 0.889097
Si Si2 0.806698 0.059909 0.535916
Si Si3 0.734453 0.827542 0.950004
Si Si4 0.260489 0.632525 0.317650
Si Si5 0.605883 0.688782 0.690444
Si Si6 0.776130 0.044771 0.239570
Si Si7 0.995171 0.070537 0.999220
Si Si8 0.421970 0.229254 0.656269
O O1 0.682699 0.620406 0.814471
O O2 0.469543 0.806366 0.693528
O O3 0.500000 0.500000 0.000000
O O4 0.070569 0.311486 0.032217
O O5 0.659542 0.219238 0.406761
O O6 0.070983 0.145911 0.446163
O O7 0.028844 0.023139 0.638179
O O8 0.527896 0.906608 0.821009
O O9 0.588307 0.556729 0.156389
O O10 0.134095 0.977534 0.855728
O O11 0.721951 0.892391 0.954743
O O12 0.000038 0.685934 0.210579
O O13 0.267308 0.400758 0.500283
O O14 0.256074 0.662389 0.354971
O O15 0.634534 0.851749 0.160703
O O16 0.580289 0.833222 0.351785
O O17 0.000000 0.000000 0.000000
#
# Coordination Sequence:
#
# PCOD9010619 Si02
#       8
#     2   2   2   2   2   2   2   2
#     4  10  23  48  74 103 140 192 236 295 359 434
#     4  11  28  44  75 104 147 189 245 300 362 427
#     4  11  25  39  69  97 140 184 240 295 359 428
#     4   9  21  38  64  93 129 178 225 290 349 432
#     4  12  25  48  70 111 144 187 242 303 362 423
#     4  11  24  44  67 100 138 188 237 294 361 427
#     4  10  21  40  63  97 134 177 232 290 368 410
#     4  10  21  41  63  92 134 179 233 286 358 425
#
# _framework density 24.497256
#
# number of rings (size 3 to 8) (size 9 to 14) (size 15 to 20)
#    0.000    1.500    1.250    2.250    3.500    3.000 
#    0.000    8.750    0.000    0.000    0.000    0.000 
#    0.000    0.000    0.000    0.000    0.000    0.000 
#
# Total GULP energy -89251.572833 kJ/mol
# GULP energy per Si atom -5578.223302 kJ/mol
# Density = 2.444150 g / cm^3
# Si number density = 24.497256 Si / 1000 Ang^3
#
#
#
# Elastic Constant Matrix: (Units=GPa)
#
#
# Indices 1 2 3 4 5 6 
#
# 1 89.4190 37.9574 31.4559 19.0899 1.7915 -9.4894
# 2 37.9574 119.1958 36.9115 14.0277 22.1148 -10.7457
# 3 31.4559 36.9115 107.6406 -1.1042 -2.2287 -6.1501
# 4 19.0899 14.0277 -1.1042 38.8833 -10.2556 6.6528
# 5 1.7915 22.1148 -2.2287 -10.2556 35.3312 4.4287
# 6 -9.4894 -10.7457 -6.1501 6.6528 4.4287 33.2749
#
#
#
# Elastic Compliance Matrix: (Units=1/GPa)
#
#
# Indices 1 2 3 4 5 6 
#
# 1 0.015869 -0.001632 -0.003924 -0.009157 -0.003385 0.005554
# 2 -0.001632 0.014262 -0.004378 -0.008946 -0.012568 0.006793
# 3 -0.003924 -0.004378 0.011987 0.005709 0.005629 -0.002208
# 4 -0.009157 -0.008946 0.005709 0.041649 0.020455 -0.015495
# 5 -0.003385 -0.012568 0.005629 0.020455 0.044387 -0.013981
# 6 0.005554 0.006793 -0.002208 -0.015495 -0.013981 0.038381
#
#
# Mechanical properties :
#
#
# Convention : Reuss Voigt Hill
#
# Bulk Modulus (GPa) = 44.94364 58.76723 51.85544
# Shear Modulus (GPa) = 25.79728 35.49325 30.64527
#
# Velocity S-wave (km/s) = 3.24862 3.81053 3.54074
# Velocity P-wave (km/s) = 5.69716 6.58799 6.15870
#
# Compressibility (1/GPa) = 0.02225009
#
# Stress axis : x y z
#
# Youngs Moduli (GPa) = 63.01762 70.11785 83.42279
#
# Poissons Ratio (x) = 0.11440 0.32739
# Poissons Ratio (y) = 0.10282 0.36519
# Poissons Ratio (z) = 0.24731 0.30695
#
# Static dielectric constant tensor:
#      x y z
#    x 1.989910 -0.029130 0.003330 
#    y -0.029130 2.034330 0.044660 
#    z 0.003330 0.044660 1.988890 
# 
# From -- ./inp_files/605126.got.cif
#   From: 2010.05.17/outbox.cif.g08.bks.cpg/sg2_303_cif.got.tgz:605126.got - 2010.06.03 11:33:40.
