data_PCOD9010567
_publ_section_title
;
Structure prediction by ZEFSAII (Michael W. Deem and Ramdas Pophale) SiO2 
 PCOD9010567
Probable space group: P -1
;
_chemical_formula_sum "Si O2"
_cell_formula_units_Z 16
_cell_length_a 24.804901
_cell_length_b 12.032205
_cell_length_c 5.055198
_cell_angle_alpha 106.019876
_cell_angle_beta 66.482345
_cell_angle_gamma 150.193163
_cell_volume 679.454913
_symmetry_space_group_name_H-M "P -1"
_symmetry_group_IT_number 2
_symmetry_cell_setting 'triclinic'
loop_
_space_group_symop_operation_xyz
x,y,z
-x,-y,-z
loop_
_atom_site_type_symbol
_atom_site_label
_atom_site_fract_x
_atom_site_fract_y
_atom_site_fract_z
Si Si1 0.891818 0.533950 0.292483
Si Si2 0.376316 0.114443 0.725106
Si Si3 0.225980 0.833540 0.328735
Si Si4 0.976210 0.082644 0.361979
Si Si5 0.628897 0.489075 0.458849
Si Si6 0.316618 0.265450 0.988224
Si Si7 0.902717 0.169454 0.202430
Si Si8 0.816490 0.620761 0.229117
O O1 0.841536 0.386439 0.549282
O O2 0.989594 0.788605 0.365250
O O3 0.804573 0.473241 0.278185
O O4 0.969754 0.582712 0.990781
O O5 0.494417 0.247490 0.624373
O O6 0.392452 0.277638 0.862725
O O7 0.331914 0.029817 0.456408
O O8 0.276841 0.905463 0.984883
O O9 0.147685 0.814973 0.503218
O O10 0.920336 0.080354 0.268441
O O11 0.094881 0.241208 0.097968
O O12 0.887676 0.829909 0.413926
O O13 0.638890 0.573017 0.217949
O O14 0.699989 0.490668 0.308714
O O15 0.680877 0.661653 0.695340
O O16 0.193255 0.011555 0.955684
#
# Coordination Sequence:
#
# PCOD9010567 Si02
#       8
#     2   2   2   2   2   2   2   2
#     4  11  24  40  65  90 133 177 214 258 319 383
#     4  11  25  44  64  96 130 170 219 269 314 374
#     4  11  26  44  65  94 133 173 218 263 311 381
#     4  10  21  40  63  95 130 161 211 267 327 382
#     4  12  23  41  69  95 130 171 213 264 330 380
#     4  11  22  39  67 100 132 162 206 269 333 388
#     4  10  22  38  64 100 128 165 206 267 327 392
#     4  10  23  38  63  98 126 167 212 267 320 385
#
# _framework density 23.548286000000001
#
# number of rings (size 3 to 8) (size 9 to 14) (size 15 to 20)
#    0.000    1.250    1.250    4.500    8.750    0.500 
#    0.000    1.250    0.000    0.000    0.000    0.000 
#    0.000    0.000    0.000    0.000    0.000    0.000 
#
# Total GULP energy -89590.323477 kJ/mol
# GULP energy per Si atom -5599.395217 kJ/mol
# Density = 2.349469 g / cm^3
# Si number density = 23.548286 Si / 1000 Ang^3
#
#
#
# Elastic Constant Matrix: (Units=GPa)
#
#
# Indices 1 2 3 4 5 6 
#
# 1 136.9983 31.3966 46.5775 -22.2424 -20.3915 -1.9237
# 2 31.3966 48.9656 13.3497 -12.0362 -17.5676 3.7929
# 3 46.5775 13.3497 65.5922 -18.6407 -10.8792 10.1658
# 4 -22.2424 -12.0362 -18.6407 39.4483 7.6907 -3.9949
# 5 -20.3915 -17.5676 -10.8792 7.6907 48.1998 -11.2618
# 6 -1.9237 3.7929 10.1658 -3.9949 -11.2618 32.2352
#
#
#
# Elastic Compliance Matrix: (Units=1/GPa)
#
#
# Indices 1 2 3 4 5 6 
#
# 1 0.011398 -0.004465 -0.006983 0.001752 0.002380 0.004456
# 2 -0.004465 0.026906 0.000185 0.004337 0.007162 -0.000451
# 3 -0.006983 0.000185 0.023001 0.006344 -0.000350 -0.007028
# 4 0.001752 0.004337 0.006344 0.030951 -0.000926 0.001106
# 5 0.002380 0.007162 -0.000350 -0.000926 0.026425 0.008527
# 6 0.004456 -0.000451 -0.007028 0.001106 0.008527 0.036673
#
#
# Mechanical properties :
#
#
# Convention : Reuss Voigt Hill
#
# Bulk Modulus (GPa) = 25.78759 48.24486 37.01623
# Shear Modulus (GPa) = 26.20443 34.65880 30.43161
#
# Velocity S-wave (km/s) = 3.33948 3.84059 3.59877
# Velocity P-wave (km/s) = 5.08372 6.34026 5.74644
#
# Compressibility (1/GPa) = 0.03877834
#
# Stress axis : x y z
#
# Youngs Moduli (GPa) = 87.73367 37.16697 43.47620
#
# Poissons Ratio (x) = 0.16596 0.30360
# Poissons Ratio (y) = 0.39175 -0.00805
# Poissons Ratio (z) = 0.61266 -0.00688
#
# Static dielectric constant tensor:
#      x y z
#    x 1.893210 0.014640 -0.024760 
#    y 0.014640 1.934940 0.018290 
#    z -0.024760 0.018290 1.912180 
# 
# From -- ./inp_files/118733.got.cif
#   From: 2010.05.17/outbox.cif.g08.bks.cpg/sg2_60_cif.got.tgz:118733.got - 2010.06.03 11:33:40.
