data_PCOD9010659
_publ_section_title
;
Structure prediction by ZEFSAII (Michael W. Deem and Ramdas Pophale) SiO2 
 PCOD9010659
Probable space group: P -1
;
_chemical_formula_sum "Si O2"
_cell_formula_units_Z 14
_cell_length_a 4.890396
_cell_length_b 13.783712
_cell_length_c 11.893216
_cell_angle_alpha 117.957040
_cell_angle_beta 120.110611
_cell_angle_gamma 83.581023
_cell_volume 604.540360
_symmetry_space_group_name_H-M "P -1"
_symmetry_group_IT_number 2
_symmetry_cell_setting 'triclinic'
loop_
_space_group_symop_operation_xyz
x,y,z
-x,-y,-z
loop_
_atom_site_type_symbol
_atom_site_label
_atom_site_fract_x
_atom_site_fract_y
_atom_site_fract_z
Si Si1 0.508227 0.677786 0.541000
Si Si2 0.290654 0.881207 0.026558
Si Si3 0.005683 0.456376 0.316324
Si Si4 0.706537 0.551535 0.857614
Si Si5 0.533895 0.293888 0.709466
Si Si6 0.810443 0.749175 0.162121
Si Si7 0.579194 0.858911 0.841867
O O1 0.196265 0.581807 0.427277
O O2 0.801378 0.618379 0.609980
O O3 0.560704 0.720301 0.447615
O O4 0.480703 0.773924 0.675989
O O5 0.566658 0.829990 0.118238
O O6 0.358876 0.014714 0.121439
O O7 0.326533 0.851704 0.886325
O O8 0.919590 0.839870 0.956441
O O9 0.030331 0.422394 0.171510
O O10 0.639487 0.446953 0.270854
O O11 0.688177 0.424777 0.824994
O O12 0.728163 0.639164 0.009076
O O13 0.256576 0.273987 0.732727
O O14 0.807487 0.219807 0.754038
#
# Coordination Sequence:
#
# PCOD9010659 Si02
#       7
#     2   2   2   2   2   2   2
#     4  10  22  39  56  85 118 149 182 229 285 333
#     4  10  22  39  63  89 106 140 193 234 283 326
#     4  10  22  35  60  85 111 145 192 233 277 333
#     4  11  21  38  57  83 111 150 192 235 275 315
#     4  11  24  35  54  82 118 156 185 218 274 345
#     4  12  22  38  57  81 117 152 188 229 269 331
#     4  10  21  40  64  86 111 139 182 246 285 320
#
# _framework density 23.158090000000001
#
# number of rings (size 3 to 8) (size 9 to 14) (size 15 to 20)
#    0.000    1.429    0.000    6.000    0.000    9.714 
#    0.000    1.429    0.000    0.000    0.000    0.000 
#    0.000    0.000    0.000    0.000    0.000    0.000 
#
# Total GULP energy -78459.641933 kJ/mol
# GULP energy per Si atom -5604.260138 kJ/mol
# Density = 2.310538 g / cm^3
# Si number density = 23.158090 Si / 1000 Ang^3
#
#
#
# Elastic Constant Matrix: (Units=GPa)
#
#
# Indices 1 2 3 4 5 6 
#
# 1 95.6650 5.2731 24.9249 5.2605 -10.5984 -11.9138
# 2 5.2731 90.4364 43.6039 3.0574 -8.5481 -28.7134
# 3 24.9249 43.6039 103.6228 10.9129 -27.2176 -7.5152
# 4 5.2605 3.0574 10.9129 22.1558 -9.8656 1.0723
# 5 -10.5984 -8.5481 -27.2176 -9.8656 36.4021 -8.7080
# 6 -11.9138 -28.7134 -7.5152 1.0723 -8.7080 31.0592
#
#
#
# Elastic Compliance Matrix: (Units=1/GPa)
#
#
# Indices 1 2 3 4 5 6 
#
# 1 0.012632 0.003950 -0.002783 -0.000591 0.004546 0.009119
# 2 0.003950 0.021581 -0.006868 0.001371 0.006625 0.021614
# 3 -0.002783 -0.006868 0.015531 -0.002300 0.008264 -0.001263
# 4 -0.000591 0.001371 -0.002300 0.051923 0.013065 0.002354
# 5 0.004546 0.006625 0.008264 0.013065 0.045365 0.022135
# 6 0.009119 0.021614 -0.001263 0.002354 0.022135 0.061495
#
#
# Mechanical properties :
#
#
# Convention : Reuss Voigt Hill
#
# Bulk Modulus (GPa) = 26.08080 48.59200 37.33640
# Shear Modulus (GPa) = 21.48594 32.31825 26.90209
#
# Velocity S-wave (km/s) = 3.04928 3.73976 3.41203
# Velocity P-wave (km/s) = 4.86662 6.29889 5.62850
#
# Compressibility (1/GPa) = 0.03834239
#
# Stress axis : x y z
#
# Youngs Moduli (GPa) = 79.16233 46.33716 64.38649
#
# Poissons Ratio (x) = -0.18304 0.17920
# Poissons Ratio (y) = -0.31271 0.44221
# Poissons Ratio (z) = 0.22032 0.31825
#
# Static dielectric constant tensor:
#      x y z
#    x 1.842310 -0.012060 0.013790 
#    y -0.012060 1.884120 -0.035790 
#    z 0.013790 -0.035790 1.863830 
# 
# From -- ./inp_files/367103.got.cif
#   From: 2010.05.17/outbox.cif.g08.bks.cpg/sg2_184_cif.got.tgz:367103.got - 2010.06.03 11:33:40.
