data_PCOD9010942
_publ_section_title
;
Structure prediction by ZEFSAII (Michael W. Deem and Ramdas Pophale) SiO2 
 PCOD9010942
Probable space group: P -1
;
_chemical_formula_sum "Si O2"
_cell_formula_units_Z 16
_cell_length_a 13.932573
_cell_length_b 17.550191
_cell_length_c 7.269005
_cell_angle_alpha 72.463706
_cell_angle_beta 74.697444
_cell_angle_gamma 26.551913
_cell_volume 757.528360
_symmetry_space_group_name_H-M "P -1"
_symmetry_group_IT_number 2
_symmetry_cell_setting 'triclinic'
loop_
_space_group_symop_operation_xyz
x,y,z
-x,-y,-z
loop_
_atom_site_type_symbol
_atom_site_label
_atom_site_fract_x
_atom_site_fract_y
_atom_site_fract_z
Si Si1 0.508725 0.406633 0.472470
Si Si2 0.718135 0.742125 0.020345
Si Si3 0.351727 0.330744 0.157399
Si Si4 0.193379 0.777540 0.893876
Si Si5 0.827591 0.376562 0.810796
Si Si6 0.703490 0.169049 0.876356
Si Si7 0.267107 0.129328 0.828294
Si Si8 0.251715 0.305283 0.557434
O O1 0.500000 0.500000 0.500000
O O2 0.675873 0.290505 0.302841
O O3 0.584183 0.290664 0.672174
O O4 0.718316 0.450923 0.612430
O O5 0.805706 0.765339 0.032294
O O6 0.698614 0.708412 0.246792
O O7 0.802164 0.620384 0.914661
O O8 0.488720 0.931285 0.913789
O O9 0.249100 0.487653 0.152587
O O10 0.392537 0.254345 0.380833
O O11 0.555294 0.209052 0.020864
O O12 0.240126 0.653345 0.019654
O O13 0.258853 0.787707 0.023446
O O14 0.938790 0.969164 0.852343
O O15 0.083838 0.199995 0.807262
O O16 0.292195 0.181304 0.625544
O O17 0.000000 0.500000 0.500000
#
# Coordination Sequence:
#
# PCOD9010942 Si02
#       8
#     2   2   2   2   2   2   2   2
#     4  12  24  44  69  97 134 178 224 281 341 397
#     4   9  22  43  65  91 136 178 218 271 337 392
#     4  12  23  39  70  98 131 180 220 273 338 392
#     4  11  24  47  66  97 137 172 228 282 342 400
#     4  12  23  41  67 100 135 170 230 274 329 407
#     4  11  25  43  71  96 134 179 222 283 338 406
#     4   9  21  44  65  93 137 175 213 282 323 398
#     4  10  21  40  64  96 134 172 222 274 321 398
#
# _framework density 21.121321999999999
#
# number of rings (size 3 to 8) (size 9 to 14) (size 15 to 20)
#    0.750    0.500    3.750    2.250    1.750    2.500 
#    0.000    1.250    0.000    0.000    0.000    0.000 
#    0.000    0.000    0.000    0.000    0.000    0.000 
#
# Total GULP energy -89317.143587 kJ/mol
# GULP energy per Si atom -5582.321474 kJ/mol
# Density = 2.107325 g / cm^3
# Si number density = 21.121322 Si / 1000 Ang^3
#
#
#
# Elastic Constant Matrix: (Units=GPa)
#
#
# Indices 1 2 3 4 5 6 
#
# 1 98.0493 29.8481 34.0578 -15.7002 7.4719 -3.2950
# 2 29.8481 75.5700 45.0036 -23.4303 7.4928 -8.4754
# 3 34.0578 45.0036 147.9247 -24.2049 -10.1275 -11.8938
# 4 -15.7002 -23.4303 -24.2049 34.6014 1.8534 6.4771
# 5 7.4719 7.4928 -10.1275 1.8534 41.3000 -0.0653
# 6 -3.2950 -8.4754 -11.8938 6.4771 -0.0653 44.6559
#
#
#
# Elastic Compliance Matrix: (Units=1/GPa)
#
#
# Indices 1 2 3 4 5 6 
#
# 1 0.012233 -0.002818 -0.001717 0.002650 -0.002243 -0.000477
# 2 -0.002818 0.020440 -0.004218 0.009647 -0.004664 0.001142
# 3 -0.001717 -0.004218 0.009140 0.002367 0.003213 0.001168
# 4 0.002650 0.009647 0.002367 0.039037 -0.003406 -0.003010
# 5 -0.002243 -0.004664 0.003213 -0.003406 0.026406 0.000338
# 6 -0.000477 0.001142 0.001168 -0.003010 0.000338 0.023323
#
#
# Mechanical properties :
#
#
# Convention : Reuss Voigt Hill
#
# Bulk Modulus (GPa) = 41.14495 59.92923 50.53709
# Shear Modulus (GPa) = 32.01249 38.28711 35.14980
#
# Velocity S-wave (km/s) = 3.89736 4.26223 4.08387
# Velocity P-wave (km/s) = 6.30675 7.25655 6.79826
#
# Compressibility (1/GPa) = 0.02430432
#
# Stress axis : x y z
#
# Youngs Moduli (GPa) = 81.74863 48.92450 109.40609
#
# Poissons Ratio (x) = 0.13789 0.18787
# Poissons Ratio (y) = 0.23040 0.46153
# Poissons Ratio (z) = 0.14038 0.20639
#
# Static dielectric constant tensor:
#      x y z
#    x 1.790300 -0.005080 0.015060 
#    y -0.005080 1.807460 0.009900 
#    z 0.015060 0.009900 1.730750 
# 
# From -- ./inp_files/99576.got.cif
#   From: 2010.05.17/outbox.cif.g08.bks.cpg/sg2_50_cif.got.tgz:99576.got - 2010.06.03 11:33:40.
