data_PCOD9010186
_publ_section_title
;
Structure prediction by ZEFSAII (Michael W. Deem and Ramdas Pophale) SiO2 
 PCOD9010186
Probable space group: P -1
;
_chemical_formula_sum "Si O2"
_cell_formula_units_Z 16
_cell_length_a 11.088784
_cell_length_b 13.187786
_cell_length_c 12.061446
_cell_angle_alpha 146.027211
_cell_angle_beta 72.736452
_cell_angle_gamma 124.469866
_cell_volume 753.389513
_symmetry_space_group_name_H-M "P -1"
_symmetry_group_IT_number 2
_symmetry_cell_setting 'triclinic'
loop_
_space_group_symop_operation_xyz
x,y,z
-x,-y,-z
loop_
_atom_site_type_symbol
_atom_site_label
_atom_site_fract_x
_atom_site_fract_y
_atom_site_fract_z
Si Si1 0.554785 0.028924 0.384116
Si Si2 0.923293 0.958288 0.361838
Si Si3 0.194663 0.255184 0.128088
Si Si4 0.300611 0.096395 0.473662
Si Si5 0.081508 0.545267 0.348902
Si Si6 0.987203 0.339179 0.953681
Si Si7 0.057337 0.220048 0.338727
Si Si8 0.496761 0.565810 0.931676
O O1 0.452185 0.101112 0.423307
O O2 0.500000 0.000000 0.500000
O O3 0.740574 0.221696 0.492376
O O4 0.501674 0.786936 0.134960
O O5 0.785762 0.983011 0.452491
O O6 0.031197 0.128580 0.388832
O O7 0.000000 0.000000 0.500000
O O8 0.883569 0.713938 0.123311
O O9 0.102893 0.360831 0.219552
O O10 0.348793 0.371977 0.117791
O O11 0.205916 0.276949 0.278616
O O12 0.088842 0.996695 0.882925
O O13 0.358309 0.354174 0.703721
O O14 0.174342 0.910979 0.252318
O O15 0.967686 0.586860 0.479857
O O16 0.005134 0.458806 0.170597
O O17 0.000000 0.500000 0.000000
O O18 0.500000 0.500000 0.000000
#
# Coordination Sequence:
#
# PCOD9010186 Si02
#       8
#     2   2   2   2   2   2   2   2
#     4  12  22  35  60  91 129 164 211 268 323 377
#     4  10  21  40  62  90 128 171 212 261 315 380
#     4  11  23  40  63  99 128 171 212 274 318 384
#     4  11  24  39  60  95 129 165 209 263 328 381
#     4  12  22  40  63  95 129 167 218 265 324 378
#     4  11  24  38  62  94 134 167 214 267 321 382
#     4  11  22  40  64  94 132 167 220 266 323 378
#     4  12  23  38  64  91 131 168 213 266 325 379
#
# _framework density 21.237355999999998
#
# number of rings (size 3 to 8) (size 9 to 14) (size 15 to 20)
#    0.000    0.750    5.000    4.125    3.500    0.000 
#    0.000    0.000    0.000    3.750    0.000    0.000 
#    0.000    0.000    0.000    0.000    0.000    0.000 
#
# Total GULP energy -89201.415084 kJ/mol
# GULP energy per Si atom -5575.088443 kJ/mol
# Density = 2.118902 g / cm^3
# Si number density = 21.237356 Si / 1000 Ang^3
#
#
#
# Elastic Constant Matrix: (Units=GPa)
#
#
# Indices 1 2 3 4 5 6 
#
# 1 53.8470 15.7907 39.7822 -2.7990 -9.8044 4.0890
# 2 15.7907 89.6687 34.4295 -21.9026 -1.0248 3.1103
# 3 39.7822 34.4295 173.3885 5.4247 -12.2686 5.3679
# 4 -2.7990 -21.9026 5.4247 49.8245 5.7441 -6.1130
# 5 -9.8044 -1.0248 -12.2686 5.7441 42.7287 5.1721
# 6 4.0890 3.1103 5.3679 -6.1130 5.1721 32.5536
#
#
#
# Elastic Compliance Matrix: (Units=1/GPa)
#
#
# Indices 1 2 3 4 5 6 
#
# 1 0.023616 -0.002259 -0.004577 -0.000003 0.004377 -0.002692
# 2 -0.002259 0.014166 -0.002674 0.006735 -0.001966 0.000948
# 3 -0.004577 -0.002674 0.007574 -0.002576 0.001546 -0.001148
# 4 -0.000003 0.006735 -0.002576 0.024452 -0.004482 0.005085
# 5 0.004377 -0.001966 0.001546 -0.004482 0.026085 -0.005603
# 6 -0.002692 0.000948 -0.001148 0.005085 -0.005603 0.033000
#
#
# Mechanical properties :
#
#
# Convention : Reuss Voigt Hill
#
# Bulk Modulus (GPa) = 37.96900 55.21211 46.59056
# Shear Modulus (GPa) = 31.90975 40.14814 36.02895
#
# Velocity S-wave (km/s) = 3.88045 4.35265 4.12331
# Velocity P-wave (km/s) = 6.16396 7.16343 6.68241
#
# Compressibility (1/GPa) = 0.02633727
#
# Stress axis : x y z
#
# Youngs Moduli (GPa) = 42.34399 70.59010 132.03126
#
# Poissons Ratio (x) = 0.15945 0.60429
# Poissons Ratio (y) = 0.09565 0.35304
# Poissons Ratio (z) = 0.19380 0.18875
#
# Static dielectric constant tensor:
#      x y z
#    x 1.897140 0.023860 -0.007090 
#    y 0.023860 1.903410 -0.008620 
#    z -0.007090 -0.008620 1.776280 
# 
# From -- ./inp_files/433486.got.cif
#   From: 2010.05.17/outbox.cif.g08.bks.cpg/sg2_217_cif.got.tgz:433486.got - 2010.06.03 11:33:40.
