data_PCOD9010870
_publ_section_title
;
Structure prediction by ZEFSAII (Michael W. Deem and Ramdas Pophale) SiO2 
 PCOD9010870
Probable space group: P -1
;
_chemical_formula_sum "Si O2"
_cell_formula_units_Z 16
_cell_length_a 25.161618
_cell_length_b 5.107362
_cell_length_c 5.447700
_cell_angle_alpha 79.574301
_cell_angle_beta 78.584500
_cell_angle_gamma 60.125566
_cell_volume 592.243688
_symmetry_space_group_name_H-M "P -1"
_symmetry_group_IT_number 2
_symmetry_cell_setting 'triclinic'
loop_
_space_group_symop_operation_xyz
x,y,z
-x,-y,-z
loop_
_atom_site_type_symbol
_atom_site_label
_atom_site_fract_x
_atom_site_fract_y
_atom_site_fract_z
Si Si1 0.142549 0.005709 0.795782
Si Si2 0.884462 0.468136 0.926551
Si Si3 0.259143 0.429818 0.659167
Si Si4 0.359916 0.589196 0.144423
Si Si5 0.615373 0.900038 0.189522
Si Si6 0.512647 0.632486 0.712353
Si Si7 0.765505 0.843500 0.762061
Si Si8 0.985864 0.813851 0.345074
O O1 0.210880 0.785431 0.674186
O O2 0.085456 0.033598 0.684440
O O3 0.134358 0.796079 0.050338
O O4 0.131785 0.326649 0.848134
O O5 0.839296 0.728180 0.731667
O O6 0.958558 0.298410 0.882667
O O7 0.332126 0.310394 0.631594
O O8 0.245821 0.307067 0.441571
O O9 0.246121 0.283570 0.943887
O O10 0.414950 0.476905 0.310509
O O11 0.288673 0.808580 0.241570
O O12 0.368341 0.298266 0.037452
O O13 0.374976 0.806719 0.913072
O O14 0.543131 0.021670 0.287401
O O15 0.500000 0.500000 0.500000
O O16 0.500000 0.500000 0.000000
O O17 0.000000 0.500000 0.500000
O O18 0.000000 0.000000 0.500000
#
# Coordination Sequence:
#
# PCOD9010870 Si02
#       8
#     2   2   2   2   2   2   2   2
#     4  11  23  42  64  92 128 173 217 268 325 389
#     4  11  23  42  64  92 128 173 217 268 325 389
#     4  10  22  42  66  96 131 172 218 270 326 388
#     4  10  21  41  64  95 130 172 218 270 326 388
#     4  10  21  41  64  95 130 172 218 270 326 388
#     4  10  21  40  64  94 130 172 218 270 326 388
#     4  10  22  42  66  96 131 172 218 270 326 388
#     4  12  24  40  64  96 130 172 217 270 325 388
#
# _framework density 27.015905
#
# number of rings (size 3 to 8) (size 9 to 14) (size 15 to 20)
#    0.000    1.500    0.000    4.875    0.000    2.000 
#    0.000   35.000    0.000    0.000    0.000    0.000 
#    0.000    0.000    0.000    0.000    0.000    0.000 
#
# Total GULP energy -89536.240115 kJ/mol
# GULP energy per Si atom -5596.015007 kJ/mol
# Density = 2.695442 g / cm^3
# Si number density = 27.015905 Si / 1000 Ang^3
#
#
#
# Elastic Constant Matrix: (Units=GPa)
#
#
# Indices 1 2 3 4 5 6 
#
# 1 166.0350 44.1804 55.9401 6.4842 8.2930 -47.4577
# 2 44.1804 163.7660 46.2574 11.6078 11.3545 -45.4313
# 3 55.9401 46.2574 133.1089 24.9567 26.5249 -12.7749
# 4 6.4842 11.6078 24.9567 57.5661 -4.4463 11.1352
# 5 8.2930 11.3545 26.5249 -4.4463 70.6708 -4.5468
# 6 -47.4577 -45.4313 -12.7749 11.1352 -4.5468 73.1726
#
#
#
# Elastic Compliance Matrix: (Units=1/GPa)
#
#
# Indices 1 2 3 4 5 6 
#
# 1 0.008516 -0.000006 -0.003067 -0.000581 0.000444 0.005100
# 2 -0.000006 0.008200 -0.001955 -0.001801 -0.000375 0.004997
# 3 -0.003067 -0.001955 0.010908 -0.004102 -0.003736 -0.000907
# 4 -0.000581 -0.001801 -0.004102 0.020806 0.002872 -0.005198
# 5 0.000444 -0.000375 -0.003736 0.002872 0.015738 -0.000056
# 6 0.005100 0.004997 -0.000907 -0.005198 -0.000056 0.020706
#
#
# Mechanical properties :
#
#
# Convention : Reuss Voigt Hill
#
# Bulk Modulus (GPa) = 56.92472 83.96284 70.44378
# Shear Modulus (GPa) = 49.61056 61.38404 55.49730
#
# Velocity S-wave (km/s) = 4.28991 4.77187 4.53730
# Velocity P-wave (km/s) = 6.75680 7.84267 7.31990
#
# Compressibility (1/GPa) = 0.01756706
#
# Stress axis : x y z
#
# Youngs Moduli (GPa) = 117.42631 121.95223 91.67750
#
# Poissons Ratio (x) = 0.00072 0.28118
# Poissons Ratio (y) = 0.00070 0.17926
# Poissons Ratio (z) = 0.36016 0.23846
#
# Static dielectric constant tensor:
#      x y z
#    x 2.268700 -0.053850 -0.245190 
#    y -0.053850 2.139400 -0.111360 
#    z -0.245190 -0.111360 2.276620 
# 
# From -- ./inp_files/127920.got.cif
#   From: 2010.05.17/outbox.cif.g08.bks.cpg/sg2_64_cif.got.tgz:127920.got - 2010.06.03 11:33:40.
