data_PCOD9010812
_publ_section_title
;
Structure prediction by ZEFSAII (Michael W. Deem and Ramdas Pophale) SiO2 
 PCOD9010812
Probable space group: P -1
;
_chemical_formula_sum "Si O2"
_cell_formula_units_Z 16
_cell_length_a 12.875587
_cell_length_b 22.066168
_cell_length_c 19.002752
_cell_angle_alpha 17.920722
_cell_angle_beta 153.175637
_cell_angle_gamma 150.825634
_cell_volume 738.334380
_symmetry_space_group_name_H-M "P -1"
_symmetry_group_IT_number 2
_symmetry_cell_setting 'triclinic'
loop_
_space_group_symop_operation_xyz
x,y,z
-x,-y,-z
loop_
_atom_site_type_symbol
_atom_site_label
_atom_site_fract_x
_atom_site_fract_y
_atom_site_fract_z
Si Si1 0.555247 0.151559 0.431126
Si Si2 0.112940 0.241758 0.149163
Si Si3 0.225057 0.852389 0.281931
Si Si4 0.974713 0.592208 0.607963
Si Si5 0.405406 0.373948 0.309867
Si Si6 0.598182 0.736129 0.299526
Si Si7 0.735213 0.717683 0.190153
Si Si8 0.694306 0.943124 0.275879
O O1 0.316792 0.202030 0.263784
O O2 0.687502 0.087683 0.651487
O O3 0.749635 0.333471 0.319622
O O4 0.500000 0.000000 0.500000
O O5 0.222420 0.369262 0.141677
O O6 0.959124 0.043644 0.306531
O O7 0.948690 0.370923 0.867095
O O8 0.369164 0.692257 0.517023
O O9 0.951916 0.762057 0.217567
O O10 0.282945 0.057414 0.047331
O O11 0.862292 0.742789 0.423304
O O12 0.833178 0.597491 0.444562
O O13 0.497212 0.589933 0.159617
O O14 0.321941 0.203495 0.505540
O O15 0.500000 0.500000 0.500000
O O16 0.600558 0.813066 0.295146
O O17 0.454281 0.874513 0.013757
#
# Coordination Sequence:
#
# PCOD9010812 Si02
#       8
#     2   2   2   2   2   2   2   2
#     4  10  22  40  65  93 128 167 209 261 324 382
#     4  11  24  43  62  94 133 166 213 261 318 384
#     4   9  21  41  62  93 126 163 214 264 309 379
#     4  11  22  41  65  96 124 166 214 265 317 378
#     4  11  23  40  64  89 128 170 211 258 316 377
#     4  11  22  41  67  93 128 163 217 267 309 375
#     4  10  21  40  64  93 124 165 214 260 319 371
#     4  11  24  41  65  95 127 174 213 262 316 369
#
# _framework density 21.670397999999999
#
# number of rings (size 3 to 8) (size 9 to 14) (size 15 to 20)
#    0.000    1.500    1.250    3.375    3.500    0.000 
#    6.750    0.625    0.000    0.000    0.000    0.000 
#    0.000    0.000    0.000    0.000    0.000    0.000 
#
# Total GULP energy -89347.945535 kJ/mol
# GULP energy per Si atom -5584.246596 kJ/mol
# Density = 2.162108 g / cm^3
# Si number density = 21.670398 Si / 1000 Ang^3
#
#
#
# Elastic Constant Matrix: (Units=GPa)
#
#
# Indices 1 2 3 4 5 6 
#
# 1 92.3866 22.5283 22.8877 -0.8450 -8.4781 8.2126
# 2 22.5283 96.1593 15.0093 -14.4810 -8.2398 1.6875
# 3 22.8877 15.0093 69.1702 -5.0654 -9.0943 5.6973
# 4 -0.8450 -14.4810 -5.0654 24.8146 6.7113 0.6649
# 5 -8.4781 -8.2398 -9.0943 6.7113 30.9764 6.7730
# 6 8.2126 1.6875 5.6973 0.6649 6.7730 26.6094
#
#
#
# Elastic Compliance Matrix: (Units=1/GPa)
#
#
# Indices 1 2 3 4 5 6 
#
# 1 0.012847 -0.002542 -0.003122 -0.002476 0.003316 -0.003918
# 2 -0.002542 0.012249 -0.001221 0.006600 0.000796 -0.000098
# 3 -0.003122 -0.001221 0.016720 0.001559 0.004189 -0.003644
# 4 -0.002476 0.006600 0.001559 0.046743 -0.008830 0.001091
# 5 0.003316 0.000796 0.004189 -0.008830 0.039104 -0.011703
# 6 -0.003918 -0.000098 -0.003644 0.001091 -0.011703 0.042528
#
#
# Mechanical properties :
#
#
# Convention : Reuss Voigt Hill
#
# Bulk Modulus (GPa) = 35.65491 42.06299 38.85895
# Shear Modulus (GPa) = 25.86501 29.63280 27.74891
#
# Velocity S-wave (km/s) = 3.45855 3.70189 3.58229
# Velocity P-wave (km/s) = 5.69541 6.14203 5.92293
#
# Compressibility (1/GPa) = 0.02804663
#
# Stress axis : x y z
#
# Youngs Moduli (GPa) = 77.83644 81.63645 59.80846
#
# Poissons Ratio (x) = 0.20756 0.18672
# Poissons Ratio (y) = 0.19790 0.07301
# Poissons Ratio (z) = 0.24300 0.09965
#
# Static dielectric constant tensor:
#      x y z
#    x 1.816600 0.032050 -0.001220 
#    y 0.032050 1.793090 -0.002930 
#    z -0.001220 -0.002930 1.789420 
# 
# From -- ./inp_files/346449.got.cif
#   From: 2010.05.17/outbox.cif.g08.bks.cpg/sg2_174_cif.got.tgz:346449.got - 2010.06.03 11:33:40.
