data_PCOD9010433
_publ_section_title
;
Structure prediction by ZEFSAII (Michael W. Deem and Ramdas Pophale) SiO2 
 PCOD9010433
Probable space group: P -1
;
_chemical_formula_sum "Si O2"
_cell_formula_units_Z 15
_cell_length_a 8.602599
_cell_length_b 7.164037
_cell_length_c 16.870593
_cell_angle_alpha 66.743188
_cell_angle_beta 140.422729
_cell_angle_gamma 129.909950
_cell_volume 497.440055
_symmetry_space_group_name_H-M "P -1"
_symmetry_group_IT_number 2
_symmetry_cell_setting 'triclinic'
loop_
_space_group_symop_operation_xyz
x,y,z
-x,-y,-z
loop_
_atom_site_type_symbol
_atom_site_label
_atom_site_fract_x
_atom_site_fract_y
_atom_site_fract_z
Si Si1 0.141639 0.074948 0.652061
Si Si2 0.500000 0.500000 0.000000
Si Si3 0.646119 0.598224 0.686412
Si Si4 0.993672 0.131648 0.072559
Si Si5 0.421200 0.189907 0.915149
Si Si6 0.931741 0.442799 0.718226
Si Si7 0.392965 0.974600 0.204031
Si Si8 0.218576 0.736772 0.491082
O O1 0.362168 0.328767 0.645104
O O2 0.255232 0.132294 0.778056
O O3 0.259049 0.916995 0.688495
O O4 0.835726 0.056407 0.537800
O O5 0.644774 0.474864 0.973497
O O6 0.274618 0.562022 0.852382
O O7 0.887244 0.687669 0.836059
O O8 0.800381 0.603143 0.664474
O O9 0.537460 0.779150 0.616675
O O10 0.270337 0.138290 0.147538
O O11 0.778912 0.848996 0.076474
O O12 0.776064 0.146004 0.926072
O O13 0.500000 0.000000 0.000000
O O14 0.741121 0.221913 0.744539
O O15 0.867431 0.342531 0.620703
O O16 0.000000 0.500000 0.500000
#
# Coordination Sequence:
#
# PCOD9010433 Si02
#       8
#     2   1   2   2   2   2   2   2
#     4  10  21  40  63  90 128 171 217 266 326 381
#     4  12  24  38  70  98 132 180 208 270 350 394
#     4  10  24  39  67  92 127 179 221 263 324 393
#     4  11  22  40  58  97 136 167 212 264 332 395
#     4  12  23  40  62  99 138 168 213 273 329 399
#     4  11  22  39  63  94 125 168 220 267 328 391
#     4  10  22  37  61  88 132 166 202 273 327 386
#     4  10  21  42  64  92 126 168 226 276 312 390
#
# _framework density 30.154387
#
# number of rings (size 3 to 8) (size 9 to 14) (size 15 to 20)
#    0.000    1.333    4.000    1.200    1.867    1.067 
#    0.000    3.333    0.000    1.600    0.000    0.000 
#    0.000    0.000    0.000    0.000    0.000    0.000 
#
# Total GULP energy -83901.809191 kJ/mol
# GULP energy per Si atom -5593.453946 kJ/mol
# Density = 3.008575 g / cm^3
# Si number density = 30.154387 Si / 1000 Ang^3
#
#
#
# Elastic Constant Matrix: (Units=GPa)
#
#
# Indices 1 2 3 4 5 6 
#
# 1 217.4587 51.2729 83.4885 -22.8196 24.0991 -13.4817
# 2 51.2729 87.9022 15.7655 -27.4993 26.0291 -25.1661
# 3 83.4885 15.7655 166.4033 -9.5207 -5.6685 -29.0575
# 4 -22.8196 -27.4993 -9.5207 47.4234 -15.7126 8.4743
# 5 24.0991 26.0291 -5.6685 -15.7126 63.0398 -18.8903
# 6 -13.4817 -25.1661 -29.0575 8.4743 -18.8903 68.0568
#
#
#
# Elastic Compliance Matrix: (Units=1/GPa)
#
#
# Indices 1 2 3 4 5 6 
#
# 1 0.006858 -0.003177 -0.003532 0.000398 -0.002116 -0.001961
# 2 -0.003177 0.017365 0.001064 0.007027 -0.002726 0.004615
# 3 -0.003532 0.001064 0.008558 0.000945 0.003145 0.004103
# 4 0.000398 0.007027 0.000945 0.026696 0.003940 0.000850
# 5 -0.002116 -0.002726 0.003145 0.003940 0.020604 0.005144
# 6 -0.001961 0.004615 0.004103 0.000850 0.005144 0.019086
#
#
# Mechanical properties :
#
#
# Convention : Reuss Voigt Hill
#
# Bulk Modulus (GPa) = 46.52974 85.86868 66.19921
# Shear Modulus (GPa) = 42.50933 57.11983 49.81458
#
# Velocity S-wave (km/s) = 3.75870 4.35702 4.06887
# Velocity P-wave (km/s) = 5.85672 7.33823 6.63893
#
# Compressibility (1/GPa) = 0.02149163
#
# Stress axis : x y z
#
# Youngs Moduli (GPa) = 145.80776 57.58618 116.84487
#
# Poissons Ratio (x) = 0.18297 0.41266
# Poissons Ratio (y) = 0.46329 -0.12432
# Poissons Ratio (z) = 0.51495 -0.06127
#
# Static dielectric constant tensor:
#      x y z
#    x 2.577830 -0.024440 -0.059910 
#    y -0.024440 2.687370 0.045010 
#    z -0.059910 0.045010 2.302130 
# 
# From -- ./inp_files/171110.got.cif
#   From: 2010.05.17/outbox.cif.g08.bks.cpg/sg2_86_cif.got.tgz:171110.got - 2010.06.03 11:33:40.
