data_PCOD9010338
_publ_section_title
;
Structure prediction by ZEFSAII (Michael W. Deem and Ramdas Pophale) SiO2 
 PCOD9010338
Probable space group: P -1
;
_chemical_formula_sum "Si O2"
_cell_formula_units_Z 16
_cell_length_a 7.890325
_cell_length_b 7.141768
_cell_length_c 14.547132
_cell_angle_alpha 99.806702
_cell_angle_beta 67.980742
_cell_angle_gamma 120.941480
_cell_volume 651.543768
_symmetry_space_group_name_H-M "P -1"
_symmetry_group_IT_number 2
_symmetry_cell_setting 'triclinic'
loop_
_space_group_symop_operation_xyz
x,y,z
-x,-y,-z
loop_
_atom_site_type_symbol
_atom_site_label
_atom_site_fract_x
_atom_site_fract_y
_atom_site_fract_z
Si Si1 0.064854 0.344762 0.684325
Si Si2 0.415590 0.670926 0.532361
Si Si3 0.863516 0.012311 0.445646
Si Si4 0.412531 0.471326 0.146418
Si Si5 0.188854 0.502631 0.370324
Si Si6 0.819150 0.722290 0.991312
Si Si7 0.255328 0.884033 0.927646
Si Si8 0.692707 0.164392 0.873487
O O1 0.897403 0.348130 0.645397
O O2 0.923941 0.261404 0.795018
O O3 0.260674 0.586484 0.645358
O O4 0.136120 0.165753 0.638587
O O5 0.500000 0.500000 0.500000
O O6 0.619494 0.909394 0.514397
O O7 0.291992 0.607981 0.455217
O O8 0.000000 0.000000 0.500000
O O9 0.993903 0.257432 0.402655
O O10 0.346165 0.476087 0.264813
O O11 0.257362 0.270345 0.096978
O O12 0.374641 0.654664 0.119129
O O13 0.646339 0.530108 0.075874
O O14 0.808530 0.925195 0.059661
O O15 0.023167 0.692580 0.935543
O O16 0.288660 0.870609 0.027183
O O17 0.489443 0.954365 0.849421
#
# Coordination Sequence:
#
# PCOD9010338 Si02
#       8
#     2   2   2   2   2   2   2   2
#     4  10  22  40  60  88 122 155 198 248 294 350
#     4  10  21  40  63  86 120 156 194 247 295 351
#     4  11  23  41  63  89 118 158 201 241 297 360
#     4   9  20  36  55  81 113 149 189 235 289 345
#     4  11  22  42  61  88 124 156 196 251 294 350
#     4   9  18  35  56  82 112 149 189 231 287 345
#     4   9  18  34  57  82 113 148 188 233 285 344
#     4   9  19  36  55  80 115 149 183 241 288 337
#
# _framework density 24.55706
#
# number of rings (size 3 to 8) (size 9 to 14) (size 15 to 20)
#    0.000    2.250    2.500    0.375    1.750    3.000 
#    6.750    1.250    0.000    0.000    0.000    0.000 
#    0.000    0.000    0.000    0.000    0.000    0.000 
#
# Total GULP energy -89075.116179 kJ/mol
# GULP energy per Si atom -5567.194761 kJ/mol
# Density = 2.450117 g / cm^3
# Si number density = 24.557060 Si / 1000 Ang^3
#
#
#
# Elastic Constant Matrix: (Units=GPa)
#
#
# Indices 1 2 3 4 5 6 
#
# 1 51.9766 20.9264 12.4702 -15.0705 -9.4409 6.9880
# 2 20.9264 89.7743 31.9293 -21.2425 -4.6573 9.5207
# 3 12.4702 31.9293 130.8939 -31.1629 -29.9654 22.1455
# 4 -15.0705 -21.2425 -31.1629 25.7358 1.8943 -11.1277
# 5 -9.4409 -4.6573 -29.9654 1.8943 34.6961 -11.7207
# 6 6.9880 9.5207 22.1455 -11.1277 -11.7207 40.8628
#
#
#
# Elastic Compliance Matrix: (Units=1/GPa)
#
#
# Indices 1 2 3 4 5 6 
#
# 1 0.026425 -0.003076 0.004797 0.018705 0.010471 0.001696
# 2 -0.003076 0.014294 -0.001290 0.008502 -0.000471 0.000075
# 3 0.004797 -0.001290 0.014993 0.019069 0.013148 0.000319
# 4 0.018705 0.008502 0.019069 0.084285 0.022823 0.013984
# 5 0.010471 -0.000471 0.013148 0.022823 0.045223 0.010380
# 6 0.001696 0.000075 0.000319 0.013984 0.010380 0.030778
#
#
# Mechanical properties :
#
#
# Convention : Reuss Voigt Hill
#
# Bulk Modulus (GPa) = 17.67627 44.81073 31.24350
# Shear Modulus (GPa) = 21.36794 34.08018 27.72406
#
# Velocity S-wave (km/s) = 2.95300 3.72935 3.36365
# Velocity P-wave (km/s) = 4.34058 6.06888 5.27598
#
# Compressibility (1/GPa) = 0.05657303
#
# Stress axis : x y z
#
# Youngs Moduli (GPa) = 37.84339 69.95767 66.69580
#
# Poissons Ratio (x) = 0.21519 -0.31991
# Poissons Ratio (y) = 0.11641 0.08605
# Poissons Ratio (z) = -0.18152 0.09026
#
# Static dielectric constant tensor:
#      x y z
#    x 2.006790 0.129660 -0.087600 
#    y 0.129660 2.354310 -0.067160 
#    z -0.087600 -0.067160 2.008930 
# 
# From -- ./inp_files/556276.got.cif
#   From: 2010.05.17/outbox.cif.g08.bks.cpg/sg2_279_cif.got.tgz:556276.got - 2010.06.03 11:33:40.
