data_PCOD9010660
_publ_section_title
;
Structure prediction by ZEFSAII (Michael W. Deem and Ramdas Pophale) SiO2 
 PCOD9010660
Probable space group: P -1
;
_chemical_formula_sum "Si O2"
_cell_formula_units_Z 10
_cell_length_a 8.993437
_cell_length_b 9.455261
_cell_length_c 13.005092
_cell_angle_alpha 136.050003
_cell_angle_beta 145.276698
_cell_angle_gamma 63.959080
_cell_volume 403.251910
_symmetry_space_group_name_H-M "P -1"
_symmetry_group_IT_number 2
_symmetry_cell_setting 'triclinic'
loop_
_space_group_symop_operation_xyz
x,y,z
-x,-y,-z
loop_
_atom_site_type_symbol
_atom_site_label
_atom_site_fract_x
_atom_site_fract_y
_atom_site_fract_z
Si Si1 0.200995 0.021534 0.353519
Si Si2 0.099275 0.772741 0.871626
Si Si3 0.643664 0.205620 0.424174
Si Si4 0.232241 0.380190 0.181266
Si Si5 0.201754 0.361190 0.705178
O O1 0.220213 0.186055 0.543236
O O2 0.080350 0.123239 0.243758
O O3 0.500000 0.000000 0.500000
O O4 0.957468 0.773919 0.095617
O O5 0.120424 0.559940 0.718826
O O6 0.957505 0.698772 0.863848
O O7 0.410879 0.959717 0.166413
O O8 0.503882 0.319924 0.321367
O O9 0.674036 0.357661 0.621769
O O10 0.950383 0.233080 0.574850
O O11 0.500000 0.500000 0.000000
#
# Coordination Sequence:
#
# PCOD9010660 Si02
#       5
#     2   2   2   2   2
#     4  11  21  37  61  87 117 154 195 239 289 343
#     4  10  21  40  64  86 117 156 190 237 294 345
#     4   9  18  36  61  85 117 152 192 235 290 345
#     4   9  19  36  62  89 116 151 191 239 289 344
#     4  11  24  40  59  86 120 155 195 242 287 341
#
# _framework density 24.798393999999998
#
# number of rings (size 3 to 8) (size 9 to 14) (size 15 to 20)
#    0.000    2.000    0.000    5.400    0.000    4.000 
#    0.000    4.000    0.000   50.400    0.000    0.000 
#    0.000    0.000    0.000    0.000    0.000    0.000 
#
# Total GULP energy -55954.187476 kJ/mol
# GULP energy per Si atom -5595.418748 kJ/mol
# Density = 2.474195 g / cm^3
# Si number density = 24.798394 Si / 1000 Ang^3
#
#
#
# Elastic Constant Matrix: (Units=GPa)
#
#
# Indices 1 2 3 4 5 6 
#
# 1 100.5690 40.3695 78.2540 21.1461 21.3465 -27.9329
# 2 40.3695 114.5877 65.4648 -2.9277 -6.1948 -22.3103
# 3 78.2540 65.4648 231.3243 37.1959 13.2597 -22.1719
# 4 21.1461 -2.9277 37.1959 49.0411 -12.8237 -9.0234
# 5 21.3465 -6.1948 13.2597 -12.8237 57.1108 9.7036
# 6 -27.9329 -22.3103 -22.1719 -9.0234 9.7036 45.0683
#
#
#
# Elastic Compliance Matrix: (Units=1/GPa)
#
#
# Indices 1 2 3 4 5 6 
#
# 1 0.020891 -0.004596 -0.002843 -0.008206 -0.011196 0.010042
# 2 -0.004596 0.013201 -0.003397 0.007120 0.005140 0.002334
# 3 -0.002843 -0.003397 0.007113 -0.004986 -0.001989 -0.000515
# 4 -0.008206 0.007120 -0.004986 0.031226 0.012070 -0.000362
# 5 -0.011196 0.005140 -0.001989 0.012070 0.026911 -0.008751
# 6 0.010042 0.002334 -0.000515 -0.000362 -0.008751 0.031127
#
#
# Mechanical properties :
#
#
# Convention : Reuss Voigt Hill
#
# Bulk Modulus (GPa) = 51.19328 90.51751 70.85540
# Shear Modulus (GPa) = 31.51565 47.73688 39.62627
#
# Velocity S-wave (km/s) = 3.56880 4.39224 4.00176
# Velocity P-wave (km/s) = 6.13762 7.89322 7.07013
#
# Compressibility (1/GPa) = 0.01953381
#
# Stress axis : x y z
#
# Youngs Moduli (GPa) = 47.86670 75.75195 140.59683
#
# Poissons Ratio (x) = 0.34812 0.39971
# Poissons Ratio (y) = 0.21998 0.47761
# Poissons Ratio (z) = 0.13608 0.25733
#
# Static dielectric constant tensor:
#      x y z
#    x 1.946160 0.033670 -0.000270 
#    y 0.033670 2.049120 0.016190 
#    z -0.000270 0.016190 1.981320 
# 
# From -- ./inp_files/230517.got.cif
#   From: 2010.05.17/outbox.cif.g08.bks.cpg/sg2_116_cif.got.tgz:230517.got - 2010.06.03 11:33:40.
