data_PCOD9010409
_publ_section_title
;
Structure prediction by ZEFSAII (Michael W. Deem and Ramdas Pophale) SiO2 
 PCOD9010409
Probable space group: P -1
;
_chemical_formula_sum "Si O2"
_cell_formula_units_Z 16
_cell_length_a 8.137768
_cell_length_b 8.203655
_cell_length_c 20.697152
_cell_angle_alpha 36.604685
_cell_angle_beta 58.114251
_cell_angle_gamma 51.625952
_cell_volume 644.606426
_symmetry_space_group_name_H-M "P -1"
_symmetry_group_IT_number 2
_symmetry_cell_setting 'triclinic'
loop_
_space_group_symop_operation_xyz
x,y,z
-x,-y,-z
loop_
_atom_site_type_symbol
_atom_site_label
_atom_site_fract_x
_atom_site_fract_y
_atom_site_fract_z
Si Si1 0.465542 0.916068 0.960743
Si Si2 0.493079 0.369887 0.337612
Si Si3 0.302440 0.265160 0.764698
Si Si4 0.906850 0.668795 0.876772
Si Si5 0.874152 0.762704 0.490781
Si Si6 0.094261 0.163384 0.325010
Si Si7 0.078994 0.903183 0.880703
Si Si8 0.656696 0.483548 0.810734
O O1 0.417641 0.623002 0.074784
O O2 0.677658 0.839952 0.900984
O O3 0.500000 0.000000 0.000000
O O4 0.293871 0.154031 0.875462
O O5 0.515931 0.604589 0.309866
O O6 0.267676 0.348732 0.398569
O O7 0.496186 0.476489 0.230426
O O8 0.689048 0.056980 0.405536
O O9 0.103371 0.558973 0.695829
O O10 0.273795 0.005765 0.812202
O O11 0.915853 0.785210 0.766589
O O12 0.063521 0.746939 0.866646
O O13 0.932146 0.329347 0.989221
O O14 0.000000 0.500000 0.500000
O O15 0.048133 0.878397 0.444451
O O16 0.296563 0.220741 0.286474
O O17 0.871298 0.201201 0.839024
#
# Coordination Sequence:
#
# PCOD9010409 Si02
#       8
#     2   2   2   2   2   2   2   2
#     4  12  22  36  58  91 133 175 205 248 314 377
#     4  10  22  44  71  93 127 169 212 264 330 383
#     4  10  21  40  63  89 129 174 206 253 314 385
#     4  11  23  38  58  93 133 171 211 262 303 372
#     4  10  24  44  70  94 123 166 215 274 329 377
#     4  10  24  41  66  92 123 166 218 261 319 379
#     4  10  22  37  61  93 126 173 211 246 309 381
#     4  11  22  42  64  94 128 171 208 255 320 388
#
# _framework density 24.821348
#
# number of rings (size 3 to 8) (size 9 to 14) (size 15 to 20)
#    0.000    1.500    2.500    1.500    5.250    4.500 
#    0.000    0.625    0.000    0.000    0.000    0.000 
#    0.000    0.000    0.000    0.000    0.000    0.000 
#
# Total GULP energy -89409.965773 kJ/mol
# GULP energy per Si atom -5588.122861 kJ/mol
# Density = 2.476485 g / cm^3
# Si number density = 24.821348 Si / 1000 Ang^3
#
#
#
# Elastic Constant Matrix: (Units=GPa)
#
#
# Indices 1 2 3 4 5 6 
#
# 1 82.0712 18.0093 33.1269 -6.5585 -35.1019 21.2205
# 2 18.0093 64.6874 33.7121 -12.0788 -13.8168 -10.5716
# 3 33.1269 33.7121 97.4378 -10.0397 -37.3189 6.2562
# 4 -6.5585 -12.0788 -10.0397 42.0750 5.7073 -6.2442
# 5 -35.1019 -13.8168 -37.3189 5.7073 56.0209 -11.4448
# 6 21.2205 -10.5716 6.2562 -6.2442 -11.4448 34.9568
#
#
#
# Elastic Compliance Matrix: (Units=1/GPa)
#
#
# Indices 1 2 3 4 5 6 
#
# 1 0.020205 -0.005265 -0.001270 -0.001457 0.008387 -0.011145
# 2 -0.005265 0.023565 -0.006475 0.006257 0.000146 0.012647
# 3 -0.001270 -0.006475 0.016153 0.000506 0.008040 -0.001356
# 4 -0.001457 0.006257 0.000506 0.026581 -0.000238 0.007356
# 5 0.008387 0.000146 0.008040 -0.000238 0.029137 0.003011
# 6 -0.011145 0.012647 -0.001356 0.007356 0.003011 0.041739
#
#
# Mechanical properties :
#
#
# Convention : Reuss Voigt Hill
#
# Bulk Modulus (GPa) = 29.49491 45.98812 37.74151
# Shear Modulus (GPa) = 25.68042 37.23376 31.45709
#
# Velocity S-wave (km/s) = 3.22002 3.87728 3.56383
# Velocity P-wave (km/s) = 5.07281 6.21387 5.67211
#
# Compressibility (1/GPa) = 0.03390416
#
# Stress axis : x y z
#
# Youngs Moduli (GPa) = 49.49304 42.43500 61.90753
#
# Poissons Ratio (x) = 0.22343 0.07861
# Poissons Ratio (y) = 0.26060 0.40083
# Poissons Ratio (z) = 0.06284 0.27475
#
# Static dielectric constant tensor:
#      x y z
#    x 2.039700 -0.027590 -0.068350 
#    y -0.027590 1.994320 -0.028950 
#    z -0.068350 -0.028950 1.991930 
# 
# From -- ./inp_files/606306.got.cif
#   From: 2010.05.17/outbox.cif.g08.bks.cpg/sg2_304_cif.got.tgz:606306.got - 2010.06.03 11:33:40.
