data_PCOD9010679
_publ_section_title
;
Structure prediction by ZEFSAII (Michael W. Deem and Ramdas Pophale) SiO2 
 PCOD9010679
Probable space group: P -1
;
_chemical_formula_sum "Si O2"
_cell_formula_units_Z 16
_cell_length_a 10.975939
_cell_length_b 17.344668
_cell_length_c 28.601331
_cell_angle_alpha 22.487472
_cell_angle_beta 22.918165
_cell_angle_gamma 33.071648
_cell_volume 807.881345
_symmetry_space_group_name_H-M "P -1"
_symmetry_group_IT_number 2
_symmetry_cell_setting 'triclinic'
loop_
_space_group_symop_operation_xyz
x,y,z
-x,-y,-z
loop_
_atom_site_type_symbol
_atom_site_label
_atom_site_fract_x
_atom_site_fract_y
_atom_site_fract_z
Si Si1 0.739341 0.118595 0.499395
Si Si2 0.254741 0.387223 0.370942
Si Si3 0.093418 0.874437 0.284395
Si Si4 0.414919 0.288561 0.266965
Si Si5 0.127436 0.325279 0.986883
Si Si6 0.794460 0.822408 0.064605
Si Si7 0.170366 0.484596 0.151773
Si Si8 0.900447 0.764445 0.307829
O O1 0.463702 0.193039 0.587258
O O2 0.930369 0.322522 0.299948
O O3 0.583222 0.948335 0.615221
O O4 0.000000 0.000000 0.500000
O O5 0.263139 0.305782 0.361240
O O6 0.593876 0.507275 0.193521
O O7 0.161659 0.213932 0.538823
O O8 0.000734 0.551888 0.374262
O O9 0.431578 0.798820 0.219616
O O10 0.005098 0.791101 0.310343
O O11 0.140951 0.117474 0.127844
O O12 0.230378 0.398347 0.230284
O O13 0.774736 0.384703 0.085285
O O14 0.169464 0.260375 0.954557
O O15 0.015772 0.694820 0.088930
O O16 0.913394 0.057425 0.887148
O O17 0.500000 0.500000 0.000000
#
# Coordination Sequence:
#
# PCOD9010679 Si02
#       8
#     2   2   2   2   2   2   2   2
#     4  10  21  40  64  88 120 170 220 260 307 381
#     4  12  25  39  64  99 136 172 205 266 337 377
#     4  11  22  38  64  95 129 170 221 255 323 386
#     4  11  24  44  60  97 134 166 214 271 323 377
#     4  11  21  41  64  94 133 165 215 270 311 385
#     4  11  19  38  67  96 122 161 230 270 302 375
#     4  11  22  40  67  93 120 171 223 261 315 386
#     4  11  20  40  65  93 129 168 218 268 308 387
#
# _framework density 19.804887999999998
#
# number of rings (size 3 to 8) (size 9 to 14) (size 15 to 20)
#    0.000    1.000    6.250    3.000    1.750    0.500 
#    2.250    6.250    0.000    0.000    0.000    0.000 
#    0.000    0.000    0.000    0.000    0.000    0.000 
#
# Total GULP energy -89384.289996 kJ/mol
# GULP energy per Si atom -5586.518125 kJ/mol
# Density = 1.975981 g / cm^3
# Si number density = 19.804888 Si / 1000 Ang^3
#
#
#
# Elastic Constant Matrix: (Units=GPa)
#
#
# Indices 1 2 3 4 5 6 
#
# 1 28.6818 65.0871 26.1172 8.0700 18.0338 -9.7995
# 2 65.0871 35.6696 43.5677 6.8118 -2.3925 -15.3517
# 3 26.1172 43.5677 131.9739 11.1158 11.0824 -1.0407
# 4 8.0700 6.8118 11.1158 27.2923 -13.7921 -0.6013
# 5 18.0338 -2.3925 11.0824 -13.7921 24.9208 5.2179
# 6 -9.7995 -15.3517 -1.0407 -0.6013 5.2179 31.4001
#
#
#
# Elastic Compliance Matrix: (Units=1/GPa)
#
#
# Indices 1 2 3 4 5 6 
#
# 1 -0.004477 0.017802 -0.005966 0.003705 0.008443 0.005776
# 2 0.017802 0.003014 -0.000920 -0.017622 -0.024172 0.010678
# 3 -0.005966 -0.000920 0.009291 -0.002193 -0.000713 -0.001927
# 4 0.003705 -0.017622 -0.002193 0.055636 0.029784 -0.011416
# 5 0.008443 -0.024172 -0.000713 0.029784 0.052119 -0.017297
# 6 0.005776 0.010678 -0.001927 -0.011416 -0.017297 0.041462
#
#
# Mechanical properties :
#
#
# Convention : Reuss Voigt Hill
#
# Bulk Modulus (GPa) = 33.71547 51.76327 42.73937
# Shear Modulus (GPa) = 34.45913 20.82620 27.64266
#
# Velocity S-wave (km/s) = 4.17577 3.24631 3.74003
# Velocity P-wave (km/s) = 6.34903 6.34387 6.34645
#
# Compressibility (1/GPa) = 0.02965998
#
# Stress axis : x y z
#
# Youngs Moduli (GPa) = -223.35231 331.75141 107.63137
#
# Poissons Ratio (x) = -5.90588 0.64217
# Poissons Ratio (y) = 3.97614 0.09900
# Poissons Ratio (z) = -1.33260 0.30514
#
# Static dielectric constant tensor:
#      x y z
#    x 1.697020 -0.025750 -0.025330 
#    y -0.025750 1.711780 -0.017910 
#    z -0.025330 -0.017910 1.723110 
# 
# From -- ./inp_files/427354.got.cif
#   From: 2010.05.17/outbox.cif.g08.bks.cpg/sg2_214_cif.got.tgz:427354.got - 2010.06.03 11:33:40.
