data_PCOD9010717
_publ_section_title
;
Structure prediction by ZEFSAII (Michael W. Deem and Ramdas Pophale) SiO2 
 PCOD9010717
Probable space group: P -1
;
_chemical_formula_sum "Si O2"
_cell_formula_units_Z 16
_cell_length_a 5.672064
_cell_length_b 21.340265
_cell_length_c 4.892413
_cell_angle_alpha 103.742469
_cell_angle_beta 99.093131
_cell_angle_gamma 81.696950
_cell_volume 564.475847
_symmetry_space_group_name_H-M "P -1"
_symmetry_group_IT_number 2
_symmetry_cell_setting 'triclinic'
loop_
_space_group_symop_operation_xyz
x,y,z
-x,-y,-z
loop_
_atom_site_type_symbol
_atom_site_label
_atom_site_fract_x
_atom_site_fract_y
_atom_site_fract_z
Si Si1 0.275504 0.512422 0.276261
Si Si2 0.552438 0.797155 0.038828
Si Si3 0.930056 0.415775 0.173494
Si Si4 0.728019 0.084084 0.698128
Si Si5 0.312547 0.040185 0.209676
Si Si6 0.038568 0.161740 0.436175
Si Si7 0.448185 0.291363 0.571587
Si Si8 0.081592 0.692761 0.589066
O O1 0.500000 0.500000 0.500000
O O2 0.098906 0.557061 0.493776
O O3 0.166781 0.444518 0.138867
O O4 0.274698 0.550083 0.028766
O O5 0.368401 0.861807 0.043912
O O6 0.456187 0.745186 0.175384
O O7 0.779079 0.815279 0.275696
O O8 0.598675 0.762118 0.724405
O O9 0.928122 0.339996 0.148354
O O10 0.484127 0.064937 0.497556
O O11 0.870510 0.119784 0.537998
O O12 0.843236 0.014904 0.759081
O O13 0.160278 0.108744 0.183463
O O14 0.500000 0.000000 0.000000
O O15 0.925355 0.229272 0.355377
O O16 0.657009 0.329712 0.522140
O O17 0.174763 0.323348 0.602393
#
# Coordination Sequence:
#
# PCOD9010717 Si02
#       8
#     2   2   2   2   2   2   2   2
#     4  10  22  46  76 107 153 201 253 309 368 438
#     4  10  24  43  67  97 135 188 238 302 365 442
#     4  10  24  43  72 113 150 197 257 308 370 450
#     4  10  21  40  64  89 130 176 238 298 374 432
#     4  10  23  39  63  96 128 178 244 307 367 441
#     4  10  22  44  65  96 140 185 238 304 376 445
#     4  11  26  45  70 103 150 191 241 298 368 444
#     4  11  26  46  73 111 150 197 245 308 378 447
#
# _framework density 28.344878999999999
#
# number of rings (size 3 to 8) (size 9 to 14) (size 15 to 20)
#    0.000    1.750    1.250    0.750    8.750    3.500 
#    4.500    0.000    0.000    0.000    0.000    0.000 
#    0.000    0.000    0.000    0.000    0.000    0.000 
#
# Total GULP energy -89581.090879 kJ/mol
# GULP energy per Si atom -5598.818180 kJ/mol
# Density = 2.828037 g / cm^3
# Si number density = 28.344879 Si / 1000 Ang^3
#
#
#
# Elastic Constant Matrix: (Units=GPa)
#
#
# Indices 1 2 3 4 5 6 
#
# 1 135.5971 62.0791 19.2468 -11.3777 7.1210 19.2774
# 2 62.0791 208.4503 52.3208 -35.3389 17.9524 24.7179
# 3 19.2468 52.3208 142.8635 -7.5610 -1.4256 8.0008
# 4 -11.3777 -35.3389 -7.5610 60.3128 0.9338 2.9786
# 5 7.1210 17.9524 -1.4256 0.9338 48.9513 -8.7133
# 6 19.2774 24.7179 8.0008 2.9786 -8.7133 36.4592
#
#
#
# Elastic Compliance Matrix: (Units=1/GPa)
#
#
# Indices 1 2 3 4 5 6 
#
# 1 0.008953 -0.001920 -0.000267 0.000735 -0.001286 -0.003740
# 2 -0.001920 0.007406 -0.002012 0.004010 -0.003409 -0.004706
# 3 -0.000267 -0.002012 0.007764 -0.000275 0.001020 0.000068
# 4 0.000735 0.004010 -0.000275 0.019342 -0.002901 -0.005320
# 5 -0.001286 -0.003409 0.001020 -0.002901 0.023485 0.008617
# 6 -0.003740 -0.004706 0.000068 -0.005320 0.008617 0.035076
#
#
# Mechanical properties :
#
#
# Convention : Reuss Voigt Hill
#
# Bulk Modulus (GPa) = 63.59655 83.80047 73.69851
# Shear Modulus (GPa) = 43.22840 52.69562 47.96201
#
# Velocity S-wave (km/s) = 3.90947 4.31639 4.11796
# Velocity P-wave (km/s) = 6.54706 7.38041 6.97619
#
# Compressibility (1/GPa) = 0.01572412
#
# Stress axis : x y z
#
# Youngs Moduli (GPa) = 111.69641 135.03213 128.79486
#
# Poissons Ratio (x) = 0.25930 0.03443
# Poissons Ratio (y) = 0.21449 0.25909
# Poissons Ratio (z) = 0.02986 0.27164
#
# Static dielectric constant tensor:
#      x y z
#    x 2.346520 -0.028040 -0.014300 
#    y -0.028040 2.264990 0.011560 
#    z -0.014300 0.011560 2.158330 
# 
# From -- ./inp_files/11421.got.cif
#   From: 2010.05.17/outbox.cif.g08.bks.cpg/sg2_6_cif.got.tgz:11421.got - 2010.06.03 11:33:40.
