data_PCOD9010322
_publ_section_title
;
Structure prediction by ZEFSAII (Michael W. Deem and Ramdas Pophale) SiO2 
 PCOD9010322
Probable space group: P -1
;
_chemical_formula_sum "Si O2"
_cell_formula_units_Z 12
_cell_length_a 15.273201
_cell_length_b 11.172283
_cell_length_c 8.441079
_cell_angle_alpha 54.882794
_cell_angle_beta 127.870422
_cell_angle_gamma 152.375511
_cell_volume 525.269421
_symmetry_space_group_name_H-M "P -1"
_symmetry_group_IT_number 2
_symmetry_cell_setting 'triclinic'
loop_
_space_group_symop_operation_xyz
x,y,z
-x,-y,-z
loop_
_atom_site_type_symbol
_atom_site_label
_atom_site_fract_x
_atom_site_fract_y
_atom_site_fract_z
Si Si1 0.131036 0.912730 0.476315
Si Si2 0.694287 0.136296 0.481728
Si Si3 0.180491 0.203656 0.835375
Si Si4 0.443965 0.332354 0.285656
Si Si5 0.975814 0.235967 0.168613
Si Si6 0.713225 0.220410 0.781708
O O1 0.156876 0.776461 0.541019
O O2 0.089039 0.876673 0.640988
O O3 0.954192 0.803752 0.275413
O O4 0.337762 0.215195 0.427231
O O5 0.758925 0.292767 0.590038
O O6 0.596093 0.881112 0.643090
O O7 0.521373 0.030622 0.277808
O O8 0.330089 0.391994 0.710732
O O9 0.038816 0.917064 0.845804
O O10 0.316573 0.300466 0.057139
O O11 0.187019 0.542304 0.187055
O O12 0.821253 0.190459 0.975070
#
# Coordination Sequence:
#
# PCOD9010322 Si02
#       6
#     2   2   2   2   2   2
#     4  10  22  37  63  90 118 150 204 246 298 345
#     4   9  20  41  61  86 115 160 204 238 285 356
#     4  11  20  40  62  90 121 156 194 246 305 349
#     4   9  21  38  62  89 115 159 200 242 292 351
#     4  11  22  37  60  93 121 158 189 251 304 340
#     4  10  21  40  63  82 126 159 200 238 291 361
#
# _framework density 22.845420000000001
#
# number of rings (size 3 to 8) (size 9 to 14) (size 15 to 20)
#    1.000    1.000    1.667    2.000    0.000    2.000 
#    3.000    0.000    3.667    0.000    0.000    0.000 
#    0.000    0.000    0.000    0.000    0.000    0.000 
#
# Total GULP energy -66954.333476 kJ/mol
# GULP energy per Si atom -5579.527790 kJ/mol
# Density = 2.279342 g / cm^3
# Si number density = 22.845420 Si / 1000 Ang^3
#
#
#
# Elastic Constant Matrix: (Units=GPa)
#
#
# Indices 1 2 3 4 5 6 
#
# 1 61.5054 -1.0881 5.0485 21.7798 18.1621 10.8270
# 2 -1.0881 44.5851 7.0407 9.1903 5.6472 0.5798
# 3 5.0485 7.0407 60.3547 17.4335 12.1326 11.6104
# 4 21.7798 9.1903 17.4335 27.5977 9.8304 -5.7131
# 5 18.1621 5.6472 12.1326 9.8304 22.5331 6.7490
# 6 10.8270 0.5798 11.6104 -5.7131 6.7490 30.2424
#
#
#
# Elastic Compliance Matrix: (Units=1/GPa)
#
#
# Indices 1 2 3 4 5 6 
#
# 1 0.040923 0.010247 0.017114 -0.045986 -0.016813 -0.026352
# 2 0.010247 0.026867 0.004401 -0.019110 -0.006628 -0.008004
# 3 0.017114 0.004401 0.031391 -0.036383 -0.008999 -0.023127
# 4 -0.045986 -0.019110 -0.036383 0.114557 -0.004542 0.053452
# 5 -0.016813 -0.006628 -0.008999 -0.004542 0.068370 -0.006515
# 6 -0.026352 -0.008004 -0.023127 0.053452 -0.006515 0.063084
#
#
# Mechanical properties :
#
#
# Convention : Reuss Voigt Hill
#
# Bulk Modulus (GPa) = 6.14611 20.93861 13.54236
# Shear Modulus (GPa) = 14.88526 26.43760 20.66143
#
# Velocity S-wave (km/s) = 2.55534 3.40551 3.01059
# Velocity P-wave (km/s) = 3.37676 4.96473 4.24565
#
# Compressibility (1/GPa) = 0.16270461
#
# Stress axis : x y z
#
# Youngs Moduli (GPa) = 24.43617 37.22051 31.85603
#
# Poissons Ratio (x) = -0.38141 -0.54517
# Poissons Ratio (y) = -0.25041 -0.14019
# Poissons Ratio (z) = -0.41819 -0.16380
#
# Static dielectric constant tensor:
#      x y z
#    x 1.826390 -0.005960 -0.002870 
#    y -0.005960 1.912900 -0.017710 
#    z -0.002870 -0.017710 1.853990 
# 
# From -- ./inp_files/155642.got.cif
#   From: 2010.05.17/outbox.cif.g08.bks.cpg/sg2_78_cif.got.tgz:155642.got - 2010.06.03 11:33:40.
