data_PCOD9010454
_publ_section_title
;
Structure prediction by ZEFSAII (Michael W. Deem and Ramdas Pophale) SiO2 
 PCOD9010454
Probable space group: P -1
;
_chemical_formula_sum "Si O2"
_cell_formula_units_Z 16
_cell_length_a 16.024763
_cell_length_b 8.685446
_cell_length_c 8.906617
_cell_angle_alpha 110.288574
_cell_angle_beta 134.673994
_cell_angle_gamma 53.184616
_cell_volume 699.650767
_symmetry_space_group_name_H-M "P -1"
_symmetry_group_IT_number 2
_symmetry_cell_setting 'triclinic'
loop_
_space_group_symop_operation_xyz
x,y,z
-x,-y,-z
loop_
_atom_site_type_symbol
_atom_site_label
_atom_site_fract_x
_atom_site_fract_y
_atom_site_fract_z
Si Si1 0.751951 0.498225 0.084386
Si Si2 0.657551 0.812224 0.835293
Si Si3 0.463650 0.694813 0.428575
Si Si4 0.836319 0.086300 0.032965
Si Si5 0.134132 0.325612 0.529684
Si Si6 0.738373 0.031580 0.210771
Si Si7 0.104273 0.286695 0.127187
Si Si8 0.539855 0.441038 0.199523
O O1 0.762082 0.600432 0.280703
O O2 0.756752 0.614888 0.988229
O O3 0.857406 0.267162 0.124770
O O4 0.597812 0.540856 0.904122
O O5 0.520264 0.814886 0.620323
O O6 0.749215 0.797358 0.804077
O O7 0.634697 0.982334 0.976223
O O8 0.500000 0.500000 0.500000
O O9 0.304855 0.824324 0.217133
O O10 0.555907 0.596475 0.362762
O O11 0.936280 0.872232 0.019572
O O12 0.813974 0.055135 0.169912
O O13 0.176465 0.140526 0.623310
O O14 0.119002 0.298672 0.327447
O O15 0.000000 0.500000 0.500000
O O16 0.666601 0.224335 0.283429
O O17 0.000000 0.500000 0.000000
O O18 0.500000 0.500000 0.000000
#
# Coordination Sequence:
#
# PCOD9010454 Si02
#       8
#     2   2   2   2   2   2   2   2
#     4  10  21  40  63  91 127 162 198 249 302 360
#     4  10  22  39  61  89 127 162 202 248 303 358
#     4  11  21  37  61  93 133 161 196 247 302 363
#     4  10  21  40  63  91 127 162 198 249 302 360
#     4  11  25  44  65  88 119 158 209 257 302 359
#     4  10  22  39  61  89 127 162 202 248 303 358
#     4  11  25  44  65  88 119 158 209 257 302 359
#     4  11  21  37  61  93 133 161 196 247 302 363
#
# _framework density 22.868552999999999
#
# number of rings (size 3 to 8) (size 9 to 14) (size 15 to 20)
#    0.000    1.500    5.000    2.250    3.500    5.000 
#    0.000    6.250    0.000    0.000    0.000    0.000 
#    0.000    0.000    0.000    0.000    0.000    0.000 
#
# Total GULP energy -89274.442650 kJ/mol
# GULP energy per Si atom -5579.652666 kJ/mol
# Density = 2.281650 g / cm^3
# Si number density = 22.868553 Si / 1000 Ang^3
#
#
#
# Elastic Constant Matrix: (Units=GPa)
#
#
# Indices 1 2 3 4 5 6 
#
# 1 38.6948 -12.3898 14.0147 0.1177 -23.9841 7.9786
# 2 -12.3898 118.4181 7.4778 -14.0262 -19.7345 8.2476
# 3 14.0147 7.4778 71.9886 -6.3283 -27.8811 4.5520
# 4 0.1177 -14.0262 -6.3283 36.5932 1.1095 -5.4704
# 5 -23.9841 -19.7345 -27.8811 1.1095 30.0245 -3.9288
# 6 7.9786 8.2476 4.5520 -5.4704 -3.9288 32.6771
#
#
#
# Elastic Compliance Matrix: (Units=1/GPa)
#
#
# Indices 1 2 3 4 5 6 
#
# 1 0.133131 0.042295 0.035820 0.013086 0.163481 -0.026325
# 2 0.042295 0.023793 0.014302 0.008167 0.061147 -0.009606
# 3 0.035820 0.014302 0.032523 0.007836 0.066940 -0.007526
# 4 0.013086 0.008167 0.007836 0.031333 0.022145 0.001560
# 5 0.163481 0.061147 0.066940 0.022145 0.261569 -0.029519
# 6 -0.026325 -0.009606 -0.007526 0.001560 -0.029519 0.037215
#
#
# Mechanical properties :
#
#
# Convention : Reuss Voigt Hill
#
# Bulk Modulus (GPa) = 2.67180 27.47855 15.07517
# Shear Modulus (GPa) = 10.88163 34.52554 22.70359
#
# Velocity S-wave (km/s) = 2.18373 3.88975 3.15427
# Velocity P-wave (km/s) = 2.74392 5.67587 4.45784
#
# Compressibility (1/GPa) = 0.37427991
#
# Stress axis : x y z
#
# Youngs Moduli (GPa) = 7.51142 42.02856 30.74761
#
# Poissons Ratio (x) = -1.77759 -1.10137
# Poissons Ratio (y) = -0.31769 -0.43975
# Poissons Ratio (z) = -0.26906 -0.60109
#
# Static dielectric constant tensor:
#      x y z
#    x 1.600640 0.392920 -0.371480 
#    y 0.392920 1.543700 0.548480 
#    z -0.371480 0.548480 1.209650 
# 
# From -- ./inp_files/222844.got.cif
#   From: 2010.05.17/outbox.cif.g08.bks.cpg/sg2_112_cif.got.tgz:222844.got - 2010.06.03 11:33:40.
