data_PCOD9010757
_publ_section_title
;
Structure prediction by ZEFSAII (Michael W. Deem and Ramdas Pophale) SiO2 
 PCOD9010757
Probable space group: P -1
;
_chemical_formula_sum "Si O2"
_cell_formula_units_Z 14
_cell_length_a 23.736047
_cell_length_b 8.723817
_cell_length_c 5.225351
_cell_angle_alpha 88.970567
_cell_angle_beta 78.256619
_cell_angle_gamma 141.709386
_cell_volume 627.639201
_symmetry_space_group_name_H-M "P -1"
_symmetry_group_IT_number 2
_symmetry_cell_setting 'triclinic'
loop_
_space_group_symop_operation_xyz
x,y,z
-x,-y,-z
loop_
_atom_site_type_symbol
_atom_site_label
_atom_site_fract_x
_atom_site_fract_y
_atom_site_fract_z
Si Si1 0.391565 0.829682 0.055345
Si Si2 0.264860 0.525572 0.685117
Si Si3 0.603859 0.797100 0.880067
Si Si4 0.226152 0.791903 0.621348
Si Si5 0.050776 0.950448 0.883707
Si Si6 0.044439 0.759842 0.388774
Si Si7 0.792529 0.088870 0.866996
O O1 0.324673 0.639626 0.363710
O O2 0.395651 0.024934 0.036241
O O3 0.337803 0.660249 0.851490
O O4 0.500000 0.000000 0.000000
O O5 0.225380 0.616671 0.719644
O O6 0.167457 0.216757 0.789067
O O7 0.660085 0.923306 0.550733
O O8 0.500000 0.500000 0.000000
O O9 0.676718 0.846953 0.973173
O O10 0.180027 0.800396 0.878409
O O11 0.025868 0.839816 0.627336
O O12 0.016068 0.758476 0.137861
O O13 0.000000 0.000000 0.000000
O O14 0.159040 0.963492 0.261438
O O15 0.817158 0.269477 0.619391
O O16 0.000000 0.500000 0.500000
#
# Coordination Sequence:
#
# PCOD9010757 Si02
#       7
#     2   2   2   2   2   2   2
#     4  11  23  42  64 100 134 190 230 290 353 414
#     4  11  22  44  69  92 141 180 241 279 350 423
#     4   9  21  36  61  94 128 172 226 281 341 408
#     4   9  19  38  65  91 125 180 221 278 346 398
#     4  12  29  47  75 109 143 191 239 291 364 432
#     4  12  28  47  73 108 144 182 236 299 359 425
#     4  10  21  40  64  90 134 173 228 268 361 395
#
# _framework density 22.305810000000001
#
# number of rings (size 3 to 8) (size 9 to 14) (size 15 to 20)
#    0.857    0.571    1.429    3.000    4.000    2.857 
#    0.000    0.000    0.000    0.000    0.000    0.000 
#    0.000    0.000    0.000    0.000    0.000    0.000 
#
# Total GULP energy -78193.547388 kJ/mol
# GULP energy per Si atom -5585.253385 kJ/mol
# Density = 2.225504 g / cm^3
# Si number density = 22.305810 Si / 1000 Ang^3
#
#
#
# Elastic Constant Matrix: (Units=GPa)
#
#
# Indices 1 2 3 4 5 6 
#
# 1 68.5704 -1.7577 9.2001 -0.8149 -15.6646 12.3599
# 2 -1.7577 93.3563 45.1406 -14.2652 1.5209 19.3383
# 3 9.2001 45.1406 113.8874 9.2935 2.3963 -2.4711
# 4 -0.8149 -14.2652 9.2935 41.8085 -2.7946 1.1964
# 5 -15.6646 1.5209 2.3963 -2.7946 38.9194 2.8733
# 6 12.3599 19.3383 -2.4711 1.1964 2.8733 29.0641
#
#
#
# Elastic Compliance Matrix: (Units=1/GPa)
#
#
# Indices 1 2 3 4 5 6 
#
# 1 0.020303 0.006417 -0.005091 0.004776 0.009647 -0.014487
# 2 0.006417 0.021160 -0.010256 0.010457 0.004508 -0.018556
# 3 -0.005091 -0.010256 0.014171 -0.007317 -0.003849 0.010876
# 4 0.004776 0.010457 -0.007317 0.029861 0.004945 -0.011329
# 5 0.009647 0.004508 -0.003849 0.004945 0.030781 -0.010676
# 6 -0.014487 -0.018556 0.010876 -0.011329 -0.010676 0.055361
#
#
# Mechanical properties :
#
#
# Convention : Reuss Voigt Hill
#
# Bulk Modulus (GPa) = 26.47262 42.33110 34.40186
# Shear Modulus (GPa) = 24.74176 36.84049 30.79113
#
# Velocity S-wave (km/s) = 3.33409 4.06841 3.71942
# Velocity P-wave (km/s) = 5.16869 6.41000 5.82252
#
# Compressibility (1/GPa) = 0.03777488
#
# Stress axis : x y z
#
# Youngs Moduli (GPa) = 49.25388 47.25902 70.56619
#
# Poissons Ratio (x) = -0.30328 0.35924
# Poissons Ratio (y) = -0.31609 0.72374
# Poissons Ratio (z) = 0.25074 0.48470
#
# Static dielectric constant tensor:
#      x y z
#    x 1.848850 0.048820 -0.011900 
#    y 0.048820 1.847860 -0.027930 
#    z -0.011900 -0.027930 1.836420 
# 
# From -- ./inp_files/122554.got.cif
#   From: 2010.05.17/outbox.cif.g08.bks.cpg/sg2_62_cif.got.tgz:122554.got - 2010.06.03 11:33:40.
