data_PCOD9010851
_publ_section_title
;
Structure prediction by ZEFSAII (Michael W. Deem and Ramdas Pophale) SiO2 
 PCOD9010851
Probable space group: P -1
;
_chemical_formula_sum "Si O2"
_cell_formula_units_Z 12
_cell_length_a 9.992842
_cell_length_b 17.598254
_cell_length_c 6.953709
_cell_angle_alpha 124.671413
_cell_angle_beta 119.137163
_cell_angle_gamma 31.737730
_cell_volume 529.022146
_symmetry_space_group_name_H-M "P -1"
_symmetry_group_IT_number 2
_symmetry_cell_setting 'triclinic'
loop_
_space_group_symop_operation_xyz
x,y,z
-x,-y,-z
loop_
_atom_site_type_symbol
_atom_site_label
_atom_site_fract_x
_atom_site_fract_y
_atom_site_fract_z
Si Si1 0.828444 0.005148 0.158208
Si Si2 0.123669 0.408705 0.755614
Si Si3 0.488106 0.905406 0.257491
Si Si4 0.182568 0.548945 0.702981
Si Si5 0.148413 0.171500 0.860623
Si Si6 0.749605 0.237723 0.605702
O O1 0.726745 0.156454 0.346230
O O2 0.694378 0.990907 0.178828
O O3 0.767495 0.003705 0.897316
O O4 0.113233 0.862439 0.242512
O O5 0.394849 0.229470 0.721720
O O6 0.153638 0.479723 0.735817
O O7 0.942708 0.422517 0.542284
O O8 0.000000 0.500000 0.000000
O O9 0.696309 0.821746 0.114225
O O10 0.500000 0.000000 0.500000
O O11 0.482785 0.416118 0.699402
O O12 0.024534 0.708204 0.913353
O O13 0.955357 0.213262 0.639406
#
# Coordination Sequence:
#
# PCOD9010851 Si02
#       6
#     2   2   2   2   2   2
#     4   9  21  40  64  89 123 164 207 254 314 369
#     4  11  24  40  61  97 126 165 211 257 312 371
#     4  12  24  39  63  96 129 160 215 264 307 375
#     4  11  22  41  67  89 128 169 206 260 315 371
#     4  10  21  40  64  94 121 165 212 254 315 367
#     4   9  21  39  68  89 122 169 208 252 320 375
#
# _framework density 22.683357999999998
#
# number of rings (size 3 to 8) (size 9 to 14) (size 15 to 20)
#    1.000    0.667    1.667    3.000    4.667    0.000 
#    0.000    5.833    0.000    0.000    0.000    0.000 
#    0.000    0.000    0.000    0.000    0.000    0.000 
#
# Total GULP energy -66938.472332 kJ/mol
# GULP energy per Si atom -5578.206028 kJ/mol
# Density = 2.263173 g / cm^3
# Si number density = 22.683358 Si / 1000 Ang^3
#
#
#
# Elastic Constant Matrix: (Units=GPa)
#
#
# Indices 1 2 3 4 5 6 
#
# 1 37.3727 1.1158 5.0946 -1.3882 12.5394 2.5910
# 2 1.1158 63.3171 34.4953 -14.5324 4.6529 -4.3232
# 3 5.0946 34.4953 134.5177 -8.8876 24.6512 2.9633
# 4 -1.3882 -14.5324 -8.8876 33.7788 1.1389 7.2118
# 5 12.5394 4.6529 24.6512 1.1389 27.1194 3.5940
# 6 2.5910 -4.3232 2.9633 7.2118 3.5940 25.4283
#
#
#
# Elastic Compliance Matrix: (Units=1/GPa)
#
#
# Indices 1 2 3 4 5 6 
#
# 1 0.032315 0.000065 0.002049 0.002880 -0.016674 -0.001981
# 2 0.000065 0.020118 -0.004806 0.006966 0.000335 0.001951
# 3 0.002049 -0.004806 0.010449 0.001361 -0.009508 -0.001286
# 4 0.002880 0.006966 0.001361 0.035059 -0.004092 -0.008633
# 5 -0.016674 0.000335 -0.009508 -0.004092 0.053815 -0.003581
# 6 -0.001981 0.001951 -0.001286 -0.008633 -0.003581 0.042964
#
#
# Mechanical properties :
#
#
# Convention : Reuss Voigt Hill
#
# Bulk Modulus (GPa) = 17.39147 35.17990 26.28569
# Shear Modulus (GPa) = 22.80302 30.23208 26.51755
#
# Velocity S-wave (km/s) = 3.17405 3.65470 3.42282
# Velocity P-wave (km/s) = 4.59527 5.77511 5.21864
#
# Compressibility (1/GPa) = 0.05749945
#
# Stress axis : x y z
#
# Youngs Moduli (GPa) = 30.94542 49.70732 95.69972
#
# Poissons Ratio (x) = -0.00325 -0.19607
# Poissons Ratio (y) = -0.00203 0.45990
# Poissons Ratio (z) = -0.06340 0.23887
#
# Static dielectric constant tensor:
#      x y z
#    x 1.871570 -0.041370 -0.011270 
#    y -0.041370 1.884750 -0.010550 
#    z -0.011270 -0.010550 1.887320 
# 
# From -- ./inp_files/82921.got.cif
#   From: 2010.05.17/outbox.cif.g08.bks.cpg/sg2_42_cif.got.tgz:82921.got - 2010.06.03 11:33:40.
