data_PCOD9010302
_publ_section_title
;
Structure prediction by ZEFSAII (Michael W. Deem and Ramdas Pophale) SiO2 
 PCOD9010302
Probable space group: P -1
;
_chemical_formula_sum "Si O2"
_cell_formula_units_Z 15
_cell_length_a 5.349159
_cell_length_b 9.204167
_cell_length_c 14.954147
_cell_angle_alpha 78.625771
_cell_angle_beta 106.091641
_cell_angle_gamma 75.681295
_cell_volume 656.914979
_symmetry_space_group_name_H-M "P -1"
_symmetry_group_IT_number 2
_symmetry_cell_setting 'triclinic'
loop_
_space_group_symop_operation_xyz
x,y,z
-x,-y,-z
loop_
_atom_site_type_symbol
_atom_site_label
_atom_site_fract_x
_atom_site_fract_y
_atom_site_fract_z
Si Si1 0.500000 0.500000 0.500000
Si Si2 0.705509 0.600888 0.997299
Si Si3 0.295190 0.204205 0.532128
Si Si4 0.786600 0.900666 0.647361
Si Si5 0.107891 0.135500 0.695452
Si Si6 0.601106 0.432819 0.301222
Si Si7 0.469508 0.180744 0.213609
Si Si8 0.964487 0.604318 0.207400
O O1 0.448344 0.331408 0.527518
O O2 0.581955 0.454884 0.403860
O O3 0.777583 0.651256 0.095605
O O4 0.500000 0.500000 0.000000
O O5 0.583740 0.736177 0.896503
O O6 0.000000 0.500000 0.000000
O O7 0.152440 0.201553 0.423661
O O8 0.108650 0.243533 0.596848
O O9 0.472375 0.021253 0.587622
O O10 0.789648 0.804482 0.749566
O O11 0.930908 0.028798 0.662114
O O12 0.011111 0.247213 0.754864
O O13 0.394790 0.005017 0.763783
O O14 0.651142 0.260861 0.282656
O O15 0.806585 0.514846 0.266872
O O16 0.281401 0.510823 0.228134
#
# Coordination Sequence:
#
# PCOD9010302 Si02
#       8
#     1   2   2   2   2   2   2   2
#     4  12  22  42  70 108 140 186 248 288 348 422
#     4  12  25  47  77 106 139 183 241 300 362 423
#     4  10  21  40  62  97 136 192 233 288 351 421
#     4  10  22  42  62  93 146 186 233 284 356 427
#     4  11  25  42  68  98 146 183 236 293 357 427
#     4  12  26  46  72 106 148 187 238 292 359 420
#     4  11  25  43  71 102 135 189 236 291 353 428
#     4  12  26  49  73 104 146 187 233 305 358 415
#
# _framework density 22.834005000000001
#
# number of rings (size 3 to 8) (size 9 to 14) (size 15 to 20)
#    0.000    0.800    5.333    1.200    5.600    1.067 
#    4.800    0.667    0.000    0.000    0.000    0.000 
#    0.000    0.000    0.000    0.000    0.000    0.000 
#
# Total GULP energy -83582.267030 kJ/mol
# GULP energy per Si atom -5572.151135 kJ/mol
# Density = 2.278203 g / cm^3
# Si number density = 22.834005 Si / 1000 Ang^3
#
#
#
# Elastic Constant Matrix: (Units=GPa)
#
#
# Indices 1 2 3 4 5 6 
#
# 1 79.2509 8.2313 19.0051 -12.5897 -8.7018 15.3123
# 2 8.2313 110.7251 30.6181 11.2604 -4.2041 14.0144
# 3 19.0051 30.6181 145.7016 -3.7001 -21.5897 7.5777
# 4 -12.5897 11.2604 -3.7001 37.5611 6.8201 -12.3589
# 5 -8.7018 -4.2041 -21.5897 6.8201 35.4583 -7.4049
# 6 15.3123 14.0144 7.5777 -12.3589 -7.4049 25.1791
#
#
#
# Elastic Compliance Matrix: (Units=1/GPa)
#
#
# Indices 1 2 3 4 5 6 
#
# 1 0.014798 -0.000013 -0.001369 0.002306 0.000850 -0.007198
# 2 -0.000013 0.011424 -0.002185 -0.006518 -0.000620 -0.009075
# 3 -0.001369 -0.002185 0.008118 0.000579 0.004489 0.001209
# 4 0.002306 -0.006518 0.000579 0.036164 -0.002850 0.018964
# 5 0.000850 -0.000620 0.004489 -0.002850 0.033038 0.006794
# 6 -0.007198 -0.009075 0.001209 0.018964 0.006794 0.060086
#
#
# Mechanical properties :
#
#
# Convention : Reuss Voigt Hill
#
# Bulk Modulus (GPa) = 36.75339 50.15406 43.45373
# Shear Modulus (GPa) = 27.80403 38.16127 32.98265
#
# Velocity S-wave (km/s) = 3.49328 4.09252 3.80472
# Velocity P-wave (km/s) = 5.69224 6.65913 6.19458
#
# Compressibility (1/GPa) = 0.02720838
#
# Stress axis : x y z
#
# Youngs Moduli (GPa) = 67.57582 87.53297 123.18429
#
# Poissons Ratio (x) = 0.00112 0.16860
# Poissons Ratio (y) = 0.00087 0.26910
# Poissons Ratio (z) = 0.09249 0.19122
#
# Static dielectric constant tensor:
#      x y z
#    x 1.976700 -0.123350 0.032910 
#    y -0.123350 1.827390 -0.018940 
#    z 0.032910 -0.018940 1.886620 
# 
# From -- ./inp_files/35215.got.cif
#   From: 2010.05.17/outbox.cif.g08.bks.cpg/sg2_18_cif.got.tgz:35215.got - 2010.06.03 11:33:40.
