data_PCOD9010499
_publ_section_title
;
Structure prediction by ZEFSAII (Michael W. Deem and Ramdas Pophale) SiO2 
 PCOD9010499
Probable space group: P -1
;
_chemical_formula_sum "Si O2"
_cell_formula_units_Z 14
_cell_length_a 21.361265
_cell_length_b 5.234479
_cell_length_c 14.386500
_cell_angle_alpha 56.854770
_cell_angle_beta 152.613428
_cell_angle_gamma 131.496459
_cell_volume 550.178809
_symmetry_space_group_name_H-M "P -1"
_symmetry_group_IT_number 2
_symmetry_cell_setting 'triclinic'
loop_
_space_group_symop_operation_xyz
x,y,z
-x,-y,-z
loop_
_atom_site_type_symbol
_atom_site_label
_atom_site_fract_x
_atom_site_fract_y
_atom_site_fract_z
Si Si1 0.620908 0.548237 0.866072
Si Si2 0.191452 0.544761 0.398782
Si Si3 0.190856 0.823270 0.547110
Si Si4 0.147442 0.694468 0.012191
Si Si5 0.855324 0.266289 0.221677
Si Si6 0.627615 0.536170 0.086911
Si Si7 0.373967 0.635882 0.442206
O O1 0.467422 0.423137 0.628917
O O2 0.745668 0.899411 0.912819
O O3 0.712652 0.334610 0.043907
O O4 0.580401 0.594376 0.909727
O O5 0.202860 0.748448 0.468144
O O6 0.311651 0.704815 0.443085
O O7 0.197525 0.189628 0.499862
O O8 0.024971 0.442186 0.155608
O O9 0.976150 0.457892 0.580504
O O10 0.328260 0.773253 0.783700
O O11 0.235591 0.501751 0.212959
O O12 0.136727 0.687446 0.888260
O O13 0.793525 0.875968 0.250859
O O14 0.500000 0.500000 0.000000
O O15 0.500000 0.000000 0.500000
#
# Coordination Sequence:
#
# PCOD9010499 Si02
#       7
#     2   2   2   2   2   2   2
#     4  10  21  40  63  92 129 168 222 267 325 391
#     4  11  23  45  68 101 131 169 225 270 323 396
#     4  11  25  44  70  97 133 174 219 275 326 383
#     4   9  20  42  63  93 127 167 219 273 324 384
#     4  10  22  41  63  94 129 170 221 272 323 391
#     4  11  25  40  64  93 133 175 217 269 329 393
#     4  10  22  42  67  94 133 174 215 270 335 389
#
# _framework density 25.446273999999999
#
# number of rings (size 3 to 8) (size 9 to 14) (size 15 to 20)
#    0.000    1.714    1.429    1.714    4.000    1.714 
#    5.143    2.143    0.000    0.000    0.000    0.000 
#    0.000    0.000    0.000    0.000    0.000    0.000 
#
# Total GULP energy -78329.936573 kJ/mol
# GULP energy per Si atom -5594.995469 kJ/mol
# Density = 2.538836 g / cm^3
# Si number density = 25.446274 Si / 1000 Ang^3
#
#
#
# Elastic Constant Matrix: (Units=GPa)
#
#
# Indices 1 2 3 4 5 6 
#
# 1 99.1945 25.6030 21.6508 7.8306 18.5975 26.4335
# 2 25.6030 53.3525 31.1581 12.1797 5.5817 11.8136
# 3 21.6508 31.1581 158.5236 -15.5066 23.3679 16.5062
# 4 7.8306 12.1797 -15.5066 27.0652 2.2365 8.4643
# 5 18.5975 5.5817 23.3679 2.2365 33.8100 0.0443
# 6 26.4335 11.8136 16.5062 8.4643 0.0443 34.6102
#
#
#
# Elastic Compliance Matrix: (Units=1/GPa)
#
#
# Indices 1 2 3 4 5 6 
#
# 1 0.015815 -0.006010 0.002002 0.003765 -0.009324 -0.011891
# 2 -0.006010 0.028694 -0.007384 -0.016534 0.004762 0.002355
# 3 0.002002 -0.007384 0.010487 0.011537 -0.007885 -0.006822
# 4 0.003765 -0.016534 0.011537 0.055947 -0.010995 -0.016403
# 5 -0.009324 0.004762 -0.007885 -0.010995 0.040081 0.011894
# 6 -0.011891 0.002355 -0.006822 -0.016403 0.011894 0.044421
#
#
# Mechanical properties :
#
#
# Convention : Reuss Voigt Hill
#
# Bulk Modulus (GPa) = 31.04223 51.98826 41.51525
# Shear Modulus (GPa) = 21.83723 34.60766 28.22245
#
# Velocity S-wave (km/s) = 2.93263 3.69186 3.33393
# Velocity P-wave (km/s) = 4.86752 6.21675 5.58304
#
# Compressibility (1/GPa) = 0.03221418
#
# Stress axis : x y z
#
# Youngs Moduli (GPa) = 63.23059 34.85013 95.35449
#
# Poissons Ratio (x) = 0.20944 -0.19092
# Poissons Ratio (y) = 0.38000 0.70407
# Poissons Ratio (z) = -0.12660 0.25732
#
# Static dielectric constant tensor:
#      x y z
#    x 2.060810 -0.074630 -0.011770 
#    y -0.074630 2.062110 0.007310 
#    z -0.011770 0.007310 2.034300 
# 
# From -- ./inp_files/539693.got.cif
#   From: 2010.05.17/outbox.cif.g08.bks.cpg/sg2_270_cif.got.tgz:539693.got - 2010.06.03 11:33:40.
