data_PCOD9010481
_publ_section_title
;
Structure prediction by ZEFSAII (Michael W. Deem and Ramdas Pophale) SiO2 
 PCOD9010481
Probable space group: P -1
;
_chemical_formula_sum "Si O2"
_cell_formula_units_Z 16
_cell_length_a 8.615069
_cell_length_b 24.991797
_cell_length_c 10.289828
_cell_angle_alpha 27.917963
_cell_angle_beta 128.076969
_cell_angle_gamma 127.033629
_cell_volume 806.598827
_symmetry_space_group_name_H-M "P -1"
_symmetry_group_IT_number 2
_symmetry_cell_setting 'triclinic'
loop_
_space_group_symop_operation_xyz
x,y,z
-x,-y,-z
loop_
_atom_site_type_symbol
_atom_site_label
_atom_site_fract_x
_atom_site_fract_y
_atom_site_fract_z
Si Si1 0.220452 0.972353 0.661015
Si Si2 0.548191 0.586911 0.080094
Si Si3 0.861780 0.453692 0.649108
Si Si4 0.756246 0.734449 0.638258
Si Si5 0.124875 0.471842 0.000197
Si Si6 0.601010 0.131502 0.799068
Si Si7 0.177770 0.818092 0.730518
Si Si8 0.425715 0.813343 0.613003
O O1 0.264030 0.910043 0.684381
O O2 0.379111 0.089356 0.502857
O O3 0.242525 0.881689 0.981510
O O4 0.000000 0.000000 0.500000
O O5 0.655886 0.501079 0.407151
O O6 0.350002 0.535624 0.006611
O O7 0.699205 0.648675 0.915339
O O8 0.489497 0.687559 0.925293
O O9 0.000000 0.500000 0.500000
O O10 0.820707 0.314352 0.938835
O O11 0.990245 0.497584 0.750849
O O12 0.834492 0.659214 0.725690
O O13 0.563796 0.795374 0.388285
O O14 0.944537 0.827945 0.572984
O O15 0.000000 0.500000 0.000000
O O16 0.676972 0.184017 0.587367
O O17 0.500000 0.000000 0.000000
O O18 0.289585 0.835810 0.613798
#
# Coordination Sequence:
#
# PCOD9010481 Si02
#       8
#     2   2   2   2   2   2   2   2
#     4  11  23  42  68  92 123 167 217 260 317 390
#     4  11  21  42  67  89 132 174 217 263 317 390
#     4  11  24  40  67  96 128 177 222 257 323 392
#     4  10  21  40  63  92 124 170 214 256 319 387
#     4  11  24  39  61  95 132 168 214 271 322 379
#     4   9  20  40  64  86 117 165 213 251 311 387
#     4  11  22  40  64  93 132 158 208 277 316 370
#     4  10  23  42  62  94 128 165 210 268 322 372
#
# _framework density 19.836379999999998
#
# number of rings (size 3 to 8) (size 9 to 14) (size 15 to 20)
#    0.000    1.500    2.500    4.500    1.750    3.000 
#    0.000    6.875    0.000    0.000    0.000    0.000 
#    0.000    0.000    0.000    0.000    0.000    0.000 
#
# Total GULP energy -89241.743867 kJ/mol
# GULP energy per Si atom -5577.608992 kJ/mol
# Density = 1.979123 g / cm^3
# Si number density = 19.836380 Si / 1000 Ang^3
#
#
#
# Elastic Constant Matrix: (Units=GPa)
#
#
# Indices 1 2 3 4 5 6 
#
# 1 69.2484 7.1067 31.0662 17.3724 10.0744 -16.0832
# 2 7.1067 82.9200 19.7529 13.3236 12.6297 -7.1094
# 3 31.0662 19.7529 106.2321 23.9596 30.4024 -1.7220
# 4 17.3724 13.3236 23.9596 26.4563 4.9656 -1.0624
# 5 10.0744 12.6297 30.4024 4.9656 27.1983 0.0149
# 6 -16.0832 -7.1094 -1.7220 -1.0624 0.0149 41.6143
#
#
#
# Elastic Compliance Matrix: (Units=1/GPa)
#
#
# Indices 1 2 3 4 5 6 
#
# 1 0.020573 0.001850 -0.002802 -0.010958 -0.003351 0.007873
# 2 0.001850 0.014224 0.000334 -0.007376 -0.006319 0.002973
# 3 -0.002802 0.000334 0.017366 -0.010978 -0.016525 -0.000582
# 4 -0.010958 -0.007376 -0.010978 0.056704 0.009405 -0.004505
# 5 -0.003351 -0.006319 -0.016525 0.009405 0.057699 -0.002839
# 6 0.007873 0.002973 -0.000582 -0.004505 -0.002839 0.027443
#
#
# Mechanical properties :
#
#
# Convention : Reuss Voigt Hill
#
# Bulk Modulus (GPa) = 19.63541 41.58357 30.60949
# Shear Modulus (GPa) = 23.56042 32.41875 27.98958
#
# Velocity S-wave (km/s) = 3.45010 4.04704 3.76043
# Velocity P-wave (km/s) = 5.07849 6.54575 5.85824
#
# Compressibility (1/GPa) = 0.05092841
#
# Stress axis : x y z
#
# Youngs Moduli (GPa) = 48.60721 70.30302 57.58250
#
# Poissons Ratio (x) = -0.13009 0.16136
# Poissons Ratio (y) = -0.08995 -0.01924
# Poissons Ratio (z) = 0.13621 -0.02349
#
# Static dielectric constant tensor:
#      x y z
#    x 1.632330 0.092130 -0.175170 
#    y 0.092130 1.645120 0.214300 
#    z -0.175170 0.214300 1.260850 
# 
# From -- ./inp_files/225875.got.cif
#   From: 2010.05.17/outbox.cif.g08.bks.cpg/sg2_113_cif.got.tgz:225875.got - 2010.06.03 11:33:40.
