data_PCOD9010236
_publ_section_title
;
Structure prediction by ZEFSAII (Michael W. Deem and Ramdas Pophale) SiO2 
 PCOD9010236
Probable space group: P -1
;
_chemical_formula_sum "Si O2"
_cell_formula_units_Z 16
_cell_length_a 24.760163
_cell_length_b 11.671074
_cell_length_c 12.865072
_cell_angle_alpha 145.611067
_cell_angle_beta 17.963419
_cell_angle_gamma 145.380019
_cell_volume 632.048182
_symmetry_space_group_name_H-M "P -1"
_symmetry_group_IT_number 2
_symmetry_cell_setting 'triclinic'
loop_
_space_group_symop_operation_xyz
x,y,z
-x,-y,-z
loop_
_atom_site_type_symbol
_atom_site_label
_atom_site_fract_x
_atom_site_fract_y
_atom_site_fract_z
Si Si1 0.995224 0.420727 0.680971
Si Si2 0.450319 0.187253 0.577767
Si Si3 0.801045 0.673613 0.576933
Si Si4 0.305875 0.873155 0.108518
Si Si5 0.863584 0.761909 0.296608
Si Si6 0.565753 0.245671 0.630660
Si Si7 0.195510 0.776769 0.453725
Si Si8 0.850764 0.875441 0.059830
O O1 0.886916 0.261304 0.677980
O O2 0.061859 0.291984 0.554357
O O3 0.163819 0.586519 0.448601
O O4 0.865860 0.559647 0.072716
O O5 0.551852 0.307839 0.581150
O O6 0.286812 0.252300 0.865975
O O7 0.377086 0.966509 0.605085
O O8 0.572117 0.154884 0.232973
O O9 0.890340 0.720795 0.337452
O O10 0.699713 0.432030 0.580353
O O11 0.636601 0.785041 0.978350
O O12 0.321113 0.781039 0.126712
O O13 0.297943 0.115008 0.319790
O O14 0.027341 0.931437 0.078335
O O15 0.245384 0.001696 0.587329
O O16 0.989630 0.763848 0.779892
#
# Coordination Sequence:
#
# PCOD9010236 Si02
#       8
#     2   2   2   2   2   2   2   2
#     4  11  23  39  66  91 127 165 206 256 307 358
#     4  11  22  41  61  94 125 164 198 261 314 366
#     4  11  22  40  62  93 122 170 201 249 315 371
#     4  11  23  39  65  93 123 164 213 251 305 367
#     4  10  21  40  62  93 122 159 208 256 295 372
#     4  10  23  38  60  91 135 155 201 256 313 376
#     4   9  20  41  61  91 120 161 214 256 293 370
#     4   9  20  38  68  88 123 164 204 254 317 352
#
# _framework density 25.314526000000001
#
# number of rings (size 3 to 8) (size 9 to 14) (size 15 to 20)
#    0.000    1.750    1.250    3.750    3.500    3.000 
#    0.000    0.625    0.000    0.000    0.000    0.000 
#    0.000    0.000    0.000    0.000    0.000    0.000 
#
# Total GULP energy -89459.171633 kJ/mol
# GULP energy per Si atom -5591.198227 kJ/mol
# Density = 2.525691 g / cm^3
# Si number density = 25.314526 Si / 1000 Ang^3
#
#
#
# Elastic Constant Matrix: (Units=GPa)
#
#
# Indices 1 2 3 4 5 6 
#
# 1 138.6748 13.2523 19.8429 -8.4539 29.8133 -5.0513
# 2 13.2523 29.2358 7.0403 10.6974 3.0551 -6.4847
# 3 19.8429 7.0403 65.2435 1.3582 34.0908 1.8809
# 4 -8.4539 10.6974 1.3582 25.2867 0.3927 7.6501
# 5 29.8133 3.0551 34.0908 0.3927 39.4755 -3.1871
# 6 -5.0513 -6.4847 1.8809 7.6501 -3.1871 34.4826
#
#
#
# Elastic Compliance Matrix: (Units=1/GPa)
#
#
# Indices 1 2 3 4 5 6 
#
# 1 0.009921 -0.007345 0.002664 0.007200 -0.009502 -0.002549
# 2 -0.007345 0.053295 -0.009125 -0.029850 0.010979 0.017081
# 3 0.002664 -0.009125 0.030213 0.005623 -0.028003 -0.006809
# 4 0.007200 -0.029850 0.005623 0.060235 -0.010130 -0.019165
# 5 -0.009502 0.010979 -0.028003 -0.010130 0.056725 0.009690
# 6 -0.002549 0.017081 -0.006809 -0.019165 0.009690 0.037358
#
#
# Mechanical properties :
#
#
# Convention : Reuss Voigt Hill
#
# Bulk Modulus (GPa) = 15.19370 34.82502 25.00936
# Shear Modulus (GPa) = 16.81817 32.71687 24.76752
#
# Velocity S-wave (km/s) = 2.58033 3.59892 3.13132
# Velocity P-wave (km/s) = 3.85908 5.57283 4.79317
#
# Compressibility (1/GPa) = 0.06581676
#
# Stress axis : x y z
#
# Youngs Moduli (GPa) = 100.79892 18.76343 33.09839
#
# Poissons Ratio (x) = 0.13782 -0.08817
# Poissons Ratio (y) = 0.74039 0.30201
# Poissons Ratio (z) = -0.26851 0.17121
#
# Static dielectric constant tensor:
#      x y z
#    x 1.971820 0.008420 -0.015740 
#    y 0.008420 1.957860 0.023280 
#    z -0.015740 0.023280 2.092420 
# 
# From -- ./inp_files/179381.got.cif
#   From: 2010.05.17/outbox.cif.g08.bks.cpg/sg2_90_cif.got.tgz:179381.got - 2010.06.03 11:33:40.
