data_PCOD9010504
_publ_section_title
;
Structure prediction by ZEFSAII (Michael W. Deem and Ramdas Pophale) SiO2 
 PCOD9010504
Probable space group: P -1
;
_chemical_formula_sum "Si O2"
_cell_formula_units_Z 16
_cell_length_a 11.785293
_cell_length_b 8.038543
_cell_length_c 13.763485
_cell_angle_alpha 92.638942
_cell_angle_beta 42.640696
_cell_angle_gamma 121.454028
_cell_volume 611.315894
_symmetry_space_group_name_H-M "P -1"
_symmetry_group_IT_number 2
_symmetry_cell_setting 'triclinic'
loop_
_space_group_symop_operation_xyz
x,y,z
-x,-y,-z
loop_
_atom_site_type_symbol
_atom_site_label
_atom_site_fract_x
_atom_site_fract_y
_atom_site_fract_z
Si Si1 0.791384 0.734758 0.810421
Si Si2 0.797494 0.181144 0.373443
Si Si3 0.470024 0.990475 0.903296
Si Si4 0.509929 0.544562 0.607115
Si Si5 0.415627 0.128800 0.680756
Si Si6 0.645802 0.764185 0.708667
Si Si7 0.054830 0.438928 0.865411
Si Si8 0.331114 0.209044 0.923807
O O1 0.820247 0.821266 0.685018
O O2 0.955068 0.692829 0.728633
O O3 0.500000 0.500000 0.000000
O O4 0.835740 0.890092 0.878368
O O5 0.585504 0.089058 0.576911
O O6 0.826651 0.354297 0.284048
O O7 0.713337 0.978878 0.344723
O O8 0.584910 0.907285 0.782821
O O9 0.539212 0.224995 0.826897
O O10 0.191798 0.784237 0.039228
O O11 0.500000 0.000000 0.000000
O O12 0.500000 0.500000 0.500000
O O13 0.581237 0.409821 0.593331
O O14 0.682206 0.784214 0.569853
O O15 0.245131 0.437208 0.778420
O O16 0.239042 0.053171 0.878428
O O17 0.426240 0.466125 0.848151
O O18 0.000000 0.500000 0.000000
#
# Coordination Sequence:
#
# PCOD9010504 Si02
#       8
#     2   2   2   2   2   2   2   2
#     4  10  21  40  63  92 131 172 217 277 337 397
#     4  11  24  42  67  94 140 175 228 285 341 409
#     4  12  24  40  68 103 139 176 227 284 346 409
#     4  11  23  44  66  95 139 172 228 281 341 410
#     4  10  24  43  64 101 129 186 227 276 347 410
#     4  10  22  42  65  95 135 176 217 284 340 397
#     4  12  24  40  67 103 130 180 228 290 346 395
#     4  10  22  40  66  97 131 178 226 277 340 403
#
# _framework density 26.173048000000001
#
# number of rings (size 3 to 8) (size 9 to 14) (size 15 to 20)
#    0.000    1.250    3.750    2.250    5.250    0.500 
#    0.000    6.875    0.000    2.250    0.000    0.000 
#    0.000    0.000    0.000    0.000    0.000    0.000 
#
# Total GULP energy -89205.311003 kJ/mol
# GULP energy per Si atom -5575.331938 kJ/mol
# Density = 2.611348 g / cm^3
# Si number density = 26.173048 Si / 1000 Ang^3
#
#
#
# Elastic Constant Matrix: (Units=GPa)
#
#
# Indices 1 2 3 4 5 6 
#
# 1 189.9152 49.5208 65.5129 26.3811 -21.2949 13.9711
# 2 49.5208 105.1276 38.7340 34.7063 -7.8501 11.5108
# 3 65.5129 38.7340 83.1930 34.4206 -5.8810 32.4280
# 4 26.3811 34.7063 34.4206 53.3062 13.9193 12.6147
# 5 -21.2949 -7.8501 -5.8810 13.9193 57.1829 4.5803
# 6 13.9711 11.5108 32.4280 12.6147 4.5803 60.3219
#
#
#
# Elastic Compliance Matrix: (Units=1/GPa)
#
#
# Indices 1 2 3 4 5 6 
#
# 1 0.007802 -0.001551 -0.005912 0.000105 0.001939 0.001498
# 2 -0.001551 0.013682 -0.001727 -0.007835 0.003024 0.000086
# 3 -0.005912 -0.001727 0.026734 -0.011773 0.004019 -0.010516
# 4 0.000105 -0.007835 -0.011773 0.033816 -0.010601 0.001533
# 5 0.001939 0.003024 0.004019 -0.010601 0.021829 -0.002627
# 6 0.001498 0.000086 -0.010516 0.001533 -0.002627 0.021747
#
#
# Mechanical properties :
#
#
# Convention : Reuss Voigt Hill
#
# Bulk Modulus (GPa) = 33.51375 76.19679 54.85527
# Shear Modulus (GPa) = 32.48084 49.12674 40.80379
#
# Velocity S-wave (km/s) = 3.52661 4.33713 3.95270
# Velocity P-wave (km/s) = 5.42357 7.36593 6.46807
#
# Compressibility (1/GPa) = 0.02983850
#
# Stress axis : x y z
#
# Youngs Moduli (GPa) = 128.17316 73.08795 37.40491
#
# Poissons Ratio (x) = 0.11335 0.22115
# Poissons Ratio (y) = 0.19877 0.06459
# Poissons Ratio (z) = 0.75780 0.12621
#
# Static dielectric constant tensor:
#      x y z
#    x 2.130380 -0.069450 0.209080 
#    y -0.069450 2.190500 -0.089230 
#    z 0.209080 -0.089230 2.205630 
# 
# From -- ./inp_files/514401.got.cif
#   From: 2010.05.17/outbox.cif.g08.bks.cpg/sg2_258_cif.got.tgz:514401.got - 2010.06.03 11:33:40.
