data_PCOD9010470
_publ_section_title
;
Structure prediction by ZEFSAII (Michael W. Deem and Ramdas Pophale) SiO2 
 PCOD9010470
Probable space group: P -1
;
_chemical_formula_sum "Si O2"
_cell_formula_units_Z 16
_cell_length_a 8.318090
_cell_length_b 14.039111
_cell_length_c 12.507477
_cell_angle_alpha 30.770735
_cell_angle_beta 111.297198
_cell_angle_gamma 113.509766
_cell_volume 684.572109
_symmetry_space_group_name_H-M "P -1"
_symmetry_group_IT_number 2
_symmetry_cell_setting 'triclinic'
loop_
_space_group_symop_operation_xyz
x,y,z
-x,-y,-z
loop_
_atom_site_type_symbol
_atom_site_label
_atom_site_fract_x
_atom_site_fract_y
_atom_site_fract_z
Si Si1 0.749293 0.443003 0.178868
Si Si2 0.440663 0.800427 0.238568
Si Si3 0.791230 0.758902 0.044122
Si Si4 0.594655 0.337654 0.864075
Si Si5 0.090080 0.891295 0.388666
Si Si6 0.656671 0.642446 0.761070
Si Si7 0.942674 0.275505 0.687706
Si Si8 0.726433 0.952694 0.324517
O O1 0.829051 0.253605 0.379092
O O2 0.545505 0.392384 0.214986
O O3 0.836240 0.584903 0.155115
O O4 0.760534 0.562730 0.957881
O O5 0.262612 0.787475 0.274704
O O6 0.597333 0.808699 0.353008
O O7 0.396810 0.653377 0.271397
O O8 0.500000 0.000000 0.000000
O O9 0.611383 0.697556 0.122879
O O10 0.774067 0.926798 0.796230
O O11 0.944782 0.816860 0.109969
O O12 0.670264 0.154798 0.099589
O O13 0.679228 0.513899 0.787021
O O14 0.024889 0.779931 0.371479
O O15 0.926266 0.963859 0.329097
O O16 0.704609 0.858591 0.526810
O O17 0.000000 0.500000 0.500000
#
# Coordination Sequence:
#
# PCOD9010470 Si02
#       8
#     2   2   2   2   2   2   2   2
#     4  10  23  44  64  94 119 164 219 263 316 369
#     4  10  21  40  63  91 133 166 207 257 311 387
#     4  11  22  41  67  92 127 166 208 262 315 377
#     4  10  22  40  65  93 125 167 211 255 314 379
#     4  12  24  41  65  92 130 167 207 261 318 378
#     4  10  23  42  67  88 125 163 213 270 311 373
#     4  12  24  39  66  98 133 165 212 264 317 385
#     4  11  24  40  63  93 127 168 208 255 316 382
#
# _framework density 23.372264999999999
#
# number of rings (size 3 to 8) (size 9 to 14) (size 15 to 20)
#    0.000    1.250    1.250    5.625    3.500    3.000 
#    0.000    5.000    0.000    0.000    0.000    0.000 
#    0.000    0.000    0.000    0.000    0.000    0.000 
#
# Total GULP energy -89543.543644 kJ/mol
# GULP energy per Si atom -5596.471478 kJ/mol
# Density = 2.331907 g / cm^3
# Si number density = 23.372265 Si / 1000 Ang^3
#
#
#
# Elastic Constant Matrix: (Units=GPa)
#
#
# Indices 1 2 3 4 5 6 
#
# 1 44.7036 6.5939 6.9260 9.3942 8.9417 -5.0312
# 2 6.5939 27.8573 6.5701 -1.3628 10.5469 -7.5640
# 3 6.9260 6.5701 134.6925 16.2651 18.2748 -7.1445
# 4 9.3942 -1.3628 16.2651 34.0770 -2.2938 3.1147
# 5 8.9417 10.5469 18.2748 -2.2938 32.9226 -2.0083
# 6 -5.0312 -7.5640 -7.1445 3.1147 -2.0083 22.2131
#
#
#
# Elastic Compliance Matrix: (Units=1/GPa)
#
#
# Indices 1 2 3 4 5 6 
#
# 1 0.026625 -0.002589 0.001167 -0.009053 -0.007306 0.006133
# 2 -0.002589 0.045111 0.000419 0.000182 -0.013133 0.013697
# 3 0.001167 0.000419 0.008918 -0.005256 -0.005554 0.003510
# 4 -0.009053 0.000182 -0.005256 0.035581 0.007309 -0.008008
# 5 -0.007306 -0.013133 -0.005554 0.007309 0.039832 -0.005337
# 6 0.006133 0.013697 0.003510 -0.008008 -0.005337 0.052841
#
#
# Mechanical properties :
#
#
# Convention : Reuss Voigt Hill
#
# Bulk Modulus (GPa) = 12.71471 27.49262 20.10367
# Shear Modulus (GPa) = 21.08544 30.32008 25.70276
#
# Velocity S-wave (km/s) = 3.00685 3.60567 3.31979
# Velocity P-wave (km/s) = 4.18411 5.39656 4.82854
#
# Compressibility (1/GPa) = 0.07864903
#
# Stress axis : x y z
#
# Youngs Moduli (GPa) = 37.55923 22.16734 112.12858
#
# Poissons Ratio (x) = 0.05739 -0.13085
# Poissons Ratio (y) = 0.09723 -0.04699
# Poissons Ratio (z) = -0.04383 -0.00929
#
# Static dielectric constant tensor:
#      x y z
#    x 1.808000 -0.000490 -0.003650 
#    y -0.000490 1.920080 -0.009070 
#    z -0.003650 -0.009070 1.879960 
# 
# From -- ./inp_files/344970.got.cif
#   From: 2010.05.17/outbox.cif.g08.bks.cpg/sg2_173_cif.got.tgz:344970.got - 2010.06.03 11:33:40.
