data_PCOD9010046
_publ_section_title
;
Structure prediction by ZEFSAII (Michael W. Deem and Ramdas Pophale) SiO2 
 PCOD9010046
Probable space group: P -1
;
_chemical_formula_sum "Si O2"
_cell_formula_units_Z 13
_cell_length_a 4.992765
_cell_length_b 13.934304
_cell_length_c 15.552909
_cell_angle_alpha 148.480924
_cell_angle_beta 104.667099
_cell_angle_gamma 89.285678
_cell_volume 501.033852
_symmetry_space_group_name_H-M "P -1"
_symmetry_group_IT_number 2
_symmetry_cell_setting 'triclinic'
loop_
_space_group_symop_operation_xyz
x,y,z
-x,-y,-z
loop_
_atom_site_type_symbol
_atom_site_label
_atom_site_fract_x
_atom_site_fract_y
_atom_site_fract_z
Si Si1 0.530255 0.868182 0.495522
Si Si2 0.704572 0.506825 0.940975
Si Si3 0.000000 0.000000 0.500000
Si Si4 0.677810 0.036403 0.934433
Si Si5 0.254246 0.220428 0.000770
Si Si6 0.107548 0.315017 0.308705
Si Si7 0.431034 0.414557 0.575167
O O1 0.456055 0.686755 0.280787
O O2 0.584339 0.780072 0.522945
O O3 0.251625 0.935540 0.524802
O O4 0.833511 0.023262 0.594066
O O5 0.765993 0.694508 0.028220
O O6 0.500000 0.500000 0.000000
O O7 0.000000 0.500000 0.000000
O O8 0.378042 0.048117 0.882793
O O9 0.944149 0.152134 0.975633
O O10 0.789652 0.165957 0.130223
O O11 0.701131 0.826158 0.788566
O O12 0.505580 0.411340 0.216622
O O13 0.157280 0.382108 0.462774
O O14 0.277594 0.493691 0.393126
#
# Coordination Sequence:
#
# PCOD9010046 Si02
#       7
#     2   2   1   2   2   2   2
#     4  10  22  43  65  92 127 170 212 265 326 377
#     4  11  22  40  65  93 123 166 218 268 316 385
#     4  10  22  44  64  88 128 168 206 272 322 376
#     4  10  21  40  61  93 132 161 204 257 319 373
#     4  10  22  41  63  89 125 169 208 258 317 375
#     4   9  20  39  64  95 130 167 207 260 310 384
#     4   9  20  40  66  92 125 169 214 253 313 386
#
# _framework density 25.946349999999999
#
# number of rings (size 3 to 8) (size 9 to 14) (size 15 to 20)
#    0.000    2.154    0.000    1.846    0.000   12.308 
#   16.615    6.154    0.000    0.000    0.000    0.000 
#    0.000    0.000    0.000    0.000    0.000    0.000 
#
# Total GULP energy -72569.958502 kJ/mol
# GULP energy per Si atom -5582.304500 kJ/mol
# Density = 2.588730 g / cm^3
# Si number density = 25.946350 Si / 1000 Ang^3
#
#
#
# Elastic Constant Matrix: (Units=GPa)
#
#
# Indices 1 2 3 4 5 6 
#
# 1 131.3102 60.3309 13.7252 -6.7615 -33.0385 -10.4997
# 2 60.3309 225.3991 2.7670 -13.1190 -12.3813 12.8856
# 3 13.7252 2.7670 74.3292 -27.3944 15.1596 4.9045
# 4 -6.7615 -13.1190 -27.3944 36.0144 -8.3703 3.8376
# 5 -33.0385 -12.3813 15.1596 -8.3703 27.6826 5.2301
# 6 -10.4997 12.8856 4.9045 3.8376 5.2301 37.8741
#
#
#
# Elastic Compliance Matrix: (Units=1/GPa)
#
#
# Indices 1 2 3 4 5 6 
#
# 1 0.014936 -0.002950 -0.006508 0.001044 0.019791 0.003148
# 2 -0.002950 0.005534 0.001765 0.003026 -0.000499 -0.003167
# 3 -0.006508 0.001765 0.023053 0.014120 -0.014420 -0.004829
# 4 0.001044 0.003026 0.014120 0.042859 0.009376 -0.008206
# 5 0.019791 -0.000499 -0.014420 0.009376 0.070860 -0.003212
# 6 0.003148 -0.003167 -0.004829 -0.008206 -0.003212 0.030254
#
#
# Mechanical properties :
#
#
# Convention : Reuss Voigt Hill
#
# Bulk Modulus (GPa) = 35.53993 64.96497 50.25245
# Shear Modulus (GPa) = 23.55585 43.92859 33.74222
#
# Velocity S-wave (km/s) = 3.01635 4.11914 3.61010
# Velocity P-wave (km/s) = 5.08511 6.90765 6.06523
#
# Compressibility (1/GPa) = 0.02813736
#
# Stress axis : x y z
#
# Youngs Moduli (GPa) = 66.95110 180.69056 43.37794
#
# Poissons Ratio (x) = 0.53305 0.28229
# Poissons Ratio (y) = 0.19751 -0.07655
# Poissons Ratio (z) = 0.43570 -0.31885
#
# Static dielectric constant tensor:
#      x y z
#    x 1.986160 0.037780 0.083850 
#    y 0.037780 2.018810 0.044830 
#    z 0.083850 0.044830 2.212590 
# 
# From -- ./inp_files/481310.got.cif
#   From: 2010.05.17/outbox.cif.g08.bks.cpg/sg2_241_cif.got.tgz:481310.got - 2010.06.03 11:33:40.
