data_PCOD9010959
_publ_section_title
;
Structure prediction by ZEFSAII (Michael W. Deem and Ramdas Pophale) SiO2 
 PCOD9010959
Probable space group: P -1
;
_chemical_formula_sum "Si O2"
_cell_formula_units_Z 14
_cell_length_a 18.241782
_cell_length_b 18.706466
_cell_length_c 12.327251
_cell_angle_alpha 20.209832
_cell_angle_beta 38.836132
_cell_angle_gamma 27.584065
_cell_volume 635.154446
_symmetry_space_group_name_H-M "P -1"
_symmetry_group_IT_number 2
_symmetry_cell_setting 'triclinic'
loop_
_space_group_symop_operation_xyz
x,y,z
-x,-y,-z
loop_
_atom_site_type_symbol
_atom_site_label
_atom_site_fract_x
_atom_site_fract_y
_atom_site_fract_z
Si Si1 0.341331 0.738383 0.768142
Si Si2 0.749708 0.258671 0.704815
Si Si3 0.813106 0.151449 0.531371
Si Si4 0.996147 0.196469 0.642080
Si Si5 0.343435 0.350392 0.155445
Si Si6 0.412144 0.884719 0.269586
Si Si7 0.913341 0.668291 0.471180
O O1 0.381431 0.872130 0.448998
O O2 0.174542 0.990809 0.670138
O O3 0.500000 0.500000 0.000000
O O4 0.324110 0.552867 0.980126
O O5 0.797832 0.152746 0.676597
O O6 0.558205 0.557466 0.516419
O O7 0.858292 0.315625 0.542514
O O8 0.793078 0.010921 0.086232
O O9 0.753175 0.010150 0.746265
O O10 0.682042 0.492908 0.150649
O O11 0.000000 0.000000 0.500000
O O12 0.967597 0.413770 0.451349
O O13 0.000000 0.000000 0.000000
O O14 0.188599 0.394400 0.280213
O O15 0.500000 0.000000 0.500000
O O16 0.500000 0.000000 0.000000
O O17 0.000000 0.500000 0.500000
#
# Coordination Sequence:
#
# PCOD9010959 Si02
#       7
#     2   2   2   2   2   2   2
#     4  11  22  41  65  93 133 179 229 288 341 411
#     4  11  23  42  66  96 136 178 228 287 344 414
#     4  11  24  46  69  97 138 184 232 288 347 413
#     4  10  21  40  64  97 133 175 226 284 347 414
#     4  11  23  40  64  97 132 175 228 280 341 406
#     4  11  26  44  64  97 136 183 230 284 346 408
#     4  11  22  39  65  97 130 172 220 277 345 418
#
# _framework density 22.041884
#
# number of rings (size 3 to 8) (size 9 to 14) (size 15 to 20)
#    0.000    1.143    0.000    9.000    0.000    5.714 
#    0.000    2.143    0.000    0.000    0.000    0.000 
#    0.000    0.000    0.000    0.000    0.000    0.000 
#
# Total GULP energy -78150.554306 kJ/mol
# GULP energy per Si atom -5582.182450 kJ/mol
# Density = 2.199172 g / cm^3
# Si number density = 22.041884 Si / 1000 Ang^3
#
#
#
# Elastic Constant Matrix: (Units=GPa)
#
#
# Indices 1 2 3 4 5 6 
#
# 1 157.1265 32.3751 38.2266 28.7343 -8.4411 -6.7177
# 2 32.3751 116.2194 29.3878 25.0395 0.5887 -3.5935
# 3 38.2266 29.3878 123.2122 23.9045 -1.9708 -7.5251
# 4 28.7343 25.0395 23.9045 45.6184 -4.4415 -0.6180
# 5 -8.4411 0.5887 -1.9708 -4.4415 40.6937 8.8650
# 6 -6.7177 -3.5935 -7.5251 -0.6180 8.8650 42.1107
#
#
#
# Elastic Compliance Matrix: (Units=1/GPa)
#
#
# Indices 1 2 3 4 5 6 
#
# 1 0.007619 -0.001022 -0.001408 -0.003392 0.001024 0.000611
# 2 -0.001022 0.010171 -0.001236 -0.004384 -0.001036 0.000638
# 3 -0.001408 -0.001236 0.009606 -0.003498 -0.000505 0.001441
# 4 -0.003392 -0.004384 -0.003498 0.028534 0.002672 -0.001684
# 5 0.001024 -0.001036 -0.000505 0.002672 0.026268 -0.005506
# 6 0.000611 0.000638 0.001441 -0.001684 -0.005506 0.025291
#
#
# Mechanical properties :
#
#
# Convention : Reuss Voigt Hill
#
# Bulk Modulus (GPa) = 49.83950 66.28191 58.06071
# Shear Modulus (GPa) = 41.14912 45.45581 43.30246
#
# Velocity S-wave (km/s) = 4.32541 4.54612 4.43714
# Velocity P-wave (km/s) = 6.89970 7.59556 7.25598
#
# Compressibility (1/GPa) = 0.02006441
#
# Stress axis : x y z
#
# Youngs Moduli (GPa) = 131.25229 98.31830 104.09725
#
# Poissons Ratio (x) = 0.10045 0.14659
# Poissons Ratio (y) = 0.13410 0.12867
# Poissons Ratio (z) = 0.18483 0.12153
#
# Static dielectric constant tensor:
#      x y z
#    x 1.809370 -0.053100 0.002090 
#    y -0.053100 1.769090 -0.030480 
#    z 0.002090 -0.030480 1.860140 
# 
# From -- ./inp_files/382901.got.cif
#   From: 2010.05.17/outbox.cif.g08.bks.cpg/sg2_192_cif.got.tgz:382901.got - 2010.06.03 11:33:40.
