data_PCOD9010279
_publ_section_title
;
Structure prediction by ZEFSAII (Michael W. Deem and Ramdas Pophale) SiO2 
 PCOD9010279
Probable space group: P -1
;
_chemical_formula_sum "Si O2"
_cell_formula_units_Z 16
_cell_length_a 17.435540
_cell_length_b 8.106396
_cell_length_c 6.953555
_cell_angle_alpha 88.401761
_cell_angle_beta 124.424806
_cell_angle_gamma 120.371448
_cell_volume 651.878401
_symmetry_space_group_name_H-M "P -1"
_symmetry_group_IT_number 2
_symmetry_cell_setting 'triclinic'
loop_
_space_group_symop_operation_xyz
x,y,z
-x,-y,-z
loop_
_atom_site_type_symbol
_atom_site_label
_atom_site_fract_x
_atom_site_fract_y
_atom_site_fract_z
Si Si1 0.498318 0.762586 0.993844
Si Si2 0.687516 0.629250 0.416772
Si Si3 0.439328 0.282642 0.518962
Si Si4 0.299742 0.800098 0.755419
Si Si5 0.277734 0.892311 0.102567
Si Si6 0.027437 0.147544 0.849705
Si Si7 0.167825 0.537881 0.256272
Si Si8 0.829259 0.902362 0.257188
O O1 0.487101 0.713404 0.204298
O O2 0.632309 0.952561 0.153797
O O3 0.446129 0.563083 0.798250
O O4 0.404043 0.804121 0.812803
O O5 0.678561 0.771454 0.546185
O O6 0.760030 0.557788 0.615858
O O7 0.734361 0.715733 0.266527
O O8 0.500000 0.500000 0.500000
O O9 0.401074 0.098896 0.327215
O O10 0.181638 0.629125 0.486876
O O11 0.283346 0.755036 0.957050
O O12 0.224498 0.746620 0.213645
O O13 0.205764 0.967362 0.906882
O O14 0.922453 0.044629 0.551960
O O15 0.124205 0.170592 0.842335
O O16 0.058755 0.354883 0.988904
O O17 0.000000 0.000000 0.000000
#
# Coordination Sequence:
#
# PCOD9010279 Si02
#       8
#     2   2   2   2   2   2   2   2
#     4  10  21  40  62  95 136 186 224 279 325 397
#     4  11  23  43  71  97 144 182 233 283 336 402
#     4  12  24  39  65 103 139 189 237 275 328 399
#     4  10  23  42  63  96 145 177 224 280 338 391
#     4  12  26  41  70 101 141 178 228 280 341 403
#     4  11  25  49  78 102 131 172 231 283 354 421
#     4  11  25  43  71 100 135 180 222 288 344 408
#     4  11  26  46  75 104 134 177 226 288 345 412
#
# _framework density 24.544454999999999
#
# number of rings (size 3 to 8) (size 9 to 14) (size 15 to 20)
#    0.000    1.000    2.500    3.375    5.250    1.000 
#    0.000    1.250    0.000    0.000    0.000    0.000 
#    0.000    0.000    0.000    0.000    0.000    0.000 
#
# Total GULP energy -89245.216899 kJ/mol
# GULP energy per Si atom -5577.826056 kJ/mol
# Density = 2.448859 g / cm^3
# Si number density = 24.544455 Si / 1000 Ang^3
#
#
#
# Elastic Constant Matrix: (Units=GPa)
#
#
# Indices 1 2 3 4 5 6 
#
# 1 51.9026 6.1435 13.1393 -4.7472 -17.4936 1.5700
# 2 6.1435 95.0606 36.2057 3.0175 -4.1947 1.1838
# 3 13.1393 36.2057 141.8939 22.1952 -22.1877 -5.7442
# 4 -4.7472 3.0175 22.1952 64.1757 -12.1771 -1.3316
# 5 -17.4936 -4.1947 -22.1877 -12.1771 43.0570 -6.3414
# 6 1.5700 1.1838 -5.7442 -1.3316 -6.3414 15.4672
#
#
#
# Elastic Compliance Matrix: (Units=1/GPa)
#
#
# Indices 1 2 3 4 5 6 
#
# 1 0.023423 -0.000875 -0.000874 0.004097 0.010433 0.001995
# 2 -0.000875 0.011784 -0.003247 0.000228 -0.001182 -0.002484
# 3 -0.000874 -0.003247 0.009170 -0.002174 0.004218 0.005285
# 4 0.004097 0.000228 -0.002174 0.017825 0.006014 0.002760
# 5 0.010433 -0.001182 0.004218 0.006014 0.033404 0.014811
# 6 0.001995 -0.002484 0.005285 0.002760 0.014811 0.072913
#
#
# Mechanical properties :
#
#
# Convention : Reuss Voigt Hill
#
# Bulk Modulus (GPa) = 29.08296 44.42602 36.75449
# Shear Modulus (GPa) = 26.31929 40.09788 33.20859
#
# Velocity S-wave (km/s) = 3.27817 4.04627 3.68230
# Velocity P-wave (km/s) = 5.11892 6.32212 5.75207
#
# Compressibility (1/GPa) = 0.03438440
#
# Stress axis : x y z
#
# Youngs Moduli (GPa) = 42.69371 84.85824 109.04601
#
# Poissons Ratio (x) = 0.07427 0.09534
# Poissons Ratio (y) = 0.03737 0.35407
# Poissons Ratio (z) = 0.03733 0.27553
#
# Static dielectric constant tensor:
#      x y z
#    x 2.032920 -0.006440 -0.031720 
#    y -0.006440 2.060100 0.045780 
#    z -0.031720 0.045780 1.976050 
# 
# From -- ./inp_files/83388.got.cif
#   From: 2010.05.17/outbox.cif.g08.bks.cpg/sg2_42_cif.got.tgz:83388.got - 2010.06.03 11:33:40.
