data_PCOD9010933
_publ_section_title
;
Structure prediction by ZEFSAII (Michael W. Deem and Ramdas Pophale) SiO2 
 PCOD9010933
Probable space group: P -1
;
_chemical_formula_sum "Si O2"
_cell_formula_units_Z 16
_cell_length_a 6.063912
_cell_length_b 12.131627
_cell_length_c 13.167434
_cell_angle_alpha 73.689958
_cell_angle_beta 86.960197
_cell_angle_gamma 47.453017
_cell_volume 671.963089
_symmetry_space_group_name_H-M "P -1"
_symmetry_group_IT_number 2
_symmetry_cell_setting 'triclinic'
loop_
_space_group_symop_operation_xyz
x,y,z
-x,-y,-z
loop_
_atom_site_type_symbol
_atom_site_label
_atom_site_fract_x
_atom_site_fract_y
_atom_site_fract_z
Si Si1 0.280211 0.995686 0.821500
Si Si2 0.648427 0.226373 0.295860
Si Si3 0.380104 0.272270 0.978150
Si Si4 0.297496 0.495491 0.082559
Si Si5 0.227023 0.516085 0.548169
Si Si6 0.715483 0.012762 0.725688
Si Si7 0.388917 0.165188 0.491804
Si Si8 0.347116 0.735460 0.224363
O O1 0.320665 0.894581 0.750327
O O2 0.582703 0.961020 0.809130
O O3 0.341808 0.908439 0.948020
O O4 0.997918 0.187909 0.779420
O O5 0.449257 0.402193 0.209691
O O6 0.534576 0.213712 0.406911
O O7 0.998829 0.136825 0.305637
O O8 0.502380 0.311265 0.876714
O O9 0.050878 0.338105 0.938948
O O10 0.300590 0.373397 0.054149
O O11 0.500000 0.500000 0.000000
O O12 0.500000 0.500000 0.500000
O O13 0.403830 0.395795 0.668767
O O14 0.000000 0.500000 0.500000
O O15 0.971356 0.696433 0.543930
O O16 0.489090 0.140880 0.612207
O O17 0.761004 0.098389 0.782065
O O18 0.500000 0.000000 0.500000
#
# Coordination Sequence:
#
# PCOD9010933 Si02
#       8
#     2   2   2   2   2   2   2   2
#     4  10  21  40  64  96 131 175 228 293 350 426
#     4  10  22  38  63  95 130 170 231 289 350 417
#     4  10  22  40  63  93 134 172 231 287 354 431
#     4  10  21  41  62  91 131 173 224 289 353 425
#     4  12  28  50  74 106 152 194 241 309 375 436
#     4  11  22  39  66  93 134 175 231 293 356 428
#     4  12  24  44  71 101 134 189 247 297 365 435
#     4  11  24  42  65  96 138 181 229 290 366 438
#
# _framework density 23.810828999999998
#
# number of rings (size 3 to 8) (size 9 to 14) (size 15 to 20)
#    0.000    1.250    2.500    3.000    1.750    2.500 
#    4.500    0.000    0.000    0.000    0.000    0.000 
#    0.000    0.000    0.000    0.000    0.000    0.000 
#
# Total GULP energy -89165.132300 kJ/mol
# GULP energy per Si atom -5572.820769 kJ/mol
# Density = 2.375663 g / cm^3
# Si number density = 23.810829 Si / 1000 Ang^3
#
#
#
# Elastic Constant Matrix: (Units=GPa)
#
#
# Indices 1 2 3 4 5 6 
#
# 1 26.9058 2.5026 -11.7122 10.1709 -4.4253 -10.1158
# 2 2.5026 96.7549 0.9816 -11.8765 15.1487 -27.5501
# 3 -11.7122 0.9816 99.6171 -12.5926 -5.4608 -4.4858
# 4 10.1709 -11.8765 -12.5926 37.0306 -11.6332 9.1094
# 5 -4.4253 15.1487 -5.4608 -11.6332 25.8021 10.9077
# 6 -10.1158 -27.5501 -4.4858 9.1094 10.9077 33.5099
#
#
#
# Elastic Compliance Matrix: (Units=1/GPa)
#
#
# Indices 1 2 3 4 5 6 
#
# 1 0.065748 0.015004 0.003352 -0.037047 -0.036618 0.054622
# 2 0.015004 0.027223 -0.001350 -0.020535 -0.042456 0.046132
# 3 0.003352 -0.001350 0.011414 0.005381 0.007216 -0.002382
# 4 -0.037047 -0.020535 0.005381 0.070516 0.067601 -0.068520
# 5 -0.036618 -0.042456 0.007216 0.067601 0.134739 -0.107228
# 6 0.054622 0.046132 -0.002382 -0.068520 -0.107228 0.137470
#
#
# Mechanical properties :
#
#
# Convention : Reuss Voigt Hill
#
# Bulk Modulus (GPa) = 7.22557 22.98022 15.10289
# Shear Modulus (GPa) = 10.88776 34.70224 22.79500
#
# Velocity S-wave (km/s) = 2.14069 3.82175 3.09744
# Velocity P-wave (km/s) = 3.02510 5.39875 4.37594
#
# Compressibility (1/GPa) = 0.13839737
#
# Stress axis : x y z
#
# Youngs Moduli (GPa) = 15.20958 36.73308 87.60939
#
# Poissons Ratio (x) = -0.55115 -0.29362
# Poissons Ratio (y) = -0.22821 0.11827
# Poissons Ratio (z) = -0.05098 0.04959
#
# Static dielectric constant tensor:
#      x y z
#    x 2.757290 -0.422940 0.129490 
#    y -0.422940 2.175280 -0.084490 
#    z 0.129490 -0.084490 1.886560 
# 
# From -- ./inp_files/78515.got.cif
#   From: 2010.05.17/outbox.cif.g08.bks.cpg/sg2_40_cif.got.tgz:78515.got - 2010.06.03 11:33:40.
