data_PCOD9010429
_publ_section_title
;
Structure prediction by ZEFSAII (Michael W. Deem and Ramdas Pophale) SiO2 
 PCOD9010429
Probable space group: P -1
;
_chemical_formula_sum "Si O2"
_cell_formula_units_Z 16
_cell_length_a 8.748676
_cell_length_b 15.851915
_cell_length_c 21.110657
_cell_angle_alpha 151.834465
_cell_angle_beta 143.714116
_cell_angle_gamma 33.159822
_cell_volume 729.152134
_symmetry_space_group_name_H-M "P -1"
_symmetry_group_IT_number 2
_symmetry_cell_setting 'triclinic'
loop_
_space_group_symop_operation_xyz
x,y,z
-x,-y,-z
loop_
_atom_site_type_symbol
_atom_site_label
_atom_site_fract_x
_atom_site_fract_y
_atom_site_fract_z
Si Si1 0.127194 0.689997 0.963627
Si Si2 0.548155 0.338486 0.782152
Si Si3 0.311421 0.184541 0.306192
Si Si4 0.148724 0.281710 0.986622
Si Si5 0.697631 0.003989 0.700986
Si Si6 0.718547 0.397157 0.393818
Si Si7 0.450775 0.141930 0.188213
Si Si8 0.350650 0.600962 0.775527
O O1 0.870625 0.803839 0.904274
O O2 0.991696 0.613262 0.924349
O O3 0.379860 0.514765 0.893704
O O4 0.215970 0.844455 0.130191
O O5 0.545909 0.139572 0.678904
O O6 0.398868 0.420100 0.719077
O O7 0.879352 0.307033 0.870163
O O8 0.273649 0.409311 0.446875
O O9 0.488590 0.084712 0.236548
O O10 0.977826 0.222620 0.211570
O O11 0.446071 0.068994 0.339858
O O12 0.327880 0.044079 0.901794
O O13 0.394445 0.339204 0.082945
O O14 0.970484 0.799383 0.634926
O O15 0.510840 0.329237 0.317426
O O16 0.622475 0.447590 0.322006
#
# Coordination Sequence:
#
# PCOD9010429 Si02
#       8
#     2   2   2   2   2   2   2   2
#     4  11  21  39  65  95 128 163 196 258 324 371
#     4  11  23  41  62 100 130 164 191 255 335 378
#     4  11  25  40  64  92 123 172 215 260 296 363
#     4  11  22  38  65  96 129 163 197 261 320 374
#     4  10  21  40  63  90 126 161 205 253 314 371
#     4  11  22  44  64  88 124 170 217 259 300 356
#     4  12  21  40  67  92 125 160 221 257 306 365
#     4  11  22  39  65  94 126 159 211 253 312 377
#
# _framework density 21.943294000000002
#
# number of rings (size 3 to 8) (size 9 to 14) (size 15 to 20)
#    0.000    1.000    5.000    5.625    1.750    1.000 
#    2.250    2.500    0.000    1.500    0.000    0.000 
#    0.000    0.000    0.000    0.000    0.000    0.000 
#
# Total GULP energy -89331.960903 kJ/mol
# GULP energy per Si atom -5583.247556 kJ/mol
# Density = 2.189335 g / cm^3
# Si number density = 21.943294 Si / 1000 Ang^3
#
#
#
# Elastic Constant Matrix: (Units=GPa)
#
#
# Indices 1 2 3 4 5 6 
#
# 1 79.0275 22.1047 12.9916 -0.5127 3.7907 11.2850
# 2 22.1047 100.2592 14.3479 10.7603 4.2937 13.9772
# 3 12.9916 14.3479 37.6496 12.8283 8.6001 -6.5671
# 4 -0.5127 10.7603 12.8283 20.6774 2.3270 0.6175
# 5 3.7907 4.2937 8.6001 2.3270 21.8036 6.0549
# 6 11.2850 13.9772 -6.5671 0.6175 6.0549 45.2548
#
#
#
# Elastic Compliance Matrix: (Units=1/GPa)
#
#
# Indices 1 2 3 4 5 6 
#
# 1 0.015165 -0.002381 -0.007543 0.006273 0.001362 -0.004409
# 2 -0.002381 0.011857 -0.002995 -0.004345 0.000707 -0.003538
# 3 -0.007543 -0.002995 0.044520 -0.024768 -0.016288 0.011784
# 4 0.006273 -0.004345 -0.024768 0.065856 0.003962 -0.005245
# 5 0.001362 0.000707 -0.016288 0.003962 0.054335 -0.010246
# 6 -0.004409 -0.003538 0.011784 -0.005245 -0.010246 0.027442
#
#
# Mechanical properties :
#
#
# Convention : Reuss Voigt Hill
#
# Bulk Modulus (GPa) = 21.88021 35.09165 28.48593
# Shear Modulus (GPa) = 19.21250 28.71330 23.96290
#
# Velocity S-wave (km/s) = 2.96218 3.62127 3.30818
# Velocity P-wave (km/s) = 4.65750 5.78891 5.25375
#
# Compressibility (1/GPa) = 0.04570339
#
# Stress axis : x y z
#
# Youngs Moduli (GPa) = 65.94234 84.33804 22.46172
#
# Poissons Ratio (x) = 0.20081 0.16943
# Poissons Ratio (y) = 0.15701 0.06728
# Poissons Ratio (z) = 0.49742 0.25260
#
# Static dielectric constant tensor:
#      x y z
#    x 1.836140 0.047470 0.048040 
#    y 0.047470 1.821950 -0.006480 
#    z 0.048040 -0.006480 1.797740 
# 
# From -- ./inp_files/590494.got.cif
#   From: 2010.05.17/outbox.cif.g08.bks.cpg/sg2_296_cif.got.tgz:590494.got - 2010.06.03 11:33:40.
