data_PCOD9010309
_publ_section_title
;
Structure prediction by ZEFSAII (Michael W. Deem and Ramdas Pophale) SiO2 
 PCOD9010309
Probable space group: P -1
;
_chemical_formula_sum "Si O2"
_cell_formula_units_Z 12
_cell_length_a 9.292933
_cell_length_b 5.225067
_cell_length_c 18.884070
_cell_angle_alpha 115.886352
_cell_angle_beta 49.528678
_cell_angle_gamma 83.929526
_cell_volume 516.249331
_symmetry_space_group_name_H-M "P -1"
_symmetry_group_IT_number 2
_symmetry_cell_setting 'triclinic'
loop_
_space_group_symop_operation_xyz
x,y,z
-x,-y,-z
loop_
_atom_site_type_symbol
_atom_site_label
_atom_site_fract_x
_atom_site_fract_y
_atom_site_fract_z
Si Si1 0.501038 0.655785 0.944561
Si Si2 0.341244 0.826913 0.510551
Si Si3 0.842490 0.397812 0.571435
Si Si4 0.115893 0.481846 0.282631
Si Si5 0.046342 0.795540 0.033877
Si Si6 0.825000 0.259889 0.295515
O O1 0.747956 0.419356 0.798700
O O2 0.500000 0.500000 0.000000
O O3 0.299725 0.686364 0.965405
O O4 0.500000 0.000000 0.000000
O O5 0.320803 0.566110 0.434702
O O6 0.611143 0.657746 0.396664
O O7 0.262290 0.826862 0.616309
O O8 0.145376 0.190529 0.583504
O O9 0.745784 0.624537 0.701095
O O10 0.000000 0.500000 0.500000
O O11 0.000000 0.000000 0.500000
O O12 0.058642 0.229525 0.235576
O O13 0.882227 0.029926 0.180105
O O14 0.000000 0.500000 0.000000
O O15 0.000000 0.000000 0.000000
#
# Coordination Sequence:
#
# PCOD9010309 Si02
#       6
#     2   2   2   2   2   2
#     4  12  26  48  79 106 142 200 259 307 365 441
#     4  10  23  42  68 109 139 190 231 299 375 436
#     4  10  21  40  62  98 138 174 226 285 353 426
#     4  11  23  42  73 102 148 181 248 299 369 436
#     4  12  29  52  72 109 150 198 252 307 371 437
#     4  11  23  44  73  99 148 189 241 299 365 448
#
# _framework density 23.244581
#
# number of rings (size 3 to 8) (size 9 to 14) (size 15 to 20)
#    0.000    1.000    3.333    2.500    4.667    0.000 
#    6.000    0.000    0.000    0.000    0.000    0.000 
#    0.000    0.000    0.000    0.000    0.000    0.000 
#
# Total GULP energy -66938.788265 kJ/mol
# GULP energy per Si atom -5578.232355 kJ/mol
# Density = 2.319167 g / cm^3
# Si number density = 23.244581 Si / 1000 Ang^3
#
#
#
# Elastic Constant Matrix: (Units=GPa)
#
#
# Indices 1 2 3 4 5 6 
#
# 1 182.5662 54.8619 74.3363 -15.7246 16.2498 13.7718
# 2 54.8619 130.1811 33.8949 -23.3892 10.8628 7.3843
# 3 74.3363 33.8949 117.4684 -14.3928 15.7396 8.0353
# 4 -15.7246 -23.3892 -14.3928 47.6548 -4.6451 1.5855
# 5 16.2498 10.8628 15.7396 -4.6451 57.0203 -7.3792
# 6 13.7718 7.3843 8.0353 1.5855 -7.3792 36.3646
#
#
#
# Elastic Compliance Matrix: (Units=1/GPa)
#
#
# Indices 1 2 3 4 5 6 
#
# 1 0.008070 -0.002051 -0.004211 0.000354 -0.000966 -0.001921
# 2 -0.002051 0.009575 -0.000796 0.003740 -0.000888 -0.001335
# 3 -0.004211 -0.000796 0.011975 0.001688 -0.001993 -0.001368
# 4 0.000354 0.003740 0.001688 0.023555 0.000352 -0.002222
# 5 -0.000966 -0.000888 -0.001993 0.000352 0.019191 0.004866
# 6 -0.001921 -0.001335 -0.001368 -0.002222 0.004866 0.029884
#
#
# Mechanical properties :
#
#
# Convention : Reuss Voigt Hill
#
# Bulk Modulus (GPa) = 64.50231 84.04464 74.27347
# Shear Modulus (GPa) = 41.14109 46.01612 43.57860
#
# Velocity S-wave (km/s) = 4.21161 4.45415 4.33458
# Velocity P-wave (km/s) = 7.17355 7.91756 7.55472
#
# Compressibility (1/GPa) = 0.01550332
#
# Stress axis : x y z
#
# Youngs Moduli (GPa) = 123.92013 104.43684 83.51011
#
# Poissons Ratio (x) = 0.21423 0.35162
# Poissons Ratio (y) = 0.25420 0.06649
# Poissons Ratio (z) = 0.52177 0.08316
#
# Static dielectric constant tensor:
#      x y z
#    x 2.046420 0.013640 0.065450 
#    y 0.013640 2.014390 0.115690 
#    z 0.065450 0.115690 1.958630 
# 
# From -- ./inp_files/59718.got.cif
#   From: 2010.05.17/outbox.cif.g08.bks.cpg/sg2_30_cif.got.tgz:59718.got - 2010.06.03 11:33:40.
