data_PCOD9010987
_publ_section_title
;
Structure prediction by ZEFSAII (Michael W. Deem and Ramdas Pophale) SiO2 
 PCOD9010987
Probable space group: P -1
;
_chemical_formula_sum "Si O2"
_cell_formula_units_Z 16
_cell_length_a 9.346009
_cell_length_b 15.326393
_cell_length_c 8.805673
_cell_angle_alpha 140.206875
_cell_angle_beta 69.960081
_cell_angle_gamma 103.189058
_cell_volume 757.100396
_symmetry_space_group_name_H-M "P -1"
_symmetry_group_IT_number 2
_symmetry_cell_setting 'triclinic'
loop_
_space_group_symop_operation_xyz
x,y,z
-x,-y,-z
loop_
_atom_site_type_symbol
_atom_site_label
_atom_site_fract_x
_atom_site_fract_y
_atom_site_fract_z
Si Si1 0.208758 0.222962 0.569779
Si Si2 0.073823 0.643211 0.622974
Si Si3 0.389591 0.193237 0.746909
Si Si4 0.703387 0.518801 0.301229
Si Si5 0.268259 0.909555 0.456296
Si Si6 0.094317 0.757127 0.093647
Si Si7 0.642707 0.534483 0.700086
Si Si8 0.991040 0.868926 0.722880
O O1 0.356441 0.189110 0.573617
O O2 0.228087 0.365833 0.670623
O O3 0.068151 0.233276 0.752523
O O4 0.155619 0.123438 0.323720
O O5 0.248346 0.593496 0.457001
O O6 0.995426 0.730199 0.633759
O O7 0.000000 0.500000 0.500000
O O8 0.073000 0.740004 0.899908
O O9 0.567938 0.169334 0.688444
O O10 0.301414 0.067130 0.676621
O O11 0.329783 0.334740 0.032722
O O12 0.682681 0.558367 0.539844
O O13 0.534637 0.493648 0.268813
O O14 0.810188 0.380689 0.073570
O O15 0.193951 0.879601 0.279269
O O16 0.142283 0.862859 0.556020
O O17 0.000000 0.000000 0.000000
#
# Coordination Sequence:
#
# PCOD9010987 Si02
#       8
#     2   2   2   2   2   2   2   2
#     4  11  25  38  67  95 130 168 226 267 335 387
#     4  11  24  42  70 100 132 176 223 268 335 388
#     4  11  24  44  65  97 129 181 214 277 323 402
#     4  10  21  40  64  99 130 170 215 275 332 386
#     4  10  25  44  66  93 136 170 225 264 339 388
#     4  10  21  42  66  95 132 170 214 274 327 397
#     4  10  22  40  68  93 135 171 218 271 332 386
#     4  11  27  45  67  97 135 175 219 278 322 398
#
# _framework density 21.133261999999998
#
# number of rings (size 3 to 8) (size 9 to 14) (size 15 to 20)
#    0.000    1.500    1.250    2.625    8.750    4.500 
#    0.000    0.625    0.000    0.000    0.000    0.000 
#    0.000    0.000    0.000    0.000    0.000    0.000 
#
# Total GULP energy -89461.045540 kJ/mol
# GULP energy per Si atom -5591.315346 kJ/mol
# Density = 2.108516 g / cm^3
# Si number density = 21.133262 Si / 1000 Ang^3
#
#
#
# Elastic Constant Matrix: (Units=GPa)
#
#
# Indices 1 2 3 4 5 6 
#
# 1 107.4865 21.7440 23.9425 -7.5872 22.7795 -6.6482
# 2 21.7440 54.4523 12.0498 6.5832 11.3945 -8.5429
# 3 23.9425 12.0498 88.5428 -6.9010 27.6240 -3.0544
# 4 -7.5872 6.5832 -6.9010 11.3390 -2.6516 3.8495
# 5 22.7795 11.3945 27.6240 -2.6516 37.0492 0.7085
# 6 -6.6482 -8.5429 -3.0544 3.8495 0.7085 26.7335
#
#
#
# Elastic Compliance Matrix: (Units=1/GPa)
#
#
# Indices 1 2 3 4 5 6 
#
# 1 0.012097 -0.004817 -0.000290 0.009459 -0.005067 0.000208
# 2 -0.004817 0.026663 -0.002142 -0.025001 -0.005638 0.010827
# 3 -0.000290 -0.002142 0.015449 0.008048 -0.010107 0.000117
# 4 0.009459 -0.025001 0.008048 0.122773 0.005090 -0.022531
# 5 -0.005067 -0.005638 -0.010107 0.005090 0.039856 -0.006006
# 6 0.000208 0.010827 0.000117 -0.022531 -0.006006 0.044335
#
#
# Mechanical properties :
#
#
# Convention : Reuss Voigt Hill
#
# Bulk Modulus (GPa) = 25.18279 40.66160 32.92219
# Shear Modulus (GPa) = 17.30650 27.87401 22.59026
#
# Velocity S-wave (km/s) = 2.86479 3.63569 3.27302
# Velocity P-wave (km/s) = 4.78380 6.07509 5.46770
#
# Compressibility (1/GPa) = 0.03970966
#
# Stress axis : x y z
#
# Youngs Moduli (GPa) = 82.66522 37.50475 64.73023
#
# Poissons Ratio (x) = 0.18066 0.01880
# Poissons Ratio (y) = 0.39820 0.13867
# Poissons Ratio (z) = 0.02401 0.08035
#
# Static dielectric constant tensor:
#      x y z
#    x 1.786430 -0.016590 0.023850 
#    y -0.016590 1.742140 -0.008220 
#    z 0.023850 -0.008220 1.745350 
# 
# From -- ./inp_files/177701.got.cif
#   From: 2010.05.17/outbox.cif.g08.bks.cpg/sg2_89_cif.got.tgz:177701.got - 2010.06.03 11:33:40.
