data_PCOD9010341
_publ_section_title
;
Structure prediction by ZEFSAII (Michael W. Deem and Ramdas Pophale) SiO2 
 PCOD9010341
Probable space group: P -1
;
_chemical_formula_sum "Si O2"
_cell_formula_units_Z 16
_cell_length_a 14.808623
_cell_length_b 9.267031
_cell_length_c 12.301640
_cell_angle_alpha 122.349563
_cell_angle_beta 68.690326
_cell_angle_gamma 63.397448
_cell_volume 767.970371
_symmetry_space_group_name_H-M "P -1"
_symmetry_group_IT_number 2
_symmetry_cell_setting 'triclinic'
loop_
_space_group_symop_operation_xyz
x,y,z
-x,-y,-z
loop_
_atom_site_type_symbol
_atom_site_label
_atom_site_fract_x
_atom_site_fract_y
_atom_site_fract_z
Si Si1 0.873081 0.806234 0.501971
Si Si2 0.773264 0.596206 0.716136
Si Si3 0.453207 0.222669 0.531716
Si Si4 0.694471 0.325511 0.638697
Si Si5 0.842994 0.080577 0.033153
Si Si6 0.325317 0.901693 0.067313
Si Si7 0.327303 0.795096 0.633012
Si Si8 0.807615 0.517985 0.412001
O O1 0.854826 0.639922 0.400100
O O2 0.058171 0.584424 0.372076
O O3 0.816710 0.022557 0.524729
O O4 0.755131 0.987174 0.733597
O O5 0.725022 0.475730 0.723801
O O6 0.804593 0.531901 0.548059
O O7 0.651245 0.934912 0.915720
O O8 0.296164 0.568450 0.779105
O O9 0.621222 0.092877 0.388814
O O10 0.372034 0.272969 0.474684
O O11 0.500000 0.000000 0.500000
O O12 0.707201 0.276537 0.483741
O O13 0.504142 0.554703 0.845525
O O14 0.807647 0.037393 0.146151
O O15 0.795651 0.017239 0.931804
O O16 0.041643 0.824014 0.827700
O O17 0.500000 0.500000 0.500000
#
# Coordination Sequence:
#
# PCOD9010341 Si02
#       8
#     2   2   2   2   2   2   2   2
#     4  11  23  42  61  91 126 159 196 259 303 353
#     4  11  22  41  63  92 119 165 204 246 296 369
#     4  11  23  40  62  92 122 156 203 258 299 348
#     4  12  23  39  63  91 124 156 203 256 309 341
#     4  11  21  42  66  85 124 165 203 243 298 370
#     4  11  21  41  65  87 123 163 203 243 303 366
#     4  10  21  40  63  86 121 162 200 248 295 359
#     4  11  22  41  66  87 121 166 206 239 302 368
#
# _framework density 20.834136000000001
#
# number of rings (size 3 to 8) (size 9 to 14) (size 15 to 20)
#    0.000    1.000    5.000    4.500    0.000    0.000 
#    0.000    3.750    0.000    0.000    0.000    0.000 
#    0.000    0.000    0.000    0.000    0.000    0.000 
#
# Total GULP energy -89341.557822 kJ/mol
# GULP energy per Si atom -5583.847364 kJ/mol
# Density = 2.078672 g / cm^3
# Si number density = 20.834136 Si / 1000 Ang^3
#
#
#
# Elastic Constant Matrix: (Units=GPa)
#
#
# Indices 1 2 3 4 5 6 
#
# 1 84.6425 15.3726 -11.2792 8.6786 4.2777 0.1636
# 2 15.3726 89.8747 10.0454 18.0409 12.3606 8.8977
# 3 -11.2792 10.0454 55.7793 3.9081 3.7762 -9.9000
# 4 8.6786 18.0409 3.9081 26.0031 0.2800 2.2743
# 5 4.2777 12.3606 3.7762 0.2800 28.9907 -2.7766
# 6 0.1636 8.8977 -9.9000 2.2743 -2.7766 35.3885
#
#
#
# Elastic Compliance Matrix: (Units=1/GPa)
#
#
# Indices 1 2 3 4 5 6 
#
# 1 0.013084 -0.001845 0.003611 -0.003749 -0.001431 0.001542
# 2 -0.001845 0.014774 -0.002794 -0.008766 -0.005999 -0.004395
# 3 0.003611 -0.002794 0.020619 -0.002923 -0.001374 0.006534
# 4 -0.003749 -0.008766 -0.002923 0.046294 0.004105 -0.001249
# 5 -0.001431 -0.005999 -0.001374 0.004105 0.037769 0.003830
# 6 0.001542 -0.004395 0.006534 -0.001249 0.003830 0.031564
#
#
# Mechanical properties :
#
#
# Convention : Reuss Voigt Hill
#
# Bulk Modulus (GPa) = 21.54113 28.73044 25.13578
# Shear Modulus (GPa) = 27.52795 32.48697 30.00746
#
# Velocity S-wave (km/s) = 3.63890 3.95310 3.79925
# Velocity P-wave (km/s) = 5.29313 5.88694 5.59791
#
# Compressibility (1/GPa) = 0.04642282
#
# Stress axis : x y z
#
# Youngs Moduli (GPa) = 76.42656 67.68551 48.49997
#
# Poissons Ratio (x) = 0.12488 -0.17515
# Poissons Ratio (y) = 0.14101 0.13549
# Poissons Ratio (z) = -0.27601 0.18908
#
# Static dielectric constant tensor:
#      x y z
#    x 1.814600 0.042920 0.019840 
#    y 0.042920 1.735600 -0.004580 
#    z 0.019840 -0.004580 1.745560 
# 
# From -- ./inp_files/185349.got.cif
#   From: 2010.05.17/outbox.cif.g08.bks.cpg/sg2_93_cif.got.tgz:185349.got - 2010.06.03 11:33:40.
