data_PCOD9010844
_publ_section_title
;
Structure prediction by ZEFSAII (Michael W. Deem and Ramdas Pophale) SiO2 
 PCOD9010844
Probable space group: P -1
;
_chemical_formula_sum "Si O2"
_cell_formula_units_Z 14
_cell_length_a 11.333948
_cell_length_b 9.167785
_cell_length_c 11.470531
_cell_angle_alpha 112.955581
_cell_angle_beta 141.600171
_cell_angle_gamma 61.147557
_cell_volume 648.271494
_symmetry_space_group_name_H-M "P -1"
_symmetry_group_IT_number 2
_symmetry_cell_setting 'triclinic'
loop_
_space_group_symop_operation_xyz
x,y,z
-x,-y,-z
loop_
_atom_site_type_symbol
_atom_site_label
_atom_site_fract_x
_atom_site_fract_y
_atom_site_fract_z
Si Si1 0.906320 0.787685 0.774821
Si Si2 0.290125 0.238737 0.621300
Si Si3 0.187925 0.528265 0.327866
Si Si4 0.405939 0.558762 0.819264
Si Si5 0.631160 0.395492 0.730792
Si Si6 0.268983 0.901765 0.116119
Si Si7 0.060007 0.805348 0.510745
O O1 0.763552 0.823863 0.563765
O O2 0.933889 0.599147 0.776430
O O3 0.815493 0.908933 0.850225
O O4 0.104642 0.833160 0.907120
O O5 0.279761 0.430567 0.657754
O O6 0.520106 0.141731 0.798216
O O7 0.131060 0.225609 0.587286
O O8 0.418055 0.432184 0.512973
O O9 0.208941 0.573622 0.223958
O O10 0.116488 0.693252 0.403015
O O11 0.579543 0.513103 0.841823
O O12 0.250913 0.736830 0.724029
O O13 0.500000 0.500000 0.000000
O O14 0.691697 0.209284 0.769552
O O15 0.000000 0.000000 0.500000
#
# Coordination Sequence:
#
# PCOD9010844 Si02
#       7
#     2   2   2   2   2   2   2
#     4  11  22  40  66  97 134 170 234 277 338 407
#     4  11  23  41  68  93 134 185 222 278 346 405
#     4  10  21  40  64  93 135 178 223 272 348 399
#     4  10  22  43  72 102 135 180 237 278 333 413
#     4   9  20  39  64  97 128 176 221 281 337 396
#     4  10  23  38  64 104 121 172 225 290 325 399
#     4  11  25  41  65 103 136 185 224 284 344 407
#
# _framework density 21.595890000000001
#
# number of rings (size 3 to 8) (size 9 to 14) (size 15 to 20)
#    0.000    1.714    4.286    0.857    6.000    2.857 
#    0.000    0.714    0.000    0.000    0.000    0.000 
#    0.000    0.000    0.000    0.000    0.000    0.000 
#
# Total GULP energy -78186.896678 kJ/mol
# GULP energy per Si atom -5584.778334 kJ/mol
# Density = 2.154674 g / cm^3
# Si number density = 21.595890 Si / 1000 Ang^3
#
#
#
# Elastic Constant Matrix: (Units=GPa)
#
#
# Indices 1 2 3 4 5 6 
#
# 1 128.0319 24.0683 28.5393 -0.2721 -2.2738 -6.2412
# 2 24.0683 128.8213 32.5400 3.4435 -1.9212 -8.9552
# 3 28.5393 32.5400 94.3001 0.2188 4.8998 -7.6301
# 4 -0.2721 3.4435 0.2188 27.6702 -0.6161 5.2370
# 5 -2.2738 -1.9212 4.8998 -0.6161 31.5553 -4.8571
# 6 -6.2412 -8.9552 -7.6301 5.2370 -4.8571 13.3400
#
#
#
# Elastic Compliance Matrix: (Units=1/GPa)
#
#
# Indices 1 2 3 4 5 6 
#
# 1 0.008610 -0.000839 -0.002155 -0.000301 0.001335 0.002836
# 2 -0.000839 0.009027 -0.002482 -0.002156 0.001713 0.005717
# 3 -0.002155 -0.002482 0.012535 -0.000633 -0.001626 0.004151
# 4 -0.000301 -0.002156 -0.000633 0.039837 -0.002102 -0.018355
# 5 0.001335 0.001713 -0.001626 -0.002102 0.034280 0.014151
# 6 0.002836 0.005717 0.004151 -0.018355 0.014151 0.094860
#
#
# Mechanical properties :
#
#
# Convention : Reuss Voigt Hill
#
# Bulk Modulus (GPa) = 52.03278 57.93872 54.98575
# Shear Modulus (GPa) = 23.09354 32.24681 27.67017
#
# Velocity S-wave (km/s) = 3.27364 3.86838 3.58337
# Velocity P-wave (km/s) = 6.19960 6.84392 6.52971
#
# Compressibility (1/GPa) = 0.01921865
#
# Stress axis : x y z
#
# Youngs Moduli (GPa) = 116.14305 110.77705 79.77517
#
# Poissons Ratio (x) = 0.09295 0.17195
# Poissons Ratio (y) = 0.09745 0.19803
# Poissons Ratio (z) = 0.25034 0.27499
#
# Static dielectric constant tensor:
#      x y z
#    x 1.804700 -0.017350 -0.013000 
#    y -0.017350 1.787570 -0.014450 
#    z -0.013000 -0.014450 1.849440 
# 
# From -- ./inp_files/418314.got.cif
#   From: 2010.05.17/outbox.cif.g08.bks.cpg/sg2_210_cif.got.tgz:418314.got - 2010.06.03 11:33:40.
