data_PCOD9010165
_publ_section_title
;
Structure prediction by ZEFSAII (Michael W. Deem and Ramdas Pophale) SiO2 
 PCOD9010165
Probable space group: P -1
;
_chemical_formula_sum "Si O2"
_cell_formula_units_Z 14
_cell_length_a 7.890204
_cell_length_b 8.729510
_cell_length_c 21.832095
_cell_angle_alpha 42.075534
_cell_angle_beta 43.515527
_cell_angle_gamma 73.577744
_cell_volume 577.681404
_symmetry_space_group_name_H-M "P -1"
_symmetry_group_IT_number 2
_symmetry_cell_setting 'triclinic'
loop_
_space_group_symop_operation_xyz
x,y,z
-x,-y,-z
loop_
_atom_site_type_symbol
_atom_site_label
_atom_site_fract_x
_atom_site_fract_y
_atom_site_fract_z
Si Si1 0.552335 0.292706 0.260538
Si Si2 0.660789 0.127259 0.663922
Si Si3 0.767814 0.464391 0.801679
Si Si4 0.197598 0.042069 0.552096
Si Si5 0.081527 0.887374 0.953045
Si Si6 0.163938 0.977285 0.143125
Si Si7 0.723436 0.664947 0.446763
O O1 0.374383 0.411092 0.240193
O O2 0.381483 0.153654 0.408887
O O3 0.524394 0.069065 0.287133
O O4 0.882709 0.556600 0.105217
O O5 0.772276 0.438604 0.528614
O O6 0.934012 0.095209 0.606955
O O7 0.429044 0.018491 0.813217
O O8 0.862123 0.304391 0.781689
O O9 0.503357 0.227954 0.981979
O O10 0.028500 0.715703 0.696241
O O11 0.390544 0.221326 0.505630
O O12 0.981441 0.970927 0.892647
O O13 0.000000 0.000000 0.000000
O O14 0.001030 0.928075 0.263953
O O15 0.500000 0.500000 0.500000
#
# Coordination Sequence:
#
# PCOD9010165 Si02
#       7
#     2   2   2   2   2   2   2
#     4  10  21  40  67  94 127 166 216 264 315 377
#     4  11  22  42  67  93 128 168 214 265 315 377
#     4   9  20  40  66  92 124 164 215 265 315 373
#     4  11  23  41  69  97 123 171 220 261 311 386
#     4  11  23  40  62  94 129 169 213 256 320 387
#     4  10  21  40  62  89 131 167 204 266 322 371
#     4  12  24  40  61  92 134 165 209 262 321 375
#
# _framework density 24.234812000000002
#
# number of rings (size 3 to 8) (size 9 to 14) (size 15 to 20)
#    0.000    1.429    1.429    5.143    0.000    4.000 
#    2.571    1.429    0.000    0.000    0.000    0.000 
#    0.000    0.000    0.000    0.000    0.000    0.000 
#
# Total GULP energy -78420.573644 kJ/mol
# GULP energy per Si atom -5601.469546 kJ/mol
# Density = 2.417965 g / cm^3
# Si number density = 24.234812 Si / 1000 Ang^3
#
#
#
# Elastic Constant Matrix: (Units=GPa)
#
#
# Indices 1 2 3 4 5 6 
#
# 1 59.9165 35.3387 30.3438 1.4377 -3.3212 1.0595
# 2 35.3387 124.6947 65.4396 -0.3220 15.8403 16.1935
# 3 30.3438 65.4396 116.2556 6.3461 8.0334 10.9614
# 4 1.4377 -0.3220 6.3461 57.5460 0.9607 -4.5822
# 5 -3.3212 15.8403 8.0334 0.9607 19.3708 7.4985
# 6 1.0595 16.1935 10.9614 -4.5822 7.4985 44.9321
#
#
#
# Elastic Compliance Matrix: (Units=1/GPa)
#
#
# Indices 1 2 3 4 5 6 
#
# 1 0.022392 -0.006017 -0.003187 -0.000346 0.009810 0.000746
# 2 -0.006017 0.014120 -0.005583 0.000853 -0.009569 -0.001901
# 3 -0.003187 -0.005583 0.012810 -0.001434 -0.000816 -0.001048
# 4 -0.000346 0.000853 -0.001434 0.017754 -0.001885 0.002176
# 5 0.009810 -0.009569 -0.000816 -0.001885 0.064480 -0.007537
# 6 0.000746 -0.001901 -0.001048 0.002176 -0.007537 0.024658
#
#
# Mechanical properties :
#
#
# Convention : Reuss Voigt Hill
#
# Bulk Modulus (GPa) = 50.64232 62.56791 56.60511
# Shear Modulus (GPa) = 25.99147 35.68609 30.83878
#
# Velocity S-wave (km/s) = 3.27843 3.84150 3.57108
# Velocity P-wave (km/s) = 5.93908 6.74904 6.35698
#
# Compressibility (1/GPa) = 0.01974633
#
# Stress axis : x y z
#
# Youngs Moduli (GPa) = 44.65953 70.82275 78.06515
#
# Poissons Ratio (x) = 0.42617 0.24876
# Poissons Ratio (y) = 0.26874 0.43587
# Poissons Ratio (z) = 0.14231 0.39544
#
# Static dielectric constant tensor:
#      x y z
#    x 2.030050 -0.001690 -0.058350 
#    y -0.001690 1.907480 0.023840 
#    z -0.058350 0.023840 1.924430 
# 
# From -- ./inp_files/174902.got.cif
#   From: 2010.05.17/outbox.cif.g08.bks.cpg/sg2_88_cif.got.tgz:174902.got - 2010.06.03 11:33:40.
