data_PCOD9010393
_publ_section_title
;
Structure prediction by ZEFSAII (Michael W. Deem and Ramdas Pophale) SiO2 
 PCOD9010393
Probable space group: P -1
;
_chemical_formula_sum "Si O2"
_cell_formula_units_Z 16
_cell_length_a 8.780725
_cell_length_b 14.163064
_cell_length_c 17.329427
_cell_angle_alpha 40.268882
_cell_angle_beta 145.208631
_cell_angle_gamma 138.523563
_cell_volume 749.634155
_symmetry_space_group_name_H-M "P -1"
_symmetry_group_IT_number 2
_symmetry_cell_setting 'triclinic'
loop_
_space_group_symop_operation_xyz
x,y,z
-x,-y,-z
loop_
_atom_site_type_symbol
_atom_site_label
_atom_site_fract_x
_atom_site_fract_y
_atom_site_fract_z
Si Si1 0.142344 0.829664 0.530525
Si Si2 0.996847 0.326101 0.120456
Si Si3 0.930039 0.826284 0.048681
Si Si4 0.715321 0.314688 0.166950
Si Si5 0.306660 0.404159 0.613283
Si Si6 0.433101 0.174708 0.424225
Si Si7 0.909107 0.325024 0.644454
Si Si8 0.113272 0.661175 0.100903
O O1 0.155829 0.753004 0.666207
O O2 0.403371 0.821985 0.590039
O O3 0.865791 0.735072 0.427304
O O4 0.191086 0.011601 0.439829
O O5 0.797730 0.263486 0.149679
O O6 0.294170 0.308211 0.278118
O O7 0.911341 0.260419 0.040341
O O8 0.000000 0.500000 0.000000
O O9 0.950979 0.731250 0.192102
O O10 0.136786 0.788259 0.096692
O O11 0.621818 0.758068 0.924419
O O12 0.000000 0.000000 0.000000
O O13 0.845731 0.503020 0.103628
O O14 0.240050 0.554775 0.461632
O O15 0.621550 0.401254 0.751098
O O16 0.155122 0.386982 0.644445
O O17 0.659986 0.200103 0.571201
#
# Coordination Sequence:
#
# PCOD9010393 Si02
#       8
#     2   2   2   2   2   2   2   2
#     4  10  22  39  63  91 122 160 203 249 306 364
#     4  10  22  39  64  92 122 161 208 253 301 367
#     4  12  26  41  61  91 127 163 205 258 311 367
#     4  11  23  41  64  91 122 163 209 253 306 370
#     4  10  22  40  64  92 121 161 205 256 308 360
#     4  10  21  40  63  89 123 162 200 249 306 366
#     4  10  21  40  64  90 124 160 205 253 305 368
#     4  11  24  42  65  90 125 166 209 256 307 368
#
# _framework density 21.343744999999998
#
# number of rings (size 3 to 8) (size 9 to 14) (size 15 to 20)
#    0.000    1.500    0.000    4.875    0.000   12.500 
#    0.000    1.875    0.000    0.000    0.000    0.000 
#    0.000    0.000    0.000    0.000    0.000    0.000 
#
# Total GULP energy -89361.888418 kJ/mol
# GULP energy per Si atom -5585.118026 kJ/mol
# Density = 2.129517 g / cm^3
# Si number density = 21.343745 Si / 1000 Ang^3
#
#
#
# Elastic Constant Matrix: (Units=GPa)
#
#
# Indices 1 2 3 4 5 6 
#
# 1 52.4239 24.8101 9.3681 -11.0717 5.0826 -3.8741
# 2 24.8101 83.3701 5.8528 12.9220 1.7071 -20.3003
# 3 9.3681 5.8528 53.7878 12.6926 6.4340 -1.8637
# 4 -11.0717 12.9220 12.6926 10.9722 7.9806 9.4667
# 5 5.0826 1.7071 6.4340 7.9806 35.4166 -9.8016
# 6 -3.8741 -20.3003 -1.8637 9.4667 -9.8016 17.7160
#
#
#
# Elastic Compliance Matrix: (Units=1/GPa)
#
#
# Indices 1 2 3 4 5 6 
#
# 1 0.013491 0.004388 0.001585 -0.019542 0.008398 0.023234
# 2 0.004388 0.004180 -0.006540 0.025152 -0.009009 -0.013363
# 3 0.001585 -0.006540 0.017550 0.008732 -0.009241 -0.015080
# 4 -0.019542 0.025152 0.008732 -0.038148 0.025141 0.059760
# 5 0.008398 -0.009009 -0.009241 0.025141 0.020242 -0.011694
# 6 0.023234 -0.013363 -0.015080 0.059760 -0.011694 0.006226
#
#
# Mechanical properties :
#
#
# Convention : Reuss Voigt Hill
#
# Bulk Modulus (GPa) = 29.33668 29.96039 29.64854
# Shear Modulus (GPa) = 138.74902 22.79101 80.77001
#
# Velocity S-wave (km/s) = 8.07143 3.27128 6.15830
# Velocity P-wave (km/s) = 10.03188 5.32315 8.03040
#
# Compressibility (1/GPa) = 0.03408702
#
# Stress axis : x y z
#
# Youngs Moduli (GPa) = 74.12336 239.22237 56.98146
#
# Poissons Ratio (x) = -1.04975 -0.09030
# Poissons Ratio (y) = -0.32527 0.37264
# Poissons Ratio (z) = -0.11746 1.56445
#
# Static dielectric constant tensor:
#      x y z
#    x 1.798880 -0.023110 0.003640 
#    y -0.023110 1.816110 -0.004890 
#    z 0.003640 -0.004890 1.745470 
# 
# From -- ./inp_files/243664.got.cif
#   From: 2010.05.17/outbox.cif.g08.bks.cpg/sg2_122_cif.got.tgz:243664.got - 2010.06.03 11:33:40.
