data_PCOD9010461
_publ_section_title
;
Structure prediction by ZEFSAII (Michael W. Deem and Ramdas Pophale) SiO2 
 PCOD9010461
Probable space group: P -1
;
_chemical_formula_sum "Si O2"
_cell_formula_units_Z 10
_cell_length_a 10.263330
_cell_length_b 7.377950
_cell_length_c 7.329630
_cell_angle_alpha 115.116599
_cell_angle_beta 80.577992
_cell_angle_gamma 135.724760
_cell_volume 342.085157
_symmetry_space_group_name_H-M "P -1"
_symmetry_group_IT_number 2
_symmetry_cell_setting 'triclinic'
loop_
_space_group_symop_operation_xyz
x,y,z
-x,-y,-z
loop_
_atom_site_type_symbol
_atom_site_label
_atom_site_fract_x
_atom_site_fract_y
_atom_site_fract_z
Si Si1 0.377492 0.566383 0.068205
Si Si2 0.299049 0.917882 0.200791
Si Si3 0.097854 0.644950 0.757188
Si Si4 0.323826 0.514382 0.495947
Si Si5 0.034445 0.995928 0.773995
O O1 0.416117 0.837128 0.128026
O O2 0.346279 0.551207 0.286887
O O3 0.500000 0.500000 0.000000
O O4 0.213406 0.336082 0.855927
O O5 0.113424 0.658514 0.257723
O O6 0.463063 0.253909 0.369423
O O7 0.203811 0.852116 0.999360
O O8 0.221999 0.603184 0.629929
O O9 0.088760 0.821525 0.694968
O O10 0.144007 0.160578 0.384211
O O11 0.000000 0.000000 0.000000
#
# Coordination Sequence:
#
# PCOD9010461 Si02
#       5
#     2   2   2   2   2
#     4  11  24  41  67  95 128 164 215 261 311 371
#     4  11  24  42  66  97 123 167 213 260 309 374
#     4  11  23  42  68  91 132 162 212 259 315 373
#     4  11  23  40  68  92 124 171 215 248 312 383
#     4  10  21  40  63  91 129 162 202 260 313 364
#
# _framework density 29.232489999999999
#
# number of rings (size 3 to 8) (size 9 to 14) (size 15 to 20)
#    0.000    1.200    4.000    3.000    2.800    0.000 
#    0.000   10.000    0.000    0.000    0.000    0.000 
#    0.000    0.000    0.000    0.000    0.000    0.000 
#
# Total GULP energy -55962.267906 kJ/mol
# GULP energy per Si atom -5596.226791 kJ/mol
# Density = 2.916596 g / cm^3
# Si number density = 29.232490 Si / 1000 Ang^3
#
#
#
# Elastic Constant Matrix: (Units=GPa)
#
#
# Indices 1 2 3 4 5 6 
#
# 1 149.9179 52.2814 79.1460 7.1522 2.5316 29.9287
# 2 52.2814 124.7385 76.0362 35.1589 8.6187 17.4636
# 3 79.1460 76.0362 236.1788 39.9760 38.5701 41.9034
# 4 7.1522 35.1589 39.9760 75.1200 29.1112 15.1340
# 5 2.5316 8.6187 38.5701 29.1112 71.7744 2.3938
# 6 29.9287 17.4636 41.9034 15.1340 2.3938 49.7996
#
#
#
# Elastic Compliance Matrix: (Units=1/GPa)
#
#
# Indices 1 2 3 4 5 6 
#
# 1 0.009306 -0.002790 -0.001993 0.002062 0.000361 -0.003581
# 2 -0.002790 0.011845 -0.002567 -0.004908 0.002010 0.001078
# 3 -0.001993 -0.002567 0.006907 -0.000408 -0.003053 -0.003443
# 4 0.002062 -0.004908 -0.000408 0.019257 -0.006918 -0.004695
# 5 0.000361 0.002010 -0.003053 -0.006918 0.018029 0.002883
# 6 -0.003581 0.001078 -0.003443 -0.004695 0.002883 0.026040
#
#
# Mechanical properties :
#
#
# Convention : Reuss Voigt Hill
#
# Bulk Modulus (GPa) = 74.86721 102.86247 88.86484
# Shear Modulus (GPa) = 45.23422 59.56358 52.39890
#
# Velocity S-wave (km/s) = 3.93796 4.51885 4.23837
# Velocity P-wave (km/s) = 6.80759 7.90511 7.37679
#
# Compressibility (1/GPa) = 0.01335698
#
# Stress axis : x y z
#
# Youngs Moduli (GPa) = 107.45809 84.42573 144.78607
#
# Poissons Ratio (x) = 0.23559 0.28851
# Poissons Ratio (y) = 0.29986 0.37168
# Poissons Ratio (z) = 0.21413 0.21673
#
# Static dielectric constant tensor:
#      x y z
#    x 2.283110 0.189310 -0.030580 
#    y 0.189310 2.661550 -0.005270 
#    z -0.030580 -0.005270 2.280610 
# 
# From -- ./inp_files/144464.got.cif
#   From: 2010.05.17/outbox.cif.g08.bks.cpg/sg2_73_cif.got.tgz:144464.got - 2010.06.03 11:33:40.
