data_PCOD9010821
_publ_section_title
;
Structure prediction by ZEFSAII (Michael W. Deem and Ramdas Pophale) SiO2 
 PCOD9010821
Probable space group: P -1
;
_chemical_formula_sum "Si O2"
_cell_formula_units_Z 14
_cell_length_a 9.463599
_cell_length_b 14.630618
_cell_length_c 9.398157
_cell_angle_alpha 66.275643
_cell_angle_beta 136.887463
_cell_angle_gamma 130.903325
_cell_volume 664.911508
_symmetry_space_group_name_H-M "P -1"
_symmetry_group_IT_number 2
_symmetry_cell_setting 'triclinic'
loop_
_space_group_symop_operation_xyz
x,y,z
-x,-y,-z
loop_
_atom_site_type_symbol
_atom_site_label
_atom_site_fract_x
_atom_site_fract_y
_atom_site_fract_z
Si Si1 0.123606 0.537886 0.220819
Si Si2 0.092752 0.101376 0.626324
Si Si3 0.965991 0.283800 0.306906
Si Si4 0.593757 0.935789 0.512226
Si Si5 0.768390 0.525459 0.208582
Si Si6 0.609242 0.200448 0.840249
Si Si7 0.264850 0.705651 0.594879
O O1 0.345824 0.680037 0.279255
O O2 0.159536 0.432319 0.357066
O O3 0.911710 0.527406 0.172426
O O4 0.000000 0.500000 0.000000
O O5 0.384338 0.153453 0.817441
O O6 0.069284 0.208041 0.486542
O O7 0.000000 0.000000 0.500000
O O8 0.894657 0.028944 0.652737
O O9 0.750921 0.259224 0.277728
O O10 0.849081 0.239220 0.090270
O O11 0.469988 0.895220 0.287249
O O12 0.488005 0.812811 0.599240
O O13 0.500000 0.000000 0.500000
O O14 0.722514 0.410476 0.333239
O O15 0.982987 0.653023 0.360536
O O16 0.500000 0.500000 0.000000
#
# Coordination Sequence:
#
# PCOD9010821 Si02
#       7
#     2   2   2   2   2   2   2
#     4   9  19  38  61  92 122 153 196 251 308 368
#     4  10  23  40  62  87 121 166 214 248 296 364
#     4  10  21  40  65  91 123 166 200 254 316 361
#     4  11  21  42  64  87 125 166 207 259 302 354
#     4  10  21  40  66  94 124 160 199 252 317 368
#     4  10  22  42  64  88 127 160 207 255 309 368
#     4  10  21  40  64  93 127 157 201 261 306 361
#
# _framework density 21.055434999999999
#
# number of rings (size 3 to 8) (size 9 to 14) (size 15 to 20)
#    0.000    2.000    2.857    0.000    0.000    6.286 
#   10.286    2.143    0.000    0.000    0.000    0.000 
#    0.000    0.000    0.000    0.000    0.000    0.000 
#
# Total GULP energy -78019.293033 kJ/mol
# GULP energy per Si atom -5572.806645 kJ/mol
# Density = 2.100751 g / cm^3
# Si number density = 21.055435 Si / 1000 Ang^3
#
#
#
# Elastic Constant Matrix: (Units=GPa)
#
#
# Indices 1 2 3 4 5 6 
#
# 1 102.8781 43.3605 17.9765 11.3034 -12.6871 9.8325
# 2 43.3605 89.5457 17.9644 2.1839 -0.1136 10.8416
# 3 17.9765 17.9644 52.1978 10.7197 -7.4198 -3.7099
# 4 11.3034 2.1839 10.7197 18.7211 2.3310 -5.6422
# 5 -12.6871 -0.1136 -7.4198 2.3310 33.1305 4.5494
# 6 9.8325 10.8416 -3.7099 -5.6422 4.5494 42.5792
#
#
#
# Elastic Compliance Matrix: (Units=1/GPa)
#
#
# Indices 1 2 3 4 5 6 
#
# 1 0.014764 -0.006406 -0.000101 -0.010126 0.006852 -0.003861
# 2 -0.006406 0.015305 -0.004641 0.004624 -0.003514 -0.001834
# 3 -0.000101 -0.004641 0.024634 -0.014047 0.006339 0.000813
# 4 -0.010126 0.004624 -0.014047 0.072018 -0.013576 0.010931
# 5 0.006852 -0.003514 0.006339 -0.013576 0.035964 -0.005777
# 6 -0.003861 -0.001834 0.000813 0.010931 -0.005777 0.026981
#
#
# Mechanical properties :
#
#
# Convention : Reuss Voigt Hill
#
# Bulk Modulus (GPa) = 30.85667 44.80271 37.82969
# Shear Modulus (GPa) = 22.44531 29.90752 26.17641
#
# Velocity S-wave (km/s) = 3.26852 3.77293 3.52975
# Velocity P-wave (km/s) = 5.37876 6.34860 5.88370
#
# Compressibility (1/GPa) = 0.03240790
#
# Stress axis : x y z
#
# Youngs Moduli (GPa) = 67.73027 65.33704 40.59512
#
# Poissons Ratio (x) = 0.41855 0.00410
# Poissons Ratio (y) = 0.43388 0.18839
# Poissons Ratio (z) = 0.00683 0.30321
#
# Static dielectric constant tensor:
#      x y z
#    x 1.770050 0.002080 -0.046170 
#    y 0.002080 1.927890 -0.021710 
#    z -0.046170 -0.021710 1.867520 
# 
# From -- ./inp_files/201157.got.cif
#   From: 2010.05.17/outbox.cif.g08.bks.cpg/sg2_101_cif.got.tgz:201157.got - 2010.06.03 11:33:40.
