data_PCOD9010774
_publ_section_title
;
Structure prediction by ZEFSAII (Michael W. Deem and Ramdas Pophale) SiO2 
 PCOD9010774
Probable space group: P -1
;
_chemical_formula_sum "Si O2"
_cell_formula_units_Z 16
_cell_length_a 6.668270
_cell_length_b 21.709303
_cell_length_c 7.862862
_cell_angle_alpha 71.489596
_cell_angle_beta 93.607226
_cell_angle_gamma 43.762361
_cell_volume 668.383777
_symmetry_space_group_name_H-M "P -1"
_symmetry_group_IT_number 2
_symmetry_cell_setting 'triclinic'
loop_
_space_group_symop_operation_xyz
x,y,z
-x,-y,-z
loop_
_atom_site_type_symbol
_atom_site_label
_atom_site_fract_x
_atom_site_fract_y
_atom_site_fract_z
Si Si1 0.940215 0.824593 0.745699
Si Si2 0.509626 0.920702 0.116248
Si Si3 0.794626 0.759843 0.022019
Si Si4 0.220986 0.987662 0.402124
Si Si5 0.161494 0.717043 0.514542
Si Si6 0.139735 0.447603 0.323110
Si Si7 0.873672 0.425930 0.026058
Si Si8 0.142914 0.590515 0.472153
O O1 0.941299 0.900447 0.703114
O O2 0.171576 0.741480 0.683564
O O3 0.575050 0.901025 0.589438
O O4 0.006073 0.769128 0.970240
O O5 0.493913 0.875880 0.991526
O O6 0.863750 0.821445 0.304845
O O7 0.282939 0.957719 0.231560
O O8 0.500000 0.000000 0.000000
O O9 0.907696 0.683700 0.242855
O O10 0.879557 0.693933 0.918052
O O11 0.000000 0.000000 0.500000
O O12 0.494815 0.653844 0.505624
O O13 0.123092 0.648996 0.570336
O O14 0.044559 0.425441 0.179051
O O15 0.923145 0.466296 0.433697
O O16 0.136659 0.520743 0.181482
O O17 0.500000 0.500000 0.000000
O O18 0.500000 0.500000 0.500000
#
# Coordination Sequence:
#
# PCOD9010774 Si02
#       8
#     2   2   2   2   2   2   2   2
#     4  10  21  40  64  91 130 168 224 284 337 391
#     4  10  21  44  69  97 138 183 224 291 354 403
#     4  11  22  39  68  97 133 182 225 279 344 410
#     4  10  22  42  67  91 125 178 230 280 343 408
#     4  10  23  40  69  96 131 181 230 282 342 419
#     4  11  23  43  68  98 139 182 227 280 351 419
#     4  11  24  43  70 103 138 178 232 288 342 422
#     4  11  24  42  63  97 142 180 223 282 350 411
#
# _framework density 23.938341000000001
#
# number of rings (size 3 to 8) (size 9 to 14) (size 15 to 20)
#    0.000    1.500    1.250    3.750    0.000    7.000 
#    2.250    3.125    0.000    0.000    0.000    0.000 
#    0.000    0.000    0.000    0.000    0.000    0.000 
#
# Total GULP energy -89182.883587 kJ/mol
# GULP energy per Si atom -5573.930224 kJ/mol
# Density = 2.388386 g / cm^3
# Si number density = 23.938341 Si / 1000 Ang^3
#
#
#
# Elastic Constant Matrix: (Units=GPa)
#
#
# Indices 1 2 3 4 5 6 
#
# 1 119.2453 62.6818 34.5207 -2.1343 -35.3138 -5.8902
# 2 62.6818 169.4196 27.8344 12.7418 -26.7034 20.2725
# 3 34.5207 27.8344 87.3336 1.1283 -35.2462 2.3929
# 4 -2.1343 12.7418 1.1283 36.7056 -4.2269 -7.7997
# 5 -35.3138 -26.7034 -35.2462 -4.2269 43.8982 5.8315
# 6 -5.8902 20.2725 2.3929 -7.7997 5.8315 42.8522
#
#
#
# Elastic Compliance Matrix: (Units=1/GPa)
#
#
# Indices 1 2 3 4 5 6 
#
# 1 0.013373 -0.004391 -0.001220 0.003941 0.006989 0.003750
# 2 -0.004391 0.008918 0.000036 -0.004348 0.002291 -0.005928
# 3 -0.001220 0.000036 0.017426 0.000307 0.013452 -0.002933
# 4 0.003941 -0.004348 0.000307 0.030952 0.002709 0.007847
# 5 0.006989 0.002291 0.013452 0.002709 0.041661 -0.006050
# 6 0.003750 -0.005928 -0.002933 0.007847 -0.006050 0.029071
#
#
# Mechanical properties :
#
#
# Convention : Reuss Voigt Hill
#
# Bulk Modulus (GPa) = 35.00291 69.56358 52.28325
# Shear Modulus (GPa) = 30.85047 41.42197 36.13622
#
# Velocity S-wave (km/s) = 3.59381 4.16427 3.88951
# Velocity P-wave (km/s) = 5.64575 7.22801 6.48531
#
# Compressibility (1/GPa) = 0.02856905
#
# Stress axis : x y z
#
# Youngs Moduli (GPa) = 74.78002 112.12711 57.38547
#
# Poissons Ratio (x) = 0.49232 0.06998
# Poissons Ratio (y) = 0.32834 -0.00208
# Poissons Ratio (z) = 0.09120 -0.00407
#
# Static dielectric constant tensor:
#      x y z
#    x 1.896680 -0.000070 0.023470 
#    y -0.000070 2.001850 0.083610 
#    z 0.023470 0.083610 1.982750 
# 
# From -- ./inp_files/141256.got.cif
#   From: 2010.05.17/outbox.cif.g08.bks.cpg/sg2_71_cif.got.tgz:141256.got - 2010.06.03 11:33:40.
