data_PCOD9010036
_publ_section_title
;
Structure prediction by ZEFSAII (Michael W. Deem and Ramdas Pophale) SiO2 
 PCOD9010036
Probable space group: P -1
;
_chemical_formula_sum "Si O2"
_cell_formula_units_Z 14
_cell_length_a 16.560761
_cell_length_b 10.487249
_cell_length_c 10.031842
_cell_angle_alpha 69.428091
_cell_angle_beta 131.800645
_cell_angle_gamma 146.646386
_cell_volume 617.983868
_symmetry_space_group_name_H-M "P -1"
_symmetry_group_IT_number 2
_symmetry_cell_setting 'triclinic'
loop_
_space_group_symop_operation_xyz
x,y,z
-x,-y,-z
loop_
_atom_site_type_symbol
_atom_site_label
_atom_site_fract_x
_atom_site_fract_y
_atom_site_fract_z
Si Si1 0.166992 0.729956 0.253729
Si Si2 0.695110 0.363464 0.391752
Si Si3 0.438985 0.473545 0.791642
Si Si4 0.160914 0.927495 0.634711
Si Si5 0.736324 0.162978 0.986061
Si Si6 0.750913 0.727837 0.802138
Si Si7 0.599030 0.825933 0.452146
O O1 0.239912 0.656073 0.401399
O O2 0.916985 0.467707 0.115803
O O3 0.322491 0.992403 0.412440
O O4 0.194414 0.791563 0.106623
O O5 0.602452 0.410992 0.307464
O O6 0.911997 0.628355 0.453465
O O7 0.515670 0.086562 0.213427
O O8 0.621308 0.624955 0.832265
O O9 0.229421 0.158685 0.639778
O O10 0.500000 0.500000 0.000000
O O11 0.232903 0.929447 0.847419
O O12 0.295102 0.014673 0.627613
O O13 0.698508 0.786855 0.614606
O O14 0.649502 0.476556 0.730135
O O15 0.000000 0.000000 0.000000
#
# Coordination Sequence:
#
# PCOD9010036 Si02
#       7
#     2   2   2   2   2   2   2
#     4  10  23  42  64  92 133 178 213 277 324 393
#     4  11  22  39  65  98 129 171 222 268 333 385
#     4  11  22  41  68  96 131 166 219 280 321 387
#     4  10  23  40  65  96 131 171 217 277 328 389
#     4  10  21  40  61  92 129 169 224 266 319 390
#     4  10  24  44  68  96 133 177 221 266 335 396
#     4  10  23  44  65  97 135 170 221 268 331 395
#
# _framework density 22.654315
#
# number of rings (size 3 to 8) (size 9 to 14) (size 15 to 20)
#    0.000    1.714    1.429    1.714    2.000    3.429 
#    5.143    1.429    0.000    0.000    0.000    0.000 
#    0.000    0.000    0.000    0.000    0.000    0.000 
#
# Total GULP energy -78222.924795 kJ/mol
# GULP energy per Si atom -5587.351771 kJ/mol
# Density = 2.260275 g / cm^3
# Si number density = 22.654315 Si / 1000 Ang^3
#
#
#
# Elastic Constant Matrix: (Units=GPa)
#
#
# Indices 1 2 3 4 5 6 
#
# 1 43.4052 40.3900 32.5102 -2.8437 -14.2409 1.6530
# 2 40.3900 152.1084 70.9932 20.9707 -4.6620 21.8767
# 3 32.5102 70.9932 125.4014 22.5526 -2.2952 9.6071
# 4 -2.8437 20.9707 22.5526 63.3570 4.1451 7.9957
# 5 -14.2409 -4.6620 -2.2952 4.1451 30.9407 5.8651
# 6 1.6530 21.8767 9.6071 7.9957 5.8651 15.5801
#
#
#
# Elastic Compliance Matrix: (Units=1/GPa)
#
#
# Indices 1 2 3 4 5 6 
#
# 1 0.041752 -0.008559 -0.006939 0.005764 0.016101 0.002847
# 2 -0.008559 0.012854 -0.003667 -0.001569 0.000650 -0.014319
# 3 -0.006939 -0.003667 0.012346 -0.003452 -0.002559 0.001007
# 4 0.005764 -0.001569 -0.003452 0.018504 0.000836 -0.006091
# 5 0.016101 0.000650 -0.002559 0.000836 0.042864 -0.017608
# 6 0.002847 -0.014319 0.001007 -0.006091 -0.017608 0.093122
#
#
# Mechanical properties :
#
#
# Convention : Reuss Voigt Hill
#
# Bulk Modulus (GPa) = 34.93756 67.63356 51.28556
# Shear Modulus (GPa) = 18.56575 33.77700 26.17137
#
# Velocity S-wave (km/s) = 2.86584 3.86550 3.40258
# Velocity P-wave (km/s) = 5.13870 7.05990 6.17448
#
# Compressibility (1/GPa) = 0.02862249
#
# Stress axis : x y z
#
# Youngs Moduli (GPa) = 23.95114 77.79620 80.99642
#
# Poissons Ratio (x) = 0.66583 0.56203
# Poissons Ratio (y) = 0.20499 0.29703
# Poissons Ratio (z) = 0.16619 0.28529
#
# Static dielectric constant tensor:
#      x y z
#    x 1.859470 -0.024450 -0.000470 
#    y -0.024450 1.867800 0.052360 
#    z -0.000470 0.052360 1.856430 
# 
# From -- ./inp_files/333159.got.cif
#   From: 2010.05.17/outbox.cif.g08.bks.cpg/sg2_167_cif.got.tgz:333159.got - 2010.06.03 11:33:40.
