data_PCOD9010985
_publ_section_title
;
Structure prediction by ZEFSAII (Michael W. Deem and Ramdas Pophale) SiO2 
 PCOD9010985
Probable space group: P -1
;
_chemical_formula_sum "Si O2"
_cell_formula_units_Z 16
_cell_length_a 8.860588
_cell_length_b 19.318547
_cell_length_c 10.429301
_cell_angle_alpha 33.214066
_cell_angle_beta 44.213555
_cell_angle_gamma 50.988988
_cell_volume 679.834615
_symmetry_space_group_name_H-M "P -1"
_symmetry_group_IT_number 2
_symmetry_cell_setting 'triclinic'
loop_
_space_group_symop_operation_xyz
x,y,z
-x,-y,-z
loop_
_atom_site_type_symbol
_atom_site_label
_atom_site_fract_x
_atom_site_fract_y
_atom_site_fract_z
Si Si1 0.660323 0.537210 0.093759
Si Si2 0.781423 0.546610 0.489835
Si Si3 0.667101 0.822310 0.193251
Si Si4 0.105426 0.133450 0.739228
Si Si5 0.541151 0.823159 0.765835
Si Si6 0.898797 0.400060 0.392324
Si Si7 0.223995 0.916731 0.382846
Si Si8 0.783274 0.018457 0.430104
O O1 0.436414 0.491701 0.247455
O O2 0.761925 0.438458 0.289802
O O3 0.592372 0.675076 0.985067
O O4 0.855582 0.558630 0.844094
O O5 0.768425 0.697444 0.258072
O O6 0.790383 0.479719 0.450900
O O7 0.000000 0.500000 0.500000
O O8 0.785180 0.845415 0.221209
O O9 0.411590 0.814410 0.386031
O O10 0.687507 0.945478 0.904244
O O11 0.297673 0.143637 0.501339
O O12 0.930211 0.251358 0.634282
O O13 0.000000 0.000000 0.000000
O O14 0.301964 0.874018 0.785120
O O15 0.604994 0.915265 0.697746
O O16 0.183632 0.908794 0.570621
O O17 0.005059 0.930045 0.413846
#
# Coordination Sequence:
#
# PCOD9010985 Si02
#       8
#     2   2   2   2   2   2   2   2
#     4  10  25  46  70 100 142 181 236 293 331 421
#     4  12  26  45  70 102 140 185 235 282 348 420
#     4  11  24  43  62 100 135 176 226 276 346 405
#     4  11  22  42  71  98 140 178 223 286 346 410
#     4  10  22  40  67  98 133 175 231 275 352 396
#     4  10  24  48  71 106 135 189 238 278 353 408
#     4  10  23  41  64  94 137 171 221 281 342 401
#     4  10  21  40  64  99 127 175 220 282 339 411
#
# _framework density 23.535133999999999
#
# number of rings (size 3 to 8) (size 9 to 14) (size 15 to 20)
#    0.000    1.500    2.500    1.125    3.500    7.500 
#    2.250    0.000    0.000    0.000    0.000    0.000 
#    0.000    0.000    0.000    0.000    0.000    0.000 
#
# Total GULP energy -89493.327093 kJ/mol
# GULP energy per Si atom -5593.332943 kJ/mol
# Density = 2.348157 g / cm^3
# Si number density = 23.535134 Si / 1000 Ang^3
#
#
#
# Elastic Constant Matrix: (Units=GPa)
#
#
# Indices 1 2 3 4 5 6 
#
# 1 86.6210 42.7061 36.6008 6.3091 -4.0818 -30.6049
# 2 42.7061 122.4537 33.0869 -24.0567 3.8653 -23.6886
# 3 36.6008 33.0869 82.7717 -10.0539 -0.9618 -9.4339
# 4 6.3091 -24.0567 -10.0539 36.4257 -11.4349 1.5561
# 5 -4.0818 3.8653 -0.9618 -11.4349 29.4076 3.6161
# 6 -30.6049 -23.6886 -9.4339 1.5561 3.6161 45.7147
#
#
#
# Elastic Compliance Matrix: (Units=1/GPa)
#
#
# Indices 1 2 3 4 5 6 
#
# 1 0.021987 -0.005561 -0.007585 -0.010641 -0.001930 0.010787
# 2 -0.005561 0.012627 -0.001221 0.009126 0.000807 0.002194
# 3 -0.007585 -0.001221 0.016350 0.005842 0.002247 -0.002713
# 4 -0.010641 0.009126 0.005842 0.041527 0.014119 -0.003720
# 5 -0.001930 0.000807 0.002247 0.014119 0.039690 -0.004030
# 6 0.010787 0.002194 -0.002713 -0.003720 -0.004030 0.030119
#
#
# Mechanical properties :
#
#
# Convention : Reuss Voigt Hill
#
# Bulk Modulus (GPa) = 44.98315 57.40377 51.19346
# Shear Modulus (GPa) = 25.19610 34.27310 29.73460
#
# Velocity S-wave (km/s) = 3.27551 3.82023 3.55831
# Velocity P-wave (km/s) = 5.78446 6.62589 6.21942
#
# Compressibility (1/GPa) = 0.02223055
#
# Stress axis : x y z
#
# Youngs Moduli (GPa) = 45.48178 79.19315 61.16316
#
# Poissons Ratio (x) = 0.44042 0.46391
# Poissons Ratio (y) = 0.25294 0.07466
# Poissons Ratio (z) = 0.34497 0.09666
#
# Static dielectric constant tensor:
#      x y z
#    x 1.887840 -0.016930 -0.021700 
#    y -0.016930 1.914250 0.073690 
#    z -0.021700 0.073690 1.914330 
# 
# From -- ./inp_files/405230.got.cif
#   From: 2010.05.17/outbox.cif.g08.bks.cpg/sg2_203_cif.got.tgz:405230.got - 2010.06.03 11:33:40.
