data_PCOD9010311
_publ_section_title
;
Structure prediction by ZEFSAII (Michael W. Deem and Ramdas Pophale) SiO2 
 PCOD9010311
Probable space group: P -1
;
_chemical_formula_sum "Si O2"
_cell_formula_units_Z 16
_cell_length_a 16.862650
_cell_length_b 7.999711
_cell_length_c 10.715454
_cell_angle_alpha 122.911848
_cell_angle_beta 37.897879
_cell_angle_gamma 124.794710
_cell_volume 716.624597
_symmetry_space_group_name_H-M "P -1"
_symmetry_group_IT_number 2
_symmetry_cell_setting 'triclinic'
loop_
_space_group_symop_operation_xyz
x,y,z
-x,-y,-z
loop_
_atom_site_type_symbol
_atom_site_label
_atom_site_fract_x
_atom_site_fract_y
_atom_site_fract_z
Si Si1 0.613929 0.314976 0.411242
Si Si2 0.119973 0.007795 0.522237
Si Si3 0.651762 0.554619 0.195856
Si Si4 0.602320 0.903687 0.129291
Si Si5 0.713694 0.302972 0.541297
Si Si6 0.834449 0.730305 0.686606
Si Si7 0.853617 0.930983 0.208763
Si Si8 0.356365 0.857549 0.079731
O O1 0.639787 0.438558 0.298797
O O2 0.471565 0.350731 0.639218
O O3 0.710649 0.388022 0.437959
O O4 0.609090 0.075842 0.296852
O O5 0.136746 0.126646 0.680937
O O6 0.974937 0.839103 0.624570
O O7 0.144408 0.153487 0.428469
O O8 0.238085 0.894699 0.324118
O O9 0.651565 0.380720 0.024561
O O10 0.777592 0.745843 0.139371
O O11 0.445327 0.778348 0.257096
O O12 0.654908 0.051878 0.005767
O O13 0.709833 0.771100 0.936190
O O14 0.795809 0.488334 0.601867
O O15 0.778009 0.111396 0.376746
O O16 0.000000 0.000000 0.000000
O O17 0.500000 0.000000 0.000000
#
# Coordination Sequence:
#
# PCOD9010311 Si02
#       8
#     2   2   2   2   2   2   2   2
#     4  10  22  40  69  94 132 170 221 277 321 398
#     4  10  24  48  66  92 134 174 230 269 326 404
#     4  10  23  43  67  98 129 176 224 271 333 385
#     4  10  21  40  63 100 130 166 220 276 333 385
#     4  12  24  41  64 102 133 171 222 274 338 390
#     4  10  24  43  71  94 128 181 220 278 330 389
#     4  12  28  45  64  96 139 178 218 273 337 397
#     4  10  22  40  71  96 127 173 224 272 323 393
#
# _framework density 22.326892000000001
#
# number of rings (size 3 to 8) (size 9 to 14) (size 15 to 20)
#    0.000    1.500    1.250    2.250   10.500    0.500 
#    4.500    1.250    0.000    0.000    0.000    0.000 
#    0.000    0.000    0.000    0.000    0.000    0.000 
#
# Total GULP energy -89402.601599 kJ/mol
# GULP energy per Si atom -5587.662600 kJ/mol
# Density = 2.227607 g / cm^3
# Si number density = 22.326892 Si / 1000 Ang^3
#
#
#
# Elastic Constant Matrix: (Units=GPa)
#
#
# Indices 1 2 3 4 5 6 
#
# 1 79.0580 23.4730 19.5389 3.6483 2.2838 4.0997
# 2 23.4730 139.4606 51.7660 14.4087 -15.8445 26.3816
# 3 19.5389 51.7660 133.9114 -6.2876 -8.8442 15.4584
# 4 3.6483 14.4087 -6.2876 24.1412 9.4127 7.9718
# 5 2.2838 -15.8445 -8.8442 9.4127 34.7998 -7.6060
# 6 4.0997 26.3816 15.4584 7.9718 -7.6060 42.8586
#
#
#
# Elastic Compliance Matrix: (Units=1/GPa)
#
#
# Indices 1 2 3 4 5 6 
#
# 1 0.013656 -0.001978 -0.001402 -0.000534 -0.001972 0.000167
# 2 -0.001978 0.010907 -0.003647 -0.008640 0.005949 -0.002547
# 3 -0.001402 -0.003647 0.009570 0.006228 -0.001361 -0.002473
# 4 -0.000534 -0.008640 0.006228 0.060516 -0.021287 -0.011911
# 5 -0.001972 0.005949 -0.001361 -0.021287 0.038701 0.007845
# 6 0.000167 -0.002547 -0.002473 -0.011911 0.007845 0.029384
#
#
# Mechanical properties :
#
#
# Convention : Reuss Voigt Hill
#
# Bulk Modulus (GPa) = 49.80405 60.22062 55.01234
# Shear Modulus (GPa) = 27.25085 37.53674 32.39380
#
# Velocity S-wave (km/s) = 3.49741 4.10473 3.81318
# Velocity P-wave (km/s) = 6.21807 7.03533 6.63929
#
# Compressibility (1/GPa) = 0.02007869
#
# Stress axis : x y z
#
# Youngs Moduli (GPa) = 73.22844 91.68175 104.49458
#
# Poissons Ratio (x) = 0.18138 0.14654
# Poissons Ratio (y) = 0.14487 0.38104
# Poissons Ratio (z) = 0.10269 0.33432
#
# Static dielectric constant tensor:
#      x y z
#    x 1.895320 -0.049480 0.033280 
#    y -0.049480 1.826050 -0.001930 
#    z 0.033280 -0.001930 1.811020 
# 
# From -- ./inp_files/403163.got.cif
#   From: 2010.05.17/outbox.cif.g08.bks.cpg/sg2_202_cif.got.tgz:403163.got - 2010.06.03 11:33:40.
