data_PCOD9010224
_publ_section_title
;
Structure prediction by ZEFSAII (Michael W. Deem and Ramdas Pophale) SiO2 
 PCOD9010224
Probable space group: P -1
;
_chemical_formula_sum "Si O2"
_cell_formula_units_Z 14
_cell_length_a 18.736831
_cell_length_b 18.525482
_cell_length_c 7.619099
_cell_angle_alpha 144.354629
_cell_angle_beta 34.420737
_cell_angle_gamma 153.478944
_cell_volume 637.758984
_symmetry_space_group_name_H-M "P -1"
_symmetry_group_IT_number 2
_symmetry_cell_setting 'triclinic'
loop_
_space_group_symop_operation_xyz
x,y,z
-x,-y,-z
loop_
_atom_site_type_symbol
_atom_site_label
_atom_site_fract_x
_atom_site_fract_y
_atom_site_fract_z
Si Si1 0.537496 0.587547 0.905854
Si Si2 0.495868 0.703088 0.655899
Si Si3 0.156962 0.565383 0.939077
Si Si4 0.224484 0.878184 0.580823
Si Si5 0.185893 0.072742 0.804978
Si Si6 0.570761 0.238866 0.709431
Si Si7 0.081417 0.670391 0.775573
O O1 0.527626 0.455792 0.553775
O O2 0.500000 0.500000 0.000000
O O3 0.718602 0.776885 0.947329
O O4 0.423456 0.622550 0.123052
O O5 0.680986 0.846037 0.468930
O O6 0.349586 0.638148 0.676741
O O7 0.464240 0.760358 0.010732
O O8 0.206867 0.727810 0.251131
O O9 0.059246 0.399126 0.929597
O O10 0.000000 0.500000 0.000000
O O11 0.120397 0.806927 0.833857
O O12 0.157817 0.921371 0.649903
O O13 0.415160 0.053629 0.582404
O O14 0.000000 0.000000 0.000000
O O15 0.741133 0.270546 0.398055
O O16 0.000000 0.500000 0.500000
#
# Coordination Sequence:
#
# PCOD9010224 Si02
#       7
#     2   2   2   2   2   2   2
#     4   9  22  40  64  90 127 169 209 260 314 368
#     4  11  23  42  64  97 125 167 217 253 315 380
#     4  11  26  40  64 101 126 167 212 257 313 386
#     4  10  23  43  64  92 130 169 202 269 321 368
#     4  10  24  44  64  91 127 169 212 262 320 363
#     4  11  21  42  65  94 128 168 211 261 318 374
#     4  10  21  40  62  92 129 164 207 255 320 374
#
# _framework density 21.951868999999999
#
# number of rings (size 3 to 8) (size 9 to 14) (size 15 to 20)
#    0.000    1.714    2.857    0.857    8.000    5.143 
#    2.571    1.429    0.000    0.000    0.000    0.000 
#    0.000    0.000    0.000    0.000    0.000    0.000 
#
# Total GULP energy -77999.410357 kJ/mol
# GULP energy per Si atom -5571.386454 kJ/mol
# Density = 2.190191 g / cm^3
# Si number density = 21.951869 Si / 1000 Ang^3
#
#
#
# Elastic Constant Matrix: (Units=GPa)
#
#
# Indices 1 2 3 4 5 6 
#
# 1 104.6585 42.6406 34.2357 -11.9756 -15.4308 -5.4788
# 2 42.6406 90.9529 34.8387 -17.2766 -19.6574 -11.4955
# 3 34.2357 34.8387 66.7304 -6.9342 -10.5299 -4.1037
# 4 -11.9756 -17.2766 -6.9342 40.3397 0.8630 -8.4755
# 5 -15.4308 -19.6574 -10.5299 0.8630 18.3100 9.8091
# 6 -5.4788 -11.4955 -4.1037 -8.4755 9.8091 38.4607
#
#
#
# Elastic Compliance Matrix: (Units=1/GPa)
#
#
# Indices 1 2 3 4 5 6 
#
# 1 0.013157 -0.003166 -0.004086 0.001607 0.005571 -0.000575
# 2 -0.003166 0.018881 -0.005377 0.006544 0.012688 0.002825
# 3 -0.004086 -0.005377 0.020268 -0.000267 0.002893 -0.000823
# 4 0.001607 0.006544 -0.000267 0.029661 0.002516 0.008051
# 5 0.005571 0.012688 0.002893 0.002516 0.082882 -0.015689
# 6 -0.000575 0.002825 -0.000823 0.008051 -0.015689 0.032451
#
#
# Mechanical properties :
#
#
# Convention : Reuss Voigt Hill
#
# Bulk Modulus (GPa) = 36.97385 53.97464 45.47424
# Shear Modulus (GPa) = 21.59135 29.46386 25.52760
#
# Velocity S-wave (km/s) = 3.13960 3.66758 3.41382
# Velocity P-wave (km/s) = 5.47928 6.52503 6.02489
#
# Compressibility (1/GPa) = 0.02704614
#
# Stress axis : x y z
#
# Youngs Moduli (GPa) = 76.00637 52.96287 49.34006
#
# Poissons Ratio (x) = 0.16769 0.20161
# Poissons Ratio (y) = 0.24066 0.26531
# Poissons Ratio (z) = 0.31058 0.28479
#
# Static dielectric constant tensor:
#      x y z
#    x 1.889580 0.001990 0.016520 
#    y 0.001990 1.714430 0.029170 
#    z 0.016520 0.029170 1.895260 
# 
# From -- ./inp_files/277919.got.cif
#   From: 2010.05.17/outbox.cif.g08.bks.cpg/sg2_139_cif.got.tgz:277919.got - 2010.06.03 11:33:40.
