data_PCOD9010680
_publ_section_title
;
Structure prediction by ZEFSAII (Michael W. Deem and Ramdas Pophale) SiO2 
 PCOD9010680
Probable space group: P -1
;
_chemical_formula_sum "Si O2"
_cell_formula_units_Z 16
_cell_length_a 11.029880
_cell_length_b 11.285844
_cell_length_c 7.835852
_cell_angle_alpha 118.290740
_cell_angle_beta 90.980107
_cell_angle_gamma 53.159260
_cell_volume 636.114260
_symmetry_space_group_name_H-M "P -1"
_symmetry_group_IT_number 2
_symmetry_cell_setting 'triclinic'
loop_
_space_group_symop_operation_xyz
x,y,z
-x,-y,-z
loop_
_atom_site_type_symbol
_atom_site_label
_atom_site_fract_x
_atom_site_fract_y
_atom_site_fract_z
Si Si1 0.984110 0.298990 0.793949
Si Si2 0.979526 0.088369 0.358890
Si Si3 0.534027 0.951992 0.232894
Si Si4 0.766588 0.013011 0.196484
Si Si5 0.637151 0.617779 0.878146
Si Si6 0.248098 0.277874 0.602388
Si Si7 0.768384 0.431179 0.387901
Si Si8 0.304027 0.761150 0.974912
O O1 0.998226 0.156099 0.578324
O O2 0.088189 0.334739 0.722761
O O3 0.796278 0.478222 0.903408
O O4 0.076709 0.199184 0.904397
O O5 0.820479 0.110452 0.359743
O O6 0.936421 0.233744 0.315255
O O7 0.144879 0.887368 0.175705
O O8 0.614756 0.821710 0.313015
O O9 0.615344 0.038602 0.278670
O O10 0.340151 0.109086 0.357357
O O11 0.595574 0.806794 0.988196
O O12 0.728460 0.096294 0.066761
O O13 0.674017 0.528395 0.631226
O O14 0.479453 0.665378 0.990150
O O15 0.213836 0.441575 0.619747
O O16 0.686415 0.385330 0.227569
#
# Coordination Sequence:
#
# PCOD9010680 Si02
#       8
#     2   2   2   2   2   2   2   2
#     4  10  23  40  63  92 124 160 201 251 300 359
#     4  10  22  40  65  91 119 160 206 249 299 362
#     4  10  23  40  63  90 121 163 204 249 302 361
#     4  10  21  40  64  88 121 161 201 246 302 360
#     4  11  24  39  60  94 126 157 203 252 302 358
#     4  10  22  42  62  88 125 162 202 248 304 361
#     4  10  22  40  62  89 122 160 201 252 305 358
#     4  11  23  41  64  90 123 161 203 250 303 360
#
# _framework density 25.152712999999999
#
# number of rings (size 3 to 8) (size 9 to 14) (size 15 to 20)
#    0.000    1.750    0.000    3.750    0.000   13.000 
#    0.000    3.750    0.000    0.000    0.000    0.000 
#    0.000    0.000    0.000    0.000    0.000    0.000 
#
# Total GULP energy -89542.509693 kJ/mol
# GULP energy per Si atom -5596.406856 kJ/mol
# Density = 2.509546 g / cm^3
# Si number density = 25.152713 Si / 1000 Ang^3
#
#
#
# Elastic Constant Matrix: (Units=GPa)
#
#
# Indices 1 2 3 4 5 6 
#
# 1 94.3674 42.8270 34.8394 8.9953 -7.9929 -8.1884
# 2 42.8270 108.6970 15.3008 7.0196 -6.6849 5.0786
# 3 34.8394 15.3008 93.5466 26.7383 2.4193 4.3006
# 4 8.9953 7.0196 26.7383 35.0486 2.9679 -5.7321
# 5 -7.9929 -6.6849 2.4193 2.9679 26.5085 5.4300
# 6 -8.1884 5.0786 4.3006 -5.7321 5.4300 43.3131
#
#
#
# Elastic Compliance Matrix: (Units=1/GPa)
#
#
# Indices 1 2 3 4 5 6 
#
# 1 0.015603 -0.005482 -0.005709 0.001875 0.002802 0.004056
# 2 -0.005482 0.011655 0.000870 -0.002266 0.002085 -0.003051
# 3 -0.005709 0.000870 0.016241 -0.011726 -0.000802 -0.004245
# 4 0.001875 -0.002266 -0.011726 0.039100 -0.004864 0.007569
# 5 0.002802 0.002085 -0.000802 -0.004864 0.040818 -0.005396
# 6 0.004056 -0.003051 -0.004245 0.007569 -0.005396 0.026312
#
#
# Mechanical properties :
#
#
# Convention : Reuss Voigt Hill
#
# Bulk Modulus (GPa) = 43.75398 53.61614 48.68506
# Shear Modulus (GPa) = 28.09128 34.55029 31.32079
#
# Velocity S-wave (km/s) = 3.34552 3.71026 3.53260
# Velocity P-wave (km/s) = 5.68828 6.30216 6.00307
#
# Compressibility (1/GPa) = 0.02285506
#
# Stress axis : x y z
#
# Youngs Moduli (GPa) = 64.08867 85.80246 61.57118
#
# Poissons Ratio (x) = 0.47040 0.35153
# Poissons Ratio (y) = 0.35136 -0.05354
# Poissons Ratio (z) = 0.36590 -0.07461
#
# Static dielectric constant tensor:
#      x y z
#    x 1.972110 0.022370 0.017140 
#    y 0.022370 2.016960 -0.011880 
#    z 0.017140 -0.011880 2.037080 
# 
# From -- ./inp_files/263047.got.cif
#   From: 2010.05.17/outbox.cif.g08.bks.cpg/sg2_132_cif.got.tgz:263047.got - 2010.06.03 11:33:40.
