data_PCOD9010025
_publ_section_title
;
Structure prediction by ZEFSAII (Michael W. Deem and Ramdas Pophale) SiO2 
 PCOD9010025
Probable space group: P -1
;
_chemical_formula_sum "Si O2"
_cell_formula_units_Z 14
_cell_length_a 19.853471
_cell_length_b 5.199521
_cell_length_c 9.123167
_cell_angle_alpha 124.205354
_cell_angle_beta 55.979111
_cell_angle_gamma 103.141663
_cell_volume 640.313886
_symmetry_space_group_name_H-M "P -1"
_symmetry_group_IT_number 2
_symmetry_cell_setting 'triclinic'
loop_
_space_group_symop_operation_xyz
x,y,z
-x,-y,-z
loop_
_atom_site_type_symbol
_atom_site_label
_atom_site_fract_x
_atom_site_fract_y
_atom_site_fract_z
Si Si1 0.945573 0.820156 0.118533
Si Si2 0.286728 0.866896 0.928783
Si Si3 0.586576 0.346055 0.527514
Si Si4 0.945953 0.232644 0.530944
Si Si5 0.362751 0.180607 0.192673
Si Si6 0.190114 0.350327 0.988846
Si Si7 0.525565 0.035169 0.776343
O O1 0.924366 0.036346 0.354298
O O2 0.865655 0.749691 0.106214
O O3 0.000000 0.500000 0.000000
O O4 0.000000 0.000000 0.000000
O O5 0.298187 0.061593 0.124945
O O6 0.221569 0.062526 0.964214
O O7 0.262368 0.529254 0.893872
O O8 0.370047 0.820116 0.717927
O O9 0.655651 0.499413 0.590377
O O10 0.526386 0.659390 0.662179
O O11 0.544215 0.135584 0.623827
O O12 0.867291 0.396438 0.764153
O O13 0.000000 0.500000 0.500000
O O14 0.000000 0.000000 0.500000
O O15 0.398492 0.930146 0.193651
O O16 0.443689 0.207138 0.003436
#
# Coordination Sequence:
#
# PCOD9010025 Si02
#       7
#     2   2   2   2   2   2   2
#     4  12  23  44  74  96 128 162 209 275 313 372
#     4  12  27  40  63  91 138 173 206 258 322 408
#     4  10  21  40  61  91 125 166 218 265 316 374
#     4  12  23  44  75  99 124 165 215 268 319 376
#     4   9  23  39  66  91 126 167 218 270 320 366
#     4  12  27  43  63 101 132 165 217 252 331 392
#     4   9  20  40  66  90 122 162 228 276 308 363
#
# _framework density 21.864274999999999
#
# number of rings (size 3 to 8) (size 9 to 14) (size 15 to 20)
#    0.857    0.286    2.857    3.000    2.000    3.429 
#    0.000    0.000    0.000    0.000    0.000    0.000 
#    0.000    0.000    0.000    0.000    0.000    0.000 
#
# Total GULP energy -78261.535266 kJ/mol
# GULP energy per Si atom -5590.109662 kJ/mol
# Density = 2.181451 g / cm^3
# Si number density = 21.864275 Si / 1000 Ang^3
#
#
#
# Elastic Constant Matrix: (Units=GPa)
#
#
# Indices 1 2 3 4 5 6 
#
# 1 112.0325 9.7356 11.2642 7.5383 42.1886 -5.8645
# 2 9.7356 118.5670 -0.2540 -18.5031 6.7728 -17.4901
# 3 11.2642 -0.2540 101.1534 -4.1830 25.9303 -7.9411
# 4 7.5383 -18.5031 -4.1830 27.8878 4.3262 -5.9430
# 5 42.1886 6.7728 25.9303 4.3262 46.2460 5.9578
# 6 -5.8645 -17.4901 -7.9411 -5.9430 5.9578 26.1776
#
#
#
# Elastic Compliance Matrix: (Units=1/GPa)
#
#
# Indices 1 2 3 4 5 6 
#
# 1 0.015679 0.001751 0.003913 0.002630 -0.018371 0.010648
# 2 0.001751 0.013238 0.003938 0.013620 -0.009025 0.015578
# 3 0.003913 0.003938 0.014718 0.008941 -0.014962 0.013407
# 4 0.002630 0.013620 0.008941 0.054518 -0.018234 0.028928
# 5 -0.018371 -0.009025 -0.014962 -0.018234 0.053803 -0.031069
# 6 0.010648 0.015578 0.013407 0.028928 -0.031069 0.068700
#
#
# Mechanical properties :
#
#
# Convention : Reuss Voigt Hill
#
# Bulk Modulus (GPa) = 15.91378 41.47161 28.69269
# Shear Modulus (GPa) = 22.48229 40.79610 31.63919
#
# Velocity S-wave (km/s) = 3.21014 4.32427 3.80817
# Velocity P-wave (km/s) = 4.58631 6.62883 5.69980
#
# Compressibility (1/GPa) = 0.06283863
#
# Stress axis : x y z
#
# Youngs Moduli (GPa) = 63.77931 75.54247 67.94429
#
# Poissons Ratio (x) = -0.13231 -0.26584
# Poissons Ratio (y) = -0.11171 -0.26756
# Poissons Ratio (z) = -0.24954 -0.29749
#
# Static dielectric constant tensor:
#      x y z
#    x 1.846010 0.030610 0.024460 
#    y 0.030610 1.799880 0.006660 
#    z 0.024460 0.006660 1.770300 
# 
# From -- ./inp_files/324209.got.cif
#   From: 2010.05.17/outbox.cif.g08.bks.cpg/sg2_163_cif.got.tgz:324209.got - 2010.06.03 11:33:40.
