data_PCOD9010067
_publ_section_title
;
Structure prediction by ZEFSAII (Michael W. Deem and Ramdas Pophale) SiO2 
 PCOD9010067
Probable space group: P -1
;
_chemical_formula_sum "Si O2"
_cell_formula_units_Z 15
_cell_length_a 12.800332
_cell_length_b 16.002601
_cell_length_c 8.360918
_cell_angle_alpha 51.353200
_cell_angle_beta 119.519438
_cell_angle_gamma 154.032384
_cell_volume 573.723781
_symmetry_space_group_name_H-M "P -1"
_symmetry_group_IT_number 2
_symmetry_cell_setting 'triclinic'
loop_
_space_group_symop_operation_xyz
x,y,z
-x,-y,-z
loop_
_atom_site_type_symbol
_atom_site_label
_atom_site_fract_x
_atom_site_fract_y
_atom_site_fract_z
Si Si1 0.182264 0.552667 0.350873
Si Si2 0.399469 0.683656 0.698404
Si Si3 0.967156 0.708458 0.876586
Si Si4 0.226341 0.271632 0.512638
Si Si5 0.657429 0.874109 0.151767
Si Si6 0.500000 0.000000 0.000000
Si Si7 0.709462 0.135463 0.334931
Si Si8 0.847163 0.974883 0.833589
O O1 0.265630 0.570863 0.563320
O O2 0.375313 0.648540 0.256154
O O3 0.891457 0.325060 0.378657
O O4 0.279916 0.749306 0.186233
O O5 0.545065 0.909998 0.546487
O O6 0.624729 0.775789 0.785035
O O7 0.208808 0.503018 0.904792
O O8 0.829833 0.709359 0.715068
O O9 0.075262 0.740100 0.764984
O O10 0.221642 0.933452 0.891174
O O11 0.500000 0.500000 0.500000
O O12 0.209494 0.129514 0.673340
O O13 0.048330 0.181499 0.622898
O O14 0.724156 0.933549 0.945006
O O15 0.444336 0.926101 0.845622
O O16 0.000000 0.000000 0.000000
#
# Coordination Sequence:
#
# PCOD9010067 Si02
#       8
#     2   2   2   2   2   1   2   2
#     4  11  23  46  74 103 139 184 224 295 349 413
#     4  11  24  41  67 103 141 185 233 279 339 414
#     4  12  23  42  65  99 144 185 234 284 336 415
#     4  11  22  40  62  96 141 185 236 284 338 403
#     4  11  23  39  69  98 137 191 233 283 348 401
#     4  10  22  46  78 108 132 176 234 282 368 416
#     4  11  23  46  73 100 146 175 230 289 349 418
#     4  10  21  40  61  97 138 183 237 277 329 405
#
# _framework density 26.144985999999999
#
# number of rings (size 3 to 8) (size 9 to 14) (size 15 to 20)
#    0.000    1.067    4.000    4.000    1.867    1.067 
#    0.000    6.667    0.000    8.000    0.000    0.000 
#    0.000    0.000    0.000    0.000    0.000    0.000 
#
# Total GULP energy -83619.654915 kJ/mol
# GULP energy per Si atom -5574.643661 kJ/mol
# Density = 2.608548 g / cm^3
# Si number density = 26.144986 Si / 1000 Ang^3
#
#
#
# Elastic Constant Matrix: (Units=GPa)
#
#
# Indices 1 2 3 4 5 6 
#
# 1 64.4048 26.8098 33.4299 -8.0035 -21.8565 24.6662
# 2 26.8098 220.4245 71.0954 2.4803 -10.7138 29.6342
# 3 33.4299 71.0954 196.6830 -2.6314 -20.7538 18.4999
# 4 -8.0035 2.4803 -2.6314 53.1410 24.1270 2.7696
# 5 -21.8565 -10.7138 -20.7538 24.1270 34.8935 -4.3750
# 6 24.6662 29.6342 18.4999 2.7696 -4.3750 37.7132
#
#
#
# Elastic Compliance Matrix: (Units=1/GPa)
#
#
# Indices 1 2 3 4 5 6 
#
# 1 0.027163 0.000017 -0.001570 -0.002414 0.015875 -0.014990
# 2 0.000017 0.005562 -0.001627 -0.000436 0.000616 -0.003480
# 3 -0.001570 -0.001627 0.006276 -0.001217 0.003050 -0.000330
# 4 -0.002414 -0.000436 -0.001217 0.028760 -0.022532 -0.002208
# 5 0.015875 0.000616 0.003050 -0.022532 0.055653 -0.004252
# 6 -0.014990 -0.003480 -0.000330 -0.002208 -0.004252 0.038885
#
#
# Mechanical properties :
#
#
# Convention : Reuss Voigt Hill
#
# Bulk Modulus (GPa) = 30.63668 82.68694 56.66181
# Shear Modulus (GPa) = 27.84899 48.49469 38.17184
#
# Velocity S-wave (km/s) = 3.26724 4.31145 3.82515
# Velocity P-wave (km/s) = 5.09672 7.51531 6.42092
#
# Compressibility (1/GPa) = 0.03264062
#
# Stress axis : x y z
#
# Youngs Moduli (GPa) = 36.81429 179.78830 159.34017
#
# Poissons Ratio (x) = -0.00300 0.25018
# Poissons Ratio (y) = -0.00061 0.25923
# Poissons Ratio (z) = 0.05780 0.29250
#
# Static dielectric constant tensor:
#      x y z
#    x 2.192200 -0.329260 0.033370 
#    y -0.329260 2.314930 0.046210 
#    z 0.033370 0.046210 2.014160 
# 
# From -- ./inp_files/337134.got.cif
#   From: 2010.05.17/outbox.cif.g08.bks.cpg/sg2_169_cif.got.tgz:337134.got - 2010.06.03 11:33:40.
