data_PCOD9010115
_publ_section_title
;
Structure prediction by ZEFSAII (Michael W. Deem and Ramdas Pophale) SiO2 
 PCOD9010115
Probable space group: P -1
;
_chemical_formula_sum "Si O2"
_cell_formula_units_Z 16
_cell_length_a 8.741656
_cell_length_b 16.049193
_cell_length_c 9.690967
_cell_angle_alpha 114.557558
_cell_angle_beta 43.441419
_cell_angle_gamma 132.300277
_cell_volume 684.295348
_symmetry_space_group_name_H-M "P -1"
_symmetry_group_IT_number 2
_symmetry_cell_setting 'triclinic'
loop_
_space_group_symop_operation_xyz
x,y,z
-x,-y,-z
loop_
_atom_site_type_symbol
_atom_site_label
_atom_site_fract_x
_atom_site_fract_y
_atom_site_fract_z
Si Si1 0.728315 0.079366 0.020342
Si Si2 0.829338 0.567278 0.325491
Si Si3 0.681468 0.252652 0.035546
Si Si4 0.177278 0.256925 0.370223
Si Si5 0.334760 0.208700 0.738374
Si Si6 0.420974 0.883214 0.281525
Si Si7 0.715633 0.633521 0.915336
Si Si8 0.145784 0.588567 0.594868
O O1 0.031306 0.112955 0.813732
O O2 0.745270 0.191843 0.065133
O O3 0.500000 0.000000 0.000000
O O4 0.627119 0.014162 0.187028
O O5 0.500000 0.500000 0.500000
O O6 0.899275 0.672877 0.442849
O O7 0.894333 0.489264 0.306119
O O8 0.029585 0.624869 0.102491
O O9 0.422143 0.250136 0.252238
O O10 0.595417 0.182616 0.896433
O O11 0.304186 0.330367 0.199028
O O12 0.866795 0.140512 0.494242
O O13 0.468248 0.156431 0.697834
O O14 0.537975 0.307563 0.565936
O O15 0.299405 0.282513 0.921330
O O16 0.999014 0.648811 0.746904
O O17 0.500000 0.500000 0.000000
O O18 0.000000 0.500000 0.500000
#
# Coordination Sequence:
#
# PCOD9010115 Si02
#       8
#     2   2   2   2   2   2   2   2
#     4  10  24  44  66  90 122 172 214 262 318 366
#     4  11  23  37  58  90 127 168 206 247 309 381
#     4  10  21  40  62  86 125 161 204 258 314 371
#     4  11  21  38  62  87 124 162 204 261 313 366
#     4  12  22  40  66  95 129 161 212 262 310 377
#     4  10  21  41  65  90 116 160 215 261 312 363
#     4  12  22  35  63  98 127 162 201 254 316 375
#     4  12  21  38  62  95 129 165 204 253 315 376
#
# _framework density 23.381717999999999
#
# number of rings (size 3 to 8) (size 9 to 14) (size 15 to 20)
#    0.000    1.000    5.000    2.625    0.000    2.000 
#    0.000    3.125    0.000    0.000    0.000    0.000 
#    0.000    0.000    0.000    0.000    0.000    0.000 
#
# Total GULP energy -89335.502443 kJ/mol
# GULP energy per Si atom -5583.468903 kJ/mol
# Density = 2.332850 g / cm^3
# Si number density = 23.381718 Si / 1000 Ang^3
#
#
#
# Elastic Constant Matrix: (Units=GPa)
#
#
# Indices 1 2 3 4 5 6 
#
# 1 56.1873 43.2174 17.9952 -4.1210 -11.2698 -12.7520
# 2 43.2174 57.2907 32.1019 -39.6255 16.9718 -35.8828
# 3 17.9952 32.1019 103.5902 -30.1685 -7.3538 -9.5933
# 4 -4.1210 -39.6255 -30.1685 45.3583 8.6738 -3.1406
# 5 -11.2698 16.9718 -7.3538 8.6738 20.9442 0.4064
# 6 -12.7520 -35.8828 -9.5933 -3.1406 0.4064 47.0798
#
#
#
# Elastic Compliance Matrix: (Units=1/GPa)
#
#
# Indices 1 2 3 4 5 6 
#
# 1 0.011395 0.011382 -0.001298 0.012706 -0.009051 0.012423
# 2 0.011382 -0.012074 -0.001916 -0.015492 0.021801 -0.007731
# 3 -0.001298 -0.001916 0.012551 0.006117 0.002705 0.001130
# 4 0.012706 -0.015492 0.006117 0.009920 0.017558 -0.006609
# 5 -0.009051 0.021801 0.002705 0.017558 0.018583 0.015727
# 6 0.012423 -0.007731 0.001130 -0.006609 0.015727 0.018367
#
#
# Mechanical properties :
#
#
# Convention : Reuss Voigt Hill
#
# Bulk Modulus (GPa) = 35.45106 44.85522 40.15314
# Shear Modulus (GPa) = 96.50975 30.92673 63.71824
#
# Velocity S-wave (km/s) = 6.43159 3.64082 5.22594
# Velocity P-wave (km/s) = 8.38741 6.07451 7.32285
#
# Compressibility (1/GPa) = 0.02820790
#
# Stress axis : x y z
#
# Youngs Moduli (GPa) = 87.76060 -82.82572 79.67585
#
# Poissons Ratio (x) = 0.94273 0.10344
# Poissons Ratio (y) = -0.99890 0.15264
# Poissons Ratio (z) = 0.11394 -0.15867
#
# Static dielectric constant tensor:
#      x y z
#    x 1.911330 0.133450 -0.156380 
#    y 0.133450 1.923850 -0.167810 
#    z -0.156380 -0.167810 1.904000 
# 
# From -- ./inp_files/269686.got.cif
#   From: 2010.05.17/outbox.cif.g08.bks.cpg/sg2_135_cif.got.tgz:269686.got - 2010.06.03 11:33:40.
