data_PCOD9010242
_publ_section_title
;
Structure prediction by ZEFSAII (Michael W. Deem and Ramdas Pophale) SiO2 
 PCOD9010242
Probable space group: P -1
;
_chemical_formula_sum "Si O2"
_cell_formula_units_Z 12
_cell_length_a 11.239704
_cell_length_b 8.621869
_cell_length_c 5.505056
_cell_angle_alpha 91.994211
_cell_angle_beta 59.244402
_cell_angle_gamma 99.806093
_cell_volume 450.889017
_symmetry_space_group_name_H-M "P -1"
_symmetry_group_IT_number 2
_symmetry_cell_setting 'triclinic'
loop_
_space_group_symop_operation_xyz
x,y,z
-x,-y,-z
loop_
_atom_site_type_symbol
_atom_site_label
_atom_site_fract_x
_atom_site_fract_y
_atom_site_fract_z
Si Si1 0.841012 0.566418 0.426901
Si Si2 0.743976 0.133953 0.042184
Si Si3 0.028497 0.709663 0.870069
Si Si4 0.714788 0.070198 0.567711
Si Si5 0.269601 0.190727 0.138221
Si Si6 0.471411 0.584732 0.286104
O O1 0.949131 0.445662 0.302523
O O2 0.822464 0.680578 0.677643
O O3 0.696774 0.441785 0.539997
O O4 0.877415 0.677033 0.154440
O O5 0.872300 0.268151 0.986270
O O6 0.652217 0.109514 0.379862
O O7 0.671025 0.151794 0.863670
O O8 0.801378 0.968880 0.933604
O O9 0.116683 0.858892 0.640904
O O10 0.689974 0.887994 0.654772
O O11 0.410571 0.260163 0.852764
O O12 0.500000 0.500000 0.500000
O O13 0.500000 0.500000 0.000000
#
# Coordination Sequence:
#
# PCOD9010242 Si02
#       6
#     2   2   2   2   2   2
#     4  10  21  40  62  93 124 164 192 256 300 366
#     4   8  18  37  60  84 122 153 201 246 294 356
#     4   9  20  41  59  94 128 155 198 243 319 360
#     4   8  18  37  60  84 122 153 201 246 294 356
#     4   9  20  38  64  85 116 160 211 244 290 349
#     4  10  23  41  59  90 123 156 204 248 299 352
#
# _framework density 26.614090000000001
#
# number of rings (size 3 to 8) (size 9 to 14) (size 15 to 20)
#    2.000    1.000    0.000    0.000    4.667    1.333 
#   12.000    3.333    0.000    0.000    0.000    0.000 
#    0.000    0.000    0.000    0.000    0.000    0.000 
#
# Total GULP energy -66817.823610 kJ/mol
# GULP energy per Si atom -5568.151967 kJ/mol
# Density = 2.655352 g / cm^3
# Si number density = 26.614090 Si / 1000 Ang^3
#
#
#
# Elastic Constant Matrix: (Units=GPa)
#
#
# Indices 1 2 3 4 5 6 
#
# 1 53.0721 21.5048 60.1967 3.0539 1.3929 -0.2917
# 2 21.5048 141.7002 59.3507 -3.6827 -17.0744 4.6735
# 3 60.1967 59.3507 213.8113 -14.1827 15.4448 -2.5256
# 4 3.0539 -3.6827 -14.1827 69.9749 10.0457 10.9134
# 5 1.3929 -17.0744 15.4448 10.0457 51.5974 3.5271
# 6 -0.2917 4.6735 -2.5256 10.9134 3.5271 17.6381
#
#
#
# Elastic Compliance Matrix: (Units=1/GPa)
#
#
# Indices 1 2 3 4 5 6 
#
# 1 0.028607 -0.000801 -0.008189 -0.003430 0.001997 0.001236
# 2 -0.000801 0.008842 -0.002559 -0.000043 0.003960 -0.003488
# 3 -0.008189 -0.002559 0.008109 0.002214 -0.003555 0.001045
# 4 -0.003430 -0.000043 0.002214 0.016830 -0.003211 -0.009499
# 5 0.001997 0.003960 -0.003555 -0.003211 0.022604 -0.004058
# 6 0.001236 -0.003488 0.001045 -0.009499 -0.004058 0.064479
#
#
# Mechanical properties :
#
#
# Convention : Reuss Voigt Hill
#
# Bulk Modulus (GPa) = 44.52371 76.74309 60.63340
# Shear Modulus (GPa) = 27.76951 45.67751 36.72351
#
# Velocity S-wave (km/s) = 3.23370 4.14731 3.71867
# Velocity P-wave (km/s) = 5.54149 7.19942 6.42416
#
# Compressibility (1/GPa) = 0.02245994
#
# Stress axis : x y z
#
# Youngs Moduli (GPa) = 34.95691 113.10175 123.32190
#
# Poissons Ratio (x) = 0.09057 1.00987
# Poissons Ratio (y) = 0.02799 0.31558
# Poissons Ratio (z) = 0.28626 0.28942
#
# Static dielectric constant tensor:
#      x y z
#    x 2.220900 -0.076450 0.067390 
#    y -0.076450 2.069580 -0.015770 
#    z 0.067390 -0.015770 2.121220 
# 
# From -- ./inp_files/93733.got.cif
#   From: 2010.05.17/outbox.cif.g08.bks.cpg/sg2_47_cif.got.tgz:93733.got - 2010.06.03 11:33:40.
