data_PCOD9010083
_publ_section_title
;
Structure prediction by ZEFSAII (Michael W. Deem and Ramdas Pophale) SiO2 
 PCOD9010083
Probable space group: P -1
;
_chemical_formula_sum "Si O2"
_cell_formula_units_Z 16
_cell_length_a 21.537388
_cell_length_b 18.063087
_cell_length_c 9.664618
_cell_angle_alpha 118.482567
_cell_angle_beta 50.354706
_cell_angle_gamma 161.626259
_cell_volume 773.925870
_symmetry_space_group_name_H-M "P -1"
_symmetry_group_IT_number 2
_symmetry_cell_setting 'triclinic'
loop_
_space_group_symop_operation_xyz
x,y,z
-x,-y,-z
loop_
_atom_site_type_symbol
_atom_site_label
_atom_site_fract_x
_atom_site_fract_y
_atom_site_fract_z
Si Si1 0.002615 0.352341 0.036568
Si Si2 0.446434 0.255639 0.653342
Si Si3 0.385644 0.885797 0.909056
Si Si4 0.940804 0.277409 0.766252
Si Si5 0.481821 0.098715 0.490681
Si Si6 0.082883 0.275014 0.375569
Si Si7 0.845060 0.636903 0.971208
Si Si8 0.435533 0.338067 0.457211
O O1 0.151219 0.583747 0.982294
O O2 0.155451 0.452812 0.027277
O O3 0.722709 0.101405 0.272765
O O4 0.976801 0.271542 0.861615
O O5 0.448127 0.157791 0.521593
O O6 0.662980 0.481591 0.668185
O O7 0.502844 0.368055 0.540175
O O8 0.142313 0.968237 0.875890
O O9 0.283989 0.878351 0.026296
O O10 0.566203 0.025473 0.656830
O O11 0.500000 0.000000 0.000000
O O12 0.212977 0.597185 0.625048
O O13 0.910694 0.179515 0.602739
O O14 0.167742 0.381407 0.193307
O O15 0.877137 0.993005 0.414166
O O16 0.616238 0.467709 0.206184
O O17 0.500000 0.500000 0.500000
#
# Coordination Sequence:
#
# PCOD9010083 Si02
#       8
#     2   2   2   2   2   2   2   2
#     4  10  21  40  62  82 114 162 201 246 294 351
#     4   9  21  42  63  88 127 159 201 254 296 355
#     4  11  24  34  52  86 125 154 195 252 297 341
#     4  10  22  38  59  83 116 157 200 249 300 344
#     4   9  19  39  59  79 112 160 203 241 296 343
#     4  10  23  41  65  92 123 158 204 253 298 360
#     4  10  22  40  66  89 120 158 207 244 304 359
#     4  11  24  41  65  94 125 159 195 243 306 370
#
# _framework density 20.673812999999999
#
# number of rings (size 3 to 8) (size 9 to 14) (size 15 to 20)
#    0.000    2.000    0.000    3.750    7.000    9.000 
#    0.000    1.250    0.000    0.000    0.000    0.000 
#    0.000    0.000    0.000    0.000    0.000    0.000 
#
# Total GULP energy -89287.109572 kJ/mol
# GULP energy per Si atom -5580.444348 kJ/mol
# Density = 2.062676 g / cm^3
# Si number density = 20.673813 Si / 1000 Ang^3
#
#
#
# Elastic Constant Matrix: (Units=GPa)
#
#
# Indices 1 2 3 4 5 6 
#
# 1 83.7698 24.1269 22.5272 7.6937 17.5014 2.4658
# 2 24.1269 57.2546 9.9098 11.2937 7.0285 14.0319
# 3 22.5272 9.9098 101.1175 -6.7182 21.4106 5.4058
# 4 7.6937 11.2937 -6.7182 20.4122 5.4064 1.1273
# 5 17.5014 7.0285 21.4106 5.4064 25.6424 1.2067
# 6 2.4658 14.0319 5.4058 1.1273 1.2067 31.2739
#
#
#
# Elastic Compliance Matrix: (Units=1/GPa)
#
#
# Indices 1 2 3 4 5 6 
#
# 1 0.015620 -0.005569 -0.001498 -0.001368 -0.007683 0.001872
# 2 -0.005569 0.024754 -0.001767 -0.012023 0.001496 -0.009986
# 3 -0.001498 -0.001767 0.013548 0.009166 -0.011676 -0.001311
# 4 -0.001368 -0.012023 0.009166 0.063532 -0.016927 0.002281
# 5 -0.007683 0.001496 -0.011676 -0.016927 0.057133 0.000358
# 6 0.001872 -0.009986 -0.001311 0.002281 0.000358 0.036439
#
#
# Mechanical properties :
#
#
# Convention : Reuss Voigt Hill
#
# Bulk Modulus (GPa) = 27.58343 39.47442 33.52892
# Shear Modulus (GPa) = 20.76603 27.83756 24.30180
#
# Velocity S-wave (km/s) = 3.17276 3.67347 3.43226
# Velocity P-wave (km/s) = 5.17620 6.09326 5.65336
#
# Compressibility (1/GPa) = 0.03625365
#
# Stress axis : x y z
#
# Youngs Moduli (GPa) = 64.02067 40.39803 73.81274
#
# Poissons Ratio (x) = 0.22496 0.11059
# Poissons Ratio (y) = 0.35651 0.13043
# Poissons Ratio (z) = 0.09592 0.07139
#
# Static dielectric constant tensor:
#      x y z
#    x 1.783370 0.050180 -0.013790 
#    y 0.050180 1.830920 -0.004260 
#    z -0.013790 -0.004260 1.755330 
# 
# From -- ./inp_files/348519.got.cif
#   From: 2010.05.17/outbox.cif.g08.bks.cpg/sg2_175_cif.got.tgz:348519.got - 2010.06.03 11:33:40.
