data_PCOD9010930
_publ_section_title
;
Structure prediction by ZEFSAII (Michael W. Deem and Ramdas Pophale) SiO2 
 PCOD9010930
Probable space group: P -1
;
_chemical_formula_sum "Si O2"
_cell_formula_units_Z 15
_cell_length_a 8.859431
_cell_length_b 12.757684
_cell_length_c 16.238375
_cell_angle_alpha 25.273760
_cell_angle_beta 57.494401
_cell_angle_gamma 50.489915
_cell_volume 600.530372
_symmetry_space_group_name_H-M "P -1"
_symmetry_group_IT_number 2
_symmetry_cell_setting 'triclinic'
loop_
_space_group_symop_operation_xyz
x,y,z
-x,-y,-z
loop_
_atom_site_type_symbol
_atom_site_label
_atom_site_fract_x
_atom_site_fract_y
_atom_site_fract_z
Si Si1 0.711910 0.561849 0.250968
Si Si2 0.807157 0.455164 0.109967
Si Si3 0.748030 0.132611 0.829520
Si Si4 0.984916 0.850213 0.415132
Si Si5 0.285594 0.627057 0.051334
Si Si6 0.397779 0.244413 0.420258
Si Si7 0.000000 0.000000 0.000000
Si Si8 0.414263 0.170065 0.223948
O O1 0.767702 0.453975 0.218675
O O2 0.479383 0.660089 0.267612
O O3 0.858228 0.342539 0.427396
O O4 0.744728 0.838239 0.048495
O O5 0.651776 0.738426 0.913101
O O6 0.862818 0.155069 0.268760
O O7 0.000000 0.500000 0.000000
O O8 0.888682 0.142439 0.707092
O O9 0.816684 0.197924 0.851707
O O10 0.828392 0.720668 0.533304
O O11 0.426974 0.466133 0.198939
O O12 0.257342 0.402863 0.162548
O O13 0.103235 0.837033 0.002931
O O14 0.389312 0.775849 0.861981
O O15 0.500000 0.000000 0.500000
O O16 0.518636 0.129291 0.550188
#
# Coordination Sequence:
#
# PCOD9010930 Si02
#       8
#     2   2   2   2   2   2   1   2
#     4  11  26  47  69  96 142 185 224 274 343 408
#     4  12  24  41  68 100 132 175 224 278 337 399
#     4  11  25  47  69  98 137 186 227 278 337 404
#     4  12  24  45  71  99 135 179 228 277 338 409
#     4  10  21  40  64  96 130 170 207 275 337 394
#     4  10  22  38  68  98 128 171 218 278 337 392
#     4  12  22  40  70  96 134 166 226 284 330 384
#     4  10  21  42  64  92 133 168 215 274 334 394
#
# _framework density 24.977920000000001
#
# number of rings (size 3 to 8) (size 9 to 14) (size 15 to 20)
#    0.000    1.067    1.333    6.400    3.733    0.000 
#    4.800    6.000    0.000    0.000    0.000    0.000 
#    0.000    0.000    0.000    0.000    0.000    0.000 
#
# Total GULP energy -83556.639909 kJ/mol
# GULP energy per Si atom -5570.442661 kJ/mol
# Density = 2.492107 g / cm^3
# Si number density = 24.977920 Si / 1000 Ang^3
#
#
#
# Elastic Constant Matrix: (Units=GPa)
#
#
# Indices 1 2 3 4 5 6 
#
# 1 108.3570 30.5710 54.4197 19.5796 28.9907 -2.8259
# 2 30.5710 152.3182 21.7090 23.3848 -0.1077 -1.1852
# 3 54.4197 21.7090 144.6533 26.3123 33.8034 7.7943
# 4 19.5796 23.3848 26.3123 38.5835 6.9428 2.8595
# 5 28.9907 -0.1077 33.8034 6.9428 63.5736 3.8531
# 6 -2.8259 -1.1852 7.7943 2.8595 3.8531 38.9311
#
#
#
# Elastic Compliance Matrix: (Units=1/GPa)
#
#
# Indices 1 2 3 4 5 6 
#
# 1 0.012995 -0.001701 -0.003317 -0.002742 -0.003996 0.002153
# 2 -0.001701 0.007518 -0.000089 -0.003877 0.001241 0.000285
# 3 -0.003317 -0.000089 0.009759 -0.004240 -0.003118 -0.001577
# 4 -0.002742 -0.003877 -0.004240 0.032682 0.000043 -0.001873
# 5 -0.003996 0.001241 -0.003118 0.000043 0.019301 -0.001541
# 6 0.002153 0.000285 -0.001577 -0.001873 -0.001541 0.026457
#
#
# Mechanical properties :
#
#
# Convention : Reuss Voigt Hill
#
# Bulk Modulus (GPa) = 49.85132 68.74755 59.29943
# Shear Modulus (GPa) = 39.80531 48.12621 43.96576
#
# Velocity S-wave (km/s) = 3.99635 4.39424 4.20001
# Velocity P-wave (km/s) = 6.42619 7.30266 6.87840
#
# Compressibility (1/GPa) = 0.02005965
#
# Stress axis : x y z
#
# Youngs Moduli (GPa) = 76.95127 133.02274 102.46708
#
# Poissons Ratio (x) = 0.22621 0.33988
# Poissons Ratio (y) = 0.13086 0.00908
# Poissons Ratio (z) = 0.25525 0.01179
#
# Static dielectric constant tensor:
#      x y z
#    x 2.118350 -0.024960 0.046110 
#    y -0.024960 1.840010 -0.026410 
#    z 0.046110 -0.026410 2.039960 
# 
# From -- ./inp_files/499641.got.cif
#   From: 2010.05.17/outbox.cif.g08.bks.cpg/sg2_250_cif.got.tgz:499641.got - 2010.06.03 11:33:40.
