data_PCOD9010815
_publ_section_title
;
Structure prediction by ZEFSAII (Michael W. Deem and Ramdas Pophale) SiO2 
 PCOD9010815
Probable space group: P -1
;
_chemical_formula_sum "Si O2"
_cell_formula_units_Z 16
_cell_length_a 14.785042
_cell_length_b 8.278568
_cell_length_c 11.240797
_cell_angle_alpha 73.176394
_cell_angle_beta 32.173374
_cell_angle_gamma 83.787226
_cell_volume 675.551398
_symmetry_space_group_name_H-M "P -1"
_symmetry_group_IT_number 2
_symmetry_cell_setting 'triclinic'
loop_
_space_group_symop_operation_xyz
x,y,z
-x,-y,-z
loop_
_atom_site_type_symbol
_atom_site_label
_atom_site_fract_x
_atom_site_fract_y
_atom_site_fract_z
Si Si1 0.258010 0.100202 0.983322
Si Si2 0.118921 0.438782 0.281526
Si Si3 0.131358 0.150913 0.506563
Si Si4 0.622830 0.045040 0.610732
Si Si5 0.986123 0.636621 0.203937
Si Si6 0.270343 0.547018 0.650077
Si Si7 0.375718 0.504551 0.809747
Si Si8 0.802870 0.006320 0.179295
O O1 0.414968 0.017756 0.865747
O O2 0.295150 0.294203 0.949625
O O3 0.062278 0.984470 0.251676
O O4 0.270342 0.119070 0.821979
O O5 0.147725 0.266056 0.345861
O O6 0.000000 0.500000 0.500000
O O7 0.013729 0.463373 0.273441
O O8 0.307948 0.561794 0.998462
O O9 0.129100 0.280137 0.594252
O O10 0.277876 0.047856 0.386567
O O11 0.704776 0.255732 0.466840
O O12 0.671959 0.980858 0.440495
O O13 0.907033 0.581951 0.174570
O O14 0.157929 0.799029 0.961289
O O15 0.307960 0.553687 0.747092
O O16 0.418801 0.471308 0.437926
O O17 0.000000 0.000000 0.000000
#
# Coordination Sequence:
#
# PCOD9010815 Si02
#       8
#     2   2   2   2   2   2   2   2
#     4  10  22  39  62  95 125 167 215 262 325 376
#     4  10  23  44  63  88 126 177 219 252 316 383
#     4  10  23  44  61  90 130 168 220 259 308 382
#     4  11  22  39  62  95 127 170 209 263 325 380
#     4  10  21  40  64  93 124 167 212 260 324 380
#     4  10  23  40  65 103 126 160 214 265 338 378
#     4  10  22  42  64  93 136 163 205 277 319 382
#     4  11  19  35  63  94 127 164 204 265 327 376
#
# _framework density 23.684355
#
# number of rings (size 3 to 8) (size 9 to 14) (size 15 to 20)
#    0.000    1.750    2.500    1.875    1.750    1.500 
#   11.250    2.500    0.000    0.000    0.000    0.000 
#    0.000    0.000    0.000    0.000    0.000    0.000 
#
# Total GULP energy -89326.021022 kJ/mol
# GULP energy per Si atom -5582.876314 kJ/mol
# Density = 2.363045 g / cm^3
# Si number density = 23.684355 Si / 1000 Ang^3
#
#
#
# Elastic Constant Matrix: (Units=GPa)
#
#
# Indices 1 2 3 4 5 6 
#
# 1 83.0515 51.6770 37.0898 -5.1277 -3.4803 -37.4299
# 2 51.6770 86.6418 28.0986 6.2351 -4.8026 -37.0489
# 3 37.0898 28.0986 64.6914 18.4382 8.1369 -16.2742
# 4 -5.1277 6.2351 18.4382 32.6657 -7.9836 -0.5722
# 5 -3.4803 -4.8026 8.1369 -7.9836 31.2268 3.3331
# 6 -37.4299 -37.0489 -16.2742 -0.5722 3.3331 55.9338
#
#
#
# Elastic Compliance Matrix: (Units=1/GPa)
#
#
# Indices 1 2 3 4 5 6 
#
# 1 0.033378 -0.010426 -0.019936 0.021536 0.011841 0.009145
# 2 -0.010426 0.021081 0.000239 -0.005720 -0.000192 0.007009
# 3 -0.019936 0.000239 0.036950 -0.028698 -0.018980 -0.001594
# 4 0.021536 -0.005720 -0.028698 0.057035 0.023424 0.001461
# 5 0.011841 -0.000192 -0.018980 0.023424 0.044262 -0.000124
# 6 0.009145 0.007009 -0.001594 0.001461 -0.000124 0.028199
#
#
# Mechanical properties :
#
#
# Convention : Reuss Voigt Hill
#
# Bulk Modulus (GPa) = 32.08940 52.01285 42.05113
# Shear Modulus (GPa) = 17.15047 31.79988 24.47517
#
# Velocity S-wave (km/s) = 2.69388 3.66820 3.21813
# Velocity P-wave (km/s) = 4.82226 6.32056 5.62155
#
# Compressibility (1/GPa) = 0.03116294
#
# Stress axis : x y z
#
# Youngs Moduli (GPa) = 29.95951 47.43618 27.06389
#
# Poissons Ratio (x) = 0.49458 0.53953
# Poissons Ratio (y) = 0.31237 -0.00646
# Poissons Ratio (z) = 0.59726 -0.01133
#
# Static dielectric constant tensor:
#      x y z
#    x 1.878900 -0.030280 -0.009840 
#    y -0.030280 2.000410 0.100640 
#    z -0.009840 0.100640 1.963310 
# 
# From -- ./inp_files/447060.got.cif
#   From: 2010.05.17/outbox.cif.g08.bks.cpg/sg2_224_cif.got.tgz:447060.got - 2010.06.03 11:33:40.
