data_PCOD9010346
_publ_section_title
;
Structure prediction by ZEFSAII (Michael W. Deem and Ramdas Pophale) SiO2 
 PCOD9010346
Probable space group: P -1
;
_chemical_formula_sum "Si O2"
_cell_formula_units_Z 14
_cell_length_a 25.634456
_cell_length_b 19.288025
_cell_length_c 9.491282
_cell_angle_alpha 145.162070
_cell_angle_beta 152.944119
_cell_angle_gamma 17.651337
_cell_volume 633.911658
_symmetry_space_group_name_H-M "P -1"
_symmetry_group_IT_number 2
_symmetry_cell_setting 'triclinic'
loop_
_space_group_symop_operation_xyz
x,y,z
-x,-y,-z
loop_
_atom_site_type_symbol
_atom_site_label
_atom_site_fract_x
_atom_site_fract_y
_atom_site_fract_z
Si Si1 0.577190 0.094949 0.907820
Si Si2 0.252225 0.309281 0.263318
Si Si3 0.563111 0.564053 0.677044
Si Si4 0.028386 0.662098 0.780149
Si Si5 0.730764 0.728012 0.070045
Si Si6 0.125725 0.071284 0.882777
Si Si7 0.344988 0.616470 0.692460
O O1 0.360059 0.295890 0.620626
O O2 0.599661 0.946369 0.790738
O O3 0.570502 0.205621 0.191614
O O4 0.781841 0.926481 0.012697
O O5 0.274879 0.331119 0.193641
O O6 0.000000 0.500000 0.000000
O O7 0.500000 0.500000 0.500000
O O8 0.532526 0.564758 0.440012
O O9 0.820454 0.372377 0.985084
O O10 0.190446 0.433804 0.887534
O O11 0.908545 0.677337 0.413935
O O12 0.859622 0.876689 0.842854
O O13 0.500000 0.000000 0.000000
O O14 0.871658 0.261740 0.579899
O O15 0.261448 0.823641 0.784729
O O16 0.500000 0.500000 0.000000
#
# Coordination Sequence:
#
# PCOD9010346 Si02
#       7
#     2   2   2   2   2   2   2
#     4  11  23  41  65  94 132 170 209 270 323 385
#     4  11  24  40  64  98 129 165 216 266 330 380
#     4  11  22  43  65  92 135 173 208 265 325 379
#     4  10  23  40  66  94 131 170 215 267 328 384
#     4  11  22  41  66  97 126 167 220 272 321 387
#     4  10  21  40  63  86 128 166 211 262 314 374
#     4  10  23  42  64  90 121 170 223 256 308 382
#
# _framework density 22.085096
#
# number of rings (size 3 to 8) (size 9 to 14) (size 15 to 20)
#    0.000    1.429    1.429    3.429    0.000   11.429 
#    2.571    2.143    0.000    0.000    0.000    0.000 
#    0.000    0.000    0.000    0.000    0.000    0.000 
#
# Total GULP energy -78300.242568 kJ/mol
# GULP energy per Si atom -5592.874469 kJ/mol
# Density = 2.203483 g / cm^3
# Si number density = 22.085096 Si / 1000 Ang^3
#
#
#
# Elastic Constant Matrix: (Units=GPa)
#
#
# Indices 1 2 3 4 5 6 
#
# 1 87.3731 19.0533 37.5773 -5.2076 4.6034 -12.6407
# 2 19.0533 58.5968 20.7887 13.4586 -11.6898 -10.7753
# 3 37.5773 20.7887 106.5322 4.0411 -13.2419 8.8744
# 4 -5.2076 13.4586 4.0411 38.6043 1.1455 -3.9540
# 5 4.6034 -11.6898 -13.2419 1.1455 38.6788 7.1807
# 6 -12.6407 -10.7753 8.8744 -3.9540 7.1807 29.2161
#
#
#
# Elastic Compliance Matrix: (Units=1/GPa)
#
#
# Indices 1 2 3 4 5 6 
#
# 1 0.018235 -0.004079 -0.007896 0.006158 -0.008460 0.011696
# 2 -0.004079 0.023225 -0.002461 -0.008056 0.005975 0.004989
# 3 -0.007896 -0.002461 0.014592 -0.003076 0.007320 -0.010971
# 4 0.006158 -0.008056 -0.003076 0.030701 -0.006305 0.006332
# 5 -0.008460 0.005975 0.007320 -0.006305 0.033740 -0.012826
# 6 0.011696 0.004989 -0.010971 0.006332 -0.012826 0.048470
#
#
# Mechanical properties :
#
#
# Convention : Reuss Voigt Hill
#
# Bulk Modulus (GPa) = 36.78970 45.26007 41.02488
# Shear Modulus (GPa) = 24.16676 32.97202 28.56939
#
# Velocity S-wave (km/s) = 3.31154 3.86807 3.60057
# Velocity P-wave (km/s) = 5.59608 6.36296 5.99180
#
# Compressibility (1/GPa) = 0.02718152
#
# Stress axis : x y z
#
# Youngs Moduli (GPa) = 54.83842 43.05719 68.52845
#
# Poissons Ratio (x) = 0.17565 0.54107
# Poissons Ratio (y) = 0.22371 0.16862
# Poissons Ratio (z) = 0.43298 0.10594
#
# Static dielectric constant tensor:
#      x y z
#    x 1.820230 -0.001350 0.005630 
#    y -0.001350 1.813940 0.006840 
#    z 0.005630 0.006840 1.806690 
# 
# From -- ./inp_files/27471.got.cif
#   From: 2010.05.17/outbox.cif.g08.bks.cpg/sg2_14_cif.got.tgz:27471.got - 2010.06.03 11:33:40.
