data_PCOD9010532
_publ_section_title
;
Structure prediction by ZEFSAII (Michael W. Deem and Ramdas Pophale) SiO2 
 PCOD9010532
Probable space group: P -1
;
_chemical_formula_sum "Si O2"
_cell_formula_units_Z 16
_cell_length_a 16.186983
_cell_length_b 9.210289
_cell_length_c 8.178955
_cell_angle_alpha 52.997936
_cell_angle_beta 67.699819
_cell_angle_gamma 105.365954
_cell_volume 670.708596
_symmetry_space_group_name_H-M "P -1"
_symmetry_group_IT_number 2
_symmetry_cell_setting 'triclinic'
loop_
_space_group_symop_operation_xyz
x,y,z
-x,-y,-z
loop_
_atom_site_type_symbol
_atom_site_label
_atom_site_fract_x
_atom_site_fract_y
_atom_site_fract_z
Si Si1 0.878493 0.448449 0.668670
Si Si2 0.709030 0.493088 0.761699
Si Si3 0.178019 0.971404 0.646267
Si Si4 0.201818 0.039274 0.945269
Si Si5 0.458680 0.578328 0.302960
Si Si6 0.661042 0.156192 0.321705
Si Si7 0.465602 0.702791 0.557484
Si Si8 0.958594 0.139175 0.494701
O O1 0.822584 0.547966 0.549155
O O2 0.000000 0.500000 0.500000
O O3 0.928005 0.597709 0.700139
O O4 0.782610 0.156447 0.918090
O O5 0.585267 0.349264 0.854975
O O6 0.744028 0.739064 0.634645
O O7 0.694967 0.331786 0.026028
O O8 0.252207 0.886384 0.659276
O O9 0.094265 0.841321 0.640691
O O10 0.131831 0.949780 0.882064
O O11 0.132483 0.005088 0.183959
O O12 0.327686 0.312575 0.634107
O O13 0.510153 0.746870 0.308065
O O14 0.545079 0.526198 0.231972
O O15 0.635048 0.277878 0.390742
O O16 0.549550 0.892892 0.508439
O O17 0.000000 0.000000 0.500000
#
# Coordination Sequence:
#
# PCOD9010532 Si02
#       8
#     2   2   2   2   2   2   2   2
#     4  10  21  40  63  93 132 170 218 276 318 394
#     4  11  21  41  67  89 135 174 211 271 343 375
#     4  11  23  44  67  98 134 178 221 267 343 389
#     4  10  22  44  64  91 139 173 207 285 325 384
#     4  10  22  42  65  96 125 179 218 266 339 400
#     4  11  23  43  64  96 136 169 212 287 325 388
#     4  10  22  41  64  96 133 162 230 269 321 411
#     4  11  24  40  67 102 128 173 234 266 322 409
#
# _framework density 23.855367000000001
#
# number of rings (size 3 to 8) (size 9 to 14) (size 15 to 20)
#    0.000    1.500    5.000    0.000    1.750    4.000 
#    2.250    0.000    0.000    0.000    0.000    0.000 
#    0.000    0.000    0.000    0.000    0.000    0.000 
#
# Total GULP energy -89067.791233 kJ/mol
# GULP energy per Si atom -5566.736952 kJ/mol
# Density = 2.380107 g / cm^3
# Si number density = 23.855367 Si / 1000 Ang^3
#
#
#
# Elastic Constant Matrix: (Units=GPa)
#
#
# Indices 1 2 3 4 5 6 
#
# 1 158.1625 65.7903 23.3146 10.1366 41.8871 -18.5906
# 2 65.7903 144.6186 24.1260 21.2458 13.6166 -30.7674
# 3 23.3146 24.1260 54.1674 10.6931 5.5744 -19.0640
# 4 10.1366 21.2458 10.6931 18.1847 -0.9443 12.8908
# 5 41.8871 13.6166 5.5744 -0.9443 35.3076 -8.8127
# 6 -18.5906 -30.7674 -19.0640 12.8908 -8.8127 57.6900
#
#
#
# Elastic Compliance Matrix: (Units=1/GPa)
#
#
# Indices 1 2 3 4 5 6 
#
# 1 0.011261 -0.003620 -0.001968 -0.001150 -0.011808 -0.000499
# 2 -0.003620 0.015596 0.006663 -0.031820 0.000505 0.016540
# 3 -0.001968 0.006663 0.033005 -0.042599 -0.000788 0.023224
# 4 -0.001150 -0.031820 -0.042599 0.165969 0.008007 -0.067281
# 5 -0.011808 0.000505 -0.000788 0.008007 0.042708 0.000939
# 6 -0.000499 0.016540 0.023224 -0.067281 0.000939 0.048847
#
#
# Mechanical properties :
#
#
# Convention : Reuss Voigt Hill
#
# Bulk Modulus (GPa) = 16.12604 64.82334 40.47469
# Shear Modulus (GPa) = 14.88510 38.48431 26.68471
#
# Velocity S-wave (km/s) = 2.50065 4.02087 3.34818
# Velocity P-wave (km/s) = 3.88745 6.98491 5.65249
#
# Compressibility (1/GPa) = 0.06201150
#
# Stress axis : x y z
#
# Youngs Moduli (GPa) = 88.80557 64.11861 30.29828
#
# Poissons Ratio (x) = 0.23210 0.05962
# Poissons Ratio (y) = 0.32146 -0.20186
# Poissons Ratio (z) = 0.17476 -0.42719
#
# Static dielectric constant tensor:
#      x y z
#    x 2.133550 -0.091470 -0.197450 
#    y -0.091470 1.946120 0.104880 
#    z -0.197450 0.104880 2.190870 
# 
# From -- ./inp_files/297418.got.cif
#   From: 2010.05.17/outbox.cif.g08.bks.cpg/sg2_149_cif.got.tgz:297418.got - 2010.06.03 11:33:40.
