data_PCOD9010403
_publ_section_title
;
Structure prediction by ZEFSAII (Michael W. Deem and Ramdas Pophale) SiO2 
 PCOD9010403
Probable space group: P -1
;
_chemical_formula_sum "Si O2"
_cell_formula_units_Z 14
_cell_length_a 7.462467
_cell_length_b 15.346976
_cell_length_c 8.471583
_cell_angle_alpha 137.471994
_cell_angle_beta 115.398159
_cell_angle_gamma 72.853334
_cell_volume 592.075183
_symmetry_space_group_name_H-M "P -1"
_symmetry_group_IT_number 2
_symmetry_cell_setting 'triclinic'
loop_
_space_group_symop_operation_xyz
x,y,z
-x,-y,-z
loop_
_atom_site_type_symbol
_atom_site_label
_atom_site_fract_x
_atom_site_fract_y
_atom_site_fract_z
Si Si1 0.883920 0.209428 0.413058
Si Si2 0.644024 0.617001 0.764200
Si Si3 0.427366 0.805554 0.160694
Si Si4 0.255755 0.645791 0.159664
Si Si5 0.446613 0.223875 0.342805
Si Si6 0.253526 0.052021 0.306487
Si Si7 0.008651 0.462854 0.639234
O O1 0.898628 0.294334 0.694212
O O2 0.650749 0.171064 0.277585
O O3 0.950179 0.313687 0.444681
O O4 0.028778 0.091605 0.303369
O O5 0.500000 0.500000 0.500000
O O6 0.675879 0.715580 0.762359
O O7 0.845426 0.547319 0.779084
O O8 0.529406 0.692736 0.954346
O O9 0.285299 0.746346 0.162392
O O10 0.609594 0.882405 0.417195
O O11 0.302314 0.902924 0.139106
O O12 0.460573 0.660492 0.356479
O O13 0.201483 0.511226 0.875304
O O14 0.331724 0.120657 0.268415
O O15 0.000000 0.500000 0.500000
#
# Coordination Sequence:
#
# PCOD9010403 Si02
#       7
#     2   2   2   2   2   2   2
#     4  10  21  40  63  89 127 164 205 258 310 375
#     4  12  22  41  64  90 132 161 205 270 310 369
#     4  10  23  40  65  94 127 164 216 256 315 371
#     4   9  21  39  60  93 124 163 212 253 314 378
#     4   9  22  40  62  92 126 165 209 251 317 376
#     4  10  21  44  64  93 127 169 211 260 306 379
#     4  12  23  38  64  94 125 164 214 260 318 373
#
# _framework density 23.645643
#
# number of rings (size 3 to 8) (size 9 to 14) (size 15 to 20)
#    0.857    0.857    1.429    3.000    0.000    2.286 
#    2.571    6.429    0.000    0.000    0.000    0.000 
#    0.000    0.000    0.000    0.000    0.000    0.000 
#
# Total GULP energy -78245.384657 kJ/mol
# GULP energy per Si atom -5588.956047 kJ/mol
# Density = 2.359182 g / cm^3
# Si number density = 23.645643 Si / 1000 Ang^3
#
#
#
# Elastic Constant Matrix: (Units=GPa)
#
#
# Indices 1 2 3 4 5 6 
#
# 1 84.9843 32.2360 22.5469 18.1600 -21.9819 -6.9614
# 2 32.2360 77.3639 4.9451 6.1587 -25.1176 -3.6026
# 3 22.5469 4.9451 99.6004 -0.0576 -21.0377 2.7709
# 4 18.1600 6.1587 -0.0576 23.6066 -4.6159 -16.9389
# 5 -21.9819 -25.1176 -21.0377 -4.6159 27.6317 -1.9709
# 6 -6.9614 -3.6026 2.7709 -16.9389 -1.9709 34.4537
#
#
#
# Elastic Compliance Matrix: (Units=1/GPa)
#
#
# Indices 1 2 3 4 5 6 
#
# 1 0.018525 -0.004650 -0.002633 -0.014145 0.005918 -0.003147
# 2 -0.004650 0.020685 0.003988 0.005278 0.019350 0.004604
# 3 -0.002633 0.003988 0.013000 0.004805 0.012367 0.001909
# 4 -0.014145 0.005278 0.004805 0.082168 0.013674 0.038487
# 5 0.005918 0.019350 0.012367 0.013674 0.071116 0.013016
# 6 -0.003147 0.004604 0.001909 0.038487 0.013016 0.048383
#
#
# Mechanical properties :
#
#
# Convention : Reuss Voigt Hill
#
# Bulk Modulus (GPa) = 21.92046 42.37830 32.14938
# Shear Modulus (GPa) = 18.13739 30.61977 24.37858
#
# Velocity S-wave (km/s) = 2.77257 3.60244 3.21440
# Velocity P-wave (km/s) = 4.42041 5.93840 5.23472
#
# Compressibility (1/GPa) = 0.04561949
#
# Stress axis : x y z
#
# Youngs Moduli (GPa) = 53.98165 48.34370 76.92303
#
# Poissons Ratio (x) = 0.22479 0.20256
# Poissons Ratio (y) = 0.25100 -0.30675
# Poissons Ratio (z) = 0.14215 -0.19278
#
# Static dielectric constant tensor:
#      x y z
#    x 1.982180 -0.044620 0.045770 
#    y -0.044620 1.892210 -0.046110 
#    z 0.045770 -0.046110 1.946320 
# 
# From -- ./inp_files/204818.got.cif
#   From: 2010.05.17/outbox.cif.g08.bks.cpg/sg2_103_cif.got.tgz:204818.got - 2010.06.03 11:33:40.
