data_PCOD9010493
_publ_section_title
;
Structure prediction by ZEFSAII (Michael W. Deem and Ramdas Pophale) SiO2 
 PCOD9010493
Probable space group: P -1
;
_chemical_formula_sum "Si O2"
_cell_formula_units_Z 16
_cell_length_a 26.554096
_cell_length_b 6.819113
_cell_length_c 12.270121
_cell_angle_alpha 46.456486
_cell_angle_beta 30.169968
_cell_angle_gamma 58.437633
_cell_volume 793.339906
_symmetry_space_group_name_H-M "P -1"
_symmetry_group_IT_number 2
_symmetry_cell_setting 'triclinic'
loop_
_space_group_symop_operation_xyz
x,y,z
-x,-y,-z
loop_
_atom_site_type_symbol
_atom_site_label
_atom_site_fract_x
_atom_site_fract_y
_atom_site_fract_z
Si Si1 0.946873 0.359767 0.311657
Si Si2 0.355365 0.077780 0.233786
Si Si3 0.323469 0.073208 0.552029
Si Si4 0.559116 0.472218 0.689438
Si Si5 0.099629 0.184279 0.932187
Si Si6 0.385633 0.483680 0.675689
Si Si7 0.781480 0.851839 0.730345
Si Si8 0.043683 0.406695 0.565151
O O1 0.961824 0.399260 0.396547
O O2 0.051140 0.329985 0.066709
O O3 0.864232 0.088516 0.540979
O O4 0.905649 0.616977 0.237158
O O5 0.329346 0.103999 0.398643
O O6 0.263071 0.042199 0.336342
O O7 0.401416 0.801946 0.242607
O O8 0.438854 0.352146 0.943054
O O9 0.408629 0.296346 0.368859
O O10 0.346943 0.772786 0.649076
O O11 0.211307 0.126437 0.771559
O O12 0.609820 0.572710 0.440494
O O13 0.023294 0.893600 0.165451
O O14 0.500000 0.500000 0.500000
O O15 0.308214 0.260103 0.974750
O O16 0.841140 0.618835 0.667411
O O17 0.000000 0.500000 0.500000
#
# Coordination Sequence:
#
# PCOD9010493 Si02
#       8
#     2   2   2   2   2   2   2   2
#     4  10  23  42  67  94 125 167 208 262 317 379
#     4  10  21  40  63  92 128 158 213 268 312 365
#     4  11  23  39  65  94 123 171 212 256 319 380
#     4  10  22  41  64  90 125 168 211 263 315 374
#     4  10  22  41  65  96 128 161 214 258 316 374
#     4  11  24  43  60  88 131 169 210 265 312 370
#     4  11  23  41  65  91 126 168 211 258 319 374
#     4  11  24  41  63  95 131 164 206 261 313 381
#
# _framework density 20.167899999999999
#
# number of rings (size 3 to 8) (size 9 to 14) (size 15 to 20)
#    0.000    1.500    1.250    3.000    0.000    9.500 
#    4.500    0.000    0.000    0.000    0.000    0.000 
#    0.000    0.000    0.000    0.000    0.000    0.000 
#
# Total GULP energy -89417.630484 kJ/mol
# GULP energy per Si atom -5588.601905 kJ/mol
# Density = 2.012200 g / cm^3
# Si number density = 20.167900 Si / 1000 Ang^3
#
#
#
# Elastic Constant Matrix: (Units=GPa)
#
#
# Indices 1 2 3 4 5 6 
#
# 1 103.1766 41.3099 3.2738 5.5026 13.1688 12.8108
# 2 41.3099 66.0051 10.3128 4.4426 4.2893 7.0544
# 3 3.2738 10.3128 61.8378 0.1564 7.9080 -0.3396
# 4 5.5026 4.4426 0.1564 19.0626 -7.0070 -12.1409
# 5 13.1688 4.2893 7.9080 -7.0070 24.3259 5.8257
# 6 12.8108 7.0544 -0.3396 -12.1409 5.8257 39.1723
#
#
#
# Elastic Compliance Matrix: (Units=1/GPa)
#
#
# Indices 1 2 3 4 5 6 
#
# 1 0.015006 -0.007975 0.001631 -0.008765 -0.008600 -0.004895
# 2 -0.007975 0.021103 -0.003252 -0.003795 0.001176 -0.002572
# 3 0.001631 -0.003252 0.017492 -0.001936 -0.006697 0.000600
# 4 -0.008765 -0.003795 -0.001936 0.080326 0.023199 0.024979
# 5 -0.008600 0.001176 -0.006697 0.023199 0.054009 0.001701
# 6 -0.004895 -0.002572 0.000600 0.024979 0.001701 0.035086
#
#
# Mechanical properties :
#
#
# Convention : Reuss Voigt Hill
#
# Bulk Modulus (GPa) = 29.06192 37.86805 33.46498
# Shear Modulus (GPa) = 19.70950 28.25369 23.98160
#
# Velocity S-wave (km/s) = 3.12952 3.74695 3.45207
# Velocity P-wave (km/s) = 5.24403 6.12672 5.70248
#
# Compressibility (1/GPa) = 0.03440929
#
# Stress axis : x y z
#
# Youngs Moduli (GPa) = 66.63933 47.38593 57.16901
#
# Poissons Ratio (x) = 0.37788 -0.09322
# Poissons Ratio (y) = 0.53142 0.18592
# Poissons Ratio (z) = -0.10866 0.15411
#
# Static dielectric constant tensor:
#      x y z
#    x 1.623110 0.007760 0.009440 
#    y 0.007760 1.693210 0.011710 
#    z 0.009440 0.011710 1.725040 
# 
# From -- ./inp_files/37303.got.cif
#   From: 2010.05.17/outbox.cif.g08.bks.cpg/sg2_19_cif.got.tgz:37303.got - 2010.06.03 11:33:40.
