data_PCOD9010503
_publ_section_title
;
Structure prediction by ZEFSAII (Michael W. Deem and Ramdas Pophale) SiO2 
 PCOD9010503
Probable space group: P -1
;
_chemical_formula_sum "Si O2"
_cell_formula_units_Z 16
_cell_length_a 10.984594
_cell_length_b 9.811519
_cell_length_c 9.599276
_cell_angle_alpha 43.608416
_cell_angle_beta 105.005702
_cell_angle_gamma 97.337680
_cell_volume 686.457067
_symmetry_space_group_name_H-M "P -1"
_symmetry_group_IT_number 2
_symmetry_cell_setting 'triclinic'
loop_
_space_group_symop_operation_xyz
x,y,z
-x,-y,-z
loop_
_atom_site_type_symbol
_atom_site_label
_atom_site_fract_x
_atom_site_fract_y
_atom_site_fract_z
Si Si1 0.994905 0.208690 0.506422
Si Si2 0.442928 0.288547 0.152406
Si Si3 0.333686 0.118450 0.965068
Si Si4 0.962541 0.781754 0.180084
Si Si5 0.164207 0.838828 0.763358
Si Si6 0.629701 0.921964 0.476936
Si Si7 0.491300 0.736116 0.331609
Si Si8 0.919373 0.463686 0.863601
O O1 0.974907 0.279497 0.606093
O O2 0.102029 0.326278 0.374567
O O3 0.875610 0.235453 0.346639
O O4 0.043471 0.976331 0.686574
O O5 0.334322 0.229445 0.273168
O O6 0.557909 0.130967 0.350728
O O7 0.500000 0.500000 0.000000
O O8 0.395654 0.218646 0.041648
O O9 0.187704 0.195780 0.857716
O O10 0.410272 0.188255 0.805307
O O11 0.361313 0.878253 0.163107
O O12 0.004567 0.655297 0.150257
O O13 0.000000 0.000000 0.000000
O O14 0.270283 0.984790 0.662530
O O15 0.188887 0.662663 0.012307
O O16 0.539769 0.798829 0.448771
O O17 0.500000 0.500000 0.500000
O O18 0.000000 0.500000 0.000000
#
# Coordination Sequence:
#
# PCOD9010503 Si02
#       8
#     2   2   2   2   2   2   2   2
#     4  10  22  40  62  92 130 177 224 268 326 401
#     4  10  22  40  62  92 123 162 217 273 335 400
#     4  10  24  42  67  95 136 172 216 281 334 401
#     4  12  24  43  65  97 143 181 227 275 333 406
#     4  10  21  40  63  92 131 171 219 286 334 390
#     4  10  22  38  62  93 123 160 218 272 339 398
#     4  10  21  45  68  97 129 168 225 278 348 402
#     4  10  23  43  64  92 133 178 231 276 331 403
#
# _framework density 23.308084000000001
#
# number of rings (size 3 to 8) (size 9 to 14) (size 15 to 20)
#    0.000    1.750    1.250    1.875    1.750    3.000 
#    6.750    0.000    0.000    0.000    0.000    0.000 
#    0.000    0.000    0.000    0.000    0.000    0.000 
#
# Total GULP energy -89254.468318 kJ/mol
# GULP energy per Si atom -5578.404270 kJ/mol
# Density = 2.325503 g / cm^3
# Si number density = 23.308084 Si / 1000 Ang^3
#
#
#
# Elastic Constant Matrix: (Units=GPa)
#
#
# Indices 1 2 3 4 5 6 
#
# 1 39.1550 14.0884 12.6220 -1.3853 -8.0356 3.3111
# 2 14.0884 150.3286 62.8666 7.0502 -6.8713 2.2367
# 3 12.6220 62.8666 126.6997 -5.7842 -31.6272 3.2234
# 4 -1.3853 7.0502 -5.7842 58.4973 -1.2638 -11.1003
# 5 -8.0356 -6.8713 -31.6272 -1.2638 27.7836 -2.9615
# 6 3.3111 2.2367 3.2234 -11.1003 -2.9615 23.5069
#
#
#
# Elastic Compliance Matrix: (Units=1/GPa)
#
#
# Indices 1 2 3 4 5 6 
#
# 1 0.028117 -0.002473 0.000476 0.000712 0.007832 -0.002468
# 2 -0.002473 0.009113 -0.005604 -0.002081 -0.005082 -0.001373
# 3 0.000476 -0.005604 0.014635 0.002809 0.015728 0.001767
# 4 0.000712 -0.002081 0.002809 0.019556 0.004796 0.009552
# 5 0.007832 -0.005082 0.015728 0.004796 0.055818 0.006521
# 6 -0.002468 -0.001373 0.001767 0.009552 0.006521 0.048109
#
#
# Mechanical properties :
#
#
# Convention : Reuss Voigt Hill
#
# Bulk Modulus (GPa) = 27.27476 55.03747 41.15612
# Shear Modulus (GPa) = 24.65838 37.06466 30.86152
#
# Velocity S-wave (km/s) = 3.25612 3.99207 3.64272
# Velocity P-wave (km/s) = 5.08563 6.70172 5.94881
#
# Compressibility (1/GPa) = 0.03666393
#
# Stress axis : x y z
#
# Youngs Moduli (GPa) = 35.56571 109.73051 68.32835
#
# Poissons Ratio (x) = 0.27136 -0.03255
# Poissons Ratio (y) = 0.08795 0.38292
# Poissons Ratio (z) = -0.01694 0.61494
#
# Static dielectric constant tensor:
#      x y z
#    x 2.001080 -0.057730 -0.025140 
#    y -0.057730 1.922630 -0.012690 
#    z -0.025140 -0.012690 1.918830 
# 
# From -- ./inp_files/242157.got.cif
#   From: 2010.05.17/outbox.cif.g08.bks.cpg/sg2_122_cif.got.tgz:242157.got - 2010.06.03 11:33:40.
