data_PCOD9010853
_publ_section_title
;
Structure prediction by ZEFSAII (Michael W. Deem and Ramdas Pophale) SiO2 
 PCOD9010853
Probable space group: P -1
;
_chemical_formula_sum "Si O2"
_cell_formula_units_Z 16
_cell_length_a 7.885306
_cell_length_b 8.030009
_cell_length_c 15.235810
_cell_angle_alpha 60.026164
_cell_angle_beta 90.332086
_cell_angle_gamma 122.422941
_cell_volume 658.552471
_symmetry_space_group_name_H-M "P -1"
_symmetry_group_IT_number 2
_symmetry_cell_setting 'triclinic'
loop_
_space_group_symop_operation_xyz
x,y,z
-x,-y,-z
loop_
_atom_site_type_symbol
_atom_site_label
_atom_site_fract_x
_atom_site_fract_y
_atom_site_fract_z
Si Si1 0.900243 0.711604 0.412131
Si Si2 0.446181 0.879557 0.671368
Si Si3 0.489487 0.202974 0.983769
Si Si4 0.051499 0.350191 0.096970
Si Si5 0.847651 0.999411 0.832956
Si Si6 0.179795 0.762486 0.543484
Si Si7 0.707899 0.642057 0.183840
Si Si8 0.357787 0.151155 0.700631
O O1 0.973708 0.715983 0.509693
O O2 0.824496 0.461062 0.432077
O O3 0.089337 0.919531 0.290359
O O4 0.723112 0.753939 0.396821
O O5 0.232659 0.795313 0.637496
O O6 0.403021 0.635401 0.769184
O O7 0.520047 0.107276 0.674218
O O8 0.626310 0.990664 0.567922
O O9 0.727898 0.450252 0.905684
O O10 0.326641 0.224195 0.925387
O O11 0.389561 0.116869 0.103808
O O12 0.500000 0.000000 0.000000
O O13 0.116097 0.198000 0.090491
O O14 0.836812 0.131669 0.201780
O O15 0.000000 0.500000 0.000000
O O16 0.044095 0.234324 0.824902
O O17 0.611479 0.688100 0.257447
#
# Coordination Sequence:
#
# PCOD9010853 Si02
#       8
#     2   2   2   2   2   2   2   2
#     4   9  20  42  63  89 133 159 212 269 316 374
#     4  11  23  39  69  92 124 168 214 258 330 374
#     4  12  25  38  65  97 128 172 215 255 321 389
#     4  10  23  41  62  92 128 164 217 260 313 388
#     4  10  22  42  63  90 132 169 203 264 325 368
#     4  10  21  40  64  94 122 168 212 264 321 382
#     4  10  23  44  61  96 136 163 212 270 309 385
#     4  10  23  42  62  90 130 169 205 266 324 369
#
# _framework density 24.295711000000001
#
# number of rings (size 3 to 8) (size 9 to 14) (size 15 to 20)
#    0.000    2.000    2.500    2.250    7.000    3.000 
#    0.000    1.250    0.000    0.000    0.000    0.000 
#    0.000    0.000    0.000    0.000    0.000    0.000 
#
# Total GULP energy -89274.169691 kJ/mol
# GULP energy per Si atom -5579.635606 kJ/mol
# Density = 2.424041 g / cm^3
# Si number density = 24.295711 Si / 1000 Ang^3
#
#
#
# Elastic Constant Matrix: (Units=GPa)
#
#
# Indices 1 2 3 4 5 6 
#
# 1 42.3367 17.5380 35.7949 2.2723 15.9867 -17.7712
# 2 17.5380 66.2445 17.6530 -1.4695 13.0745 -10.8981
# 3 35.7949 17.6530 77.0162 -9.0943 28.9890 -16.7844
# 4 2.2723 -1.4695 -9.0943 36.0104 -5.0086 5.9226
# 5 15.9867 13.0745 28.9890 -5.0086 34.1414 2.4531
# 6 -17.7712 -10.8981 -16.7844 5.9226 2.4531 37.5427
#
#
#
# Elastic Compliance Matrix: (Units=1/GPa)
#
#
# Indices 1 2 3 4 5 6 
#
# 1 0.052254 -0.004245 -0.015864 -0.012380 -0.012567 0.019185
# 2 -0.004245 0.017796 0.001006 -0.000252 -0.006009 0.004039
# 3 -0.015864 0.001006 0.028188 0.004919 -0.016579 0.005692
# 4 -0.012380 -0.000252 0.004919 0.032303 0.007124 -0.009296
# 5 -0.012567 -0.006009 -0.016579 0.007124 0.054017 -0.019758
# 6 0.019185 0.004039 0.005692 -0.009296 -0.019758 0.042192
#
#
# Mechanical properties :
#
#
# Convention : Reuss Voigt Hill
#
# Bulk Modulus (GPa) = 16.65748 36.39657 26.52702
# Shear Modulus (GPa) = 17.54589 29.17964 23.36277
#
# Velocity S-wave (km/s) = 2.69026 3.46933 3.10433
# Velocity P-wave (km/s) = 4.06460 5.57329 4.87763
#
# Compressibility (1/GPa) = 0.06003310
#
# Stress axis : x y z
#
# Youngs Moduli (GPa) = 19.13730 56.19216 35.47557
#
# Poissons Ratio (x) = 0.23853 0.56277
# Poissons Ratio (y) = 0.08123 -0.03568
# Poissons Ratio (z) = 0.30359 -0.05652
#
# Static dielectric constant tensor:
#      x y z
#    x 2.031860 0.010420 -0.033680 
#    y 0.010420 1.702050 0.293010 
#    z -0.033680 0.293010 1.759610 
# 
# From -- ./inp_files/556879.got.cif
#   From: 2010.05.17/outbox.cif.g08.bks.cpg/sg2_279_cif.got.tgz:556879.got - 2010.06.03 11:33:40.
