data_PCOD9010549
_publ_section_title
;
Structure prediction by ZEFSAII (Michael W. Deem and Ramdas Pophale) SiO2 
 PCOD9010549
Probable space group: P -1
;
_chemical_formula_sum "Si O2"
_cell_formula_units_Z 16
_cell_length_a 11.741517
_cell_length_b 7.793916
_cell_length_c 9.603851
_cell_angle_alpha 119.929586
_cell_angle_beta 89.057371
_cell_angle_gamma 93.866591
_cell_volume 759.780475
_symmetry_space_group_name_H-M "P -1"
_symmetry_group_IT_number 2
_symmetry_cell_setting 'triclinic'
loop_
_space_group_symop_operation_xyz
x,y,z
-x,-y,-z
loop_
_atom_site_type_symbol
_atom_site_label
_atom_site_fract_x
_atom_site_fract_y
_atom_site_fract_z
Si Si1 0.249395 0.801700 0.305060
Si Si2 0.252755 0.807871 0.000368
Si Si3 0.894595 0.280454 0.298473
Si Si4 0.882227 0.951219 0.400017
Si Si5 0.153760 0.446279 0.351451
Si Si6 0.665342 0.777148 0.893817
Si Si7 0.718839 0.651707 0.159573
Si Si8 0.518258 0.413171 0.808960
O O1 0.221382 0.982323 0.475703
O O2 0.178741 0.616756 0.304214
O O3 0.378685 0.732808 0.264259
O O4 0.206272 0.846572 0.170473
O O5 0.162222 0.789746 0.871733
O O6 0.290322 0.585752 0.926916
O O7 0.344691 0.988706 0.032256
O O8 0.890476 0.093430 0.324705
O O9 0.831717 0.449099 0.455143
O O10 0.024172 0.362478 0.310008
O O11 0.837764 0.735423 0.258749
O O12 0.000000 0.000000 0.500000
O O13 0.239586 0.283285 0.242588
O O14 0.559194 0.614877 0.807401
O O15 0.708897 0.731370 0.032526
O O16 0.603427 0.701355 0.263316
O O17 0.500000 0.500000 0.000000
#
# Coordination Sequence:
#
# PCOD9010549 Si02
#       8
#     2   2   2   2   2   2   2   2
#     4  10  22  41  66  99 125 178 212 268 326 387
#     4  12  23  37  65  99 126 168 223 259 326 385
#     4  10  23  38  61  93 124 182 211 269 322 389
#     4  11  26  44  63  94 139 174 215 266 330 383
#     4   9  20  41  59  83 132 171 213 265 324 372
#     4  10  21  40  63  94 129 165 215 270 316 386
#     4  11  23  43  66  97 130 174 213 270 327 383
#     4   9  18  43  68  92 132 169 212 273 327 376
#
# _framework density 21.058713999999998
#
# number of rings (size 3 to 8) (size 9 to 14) (size 15 to 20)
#    0.000    1.750    5.000    0.000    7.000    3.000 
#    0.000    0.000    0.000    7.500    0.000    0.000 
#    0.000    0.000    0.000    0.000    0.000    0.000 
#
# Total GULP energy -89167.253015 kJ/mol
# GULP energy per Si atom -5572.953313 kJ/mol
# Density = 2.101078 g / cm^3
# Si number density = 21.058714 Si / 1000 Ang^3
#
#
#
# Elastic Constant Matrix: (Units=GPa)
#
#
# Indices 1 2 3 4 5 6 
#
# 1 68.0090 25.7189 21.9171 6.8866 -6.4162 28.4365
# 2 25.7189 76.7322 54.2136 3.4701 -5.2570 -3.9796
# 3 21.9171 54.2136 30.2307 -7.5490 6.9299 20.0264
# 4 6.8866 3.4701 -7.5490 33.7112 2.5703 0.8266
# 5 -6.4162 -5.2570 6.9299 2.5703 35.2961 -0.6385
# 6 28.4365 -3.9796 20.0264 0.8266 -0.6385 21.0921
#
#
#
# Elastic Compliance Matrix: (Units=1/GPa)
#
#
# Indices 1 2 3 4 5 6 
#
# 1 0.030845 0.003496 -0.019447 -0.011274 0.010374 -0.021705
# 2 0.003496 -0.001954 0.017320 0.004186 -0.003755 -0.021804
# 3 -0.019447 0.017320 -0.011955 -0.001664 0.002254 0.040971
# 4 -0.011274 0.004186 -0.001664 0.030998 -0.003062 0.016262
# 5 0.010374 -0.003755 0.002254 -0.003062 0.029152 -0.015833
# 6 -0.021705 -0.021804 0.040971 0.016262 -0.015833 0.032543
#
#
# Mechanical properties :
#
#
# Convention : Reuss Voigt Hill
#
# Bulk Modulus (GPa) = 50.82968 42.07455 46.45211
# Shear Modulus (GPa) = 44.07248 22.89471 33.48359
#
# Velocity S-wave (km/s) = 4.57972 3.30082 3.99182
# Velocity P-wave (km/s) = 7.22181 5.87795 6.58426
#
# Compressibility (1/GPa) = 0.01967355
#
# Stress axis : x y z
#
# Youngs Moduli (GPa) = 32.42027 -511.84862 -83.64496
#
# Poissons Ratio (x) = 1.78953 -1.62663
# Poissons Ratio (y) = -0.11335 1.44869
# Poissons Ratio (z) = 0.63047 8.86496
#
# Static dielectric constant tensor:
#      x y z
#    x 1.824370 -0.025680 -0.007120 
#    y -0.025680 1.797970 0.036470 
#    z -0.007120 0.036470 1.791950 
# 
# From -- ./inp_files/241039.got.cif
#   From: 2010.05.17/outbox.cif.g08.bks.cpg/sg2_121_cif.got.tgz:241039.got - 2010.06.03 11:33:40.
