data_PCOD9010230
_publ_section_title
;
Structure prediction by ZEFSAII (Michael W. Deem and Ramdas Pophale) SiO2 
 PCOD9010230
Probable space group: P -1
;
_chemical_formula_sum "Si O2"
_cell_formula_units_Z 16
_cell_length_a 22.564405
_cell_length_b 7.607951
_cell_length_c 14.524742
_cell_angle_alpha 107.099299
_cell_angle_beta 26.422916
_cell_angle_gamma 125.913893
_cell_volume 689.225980
_symmetry_space_group_name_H-M "P -1"
_symmetry_group_IT_number 2
_symmetry_cell_setting 'triclinic'
loop_
_space_group_symop_operation_xyz
x,y,z
-x,-y,-z
loop_
_atom_site_type_symbol
_atom_site_label
_atom_site_fract_x
_atom_site_fract_y
_atom_site_fract_z
Si Si1 0.284609 0.454923 0.887536
Si Si2 0.289098 0.966685 0.954320
Si Si3 0.994571 0.374840 0.193100
Si Si4 0.305452 0.644417 0.449606
Si Si5 0.728749 0.663456 0.719142
Si Si6 0.376616 0.135510 0.654878
Si Si7 0.039832 0.240173 0.928639
Si Si8 0.836251 0.742222 0.785105
O O1 0.364719 0.336065 0.735751
O O2 0.441793 0.727478 0.645627
O O3 0.050244 0.242426 0.146977
O O4 0.281449 0.483827 0.004395
O O5 0.456978 0.096309 0.816455
O O6 0.380705 0.051362 0.736389
O O7 0.101686 0.630432 0.152404
O O8 0.213202 0.093071 0.102263
O O9 0.784837 0.250295 0.435115
O O10 0.095707 0.438275 0.963101
O O11 0.250664 0.457653 0.411200
O O12 0.202045 0.436253 0.650917
O O13 0.759906 0.611953 0.769976
O O14 0.500000 0.500000 0.000000
O O15 0.917194 0.007686 0.508251
O O16 0.169409 0.909264 0.849575
O O17 0.000000 0.000000 0.000000
#
# Coordination Sequence:
#
# PCOD9010230 Si02
#       8
#     2   2   2   2   2   2   2   2
#     4  10  22  40  62  94 132 174 207 270 319 389
#     4  11  23  41  66  95 134 171 213 269 320 390
#     4  12  25  42  62  97 140 176 208 262 335 391
#     4  12  25  43  65  99 132 170 221 269 324 390
#     4  11  22  42  74  98 120 171 224 275 326 377
#     4  10  21  40  62  92 132 172 222 254 321 384
#     4  12  25  40  62  98 135 175 216 263 317 399
#     4  10  22  44  69  97 126 163 224 277 321 381
#
# _framework density 23.214445999999999
#
# number of rings (size 3 to 8) (size 9 to 14) (size 15 to 20)
#    0.000    1.000    5.000    1.875    5.250    1.000 
#    0.000    0.625    0.000    1.500    0.000    0.000 
#    0.000    0.000    0.000    0.000    0.000    0.000 
#
# Total GULP energy -89214.502438 kJ/mol
# GULP energy per Si atom -5575.906402 kJ/mol
# Density = 2.316161 g / cm^3
# Si number density = 23.214446 Si / 1000 Ang^3
#
#
#
# Elastic Constant Matrix: (Units=GPa)
#
#
# Indices 1 2 3 4 5 6 
#
# 1 124.6046 19.8294 34.8563 3.0760 0.1290 26.3909
# 2 19.8294 45.9572 1.6774 6.8957 -2.0044 10.9475
# 3 34.8563 1.6774 93.7231 -1.2929 -20.2371 1.3394
# 4 3.0760 6.8957 -1.2929 24.6002 12.6342 -7.7259
# 5 0.1290 -2.0044 -20.2371 12.6342 36.2971 3.9361
# 6 26.3909 10.9475 1.3394 -7.7259 3.9361 54.4845
#
#
#
# Elastic Compliance Matrix: (Units=1/GPa)
#
#
# Indices 1 2 3 4 5 6 
#
# 1 0.010715 -0.003303 -0.004244 -0.001168 -0.001696 -0.004465
# 2 -0.003303 0.026931 0.002406 -0.013158 0.008105 -0.006322
# 3 -0.004244 0.002406 0.014219 -0.004355 0.009601 -0.000088
# 4 -0.001168 -0.013158 -0.004355 0.062178 -0.026315 0.014035
# 5 -0.001696 0.008105 0.009601 -0.026315 0.043375 -0.007908
# 6 -0.004465 -0.006322 -0.000088 0.014035 -0.007908 0.024350
#
#
# Mechanical properties :
#
#
# Convention : Reuss Voigt Hill
#
# Bulk Modulus (GPa) = 24.04967 41.89013 32.96990
# Shear Modulus (GPa) = 24.28225 36.93781 30.61003
#
# Velocity S-wave (km/s) = 3.23770 3.99326 3.63516
# Velocity P-wave (km/s) = 4.93550 6.27260 5.64379
#
# Compressibility (1/GPa) = 0.04158060
#
# Stress axis : x y z
#
# Youngs Moduli (GPa) = 93.33088 37.13259 70.32598
#
# Poissons Ratio (x) = 0.12266 0.29848
# Poissons Ratio (y) = 0.30830 -0.16917
# Poissons Ratio (z) = 0.39612 -0.08932
#
# Static dielectric constant tensor:
#      x y z
#    x 1.915060 -0.096550 0.001740 
#    y -0.096550 1.959070 -0.017250 
#    z 0.001740 -0.017250 1.923720 
# 
# From -- ./inp_files/540072.got.cif
#   From: 2010.05.17/outbox.cif.g08.bks.cpg/sg2_271_cif.got.tgz:540072.got - 2010.06.03 11:33:40.
