data_PCOD9010594
_publ_section_title
;
Structure prediction by ZEFSAII (Michael W. Deem and Ramdas Pophale) SiO2 
 PCOD9010594
Probable space group: P -1
;
_chemical_formula_sum "Si O2"
_cell_formula_units_Z 16
_cell_length_a 17.954584
_cell_length_b 9.040519
_cell_length_c 5.435655
_cell_angle_alpha 56.795011
_cell_angle_beta 83.405724
_cell_angle_gamma 62.229326
_cell_volume 641.370648
_symmetry_space_group_name_H-M "P -1"
_symmetry_group_IT_number 2
_symmetry_cell_setting 'triclinic'
loop_
_space_group_symop_operation_xyz
x,y,z
-x,-y,-z
loop_
_atom_site_type_symbol
_atom_site_label
_atom_site_fract_x
_atom_site_fract_y
_atom_site_fract_z
Si Si1 0.749571 0.618187 0.913893
Si Si2 0.380492 0.797609 0.841683
Si Si3 0.473030 0.376739 0.434660
Si Si4 0.205736 0.834050 0.793783
Si Si5 0.074551 0.499269 0.243689
Si Si6 0.037799 0.192406 0.370934
Si Si7 0.354266 0.183797 0.734627
Si Si8 0.912194 0.180621 0.753838
O O1 0.843365 0.598991 0.879497
O O2 0.696964 0.722279 0.588700
O O3 0.763279 0.389702 0.119488
O O4 0.702160 0.732717 0.074933
O O5 0.445219 0.771098 0.623081
O O6 0.281980 0.886208 0.725952
O O7 0.388313 0.944281 0.906111
O O8 0.407598 0.567998 0.119733
O O9 0.500000 0.500000 0.500000
O O10 0.425725 0.256458 0.657740
O O11 0.129198 0.996857 0.509161
O O12 0.164313 0.844054 0.072470
O O13 0.051034 0.324717 0.459194
O O14 0.106807 0.601446 0.336417
O O15 0.991123 0.675857 0.982455
O O16 0.952829 0.178355 0.477543
O O17 0.000000 0.000000 0.000000
#
# Coordination Sequence:
#
# PCOD9010594 Si02
#       8
#     2   2   2   2   2   2   2   2
#     4  11  26  46  73 107 150 195 245 305 362 434
#     4  11  25  47  75 109 148 193 244 302 369 439
#     4  11  26  47  78 112 149 193 239 304 367 447
#     4  10  21  45  68 100 140 190 247 301 367 434
#     4  10  22  39  61  97 136 182 242 303 354 432
#     4  10  21  40  63  96 132 185 243 299 366 422
#     4  12  27  50  77 111 151 195 244 300 366 440
#     4   9  20  36  61  89 127 176 227 293 355 419
#
# _framework density 24.946573999999998
#
# number of rings (size 3 to 8) (size 9 to 14) (size 15 to 20)
#    0.000    1.500    1.250    2.250    7.000    5.000 
#   13.500    0.000    0.000    0.000    0.000    0.000 
#    0.000    0.000    0.000    0.000    0.000    0.000 
#
# Total GULP energy -89428.114667 kJ/mol
# GULP energy per Si atom -5589.257167 kJ/mol
# Density = 2.488979 g / cm^3
# Si number density = 24.946574 Si / 1000 Ang^3
#
#
#
# Elastic Constant Matrix: (Units=GPa)
#
#
# Indices 1 2 3 4 5 6 
#
# 1 173.1008 56.3176 30.7431 1.1582 -18.6478 -8.8042
# 2 56.3176 173.2855 38.9707 22.6359 -20.5832 -8.7703
# 3 30.7431 38.9707 61.5537 5.2715 -6.0475 -11.5208
# 4 1.1582 22.6359 5.2715 38.8374 -2.9330 -9.8610
# 5 -18.6478 -20.5832 -6.0475 -2.9330 36.7642 2.8004
# 6 -8.8042 -8.7703 -11.5208 -9.8610 2.8004 39.1902
#
#
#
# Elastic Compliance Matrix: (Units=1/GPa)
#
#
# Indices 1 2 3 4 5 6 
#
# 1 0.006981 -0.001646 -0.002199 0.001413 0.002313 0.000744
# 2 -0.001646 0.007972 -0.003776 -0.004112 0.002750 -0.000927
# 3 -0.002199 -0.003776 0.020575 0.000705 -0.000162 0.004899
# 4 0.001413 -0.004112 0.000705 0.029834 0.000371 0.007085
# 5 0.002313 0.002750 -0.000162 0.000371 0.029989 -0.000962
# 6 0.000744 -0.000927 0.004899 0.007085 -0.000962 0.028768
#
#
# Mechanical properties :
#
#
# Convention : Reuss Voigt Hill
#
# Bulk Modulus (GPa) = 49.29588 73.33365 61.31477
# Shear Modulus (GPa) = 34.21752 41.75226 37.98489
#
# Velocity S-wave (km/s) = 3.70757 4.09549 3.90635
# Velocity P-wave (km/s) = 6.17508 7.19890 6.70655
#
# Compressibility (1/GPa) = 0.02028567
#
# Stress axis : x y z
#
# Youngs Moduli (GPa) = 143.25139 125.43882 48.60173
#
# Poissons Ratio (x) = 0.20653 0.10686
# Poissons Ratio (y) = 0.23586 0.18352
# Poissons Ratio (z) = 0.31497 0.47367
#
# Static dielectric constant tensor:
#      x y z
#    x 1.956020 0.052550 0.037270 
#    y 0.052550 2.105880 -0.001290 
#    z 0.037270 -0.001290 2.191980 
# 
# From -- ./inp_files/106272.got.cif
#   From: 2010.05.17/outbox.cif.g08.bks.cpg/sg2_54_cif.got.tgz:106272.got - 2010.06.03 11:33:40.
