data_PCOD9010214
_publ_section_title
;
Structure prediction by ZEFSAII (Michael W. Deem and Ramdas Pophale) SiO2 
 PCOD9010214
Probable space group: P -1
;
_chemical_formula_sum "Si O2"
_cell_formula_units_Z 16
_cell_length_a 9.243509
_cell_length_b 18.985052
_cell_length_c 11.537051
_cell_angle_alpha 148.227517
_cell_angle_beta 52.695702
_cell_angle_gamma 136.735739
_cell_volume 730.162174
_symmetry_space_group_name_H-M "P -1"
_symmetry_group_IT_number 2
_symmetry_cell_setting 'triclinic'
loop_
_space_group_symop_operation_xyz
x,y,z
-x,-y,-z
loop_
_atom_site_type_symbol
_atom_site_label
_atom_site_fract_x
_atom_site_fract_y
_atom_site_fract_z
Si Si1 0.166187 0.972744 0.449201
Si Si2 0.151967 0.982146 0.990700
Si Si3 0.929277 0.299659 0.505570
Si Si4 0.399505 0.907386 0.040407
Si Si5 0.993049 0.581447 0.733202
Si Si6 0.515948 0.280554 0.760617
Si Si7 0.143312 0.210210 0.473075
Si Si8 0.506625 0.450171 0.771629
O O1 0.313382 0.117996 0.663645
O O2 0.319069 0.971786 0.273848
O O3 0.000000 0.000000 0.500000
O O4 0.019995 0.822269 0.388072
O O5 0.108873 0.809984 0.741971
O O6 0.401253 0.097555 0.009698
O O7 0.115301 0.044117 0.216855
O O8 0.000000 0.000000 0.000000
O O9 0.007023 0.474850 0.677150
O O10 0.077938 0.277033 0.490195
O O11 0.705405 0.249195 0.602724
O O12 0.189928 0.750718 0.888069
O O13 0.500000 0.000000 0.000000
O O14 0.000000 0.500000 0.500000
O O15 0.760044 0.558730 0.808459
O O16 0.458763 0.339154 0.751186
O O17 0.577864 0.429593 0.018007
O O18 0.384006 0.328469 0.559005
#
# Coordination Sequence:
#
# PCOD9010214 Si02
#       8
#     2   2   2   2   2   2   2   2
#     4  12  23  39  68 103 129 179 231 273 345 404
#     4  10  22  45  66  92 137 178 219 284 337 402
#     4  10  23  44  65  98 134 178 223 287 336 408
#     4  12  25  43  70  98 132 176 232 282 333 406
#     4  11  24  42  69  97 132 181 232 271 350 407
#     4  10  21  40  62  91 139 170 223 274 339 395
#     4  11  24  42  70  99 139 176 229 283 345 400
#     4  10  22  42  64  97 137 175 220 286 336 408
#
# _framework density 21.912941
#
# number of rings (size 3 to 8) (size 9 to 14) (size 15 to 20)
#    0.000    1.250    2.500    3.000    5.250    2.000 
#    0.000    6.875    0.000    0.000    0.000    0.000 
#    0.000    0.000    0.000    0.000    0.000    0.000 
#
# Total GULP energy -89248.511925 kJ/mol
# GULP energy per Si atom -5578.031995 kJ/mol
# Density = 2.186307 g / cm^3
# Si number density = 21.912941 Si / 1000 Ang^3
#
#
#
# Elastic Constant Matrix: (Units=GPa)
#
#
# Indices 1 2 3 4 5 6 
#
# 1 90.4951 36.1616 28.0643 4.4629 5.2591 18.1856
# 2 36.1616 112.1268 32.7242 12.9075 5.0051 27.3447
# 3 28.0643 32.7242 108.3486 5.7370 5.3586 16.7110
# 4 4.4629 12.9075 5.7370 42.4268 12.4845 3.7298
# 5 5.2591 5.0051 5.3586 12.4845 32.1631 -4.2333
# 6 18.1856 27.3447 16.7110 3.7298 -4.2333 23.6410
#
#
#
# Elastic Compliance Matrix: (Units=1/GPa)
#
#
# Indices 1 2 3 4 5 6 
#
# 1 0.014152 -0.002097 -0.001699 0.001007 -0.003146 -0.007982
# 2 -0.002097 0.013540 -0.001265 -0.001785 -0.002616 -0.013340
# 3 -0.001699 -0.001265 0.010981 0.000182 -0.002137 -0.005404
# 4 0.001007 -0.001785 0.000182 0.027800 -0.011401 -0.005266
# 5 -0.003146 -0.002616 -0.002137 -0.011401 0.038863 0.015715
# 6 -0.007982 -0.013340 -0.005404 -0.005266 0.015715 0.071335
#
#
# Mechanical properties :
#
#
# Convention : Reuss Voigt Hill
#
# Bulk Modulus (GPa) = 35.02451 56.09673 45.56062
# Shear Modulus (GPa) = 25.46989 33.91420 29.69205
#
# Velocity S-wave (km/s) = 3.41298 3.93832 3.68503
# Velocity P-wave (km/s) = 5.61689 6.80705 6.24041
#
# Compressibility (1/GPa) = 0.02855144
#
# Stress axis : x y z
#
# Youngs Moduli (GPa) = 70.65890 73.85760 91.06668
#
# Poissons Ratio (x) = 0.15490 0.15471
# Poissons Ratio (y) = 0.14819 0.11516
# Poissons Ratio (z) = 0.12004 0.09340
#
# Static dielectric constant tensor:
#      x y z
#    x 1.919620 0.095230 0.013270 
#    y 0.095230 1.948510 -0.005480 
#    z 0.013270 -0.005480 1.889350 
# 
# From -- ./inp_files/405670.got.cif
#   From: 2010.05.17/outbox.cif.g08.bks.cpg/sg2_203_cif.got.tgz:405670.got - 2010.06.03 11:33:40.
