data_PCOD9010420
_publ_section_title
;
Structure prediction by ZEFSAII (Michael W. Deem and Ramdas Pophale) SiO2 
 PCOD9010420
Probable space group: P -1
;
_chemical_formula_sum "Si O2"
_cell_formula_units_Z 12
_cell_length_a 9.227400
_cell_length_b 8.060947
_cell_length_c 10.920448
_cell_angle_alpha 95.944666
_cell_angle_beta 45.998355
_cell_angle_gamma 112.559423
_cell_volume 523.096659
_symmetry_space_group_name_H-M "P -1"
_symmetry_group_IT_number 2
_symmetry_cell_setting 'triclinic'
loop_
_space_group_symop_operation_xyz
x,y,z
-x,-y,-z
loop_
_atom_site_type_symbol
_atom_site_label
_atom_site_fract_x
_atom_site_fract_y
_atom_site_fract_z
Si Si1 0.336201 0.653986 0.709540
Si Si2 0.585953 0.171481 0.553976
Si Si3 0.199276 0.205344 0.423502
Si Si4 0.196742 0.945131 0.919180
Si Si5 0.074775 0.414190 0.334501
Si Si6 0.979193 0.315794 0.789369
O O1 0.422015 0.673623 0.519261
O O2 0.551793 0.754071 0.676274
O O3 0.198349 0.774322 0.826210
O O4 0.157511 0.441128 0.797555
O O5 0.844354 0.233747 0.430095
O O6 0.500000 0.000000 0.500000
O O7 0.430873 0.118297 0.758827
O O8 0.235262 0.335343 0.292879
O O9 0.102599 0.272236 0.601171
O O10 0.000000 0.000000 0.500000
O O11 0.176009 0.872627 0.064439
O O12 0.000000 0.000000 0.000000
O O13 0.000000 0.500000 0.500000
O O14 0.128067 0.556407 0.200918
#
# Coordination Sequence:
#
# PCOD9010420 Si02
#       6
#     2   2   2   2   2   2
#     4  10  21  40  63  90 119 158 204 244 294 365
#     4   9  18  36  61  85 112 152 198 239 285 352
#     4  11  21  38  64  92 119 158 202 247 297 360
#     4  11  22  36  60  94 123 152 200 259 300 340
#     4   9  20  38  59  84 118 156 194 237 293 357
#     4  10  22  40  62  89 121 158 200 250 299 352
#
# _framework density 22.940308999999999
#
# number of rings (size 3 to 8) (size 9 to 14) (size 15 to 20)
#    0.000    2.000    0.000    4.000    0.000    5.333 
#    0.000    8.333    0.000    2.000    0.000    0.000 
#    0.000    0.000    0.000    0.000    0.000    0.000 
#
# Total GULP energy -66829.161685 kJ/mol
# GULP energy per Si atom -5569.096807 kJ/mol
# Density = 2.288810 g / cm^3
# Si number density = 22.940309 Si / 1000 Ang^3
#
#
#
# Elastic Constant Matrix: (Units=GPa)
#
#
# Indices 1 2 3 4 5 6 
#
# 1 138.0233 41.2684 53.5281 -11.6518 5.8993 -19.2063
# 2 41.2684 80.5207 14.6169 2.1755 -3.5241 6.1519
# 3 53.5281 14.6169 100.5326 -25.9671 18.1179 -30.9437
# 4 -11.6518 2.1755 -25.9671 33.6744 -13.9000 10.8079
# 5 5.8993 -3.5241 18.1179 -13.9000 21.0028 -5.8287
# 6 -19.2063 6.1519 -30.9437 10.8079 -5.8287 44.8198
#
#
#
# Elastic Compliance Matrix: (Units=1/GPa)
#
#
# Indices 1 2 3 4 5 6 
#
# 1 0.010685 -0.004832 -0.004362 0.000215 0.000724 0.002273
# 2 -0.004832 0.015898 -0.002304 -0.001312 0.003745 -0.005040
# 3 -0.004362 -0.002304 0.018442 0.006727 -0.008264 0.008483
# 4 0.000215 -0.001312 0.006727 0.045628 0.023264 -0.003061
# 5 0.000724 0.003745 -0.008264 0.023264 0.069889 -0.002431
# 6 0.002273 -0.005040 0.008483 -0.003061 -0.002431 0.030256
#
#
# Mechanical properties :
#
#
# Convention : Reuss Voigt Hill
#
# Bulk Modulus (GPa) = 45.39292 59.76705 52.57999
# Shear Modulus (GPa) = 22.61028 33.87694 28.24361
#
# Velocity S-wave (km/s) = 3.14285 3.84701 3.51262
# Velocity P-wave (km/s) = 5.74460 6.77071 6.27865
#
# Compressibility (1/GPa) = 0.02202987
#
# Stress axis : x y z
#
# Youngs Moduli (GPa) = 93.58786 62.89918 54.22285
#
# Poissons Ratio (x) = 0.30395 0.23652
# Poissons Ratio (y) = 0.45224 0.12492
# Poissons Ratio (z) = 0.40823 0.14491
#
# Static dielectric constant tensor:
#      x y z
#    x 1.923580 -0.066020 0.033090 
#    y -0.066020 1.979840 -0.104830 
#    z 0.033090 -0.104830 1.947350 
# 
# From -- ./inp_files/145977.got.cif
#   From: 2010.05.17/outbox.cif.g08.bks.cpg/sg2_73_cif.got.tgz:145977.got - 2010.06.03 11:33:40.
