data_PCOD9010297
_publ_section_title
;
Structure prediction by ZEFSAII (Michael W. Deem and Ramdas Pophale) SiO2 
 PCOD9010297
Probable space group: P -1
;
_chemical_formula_sum "Si O2"
_cell_formula_units_Z 16
_cell_length_a 15.632762
_cell_length_b 11.240717
_cell_length_c 4.811535
_cell_angle_alpha 124.809612
_cell_angle_beta 80.555457
_cell_angle_gamma 122.986597
_cell_volume 568.929539
_symmetry_space_group_name_H-M "P -1"
_symmetry_group_IT_number 2
_symmetry_cell_setting 'triclinic'
loop_
_space_group_symop_operation_xyz
x,y,z
-x,-y,-z
loop_
_atom_site_type_symbol
_atom_site_label
_atom_site_fract_x
_atom_site_fract_y
_atom_site_fract_z
Si Si1 0.564551 0.246193 0.467668
Si Si2 0.616820 0.471876 0.262350
Si Si3 0.288118 0.147817 0.089643
Si Si4 0.663312 0.002417 0.640327
Si Si5 0.225196 0.709748 0.467053
Si Si6 0.888187 0.969153 0.580827
Si Si7 0.042461 0.694738 0.351436
Si Si8 0.164433 0.374826 0.780993
O O1 0.544131 0.305006 0.266381
O O2 0.458556 0.074158 0.396757
O O3 0.663369 0.231267 0.380518
O O4 0.590279 0.404053 0.872439
O O5 0.633913 0.652406 0.587327
O O6 0.732700 0.517336 0.311485
O O7 0.306685 0.025064 0.109442
O O8 0.166794 0.072443 0.137790
O O9 0.315051 0.117850 0.729560
O O10 0.733731 0.192160 0.723706
O O11 0.125019 0.723043 0.582371
O O12 0.168981 0.504336 0.176906
O O13 0.822090 0.765915 0.253078
O O14 0.897793 0.135937 0.661054
O O15 0.000000 0.000000 0.500000
O O16 0.936618 0.689317 0.441888
O O17 0.000000 0.500000 0.000000
#
# Coordination Sequence:
#
# PCOD9010297 Si02
#       8
#     2   2   2   2   2   2   2   2
#     4  11  24  42  66  95 130 187 225 280 333 394
#     4  10  22  43  67  96 138 171 230 276 338 402
#     4  11  24  42  68 101 136 177 220 285 335 396
#     4  12  25  41  66  97 138 175 231 278 336 394
#     4  10  21  40  62  96 135 178 224 278 330 403
#     4   9  17  37  68  99 134 175 220 271 332 402
#     4   9  16  34  67  97 136 170 221 270 339 397
#     4   8  18  35  67  96 132 176 222 275 336 399
#
# _framework density 28.122990999999999
#
# number of rings (size 3 to 8) (size 9 to 14) (size 15 to 20)
#    0.000    2.000    1.250    1.875    0.000    5.000 
#    0.000    5.625   13.750    0.000    0.000    0.000 
#    0.000    0.000    0.000    0.000    0.000    0.000 
#
# Total GULP energy -89301.742423 kJ/mol
# GULP energy per Si atom -5581.358901 kJ/mol
# Density = 2.805898 g / cm^3
# Si number density = 28.122991 Si / 1000 Ang^3
#
#
#
# Elastic Constant Matrix: (Units=GPa)
#
#
# Indices 1 2 3 4 5 6 
#
# 1 169.9372 21.2563 15.7723 -5.5495 -8.9650 8.8742
# 2 21.2563 112.8214 11.2700 20.1028 -9.9888 -11.3116
# 3 15.7723 11.2700 89.3905 26.7074 -11.7633 -11.7413
# 4 -5.5495 20.1028 26.7074 42.6365 -2.5792 -13.0400
# 5 -8.9650 -9.9888 -11.7633 -2.5792 36.5502 18.4551
# 6 8.8742 -11.3116 -11.7413 -13.0400 18.4551 44.7791
#
#
#
# Elastic Compliance Matrix: (Units=1/GPa)
#
#
# Indices 1 2 3 4 5 6 
#
# 1 0.006506 -0.001470 -0.001586 0.001940 0.002000 -0.002336
# 2 -0.001470 0.010233 0.000888 -0.005214 0.001958 0.000784
# 3 -0.001586 0.000888 0.014747 -0.009630 0.003930 -0.000019
# 4 0.001940 -0.005214 -0.009630 0.034339 -0.005733 0.008136
# 5 0.002000 0.001958 0.003930 -0.005733 0.037276 -0.015904
# 6 -0.002336 0.000784 -0.000019 0.008136 -0.015904 0.031912
#
#
# Mechanical properties :
#
#
# Convention : Reuss Voigt Hill
#
# Bulk Modulus (GPa) = 36.83370 52.08293 44.45832
# Shear Modulus (GPa) = 33.69302 46.38319 40.03811
#
# Velocity S-wave (km/s) = 3.46506 4.06556 3.77726
# Velocity P-wave (km/s) = 5.39765 6.37168 5.90478
#
# Compressibility (1/GPa) = 0.02714905
#
# Stress axis : x y z
#
# Youngs Moduli (GPa) = 153.69292 97.72421 67.81193
#
# Poissons Ratio (x) = 0.14368 0.10754
# Poissons Ratio (y) = 0.22597 -0.06020
# Poissons Ratio (z) = 0.24374 -0.08675
#
# Static dielectric constant tensor:
#      x y z
#    x 2.211250 0.017800 -0.000870 
#    y 0.017800 2.262620 0.058950 
#    z -0.000870 0.058950 2.301340 
# 
# From -- ./inp_files/109920.got.cif
#   From: 2010.05.17/outbox.cif.g08.bks.cpg/sg2_55_cif.got.tgz:109920.got - 2010.06.03 11:33:40.
