data_PCOD9010808
_publ_section_title
;
Structure prediction by ZEFSAII (Michael W. Deem and Ramdas Pophale) SiO2 
 PCOD9010808
Probable space group: P -1
;
_chemical_formula_sum "Si O2"
_cell_formula_units_Z 16
_cell_length_a 17.667623
_cell_length_b 5.319779
_cell_length_c 8.304384
_cell_angle_alpha 113.106223
_cell_angle_beta 96.846819
_cell_angle_gamma 82.844761
_cell_volume 710.188397
_symmetry_space_group_name_H-M "P -1"
_symmetry_group_IT_number 2
_symmetry_cell_setting 'triclinic'
loop_
_space_group_symop_operation_xyz
x,y,z
-x,-y,-z
loop_
_atom_site_type_symbol
_atom_site_label
_atom_site_fract_x
_atom_site_fract_y
_atom_site_fract_z
Si Si1 0.019047 0.686386 0.874398
Si Si2 0.325355 0.303154 0.967234
Si Si3 0.206502 0.079421 0.355344
Si Si4 0.356089 0.935007 0.203123
Si Si5 0.870816 0.458508 0.742687
Si Si6 0.162411 0.283821 0.757567
Si Si7 0.055769 0.842419 0.601092
Si Si8 0.484857 0.183959 0.882062
O O1 0.106505 0.555966 0.850066
O O2 0.004061 0.709781 0.683210
O O3 0.951511 0.495743 0.861238
O O4 0.000000 0.000000 0.000000
O O5 0.337236 0.621569 0.085831
O O6 0.337085 0.121939 0.086771
O O7 0.242242 0.283008 0.867007
O O8 0.393926 0.192134 0.834800
O O9 0.298286 0.047541 0.355645
O O10 0.174468 0.780936 0.255557
O O11 0.175709 0.255366 0.236442
O O12 0.179366 0.207674 0.554201
O O13 0.447786 0.925892 0.250156
O O14 0.888487 0.348999 0.540449
O O15 0.109316 0.052925 0.748461
O O16 0.000000 0.000000 0.500000
O O17 0.500000 0.500000 0.000000
O O18 0.500000 0.000000 0.000000
#
# Coordination Sequence:
#
# PCOD9010808 Si02
#       8
#     2   2   2   2   2   2   2   2
#     4  12  26  41  61  87 122 157 213 265 315 356
#     4  10  22  38  64  95 128 156 201 255 309 357
#     4  11  24  40  66  87 121 160 214 249 299 369
#     4  10  21  40  64  93 122 163 205 246 299 374
#     4  11  23  42  63  85 115 168 208 250 305 369
#     4  11  25  41  60  90 125 164 203 263 319 356
#     4  11  22  44  63  80 115 169 212 247 306 378
#     4   8  16  35  61  89 123 161 195 238 301 373
#
# _framework density 22.529233000000001
#
# number of rings (size 3 to 8) (size 9 to 14) (size 15 to 20)
#    0.000    1.500    2.500    2.625    3.500    1.500 
#    2.250    0.625    0.000    0.000    0.000   13.125 
#    0.000    0.000    0.000    0.000    0.000    0.000 
#
# Total GULP energy -89293.959073 kJ/mol
# GULP energy per Si atom -5580.872442 kJ/mol
# Density = 2.247796 g / cm^3
# Si number density = 22.529233 Si / 1000 Ang^3
#
#
#
# Elastic Constant Matrix: (Units=GPa)
#
#
# Indices 1 2 3 4 5 6 
#
# 1 182.6711 48.6301 40.7473 7.5285 -27.6228 -14.9065
# 2 48.6301 130.0182 10.8826 13.1154 1.1044 0.3485
# 3 40.7473 10.8826 61.2315 9.7980 -12.8260 -7.2431
# 4 7.5285 13.1154 9.7980 24.3914 -3.0218 -5.0714
# 5 -27.6228 1.1044 -12.8260 -3.0218 34.0315 2.1664
# 6 -14.9065 0.3485 -7.2431 -5.0714 2.1664 41.1001
#
#
#
# Elastic Compliance Matrix: (Units=1/GPa)
#
#
# Indices 1 2 3 4 5 6 
#
# 1 0.007962 -0.002887 -0.003713 0.001682 0.005167 0.002193
# 2 -0.002887 0.009269 0.000270 -0.004876 -0.002878 -0.001528
# 3 -0.003713 0.000270 0.020832 -0.006584 0.004162 0.001291
# 4 0.001682 -0.004876 -0.006584 0.047178 0.002903 0.005159
# 5 0.005167 -0.002878 0.004162 0.002903 0.035427 0.001123
# 6 0.002193 -0.001528 0.001291 0.005159 0.001123 0.025944
#
#
# Mechanical properties :
#
#
# Convention : Reuss Voigt Hill
#
# Bulk Modulus (GPa) = 39.36320 63.82677 51.59499
# Shear Modulus (GPa) = 29.80851 38.14866 33.97858
#
# Velocity S-wave (km/s) = 3.64140 4.11943 3.88777
# Velocity P-wave (km/s) = 5.93209 7.14272 6.56537
#
# Compressibility (1/GPa) = 0.02540444
#
# Stress axis : x y z
#
# Youngs Moduli (GPa) = 125.59810 107.89074 48.00265
#
# Poissons Ratio (x) = 0.31144 0.17823
# Poissons Ratio (y) = 0.36256 -0.01298
# Poissons Ratio (z) = 0.46632 -0.02917
#
# Static dielectric constant tensor:
#      x y z
#    x 1.852900 -0.039120 -0.027400 
#    y -0.039120 1.929500 -0.013040 
#    z -0.027400 -0.013040 1.889270 
# 
# From -- ./inp_files/323034.got.cif
#   From: 2010.05.17/outbox.cif.g08.bks.cpg/sg2_162_cif.got.tgz:323034.got - 2010.06.03 11:33:40.
