data_PCOD9010084
_publ_section_title
;
Structure prediction by ZEFSAII (Michael W. Deem and Ramdas Pophale) SiO2 
 PCOD9010084
Probable space group: P -1
;
_chemical_formula_sum "Si O2"
_cell_formula_units_Z 16
_cell_length_a 18.569473
_cell_length_b 11.239814
_cell_length_c 8.450246
_cell_angle_alpha 120.326441
_cell_angle_beta 126.883588
_cell_angle_gamma 36.105219
_cell_volume 830.544233
_symmetry_space_group_name_H-M "P -1"
_symmetry_group_IT_number 2
_symmetry_cell_setting 'triclinic'
loop_
_space_group_symop_operation_xyz
x,y,z
-x,-y,-z
loop_
_atom_site_type_symbol
_atom_site_label
_atom_site_fract_x
_atom_site_fract_y
_atom_site_fract_z
Si Si1 0.707182 0.499017 0.482715
Si Si2 0.017396 0.719691 0.224423
Si Si3 0.499312 0.340509 0.938405
Si Si4 0.738685 0.948590 0.146209
Si Si5 0.759053 0.170654 0.533484
Si Si6 0.710877 0.411772 0.927476
Si Si7 0.759898 0.615313 0.914064
Si Si8 0.037881 0.946549 0.827252
O O1 0.597493 0.626048 0.290169
O O2 0.716760 0.334784 0.460523
O O3 0.674254 0.642745 0.678010
O O4 0.860243 0.368580 0.561357
O O5 0.890185 0.801769 0.194970
O O6 0.095253 0.536385 0.078224
O O7 0.973573 0.900502 0.183992
O O8 0.500000 0.500000 0.000000
O O9 0.431025 0.406997 0.064212
O O10 0.643075 0.113997 0.993719
O O11 0.714464 0.072102 0.349814
O O12 0.714521 0.813880 0.045828
O O13 0.712355 0.285960 0.717004
O O14 0.918811 0.989587 0.629856
O O15 0.761858 0.492742 0.963990
O O16 0.811097 0.267271 0.105977
O O17 0.000000 0.000000 0.000000
#
# Coordination Sequence:
#
# PCOD9010084 Si02
#       8
#     2   2   2   2   2   2   2   2
#     4   8  19  40  60  85 117 155 195 235 306 343
#     4   9  19  37  63  88 118 154 197 246 295 342
#     4  12  24  38  62  96 115 150 203 256 291 344
#     4  12  23  35  62  92 124 149 207 243 289 354
#     4   9  19  36  57  90 111 159 193 245 289 343
#     4  10  21  40  62  82 127 154 198 241 301 356
#     4   9  21  42  62  84 119 169 192 235 304 355
#     4   9  15  32  61  84 107 151 201 236 290 340
#
# _framework density 19.264475999999998
#
# number of rings (size 3 to 8) (size 9 to 14) (size 15 to 20)
#    0.750    1.500    3.750    1.125    1.750    2.500 
#    0.000    0.625    8.250    0.000    0.000    0.000 
#    0.000    0.000    0.000    0.000    0.000    0.000 
#
# Total GULP energy -89099.386156 kJ/mol
# GULP energy per Si atom -5568.711635 kJ/mol
# Density = 1.922063 g / cm^3
# Si number density = 19.264476 Si / 1000 Ang^3
#
#
#
# Elastic Constant Matrix: (Units=GPa)
#
#
# Indices 1 2 3 4 5 6 
#
# 1 25.3740 0.1799 24.8193 10.7053 6.3080 2.9549
# 2 0.1799 58.2128 61.8479 0.2941 18.4723 13.2902
# 3 24.8193 61.8479 117.3026 5.4236 19.0288 15.7959
# 4 10.7053 0.2941 5.4236 32.3084 4.6583 6.4487
# 5 6.3080 18.4723 19.0288 4.6583 17.2132 5.1227
# 6 2.9549 13.2902 15.7959 6.4487 5.1227 25.0863
#
#
#
# Elastic Compliance Matrix: (Units=1/GPa)
#
#
# Indices 1 2 3 4 5 6 
#
# 1 0.113746 0.074510 -0.052811 -0.020773 -0.056846 -0.002671
# 2 0.074510 0.101459 -0.056202 -0.003770 -0.069469 -0.011984
# 3 -0.052811 -0.056202 0.044282 0.006299 0.028828 0.000607
# 4 -0.020773 -0.003770 0.006299 0.039054 -0.003225 -0.008903
# 5 -0.056846 -0.069469 0.028828 -0.003225 0.122112 0.001240
# 6 -0.002671 -0.011984 0.000607 -0.008903 0.001240 0.048180
#
#
# Mechanical properties :
#
#
# Convention : Reuss Voigt Hill
#
# Bulk Modulus (GPa) = 5.24985 41.62040 23.43512
# Shear Modulus (GPa) = 8.31488 22.52440 15.41964
#
# Velocity S-wave (km/s) = 2.07979 3.42309 2.83224
# Velocity P-wave (km/s) = 2.91521 6.10533 4.78401
#
# Compressibility (1/GPa) = 0.19048166
#
# Stress axis : x y z
#
# Youngs Moduli (GPa) = 8.79156 9.85616 22.58243
#
# Poissons Ratio (x) = -0.73439 1.19259
# Poissons Ratio (y) = -0.65506 1.26919
# Poissons Ratio (z) = 0.46429 0.55394
#
# Static dielectric constant tensor:
#      x y z
#    x 1.664420 -0.040730 -0.006970 
#    y -0.040730 1.700590 0.006740 
#    z -0.006970 0.006740 1.711620 
# 
# From -- ./inp_files/345629.got.cif
#   From: 2010.05.17/outbox.cif.g08.bks.cpg/sg2_173_cif.got.tgz:345629.got - 2010.06.03 11:33:40.
