data_PCOD9010663
_publ_section_title
;
Structure prediction by ZEFSAII (Michael W. Deem and Ramdas Pophale) SiO2 
 PCOD9010663
Probable space group: P -1
;
_chemical_formula_sum "Si O2"
_cell_formula_units_Z 16
_cell_length_a 17.702954
_cell_length_b 27.016793
_cell_length_c 29.532507
_cell_angle_alpha 170.902686
_cell_angle_beta 159.862784
_cell_angle_gamma 20.949346
_cell_volume 762.765032
_symmetry_space_group_name_H-M "P -1"
_symmetry_group_IT_number 2
_symmetry_cell_setting 'triclinic'
loop_
_space_group_symop_operation_xyz
x,y,z
-x,-y,-z
loop_
_atom_site_type_symbol
_atom_site_label
_atom_site_fract_x
_atom_site_fract_y
_atom_site_fract_z
Si Si1 0.033463 0.507267 0.843744
Si Si2 0.931092 0.210557 0.285424
Si Si3 0.708872 0.886534 0.483218
Si Si4 0.100288 0.440004 0.285541
Si Si5 0.576635 0.979424 0.636044
Si Si6 0.185372 0.060253 0.120798
Si Si7 0.456809 0.296805 0.943412
Si Si8 0.459210 0.371623 0.310813
O O1 0.213135 0.290101 0.778827
O O2 0.965157 0.424685 0.679354
O O3 0.797793 0.542236 0.768151
O O4 0.150170 0.824471 0.187287
O O5 0.844393 0.568620 0.570460
O O6 0.195058 0.146979 0.373079
O O7 0.874376 0.937054 0.039942
O O8 0.851320 0.129440 0.116785
O O9 0.888973 0.595691 0.336098
O O10 0.500000 0.000000 0.500000
O O11 0.584394 0.809275 0.297438
O O12 0.338743 0.525266 0.511140
O O13 0.604417 0.186589 0.882716
O O14 0.473867 0.652239 0.290977
O O15 0.428676 0.937871 0.166557
O O16 0.000000 0.000000 0.000000
O O17 0.500000 0.500000 0.500000
O O18 0.500000 0.000000 0.000000
#
# Coordination Sequence:
#
# PCOD9010663 Si02
#       8
#     2   2   2   2   2   2   2   2
#     4  10  22  40  62  89 120 163 203 249 303 358
#     4  12  25  36  60  85 124 162 197 249 304 351
#     4  11  23  33  56  89 134 162 187 236 306 376
#     4  11  24  39  60  92 127 157 204 250 310 365
#     4  11  21  36  54  86 117 160 194 237 295 353
#     4  12  23  41  58  82 119 167 208 243 288 364
#     4  11  22  37  62  83 116 155 210 247 285 354
#     4  10  21  40  64  86 119 161 206 249 295 359
#
# _framework density 20.976316000000001
#
# number of rings (size 3 to 8) (size 9 to 14) (size 15 to 20)
#    0.000    1.000    5.000    1.875    7.000    1.000 
#    0.000    0.000    0.000    1.500    0.000    0.000 
#    0.000    0.000    0.000    0.000    0.000    0.000 
#
# Total GULP energy -89312.374933 kJ/mol
# GULP energy per Si atom -5582.023433 kJ/mol
# Density = 2.092857 g / cm^3
# Si number density = 20.976316 Si / 1000 Ang^3
#
#
#
# Elastic Constant Matrix: (Units=GPa)
#
#
# Indices 1 2 3 4 5 6 
#
# 1 44.3276 31.6073 12.8660 -4.0093 -6.2700 0.0302
# 2 31.6073 178.6141 38.4986 -4.3236 27.2610 -9.5555
# 3 12.8660 38.4986 86.9120 9.4397 -1.8717 -10.8780
# 4 -4.0093 -4.3236 9.4397 35.9431 0.3744 -0.8312
# 5 -6.2700 27.2610 -1.8717 0.3744 25.0192 -6.7244
# 6 0.0302 -9.5555 -10.8780 -0.8312 -6.7244 29.9404
#
#
#
# Elastic Compliance Matrix: (Units=1/GPa)
#
#
# Indices 1 2 3 4 5 6 
#
# 1 0.030763 -0.007561 -0.001039 0.002647 0.016062 0.000859
# 2 -0.007561 0.009721 -0.003769 0.001426 -0.013103 -0.001163
# 3 -0.001039 -0.003769 0.014622 -0.004351 0.006469 0.005443
# 4 0.002647 0.001426 -0.004351 0.029434 -0.001851 -0.000727
# 5 0.016062 -0.013103 0.006469 -0.001851 0.062016 0.012029
# 6 0.000859 -0.001163 0.005443 -0.000727 0.012029 0.037687
#
#
# Mechanical properties :
#
#
# Convention : Reuss Voigt Hill
#
# Bulk Modulus (GPa) = 32.92932 52.86638 42.89785
# Shear Modulus (GPa) = 22.82010 33.30599 28.06305
#
# Velocity S-wave (km/s) = 3.30191 3.98903 3.66162
# Velocity P-wave (km/s) = 5.50175 6.81719 6.19449
#
# Compressibility (1/GPa) = 0.03036807
#
# Stress axis : x y z
#
# Youngs Moduli (GPa) = 32.50652 102.86680 68.38800
#
# Poissons Ratio (x) = 0.77781 0.07104
# Poissons Ratio (y) = 0.24579 0.25778
# Poissons Ratio (z) = 0.03377 0.38774
#
# Static dielectric constant tensor:
#      x y z
#    x 1.864700 -0.066440 0.036440 
#    y -0.066440 1.919090 -0.149070 
#    z 0.036440 -0.149070 1.914960 
# 
# From -- ./inp_files/69896.got.cif
#   From: 2010.05.17/outbox.cif.g08.bks.cpg/sg2_35_cif.got.tgz:69896.got - 2010.06.03 11:33:40.
