data_PCOD9010467
_publ_section_title
;
Structure prediction by ZEFSAII (Michael W. Deem and Ramdas Pophale) SiO2 
 PCOD9010467
Probable space group: P -1
;
_chemical_formula_sum "Si O2"
_cell_formula_units_Z 16
_cell_length_a 7.643019
_cell_length_b 5.518889
_cell_length_c 26.766597
_cell_angle_alpha 90.686216
_cell_angle_beta 35.718861
_cell_angle_gamma 97.977555
_cell_volume 642.787006
_symmetry_space_group_name_H-M "P -1"
_symmetry_group_IT_number 2
_symmetry_cell_setting 'triclinic'
loop_
_space_group_symop_operation_xyz
x,y,z
-x,-y,-z
loop_
_atom_site_type_symbol
_atom_site_label
_atom_site_fract_x
_atom_site_fract_y
_atom_site_fract_z
Si Si1 0.271872 0.128543 0.661592
Si Si2 0.100038 0.821731 0.434794
Si Si3 0.807111 0.158973 0.011134
Si Si4 0.280688 0.272313 0.077603
Si Si5 0.298882 0.628336 0.513337
Si Si6 0.875348 0.393707 0.261375
Si Si7 0.212005 0.646518 0.878328
Si Si8 0.302564 0.228668 0.319086
O O1 0.555170 0.196076 0.634573
O O2 0.463980 0.144243 0.565760
O O3 0.093374 0.348509 0.714612
O O4 0.109591 0.845733 0.709021
O O5 0.838865 0.575019 0.497006
O O6 0.140745 0.946642 0.370943
O O7 0.000000 0.000000 0.500000
O O8 0.485006 0.090427 0.053971
O O9 0.703000 0.299158 0.083745
O O10 0.032294 0.357811 0.923794
O O11 0.000000 0.000000 0.000000
O O12 0.116465 0.388277 0.161012
O O13 0.017822 0.195559 0.095169
O O14 0.500000 0.500000 0.000000
O O15 0.500000 0.500000 0.500000
O O16 0.991624 0.655528 0.611012
O O17 0.547571 0.324211 0.307233
O O18 0.506065 0.709661 0.775160
#
# Coordination Sequence:
#
# PCOD9010467 Si02
#       8
#     2   2   2   2   2   2   2   2
#     4  11  22  42  67  93 130 176 231 274 334 403
#     4  11  21  41  68  87 123 179 232 275 336 408
#     4  10  21  41  67  95 132 174 213 277 348 411
#     4   9  20  44  66  97 132 174 225 276 346 415
#     4  12  25  39  59  96 132 176 217 286 343 402
#     4  10  22  42  69  98 126 174 233 280 327 409
#     4   9  21  42  63  95 130 171 223 276 339 412
#     4  10  21  40  63  91 130 171 221 278 335 403
#
# _framework density 24.891605999999999
#
# number of rings (size 3 to 8) (size 9 to 14) (size 15 to 20)
#    0.000    1.750    2.500    1.875    0.000    3.000 
#   24.750    0.000    0.000    0.000    0.000    0.000 
#    0.000    0.000    0.000    0.000    0.000    0.000 
#
# Total GULP energy -89220.616428 kJ/mol
# GULP energy per Si atom -5576.288527 kJ/mol
# Density = 2.483495 g / cm^3
# Si number density = 24.891606 Si / 1000 Ang^3
#
#
#
# Elastic Constant Matrix: (Units=GPa)
#
#
# Indices 1 2 3 4 5 6 
#
# 1 108.4927 29.5927 28.7425 7.9345 -14.7148 -24.5979
# 2 29.5927 107.6523 43.5343 -9.5795 -5.8561 -30.4853
# 3 28.7425 43.5343 174.2473 -28.0841 7.6468 -23.2801
# 4 7.9345 -9.5795 -28.0841 29.9671 -18.6733 1.1639
# 5 -14.7148 -5.8561 7.6468 -18.6733 24.5925 10.4702
# 6 -24.5979 -30.4853 -23.2801 1.1639 10.4702 36.9770
#
#
#
# Elastic Compliance Matrix: (Units=1/GPa)
#
#
# Indices 1 2 3 4 5 6 
#
# 1 0.011773 -0.001338 -0.001650 -0.004165 0.001817 0.005306
# 2 -0.001338 0.013062 -0.001319 0.004814 0.002942 0.008064
# 3 -0.001650 -0.001319 0.007893 0.008473 0.001826 0.002001
# 4 -0.004165 0.004814 0.008473 0.087912 0.069554 -0.015929
# 5 0.001817 0.002942 0.001826 0.069554 0.106421 -0.027539
# 6 0.005306 0.008064 0.002001 -0.015929 -0.027539 0.046781
#
#
# Mechanical properties :
#
#
# Convention : Reuss Voigt Hill
#
# Bulk Modulus (GPa) = 41.46643 66.01459 53.74051
# Shear Modulus (GPa) = 17.21202 37.54217 27.37710
#
# Velocity S-wave (km/s) = 2.63245 3.88780 3.32000
# Velocity P-wave (km/s) = 5.09261 6.83606 6.02770
#
# Compressibility (1/GPa) = 0.02411589
#
# Stress axis : x y z
#
# Youngs Moduli (GPa) = 84.93656 76.55601 126.68886
#
# Poissons Ratio (x) = 0.10246 0.20901
# Poissons Ratio (y) = 0.11368 0.16704
# Poissons Ratio (z) = 0.14012 0.10094
#
# Static dielectric constant tensor:
#      x y z
#    x 2.025230 0.060820 0.110320 
#    y 0.060820 2.042140 -0.037230 
#    z 0.110320 -0.037230 1.627440 
# 
# From -- ./inp_files/601768.got.cif
#   From: 2010.05.17/outbox.cif.g08.bks.cpg/sg2_301_cif.got.tgz:601768.got - 2010.06.03 11:33:40.
