data_PCOD9010477
_publ_section_title
;
Structure prediction by ZEFSAII (Michael W. Deem and Ramdas Pophale) SiO2 
 PCOD9010477
Probable space group: P -1
;
_chemical_formula_sum "Si O2"
_cell_formula_units_Z 16
_cell_length_a 20.934273
_cell_length_b 19.905792
_cell_length_c 6.478082
_cell_angle_alpha 118.446206
_cell_angle_beta 71.444940
_cell_angle_gamma 160.880202
_cell_volume 691.204090
_symmetry_space_group_name_H-M "P -1"
_symmetry_group_IT_number 2
_symmetry_cell_setting 'triclinic'
loop_
_space_group_symop_operation_xyz
x,y,z
-x,-y,-z
loop_
_atom_site_type_symbol
_atom_site_label
_atom_site_fract_x
_atom_site_fract_y
_atom_site_fract_z
Si Si1 0.677758 0.676937 0.756676
Si Si2 0.185403 0.978678 0.330568
Si Si3 0.226875 0.561889 0.125803
Si Si4 0.470710 0.722683 0.826996
Si Si5 0.388841 0.767502 0.663675
Si Si6 0.761576 0.277715 0.905502
Si Si7 0.141161 0.247448 0.587403
Si Si8 0.487003 0.372584 0.889952
O O1 0.500000 0.500000 0.500000
O O2 0.869551 0.840395 0.670449
O O3 0.579500 0.516882 0.804387
O O4 0.690935 0.770281 0.004500
O O5 0.077994 0.947467 0.396061
O O6 0.317878 0.101144 0.166642
O O7 0.355712 0.161329 0.612576
O O8 0.989479 0.706763 0.148772
O O9 0.215138 0.546731 0.359846
O O10 0.255722 0.679922 0.198192
O O11 0.423389 0.719045 0.077434
O O12 0.477006 0.795689 0.757828
O O13 0.265892 0.444565 0.606160
O O14 0.584667 0.019409 0.706958
O O15 0.285098 0.720943 0.843701
O O16 0.000000 0.500000 0.000000
O O17 0.309560 0.420542 0.860823
#
# Coordination Sequence:
#
# PCOD9010477 Si02
#       8
#     2   2   2   2   2   2   2   2
#     4   9  19  41  66  89 126 161 205 262 312 364
#     4  11  23  39  62  93 123 165 214 248 313 374
#     4  10  23  40  59  94 124 166 210 252 309 371
#     4  10  22  40  57  90 128 158 208 260 299 366
#     4  10  22  40  64  86 129 164 199 264 304 356
#     4  10  21  40  63  92 123 161 211 251 307 372
#     4  10  22  41  61  92 126 159 214 258 307 375
#     4  10  21  41  65  89 126 165 201 265 311 361
#
# _framework density 23.148012000000001
#
# number of rings (size 3 to 8) (size 9 to 14) (size 15 to 20)
#    0.000    2.000    1.250    1.125    3.500    2.000 
#    9.000    5.625    0.000    0.000    0.000    0.000 
#    0.000    0.000    0.000    0.000    0.000    0.000 
#
# Total GULP energy -89343.231433 kJ/mol
# GULP energy per Si atom -5583.951965 kJ/mol
# Density = 2.309533 g / cm^3
# Si number density = 23.148012 Si / 1000 Ang^3
#
#
#
# Elastic Constant Matrix: (Units=GPa)
#
#
# Indices 1 2 3 4 5 6 
#
# 1 78.6445 34.9375 22.6837 -5.5258 -8.0167 15.6791
# 2 34.9375 81.7928 11.8860 5.6064 1.5961 28.1532
# 3 22.6837 11.8860 104.8731 -1.9488 -0.7549 0.4651
# 4 -5.5258 5.6064 -1.9488 16.7786 1.5635 -8.1663
# 5 -8.0167 1.5961 -0.7549 1.5635 21.9677 -1.2747
# 6 15.6791 28.1532 0.4651 -8.1663 -1.2747 48.6436
#
#
#
# Elastic Compliance Matrix: (Units=1/GPa)
#
#
# Indices 1 2 3 4 5 6 
#
# 1 0.018365 -0.008256 -0.002841 0.008058 0.006655 0.000413
# 2 -0.008256 0.021291 -0.000892 -0.015569 -0.004201 -0.012377
# 3 -0.002841 -0.000892 0.010265 0.001366 -0.000627 0.001547
# 4 0.008058 -0.015569 0.001366 0.077044 -0.000243 0.019328
# 5 0.006655 -0.004201 -0.000627 -0.000243 0.048339 0.001518
# 6 0.000413 -0.012377 0.001547 0.019328 0.001518 0.030858
#
#
# Mechanical properties :
#
#
# Convention : Reuss Voigt Hill
#
# Bulk Modulus (GPa) = 38.54519 44.92498 41.73508
# Shear Modulus (GPa) = 20.93919 30.53154 25.73537
#
# Velocity S-wave (km/s) = 3.01088 3.63570 3.33795
# Velocity P-wave (km/s) = 5.36423 6.08887 5.73800
#
# Compressibility (1/GPa) = 0.02594358
#
# Stress axis : x y z
#
# Youngs Moduli (GPa) = 54.45263 46.96725 97.41954
#
# Poissons Ratio (x) = 0.38776 0.27674
# Poissons Ratio (y) = 0.44956 0.08690
# Poissons Ratio (z) = 0.15468 0.04190
#
# Static dielectric constant tensor:
#      x y z
#    x 1.897450 0.010220 -0.003910 
#    y 0.010220 1.896130 -0.014200 
#    z -0.003910 -0.014200 1.864510 
# 
# From -- ./inp_files/120450.got.cif
#   From: 2010.05.17/outbox.cif.g08.bks.cpg/sg2_61_cif.got.tgz:120450.got - 2010.06.03 11:33:40.
