data_PCOD9010289
_publ_section_title
;
Structure prediction by ZEFSAII (Michael W. Deem and Ramdas Pophale) SiO2 
 PCOD9010289
Probable space group: P -1
;
_chemical_formula_sum "Si O2"
_cell_formula_units_Z 14
_cell_length_a 5.000980
_cell_length_b 11.030917
_cell_length_c 11.676318
_cell_angle_alpha 108.534791
_cell_angle_beta 80.541855
_cell_angle_gamma 82.870548
_cell_volume 591.609923
_symmetry_space_group_name_H-M "P -1"
_symmetry_group_IT_number 2
_symmetry_cell_setting 'triclinic'
loop_
_space_group_symop_operation_xyz
x,y,z
-x,-y,-z
loop_
_atom_site_type_symbol
_atom_site_label
_atom_site_fract_x
_atom_site_fract_y
_atom_site_fract_z
Si Si1 0.217855 0.095092 0.522631
Si Si2 0.683306 0.977241 0.094672
Si Si3 0.648205 0.671189 0.549000
Si Si4 0.736695 0.766799 0.209283
Si Si5 0.344871 0.644747 0.073134
Si Si6 0.792585 0.224611 0.099358
Si Si7 0.123588 0.590713 0.659437
O O1 0.271699 0.191688 0.446742
O O2 0.165875 0.188698 0.664013
O O3 0.500000 0.000000 0.500000
O O4 0.000000 0.000000 0.500000
O O5 0.617808 0.899772 0.186660
O O6 0.694321 0.126724 0.167925
O O7 0.959085 0.878711 0.005206
O O8 0.500000 0.000000 0.000000
O O9 0.331471 0.659465 0.588294
O O10 0.761172 0.562651 0.411005
O O11 0.819380 0.620773 0.636286
O O12 0.483426 0.692946 0.190499
O O13 0.012881 0.674969 0.111662
O O14 0.500000 0.500000 0.000000
O O15 0.404252 0.723879 0.977771
O O16 0.870958 0.345975 0.197095
#
# Coordination Sequence:
#
# PCOD9010289 Si02
#       7
#     2   2   2   2   2   2   2
#     4  12  27  45  68  98 132 182 227 270 336 397
#     4  10  21  40  62  96 131 161 218 262 321 397
#     4  10  24  45  64  98 130 165 230 267 327 390
#     4  11  25  44  65  96 134 173 216 280 323 392
#     4  11  24  44  66  99 133 171 218 263 341 407
#     4  10  23  38  66  97 126 171 213 265 332 390
#     4  10  23  43  69  95 129 171 213 284 323 381
#
# _framework density 23.664238999999998
#
# number of rings (size 3 to 8) (size 9 to 14) (size 15 to 20)
#    0.000    1.429    1.429    2.143    8.000    0.000 
#    5.143    0.000    0.000    0.000    0.000    0.000 
#    0.000    0.000    0.000    0.000    0.000    0.000 
#
# Total GULP energy -78137.392407 kJ/mol
# GULP energy per Si atom -5581.242315 kJ/mol
# Density = 2.361038 g / cm^3
# Si number density = 23.664239 Si / 1000 Ang^3
#
#
#
# Elastic Constant Matrix: (Units=GPa)
#
#
# Indices 1 2 3 4 5 6 
#
# 1 98.7005 35.8503 0.6701 7.1169 18.5531 -7.5360
# 2 35.8503 110.8728 8.6296 12.8470 -3.4037 -11.0674
# 3 0.6701 8.6296 87.7495 19.0360 17.6461 -1.4338
# 4 7.1169 12.8470 19.0360 29.8813 2.0821 2.3668
# 5 18.5531 -3.4037 17.6461 2.0821 32.7997 6.5443
# 6 -7.5360 -11.0674 -1.4338 2.3668 6.5443 33.6016
#
#
#
# Elastic Compliance Matrix: (Units=1/GPa)
#
#
# Indices 1 2 3 4 5 6 
#
# 1 0.014343 -0.004438 0.003298 -0.003180 -0.010996 0.004261
# 2 -0.004438 0.011289 -0.001088 -0.003556 0.004067 0.002135
# 3 0.003298 -0.001088 0.015842 -0.009972 -0.010632 0.003830
# 4 -0.003180 -0.003556 -0.009972 0.042232 0.005378 -0.006332
# 5 -0.010996 0.004067 -0.010632 0.005378 0.044634 -0.010652
# 6 0.004261 0.002135 0.003830 -0.006332 -0.010652 0.034103
#
#
# Mechanical properties :
#
#
# Convention : Reuss Voigt Hill
#
# Bulk Modulus (GPa) = 27.01427 43.06922 35.04174
# Shear Modulus (GPa) = 27.89568 36.06802 31.98185
#
# Velocity S-wave (km/s) = 3.43711 3.90828 3.68024
# Velocity P-wave (km/s) = 5.21460 6.21336 5.73576
#
# Compressibility (1/GPa) = 0.03701747
#
# Stress axis : x y z
#
# Youngs Moduli (GPa) = 69.72067 88.58133 63.12344
#
# Poissons Ratio (x) = 0.39313 -0.20816
# Poissons Ratio (y) = 0.30943 0.06867
# Poissons Ratio (z) = -0.22992 0.09636
#
# Static dielectric constant tensor:
#      x y z
#    x 1.877120 0.140710 0.039060 
#    y 0.140710 2.046340 -0.074610 
#    z 0.039060 -0.074610 1.787450 
# 
# From -- ./inp_files/97466.got.cif
#   From: 2010.05.17/outbox.cif.g08.bks.cpg/sg2_49_cif.got.tgz:97466.got - 2010.06.03 11:33:40.
