data_PCOD9010021
_publ_section_title
;
Structure prediction by ZEFSAII (Michael W. Deem and Ramdas Pophale) SiO2 
 PCOD9010021
Probable space group: P -1
;
_chemical_formula_sum "Si O2"
_cell_formula_units_Z 16
_cell_length_a 12.432839
_cell_length_b 14.351810
_cell_length_c 11.757541
_cell_angle_alpha 150.948621
_cell_angle_beta 132.139064
_cell_angle_gamma 59.756471
_cell_volume 735.155623
_symmetry_space_group_name_H-M "P -1"
_symmetry_group_IT_number 2
_symmetry_cell_setting 'triclinic'
loop_
_space_group_symop_operation_xyz
x,y,z
-x,-y,-z
loop_
_atom_site_type_symbol
_atom_site_label
_atom_site_fract_x
_atom_site_fract_y
_atom_site_fract_z
Si Si1 0.353288 0.556241 0.911503
Si Si2 0.832294 0.368228 0.743088
Si Si3 0.884465 0.333021 0.494944
Si Si4 0.405208 0.832056 0.034130
Si Si5 0.448774 0.452982 0.283805
Si Si6 0.997567 0.995259 0.130808
Si Si7 0.677967 0.765314 0.628648
Si Si8 0.131192 0.718930 0.079136
O O1 0.402629 0.741810 0.060628
O O2 0.276142 0.364418 0.578584
O O3 0.250852 0.612906 0.995780
O O4 0.500000 0.500000 0.000000
O O5 0.815631 0.268130 0.500751
O O6 0.712753 0.504258 0.806737
O O7 0.822796 0.236821 0.709633
O O8 0.000000 0.500000 0.000000
O O9 0.751749 0.280717 0.254756
O O10 0.971869 0.559862 0.797920
O O11 0.004206 0.209433 0.414022
O O12 0.529677 0.759308 0.970181
O O13 0.402543 0.060983 0.278729
O O14 0.500000 0.500000 0.500000
O O15 0.564917 0.611415 0.460624
O O16 0.830384 0.873000 0.911933
O O17 0.112618 0.892536 0.166621
O O18 0.000000 0.000000 0.000000
#
# Coordination Sequence:
#
# PCOD9010021 Si02
#       8
#     2   2   2   2   2   2   2   2
#     4  11  23  39  60  87 123 164 209 260 320 375
#     4  10  23  41  62  92 127 167 209 258 318 371
#     4  10  21  40  61  91 124 159 209 257 308 379
#     4  10  21  40  63  92 125 158 208 268 306 372
#     4  11  21  40  67  90 124 168 212 256 311 379
#     4  11  23  39  64  97 125 162 213 255 316 380
#     4  10  23  39  62  96 121 160 216 258 315 375
#     4  11  21  38  63  85 127 166 201 260 319 365
#
# _framework density 21.764099999999999
#
# number of rings (size 3 to 8) (size 9 to 14) (size 15 to 20)
#    0.000    1.500    1.250    5.250    1.750    3.000 
#    0.000    7.500    0.000    0.000    0.000    0.000 
#    0.000    0.000    0.000    0.000    0.000    0.000 
#
# Total GULP energy -89390.396566 kJ/mol
# GULP energy per Si atom -5586.899785 kJ/mol
# Density = 2.171456 g / cm^3
# Si number density = 21.764100 Si / 1000 Ang^3
#
#
#
# Elastic Constant Matrix: (Units=GPa)
#
#
# Indices 1 2 3 4 5 6 
#
# 1 116.3806 51.9177 1.7193 2.0095 -17.2095 -0.9545
# 2 51.9177 164.2130 12.0736 6.4840 -14.7100 1.7019
# 3 1.7193 12.0736 13.7277 13.9193 -0.6399 2.8759
# 4 2.0095 6.4840 13.9193 30.7082 -11.2384 -4.7064
# 5 -17.2095 -14.7100 -0.6399 -11.2384 30.0971 -11.3626
# 6 -0.9545 1.7019 2.8759 -4.7064 -11.3626 39.5436
#
#
#
# Elastic Compliance Matrix: (Units=1/GPa)
#
#
# Indices 1 2 3 4 5 6 
#
# 1 0.011072 -0.002528 -0.006382 0.006660 0.009044 0.004232
# 2 -0.002528 0.008405 -0.017307 0.009583 0.007425 0.004110
# 3 -0.006382 -0.017307 0.247733 -0.148299 -0.084641 -0.059398
# 4 0.006660 0.009583 -0.148299 0.130769 0.071812 0.046732
# 5 0.009044 0.007425 -0.084641 0.071812 0.081382 0.037986
# 6 0.004232 0.004110 -0.059398 0.046732 0.037986 0.046011
#
#
# Mechanical properties :
#
#
# Convention : Reuss Voigt Hill
#
# Bulk Modulus (GPa) = 4.65600 47.30474 25.98037
# Shear Modulus (GPa) = 7.69943 35.31049 21.50496
#
# Velocity S-wave (km/s) = 1.88291 4.03230 3.14681
# Velocity P-wave (km/s) = 2.62128 6.59254 5.01661
#
# Compressibility (1/GPa) = 0.21477650
#
# Stress axis : x y z
#
# Youngs Moduli (GPa) = 90.32168 118.96978 4.03660
#
# Poissons Ratio (x) = 0.30074 0.02576
# Poissons Ratio (y) = 0.22832 0.06986
# Poissons Ratio (z) = 0.57639 2.05907
#
# Static dielectric constant tensor:
#      x y z
#    x 1.815860 0.011140 -0.011500 
#    y 0.011140 1.818700 0.004830 
#    z -0.011500 0.004830 1.873940 
# 
# From -- ./inp_files/279897.got.cif
#   From: 2010.05.17/outbox.cif.g08.bks.cpg/sg2_140_cif.got.tgz:279897.got - 2010.06.03 11:33:40.
