data_PCOD9010909
_publ_section_title
;
Structure prediction by ZEFSAII (Michael W. Deem and Ramdas Pophale) SiO2 
 PCOD9010909
Probable space group: P -1
;
_chemical_formula_sum "Si O2"
_cell_formula_units_Z 16
_cell_length_a 13.756792
_cell_length_b 8.702229
_cell_length_c 7.461882
_cell_angle_alpha 76.452035
_cell_angle_beta 67.038879
_cell_angle_gamma 118.687886
_cell_volume 615.510728
_symmetry_space_group_name_H-M "P -1"
_symmetry_group_IT_number 2
_symmetry_cell_setting 'triclinic'
loop_
_space_group_symop_operation_xyz
x,y,z
-x,-y,-z
loop_
_atom_site_type_symbol
_atom_site_label
_atom_site_fract_x
_atom_site_fract_y
_atom_site_fract_z
Si Si1 0.535515 0.206794 0.003733
Si Si2 0.647104 0.550887 0.406145
Si Si3 0.218466 0.338940 0.348445
Si Si4 0.740022 0.946092 0.792664
Si Si5 0.526499 0.843682 0.520580
Si Si6 0.183719 0.833416 0.702049
Si Si7 0.118756 0.411255 0.904851
Si Si8 0.991763 0.317841 0.634458
O O1 0.417804 0.199974 0.000084
O O2 0.511568 0.231559 0.225202
O O3 0.688215 0.415510 0.811456
O O4 0.500000 0.000000 0.000000
O O5 0.500000 0.500000 0.500000
O O6 0.722859 0.667002 0.501589
O O7 0.577925 0.312697 0.512717
O O8 0.771873 0.628535 0.154418
O O9 0.232068 0.204233 0.246827
O O10 0.065425 0.258051 0.475488
O O11 0.772042 0.094783 0.557865
O O12 0.838327 0.111210 0.826735
O O13 0.500000 0.000000 0.500000
O O14 0.687206 0.965309 0.343456
O O15 0.173472 0.642579 0.838246
O O16 0.029627 0.753520 0.851809
O O17 0.077946 0.390341 0.732400
O O18 0.000000 0.500000 0.500000
#
# Coordination Sequence:
#
# PCOD9010909 Si02
#       8
#     2   2   2   2   2   2   2   2
#     4  11  24  41  67  97 130 176 224 275 330 397
#     4  11  23  43  66  97 132 176 218 277 336 400
#     4  11  25  44  65  95 139 174 217 280 335 397
#     4  11  23  43  64  94 134 176 217 273 339 392
#     4  11  22  39  66  97 131 170 226 272 331 393
#     4  10  21  40  64  95 131 167 222 275 332 389
#     4  10  22  40  65  97 130 170 220 280 324 396
#     4  11  22  40  68  97 127 173 223 268 330 400
#
# _framework density 25.994672000000001
#
# number of rings (size 3 to 8) (size 9 to 14) (size 15 to 20)
#    0.000    1.250    2.500    3.750    3.500    4.000 
#    0.000    8.125    0.000    0.000    0.000    0.000 
#    0.000    0.000    0.000    0.000    0.000    0.000 
#
# Total GULP energy -89237.835203 kJ/mol
# GULP energy per Si atom -5577.364700 kJ/mol
# Density = 2.593551 g / cm^3
# Si number density = 25.994672 Si / 1000 Ang^3
#
#
#
# Elastic Constant Matrix: (Units=GPa)
#
#
# Indices 1 2 3 4 5 6 
#
# 1 101.9847 6.9458 22.2045 12.8698 -14.0458 3.5137
# 2 6.9458 85.4090 -8.3095 -2.4081 15.4106 5.9522
# 3 22.2045 -8.3095 103.1334 6.6818 -12.7011 10.8122
# 4 12.8698 -2.4081 6.6818 26.6971 -6.4022 -17.4522
# 5 -14.0458 15.4106 -12.7011 -6.4022 24.3959 -3.9540
# 6 3.5137 5.9522 10.8122 -17.4522 -3.9540 41.0156
#
#
#
# Elastic Compliance Matrix: (Units=1/GPa)
#
#
# Indices 1 2 3 4 5 6 
#
# 1 0.011811 -0.002109 -0.001436 -0.005619 0.005557 -0.002182
# 2 -0.002109 0.014295 0.000952 -0.003937 -0.011582 -0.004936
# 3 -0.001436 0.000952 0.011156 -0.004431 0.002471 -0.004603
# 4 -0.005619 -0.003937 -0.004431 0.067015 0.019823 0.032647
# 5 0.005557 -0.011582 0.002471 0.019823 0.060395 0.014810
# 6 -0.002182 -0.004936 -0.004603 0.032647 0.014810 0.041817
#
#
# Mechanical properties :
#
#
# Convention : Reuss Voigt Hill
#
# Bulk Modulus (GPa) = 31.17514 36.91208 34.04361
# Shear Modulus (GPa) = 22.48533 36.40079 29.44306
#
# Velocity S-wave (km/s) = 2.94428 3.74614 3.36915
# Velocity P-wave (km/s) = 4.85564 5.73952 5.31599
#
# Compressibility (1/GPa) = 0.03207684
#
# Stress axis : x y z
#
# Youngs Moduli (GPa) = 84.66561 69.95294 89.63824
#
# Poissons Ratio (x) = 0.14754 0.12869
# Poissons Ratio (y) = 0.17857 -0.08534
# Poissons Ratio (z) = 0.12156 -0.06660
#
# Static dielectric constant tensor:
#      x y z
#    x 2.086980 -0.060770 -0.001710 
#    y -0.060770 2.078520 0.023530 
#    z -0.001710 0.023530 2.074420 
# 
# From -- ./inp_files/298177.got.cif
#   From: 2010.05.17/outbox.cif.g08.bks.cpg/sg2_150_cif.got.tgz:298177.got - 2010.06.03 11:33:40.
