data_PCOD9010443
_publ_section_title
;
Structure prediction by ZEFSAII (Michael W. Deem and Ramdas Pophale) SiO2 
 PCOD9010443
Probable space group: P -1
;
_chemical_formula_sum "Si O2"
_cell_formula_units_Z 13
_cell_length_a 11.500928
_cell_length_b 9.827914
_cell_length_c 16.483264
_cell_angle_alpha 138.028543
_cell_angle_beta 150.867581
_cell_angle_gamma 54.418526
_cell_volume 593.369830
_symmetry_space_group_name_H-M "P -1"
_symmetry_group_IT_number 2
_symmetry_cell_setting 'triclinic'
loop_
_space_group_symop_operation_xyz
x,y,z
-x,-y,-z
loop_
_atom_site_type_symbol
_atom_site_label
_atom_site_fract_x
_atom_site_fract_y
_atom_site_fract_z
Si Si1 0.457524 0.300123 0.558292
Si Si2 0.287728 0.723602 0.021355
Si Si3 0.500000 0.500000 0.500000
Si Si4 0.286124 0.686415 0.706617
Si Si5 0.392653 0.125044 0.148954
Si Si6 0.240838 0.440047 0.722439
Si Si7 0.862498 0.164115 0.849563
O O1 0.524376 0.362469 0.535157
O O2 0.329752 0.470982 0.597525
O O3 0.695348 0.284301 0.748574
O O4 0.274290 0.076532 0.344952
O O5 0.545080 0.685935 0.195359
O O6 0.125172 0.757803 0.014495
O O7 0.329687 0.919368 0.073953
O O8 0.185800 0.524082 0.814723
O O9 0.527044 0.303965 0.370212
O O10 0.452340 0.865534 0.834518
O O11 0.326527 0.640535 0.805054
O O12 0.003985 0.692201 0.523963
O O13 0.135707 0.183687 0.994450
#
# Coordination Sequence:
#
# PCOD9010443 Si02
#       7
#     2   2   1   2   2   2   2
#     4  10  21  40  63  91 123 159 203 254 315 356
#     4  11  22  41  62  92 119 167 207 251 294 377
#     4  10  22  36  58  96 120 154 192 254 314 358
#     4  10  22  42  61  90 120 165 206 256 299 365
#     4  11  24  38  63  94 128 152 205 258 316 354
#     4  10  23  42  65  81 124 169 214 240 300 360
#     4  11  22  39  64  94 123 163 198 256 317 369
#
# _framework density 21.908764999999999
#
# number of rings (size 3 to 8) (size 9 to 14) (size 15 to 20)
#    0.000    1.538    3.077    1.385    4.308    3.692 
#    0.000    0.000    0.000    0.000    0.000    0.000 
#    0.000    0.000    0.000    0.000    0.000    0.000 
#
# Total GULP energy -72415.316640 kJ/mol
# GULP energy per Si atom -5570.408972 kJ/mol
# Density = 2.185890 g / cm^3
# Si number density = 21.908765 Si / 1000 Ang^3
#
#
#
# Elastic Constant Matrix: (Units=GPa)
#
#
# Indices 1 2 3 4 5 6 
#
# 1 86.8588 7.0039 38.3047 -13.7565 -9.5909 33.6146
# 2 7.0039 40.8945 -0.9012 -11.5270 10.1191 1.1190
# 3 38.3047 -0.9012 4.4032 -18.4176 -3.4480 -8.9848
# 4 -13.7565 -11.5270 -18.4176 26.2331 -3.4974 -1.8482
# 5 -9.5909 10.1191 -3.4480 -3.4974 37.3704 1.8341
# 6 33.6146 1.1190 -8.9848 -1.8482 1.8341 21.2271
#
#
#
# Elastic Compliance Matrix: (Units=1/GPa)
#
#
# Indices 1 2 3 4 5 6 
#
# 1 0.007059 0.003566 0.019195 0.019208 0.004511 -0.001960
# 2 0.003566 0.028158 -0.004453 0.009800 -0.005827 -0.007658
# 3 0.019195 -0.004453 -0.010371 -0.000741 0.006833 -0.035206
# 4 0.019208 0.009800 -0.000741 0.051152 0.008345 -0.027515
# 5 0.004511 -0.005827 0.006833 0.008345 0.031197 -0.005913
# 6 -0.001960 -0.007658 -0.035206 -0.027515 -0.005913 0.033830
#
#
# Mechanical properties :
#
#
# Convention : Reuss Voigt Hill
#
# Bulk Modulus (GPa) = 16.27030 24.55237 20.41134
# Shear Modulus (GPa) = 40.03273 22.81606 31.42439
#
# Velocity S-wave (km/s) = 4.27927 3.23059 3.79136
# Velocity P-wave (km/s) = 5.64435 5.01464 5.33879
#
# Compressibility (1/GPa) = 0.06146169
#
# Stress axis : x y z
#
# Youngs Moduli (GPa) = 141.65708 35.51352 -96.42310
#
# Poissons Ratio (x) = -0.12662 1.85080
# Poissons Ratio (y) = -0.50508 -0.42933
# Poissons Ratio (z) = -2.71904 0.15812
#
# Static dielectric constant tensor:
#      x y z
#    x 1.784880 0.008530 0.011560 
#    y 0.008530 1.777070 0.021970 
#    z 0.011560 0.021970 1.820010 
# 
# From -- ./inp_files/152258.got.cif
#   From: 2010.05.17/outbox.cif.g08.bks.cpg/sg2_77_cif.got.tgz:152258.got - 2010.06.03 11:33:40.
