data_PCOD9010771
_publ_section_title
;
Structure prediction by ZEFSAII (Michael W. Deem and Ramdas Pophale) SiO2 
 PCOD9010771
Probable space group: P -1
;
_chemical_formula_sum "Si O2"
_cell_formula_units_Z 14
_cell_length_a 5.444087
_cell_length_b 21.156937
_cell_length_c 5.068444
_cell_angle_alpha 83.709380
_cell_angle_beta 81.432081
_cell_angle_gamma 82.211249
_cell_volume 569.558554
_symmetry_space_group_name_H-M "P -1"
_symmetry_group_IT_number 2
_symmetry_cell_setting 'triclinic'
loop_
_space_group_symop_operation_xyz
x,y,z
-x,-y,-z
loop_
_atom_site_type_symbol
_atom_site_label
_atom_site_fract_x
_atom_site_fract_y
_atom_site_fract_z
Si Si1 0.784416 0.949903 0.735627
Si Si2 0.994854 0.706629 0.633390
Si Si3 0.631877 0.212341 0.598128
Si Si4 0.078445 0.373262 0.798039
Si Si5 0.628885 0.816199 0.859594
Si Si6 0.540352 0.454030 0.764582
Si Si7 0.887906 0.076575 0.802937
O O1 0.622006 0.892381 0.834115
O O2 0.880670 0.942831 0.424764
O O3 0.701853 0.024502 0.775926
O O4 0.014874 0.932862 0.911525
O O5 0.248234 0.722122 0.446081
O O6 0.854879 0.670789 0.449628
O O7 0.872023 0.777533 0.706519
O O8 0.000871 0.665575 0.916165
O O9 0.578245 0.199671 0.307947
O O10 0.794894 0.149578 0.720862
O O11 0.399040 0.212248 0.833834
O O12 0.320564 0.407890 0.815291
O O13 0.825131 0.419247 0.740715
O O14 0.500000 0.500000 0.500000
O O15 0.500000 0.500000 0.000000
#
# Coordination Sequence:
#
# PCOD9010771 Si02
#       7
#     2   2   2   2   2   2   2
#     4  10  21  40  64  91 128 176 236 306 376 435
#     4  12  28  47  67 108 154 190 243 292 365 432
#     4  12  26  42  69  97 137 188 242 303 365 440
#     4  12  28  47  82 114 159 200 243 304 357 434
#     4  12  26  42  69  97 137 188 242 303 365 440
#     4  12  26  52  82 118 154 196 247 298 359 424
#     4  10  21  40  64  91 128 176 236 306 376 435
#
# _framework density 24.580441
#
# number of rings (size 3 to 8) (size 9 to 14) (size 15 to 20)
#    0.000    0.571    1.429    6.000    8.000    1.143 
#    0.000    0.000    0.000    0.000    0.000    0.000 
#    0.000    0.000    0.000    0.000    0.000    0.000 
#
# Total GULP energy -78369.822125 kJ/mol
# GULP energy per Si atom -5597.844438 kJ/mol
# Density = 2.452449 g / cm^3
# Si number density = 24.580441 Si / 1000 Ang^3
#
#
#
# Elastic Constant Matrix: (Units=GPa)
#
#
# Indices 1 2 3 4 5 6 
#
# 1 87.0688 34.5424 11.6142 2.8000 3.5017 6.0851
# 2 34.5424 87.5729 44.8895 -1.8829 -0.5426 14.4039
# 3 11.6142 44.8895 131.6036 -7.5828 8.0620 -1.4378
# 4 2.8000 -1.8829 -7.5828 54.6723 0.2050 2.5847
# 5 3.5017 -0.5426 8.0620 0.2050 38.2879 -3.1875
# 6 6.0851 14.4039 -1.4378 2.5847 -3.1875 51.4252
#
#
#
# Elastic Compliance Matrix: (Units=1/GPa)
#
#
# Indices 1 2 3 4 5 6 
#
# 1 0.013801 -0.005900 0.000842 -0.000787 -0.001520 -0.000012
# 2 -0.005900 0.017273 -0.005495 0.000328 0.001589 -0.004212
# 3 0.000842 -0.005495 0.009601 0.001035 -0.002055 0.001529
# 4 -0.000787 0.000328 0.001035 0.018531 -0.000317 -0.000921
# 5 -0.001520 0.001589 -0.002055 -0.000317 0.026827 0.001356
# 6 -0.000012 -0.004212 0.001529 -0.000921 0.001356 0.020800
#
#
# Mechanical properties :
#
#
# Convention : Reuss Voigt Hill
#
# Bulk Modulus (GPa) = 51.10331 54.25972 52.68152
# Shear Modulus (GPa) = 37.18577 43.22368 40.20473
#
# Velocity S-wave (km/s) = 3.89372 4.19795 4.04869
# Velocity P-wave (km/s) = 6.40703 6.75420 6.58291
#
# Compressibility (1/GPa) = 0.01956820
#
# Stress axis : x y z
#
# Youngs Moduli (GPa) = 72.46064 57.89499 104.15649
#
# Poissons Ratio (x) = 0.34156 -0.08770
# Poissons Ratio (y) = 0.42749 0.57239
# Poissons Ratio (z) = -0.06101 0.31816
#
# Static dielectric constant tensor:
#      x y z
#    x 2.037810 -0.012580 -0.062130 
#    y -0.012580 1.970410 0.034620 
#    z -0.062130 0.034620 1.874530 
# 
# From -- ./inp_files/7838.got.cif
#   From: 2010.05.17/outbox.cif.g08.bks.cpg/sg2_4_cif.got.tgz:7838.got - 2010.06.03 11:33:40.
