data_PCOD9010344
_publ_section_title
;
Structure prediction by ZEFSAII (Michael W. Deem and Ramdas Pophale) SiO2 
 PCOD9010344
Probable space group: P -1
;
_chemical_formula_sum "Si O2"
_cell_formula_units_Z 16
_cell_length_a 5.753085
_cell_length_b 23.480839
_cell_length_c 5.338028
_cell_angle_alpha 119.171098
_cell_angle_beta 89.990221
_cell_angle_gamma 86.695209
_cell_volume 628.263415
_symmetry_space_group_name_H-M "P -1"
_symmetry_group_IT_number 2
_symmetry_cell_setting 'triclinic'
loop_
_space_group_symop_operation_xyz
x,y,z
-x,-y,-z
loop_
_atom_site_type_symbol
_atom_site_label
_atom_site_fract_x
_atom_site_fract_y
_atom_site_fract_z
Si Si1 0.405767 0.252216 0.082039
Si Si2 0.983287 0.720966 0.189839
Si Si3 0.248379 0.396616 0.788464
Si Si4 0.346312 0.803441 0.542587
Si Si5 0.142396 0.533435 0.357168
Si Si6 0.588849 0.374492 0.152424
Si Si7 0.236718 0.039760 0.584976
Si Si8 0.601442 0.925347 0.839425
O O1 0.552549 0.219264 0.778644
O O2 0.147198 0.243793 0.968228
O O3 0.502094 0.227085 0.291511
O O4 0.427260 0.330995 0.232070
O O5 0.095895 0.774174 0.478539
O O6 0.828215 0.671932 0.235453
O O7 0.179892 0.670874 0.972879
O O8 0.036709 0.408381 0.614511
O O9 0.212403 0.473418 0.047735
O O10 0.508800 0.387948 0.896052
O O11 0.387180 0.879517 0.728639
O O12 0.363828 0.563302 0.549981
O O13 0.000000 0.500000 0.500000
O O14 0.242445 0.081846 0.423283
O O15 0.500000 0.000000 0.500000
O O16 0.249036 0.082871 0.926575
O O17 0.000000 0.000000 0.500000
O O18 0.500000 0.000000 0.000000
#
# Coordination Sequence:
#
# PCOD9010344 Si02
#       8
#     2   2   2   2   2   2   2   2
#     4  10  24  42  67  97 128 178 227 279 338 405
#     4  10  22  43  65  91 125 174 223 278 335 399
#     4  10  22  39  58  90 120 164 217 265 334 400
#     4  11  23  45  68  97 137 173 228 275 343 408
#     4  11  21  37  58  88 125 160 212 270 332 400
#     4  10  21  40  63  86 124 168 215 276 332 396
#     4  10  21  42  69 101 143 185 230 279 347 421
#     4  10  22  43  69 105 140 180 228 285 352 422
#
# _framework density 25.467023999999999
#
# number of rings (size 3 to 8) (size 9 to 14) (size 15 to 20)
#    0.000    1.750    1.250    2.250    0.000    5.500 
#   15.750    0.000    0.000    0.000    0.000    0.000 
#    0.000    0.000    0.000    0.000    0.000    0.000 
#
# Total GULP energy -89163.815449 kJ/mol
# GULP energy per Si atom -5572.738466 kJ/mol
# Density = 2.540906 g / cm^3
# Si number density = 25.467024 Si / 1000 Ang^3
#
#
#
# Elastic Constant Matrix: (Units=GPa)
#
#
# Indices 1 2 3 4 5 6 
#
# 1 70.2710 21.3405 31.1546 4.0498 28.2169 -5.1825
# 2 21.3405 100.9656 55.7036 10.4417 22.1396 7.1367
# 3 31.1546 55.7036 124.2536 0.9170 54.1624 9.6782
# 4 4.0498 10.4417 0.9170 56.6683 9.1291 8.8858
# 5 28.2169 22.1396 54.1624 9.1291 41.0164 4.6086
# 6 -5.1825 7.1367 9.6782 8.8858 4.6086 27.9525
#
#
#
# Elastic Compliance Matrix: (Units=1/GPa)
#
#
# Indices 1 2 3 4 5 6 
#
# 1 0.021555 -0.003002 0.003798 0.001055 -0.019163 0.006272
# 2 -0.003002 0.014055 -0.007930 -0.002955 0.005767 -0.001411
# 3 0.003798 -0.007930 0.024915 0.006408 -0.032367 -0.002598
# 4 0.001055 -0.002955 0.006408 0.020811 -0.011553 -0.005980
# 5 -0.019163 0.005767 -0.032367 -0.011553 0.080140 -0.003359
# 6 0.006272 -0.001411 -0.002598 -0.005980 -0.003359 0.040652
#
#
# Mechanical properties :
#
#
# Convention : Reuss Voigt Hill
#
# Bulk Modulus (GPa) = 21.61843 56.87639 39.24741
# Shear Modulus (GPa) = 21.56901 37.61353 29.59127
#
# Velocity S-wave (km/s) = 2.91338 3.84728 3.41243
# Velocity P-wave (km/s) = 4.45244 6.48978 5.56514
#
# Compressibility (1/GPa) = 0.04625684
#
# Stress axis : x y z
#
# Youngs Moduli (GPa) = 46.39299 71.15028 40.13701
#
# Poissons Ratio (x) = 0.21358 -0.15245
# Poissons Ratio (y) = 0.13926 0.31829
# Poissons Ratio (z) = -0.17621 0.56423
#
# Static dielectric constant tensor:
#      x y z
#    x 2.094200 0.057770 -0.034990 
#    y 0.057770 2.016320 -0.091750 
#    z -0.034990 -0.091750 2.278560 
# 
# From -- ./inp_files/11135.got.cif
#   From: 2010.05.17/outbox.cif.g08.bks.cpg/sg2_6_cif.got.tgz:11135.got - 2010.06.03 11:33:40.
