data_PCOD9010202
_publ_section_title
;
Structure prediction by ZEFSAII (Michael W. Deem and Ramdas Pophale) SiO2 
 PCOD9010202
Probable space group: P -1
;
_chemical_formula_sum "Si O2"
_cell_formula_units_Z 14
_cell_length_a 22.510484
_cell_length_b 9.277387
_cell_length_c 13.894721
_cell_angle_alpha 28.864356
_cell_angle_beta 25.382921
_cell_angle_gamma 29.960317
_cell_volume 559.472496
_symmetry_space_group_name_H-M "P -1"
_symmetry_group_IT_number 2
_symmetry_cell_setting 'triclinic'
loop_
_space_group_symop_operation_xyz
x,y,z
-x,-y,-z
loop_
_atom_site_type_symbol
_atom_site_label
_atom_site_fract_x
_atom_site_fract_y
_atom_site_fract_z
Si Si1 0.312210 0.677387 0.712725
Si Si2 0.436067 0.371246 0.509169
Si Si3 0.759990 0.698315 0.645246
Si Si4 0.806510 0.052800 0.558910
Si Si5 0.051799 0.533644 0.188052
Si Si6 0.948034 0.827991 0.764153
Si Si7 0.610209 0.255574 0.058479
O O1 0.352216 0.460963 0.684414
O O2 0.416714 0.559342 0.719922
O O3 0.335394 0.998689 0.456535
O O4 0.140742 0.768065 0.937007
O O5 0.335902 0.624032 0.431064
O O6 0.460325 0.008977 0.657272
O O7 0.664018 0.473580 0.925761
O O8 0.913463 0.548611 0.447676
O O9 0.804453 0.845406 0.589092
O O10 0.946614 0.163943 0.306413
O O11 0.817059 0.803780 0.774394
O O12 0.020360 0.513762 0.132851
O O13 0.775463 0.021596 0.919888
O O14 0.000000 0.000000 0.500000
O O15 0.500000 0.500000 0.000000
#
# Coordination Sequence:
#
# PCOD9010202 Si02
#       7
#     2   2   2   2   2   2   2
#     4  10  21  40  62  91 126 164 213 255 317 377
#     4  10  22  39  61  94 124 168 208 258 315 383
#     4  11  22  40  66  96 124 163 215 267 306 375
#     4  10  23  40  64  95 130 160 212 260 319 373
#     4  11  21  40  68  92 123 169 211 262 314 374
#     4  10  21  40  65  93 125 167 212 254 316 377
#     4  12  22  39  67  91 124 168 211 256 312 377
#
# _framework density 25.023572999999999
#
# number of rings (size 3 to 8) (size 9 to 14) (size 15 to 20)
#    0.000    1.429    5.714    0.857    0.000    1.143 
#    0.000    2.857    0.000    5.143    0.000    0.000 
#    0.000    0.000    0.000    0.000    0.000    0.000 
#
# Total GULP energy -78094.846699 kJ/mol
# GULP energy per Si atom -5578.203336 kJ/mol
# Density = 2.496662 g / cm^3
# Si number density = 25.023573 Si / 1000 Ang^3
#
#
#
# Elastic Constant Matrix: (Units=GPa)
#
#
# Indices 1 2 3 4 5 6 
#
# 1 123.6318 32.1057 32.2779 5.4790 -26.6990 9.4751
# 2 32.1057 70.4415 8.5626 -3.2176 -11.8616 -1.1306
# 3 32.2779 8.5626 61.1644 0.8986 -32.1494 19.9228
# 4 5.4790 -3.2176 0.8986 41.8314 -6.5055 -11.3395
# 5 -26.6990 -11.8616 -32.1494 -6.5055 50.7716 -6.1504
# 6 9.4751 -1.1306 19.9228 -11.3395 -6.1504 27.4947
#
#
#
# Elastic Compliance Matrix: (Units=1/GPa)
#
#
# Indices 1 2 3 4 5 6 
#
# 1 0.010734 -0.004239 -0.003417 -0.001793 0.002058 -0.001677
# 2 -0.004239 0.016804 -0.000256 0.003406 0.002492 0.004300
# 3 -0.003417 -0.000256 0.033787 -0.003423 0.016552 -0.021024
# 4 -0.001793 0.003406 -0.003423 0.029373 0.003401 0.016113
# 5 0.002058 0.002492 0.016552 0.003401 0.031782 -0.004088
# 6 -0.001677 0.004300 -0.021024 0.016113 -0.004088 0.058090
#
#
# Mechanical properties :
#
#
# Convention : Reuss Voigt Hill
#
# Bulk Modulus (GPa) = 21.97816 44.57001 33.27408
# Shear Modulus (GPa) = 23.63385 36.17233 29.90309
#
# Velocity S-wave (km/s) = 3.07655 3.80614 3.46062
# Velocity P-wave (km/s) = 4.62842 6.09635 5.41238
#
# Compressibility (1/GPa) = 0.04549972
#
# Stress axis : x y z
#
# Youngs Moduli (GPa) = 93.16334 59.51099 29.59699
#
# Poissons Ratio (x) = 0.25228 0.10114
# Poissons Ratio (y) = 0.39494 0.00758
# Poissons Ratio (z) = 0.31835 0.01524
#
# Static dielectric constant tensor:
#      x y z
#    x 2.038830 0.046300 -0.087540 
#    y 0.046300 2.086630 -0.075660 
#    z -0.087540 -0.075660 2.074560 
# 
# From -- ./inp_files/540369.got.cif
#   From: 2010.05.17/outbox.cif.g08.bks.cpg/sg2_271_cif.got.tgz:540369.got - 2010.06.03 11:33:40.
