data_PCOD9010217
_publ_section_title
;
Structure prediction by ZEFSAII (Michael W. Deem and Ramdas Pophale) SiO2 
 PCOD9010217
Probable space group: P -1
;
_chemical_formula_sum "Si O2"
_cell_formula_units_Z 16
_cell_length_a 8.009483
_cell_length_b 13.471226
_cell_length_c 18.328739
_cell_angle_alpha 21.719374
_cell_angle_beta 96.964545
_cell_angle_gamma 87.628122
_cell_volume 659.489216
_symmetry_space_group_name_H-M "P -1"
_symmetry_group_IT_number 2
_symmetry_cell_setting 'triclinic'
loop_
_space_group_symop_operation_xyz
x,y,z
-x,-y,-z
loop_
_atom_site_type_symbol
_atom_site_label
_atom_site_fract_x
_atom_site_fract_y
_atom_site_fract_z
Si Si1 0.558902 0.071872 0.530963
Si Si2 0.908986 0.703556 0.968784
Si Si3 0.979124 0.916905 0.639506
Si Si4 0.507072 0.055912 0.695406
Si Si5 0.088633 0.055497 0.791730
Si Si6 0.487386 0.746548 0.055463
Si Si7 0.146310 0.569292 0.361105
Si Si8 0.104891 0.444455 0.762665
O O1 0.502531 0.420209 0.289367
O O2 0.500000 0.000000 0.500000
O O3 0.779773 0.922142 0.641289
O O4 0.471826 0.994720 0.651270
O O5 0.917036 0.599799 0.123180
O O6 0.895776 0.433882 0.106838
O O7 0.721605 0.994741 0.746723
O O8 0.077483 0.803124 0.910948
O O9 0.973827 0.197051 0.493232
O O10 0.000000 0.000000 0.500000
O O11 0.363011 0.388055 0.479889
O O12 0.498118 0.841876 0.905984
O O13 0.088379 0.321192 0.562058
O O14 0.274506 0.955459 0.918873
O O15 0.913680 0.181769 0.750693
O O16 0.671970 0.728606 0.118739
O O17 0.021560 0.663265 0.218550
#
# Coordination Sequence:
#
# PCOD9010217 Si02
#       8
#     2   2   2   2   2   2   2   2
#     4  11  23  38  62  93 125 164 208 256 311 376
#     4  10  21  40  62  92 120 161 211 258 299 382
#     4   9  20  38  62  89 124 160 198 256 310 364
#     4  10  24  42  59  90 131 162 209 256 317 369
#     4  10  22  40  65  90 124 160 216 260 312 369
#     4   9  21  43  60  91 125 164 205 263 311 373
#     4  10  23  42  61  90 125 170 202 263 320 363
#     4   9  20  39  63  86 129 162 200 255 319 368
#
# _framework density 24.261199000000001
#
# number of rings (size 3 to 8) (size 9 to 14) (size 15 to 20)
#    0.000    2.250    0.000    1.500    8.750    2.500 
#    4.500    0.000    0.000    0.000    0.000    0.000 
#    0.000    0.000    0.000    0.000    0.000    0.000 
#
# Total GULP energy -89202.702689 kJ/mol
# GULP energy per Si atom -5575.168918 kJ/mol
# Density = 2.420598 g / cm^3
# Si number density = 24.261199 Si / 1000 Ang^3
#
#
#
# Elastic Constant Matrix: (Units=GPa)
#
#
# Indices 1 2 3 4 5 6 
#
# 1 57.1205 17.3211 32.9267 0.6355 11.6688 -10.8888
# 2 17.3211 70.5967 32.5989 1.9652 17.5705 4.2195
# 3 32.9267 32.5989 91.8585 4.9907 13.2280 1.1519
# 4 0.6355 1.9652 4.9907 27.1606 6.7442 -0.3618
# 5 11.6688 17.5705 13.2280 6.7442 27.8878 -10.5902
# 6 -10.8888 4.2195 1.1519 -0.3618 -10.5902 29.3400
#
#
#
# Elastic Compliance Matrix: (Units=1/GPa)
#
#
# Indices 1 2 3 4 5 6 
#
# 1 0.025045 -0.002574 -0.007992 0.001674 -0.001941 0.009299
# 2 -0.002574 0.020761 -0.004489 0.002704 -0.013842 -0.008728
# 3 -0.007992 -0.004489 0.015829 -0.001869 -0.002329 -0.003805
# 4 0.001674 0.002704 -0.001869 0.040010 -0.012619 -0.003756
# 5 -0.001941 -0.013842 -0.002329 -0.012619 0.057948 0.022122
# 6 0.009299 -0.008728 -0.003805 -0.003756 0.022122 0.046877
#
#
# Mechanical properties :
#
#
# Convention : Reuss Voigt Hill
#
# Bulk Modulus (GPa) = 31.72158 42.80768 37.26463
# Shear Modulus (GPa) = 20.23570 25.99296 23.11433
#
# Velocity S-wave (km/s) = 2.89117 3.27674 3.08998
# Velocity P-wave (km/s) = 4.92428 5.65676 5.30318
#
# Compressibility (1/GPa) = 0.03152428
#
# Stress axis : x y z
#
# Youngs Moduli (GPa) = 39.92870 48.16758 63.17607
#
# Poissons Ratio (x) = 0.12397 0.50490
# Poissons Ratio (y) = 0.10277 0.28361
# Poissons Ratio (z) = 0.31911 0.21623
#
# Static dielectric constant tensor:
#      x y z
#    x 1.970700 -0.054560 0.059560 
#    y -0.054560 1.803200 -0.033670 
#    z 0.059560 -0.033670 1.961680 
# 
# From -- ./inp_files/590191.got.cif
#   From: 2010.05.17/outbox.cif.g08.bks.cpg/sg2_296_cif.got.tgz:590191.got - 2010.06.03 11:33:40.
