data_PCOD9010151
_publ_section_title
;
Structure prediction by ZEFSAII (Michael W. Deem and Ramdas Pophale) SiO2 
 PCOD9010151
Probable space group: P -1
;
_chemical_formula_sum "Si O2"
_cell_formula_units_Z 15
_cell_length_a 18.775755
_cell_length_b 14.104855
_cell_length_c 7.205334
_cell_angle_alpha 73.040351
_cell_angle_beta 70.629691
_cell_angle_gamma 19.606936
_cell_volume 602.777075
_symmetry_space_group_name_H-M "P -1"
_symmetry_group_IT_number 2
_symmetry_cell_setting 'triclinic'
loop_
_space_group_symop_operation_xyz
x,y,z
-x,-y,-z
loop_
_atom_site_type_symbol
_atom_site_label
_atom_site_fract_x
_atom_site_fract_y
_atom_site_fract_z
Si Si1 0.855348 0.294167 0.198373
Si Si2 0.727543 0.189158 0.400838
Si Si3 0.735803 0.313457 0.957088
Si Si4 0.362805 0.860696 0.734624
Si Si5 0.000000 0.000000 0.500000
Si Si6 0.987668 0.348509 0.059084
Si Si7 0.862417 0.693922 0.777516
Si Si8 0.649158 0.910410 0.464095
O O1 0.864569 0.397879 0.169623
O O2 0.781531 0.354680 0.021522
O O3 0.771947 0.335779 0.421258
O O4 0.088746 0.941194 0.204448
O O5 0.500000 0.500000 0.500000
O O6 0.746899 0.218745 0.164479
O O7 0.707453 0.098407 0.423890
O O8 0.919089 0.990802 0.477388
O O9 0.522266 0.596234 0.867788
O O10 0.445989 0.870547 0.657997
O O11 0.135123 0.142824 0.874927
O O12 0.152279 0.186023 0.165420
O O13 0.850988 0.613610 0.972146
O O14 0.692047 0.880134 0.660172
O O15 0.106674 0.400261 0.650547
O O16 0.500000 0.000000 0.500000
#
# Coordination Sequence:
#
# PCOD9010151 Si02
#       8
#     2   2   2   2   1   2   2   2
#     4  10  21  40  62  88 133 171 205 261 319 377
#     4  11  23  40  60  91 131 165 207 260 309 376
#     4  10  22  40  60  95 126 170 214 252 313 392
#     4  11  23  39  67  92 124 174 212 259 327 376
#     4  10  24  38  56  90 126 162 214 250 300 382
#     4  10  21  41  68  87 123 173 208 265 324 368
#     4   9  22  45  65  95 123 161 220 264 319 387
#     4  10  23  45  66  96 128 162 209 274 324 375
#
# _framework density 24.884823000000001
#
# number of rings (size 3 to 8) (size 9 to 14) (size 15 to 20)
#    0.000    1.867    1.333    1.200    5.600    0.000 
#    9.600    2.000    0.000    0.000    0.000    0.000 
#    0.000    0.000    0.000    0.000    0.000    0.000 
#
# Total GULP energy -83588.554529 kJ/mol
# GULP energy per Si atom -5572.570302 kJ/mol
# Density = 2.482818 g / cm^3
# Si number density = 24.884823 Si / 1000 Ang^3
#
#
#
# Elastic Constant Matrix: (Units=GPa)
#
#
# Indices 1 2 3 4 5 6 
#
# 1 215.2382 16.7245 45.3360 -10.6309 22.5594 -13.6859
# 2 16.7245 31.2716 4.7449 -0.7167 10.9283 -11.7111
# 3 45.3360 4.7449 89.1371 -17.6735 16.2524 -10.2227
# 4 -10.6309 -0.7167 -17.6735 31.6955 -0.7546 9.6722
# 5 22.5594 10.9283 16.2524 -0.7546 51.3285 -1.7490
# 6 -13.6859 -11.7111 -10.2227 9.6722 -1.7490 31.1289
#
#
#
# Elastic Compliance Matrix: (Units=1/GPa)
#
#
# Indices 1 2 3 4 5 6 
#
# 1 0.005470 -0.001826 -0.002320 0.000221 -0.001250 0.000818
# 2 -0.001826 0.041438 0.001191 -0.004083 -0.007912 0.016002
# 3 -0.002320 0.001191 0.014552 0.006689 -0.003678 0.001922
# 4 0.000221 -0.004083 0.006689 0.038692 -0.001163 -0.011329
# 5 -0.001250 -0.007912 -0.003678 -0.001163 0.022758 -0.003094
# 6 0.000818 0.016002 0.001922 -0.011329 -0.003094 0.042482
#
#
# Mechanical properties :
#
#
# Convention : Reuss Voigt Hill
#
# Bulk Modulus (GPa) = 18.00118 52.13975 35.07047
# Shear Modulus (GPa) = 26.34106 40.75332 33.54719
#
# Velocity S-wave (km/s) = 3.25702 4.05121 3.67563
# Velocity P-wave (km/s) = 4.62534 6.54836 5.66898
#
# Compressibility (1/GPa) = 0.05555191
#
# Stress axis : x y z
#
# Youngs Moduli (GPa) = 182.80308 24.13270 68.71704
#
# Poissons Ratio (x) = 0.04406 0.15940
# Poissons Ratio (y) = 0.33372 -0.08184
# Poissons Ratio (z) = 0.42404 -0.02874
#
# Static dielectric constant tensor:
#      x y z
#    x 2.014990 -0.034940 -0.963150 
#    y -0.034940 1.838780 -2.051710 
#    z -0.963150 -2.051710 -29.418110 
# 
# From -- ./inp_files/303053.got.cif
#   From: 2010.05.17/outbox.cif.g08.bks.cpg/sg2_152_cif.got.tgz:303053.got - 2010.06.03 11:33:40.
