data_PCOD9010210
_publ_section_title
;
Structure prediction by ZEFSAII (Michael W. Deem and Ramdas Pophale) SiO2 
 PCOD9010210
Probable space group: P -1
;
_chemical_formula_sum "Si O2"
_cell_formula_units_Z 16
_cell_length_a 11.556499
_cell_length_b 11.785828
_cell_length_c 9.866855
_cell_angle_alpha 28.384359
_cell_angle_beta 111.719917
_cell_angle_gamma 105.473541
_cell_volume 588.227518
_symmetry_space_group_name_H-M "P -1"
_symmetry_group_IT_number 2
_symmetry_cell_setting 'triclinic'
loop_
_space_group_symop_operation_xyz
x,y,z
-x,-y,-z
loop_
_atom_site_type_symbol
_atom_site_label
_atom_site_fract_x
_atom_site_fract_y
_atom_site_fract_z
Si Si1 0.559206 0.604665 0.637646
Si Si2 0.696306 0.231256 0.703907
Si Si3 0.757953 0.856690 0.337238
Si Si4 0.019482 0.582757 0.769931
Si Si5 0.233339 0.034083 0.234766
Si Si6 0.851162 0.061563 0.423893
Si Si7 0.489208 0.118798 0.222105
Si Si8 0.021111 0.709851 0.187282
O O1 0.432830 0.602913 0.495817
O O2 0.690443 0.631213 0.593873
O O3 0.558316 0.357292 0.982657
O O4 0.532341 0.880948 0.397821
O O5 0.831698 0.283114 0.757567
O O6 0.710096 0.204146 0.574746
O O7 0.688790 0.985962 0.043930
O O8 0.903890 0.763381 0.470656
O O9 0.774208 0.038371 0.278485
O O10 0.140570 0.710138 0.713859
O O11 0.018507 0.364445 0.900600
O O12 0.000000 0.500000 0.000000
O O13 0.337707 0.199840 0.057452
O O14 0.221504 0.071396 0.352244
O O15 0.093527 0.078534 0.060889
O O16 0.000000 0.000000 0.500000
O O17 0.500000 0.000000 0.500000
O O18 0.000000 0.500000 0.500000
#
# Coordination Sequence:
#
# PCOD9010210 Si02
#       8
#     2   2   2   2   2   2   2   2
#     4  11  26  47  72 107 146 194 250 306 365 441
#     4  11  24  44  67 101 145 196 250 302 366 446
#     4  11  23  44  69  99 143 199 244 304 373 440
#     4  11  23  38  62 100 137 179 239 302 363 434
#     4  11  23  42  66  96 140 189 237 301 365 432
#     4  10  21  40  62  91 131 176 232 292 356 427
#     4  11  25  46  73 107 146 193 249 305 370 443
#     4  12  22  37  64  99 137 186 238 300 367 435
#
# _framework density 27.200358999999999
#
# number of rings (size 3 to 8) (size 9 to 14) (size 15 to 20)
#    0.000    1.000    0.000    7.875    0.000    5.000 
#    0.000    3.750    0.000    0.000    0.000    0.000 
#    0.000    0.000    0.000    0.000    0.000    0.000 
#
# Total GULP energy -89153.298449 kJ/mol
# GULP energy per Si atom -5572.081153 kJ/mol
# Density = 2.713845 g / cm^3
# Si number density = 27.200359 Si / 1000 Ang^3
#
#
#
# Elastic Constant Matrix: (Units=GPa)
#
#
# Indices 1 2 3 4 5 6 
#
# 1 133.8919 39.9092 25.3128 -3.0361 -15.0356 26.1812
# 2 39.9092 99.0969 16.0042 13.2330 -11.2574 -1.3631
# 3 25.3128 16.0042 119.2885 5.6083 -17.9800 2.5342
# 4 -3.0361 13.2330 5.6083 45.7457 4.0688 -9.4389
# 5 -15.0356 -11.2574 -17.9800 4.0688 50.2776 -2.9943
# 6 26.1812 -1.3631 2.5342 -9.4389 -2.9943 43.9978
#
#
#
# Elastic Compliance Matrix: (Units=1/GPa)
#
#
# Indices 1 2 3 4 5 6 
#
# 1 0.010200 -0.003910 -0.001351 0.000644 0.001289 -0.005887
# 2 -0.003910 0.012451 -0.000437 -0.003540 0.001874 0.002106
# 3 -0.001351 -0.000437 0.009226 -0.001318 0.002915 0.000175
# 4 0.000644 -0.003540 -0.001318 0.024284 -0.002762 0.004605
# 5 0.001289 0.001874 0.002915 -0.002762 0.021962 0.000025
# 6 -0.005887 0.002106 0.000175 0.004605 0.000025 0.027276
#
#
# Mechanical properties :
#
#
# Convention : Reuss Voigt Hill
#
# Bulk Modulus (GPa) = 48.82404 57.19219 53.00811
# Shear Modulus (GPa) = 40.44596 46.07431 43.26013
#
# Velocity S-wave (km/s) = 3.86030 4.12015 3.99234
# Velocity P-wave (km/s) = 6.15288 6.61106 6.38608
#
# Compressibility (1/GPa) = 0.02048171
#
# Stress axis : x y z
#
# Youngs Moduli (GPa) = 98.03780 80.31472 108.39185
#
# Poissons Ratio (x) = 0.31406 0.14641
# Poissons Ratio (y) = 0.38336 0.04731
# Poissons Ratio (z) = 0.13243 0.03506
#
# Static dielectric constant tensor:
#      x y z
#    x 2.075430 -0.079200 0.166830 
#    y -0.079200 2.169280 -0.073870 
#    z 0.166830 -0.073870 2.160350 
# 
# From -- ./inp_files/256019.got.cif
#   From: 2010.05.17/outbox.cif.g08.bks.cpg/sg2_129_cif.got.tgz:256019.got - 2010.06.03 11:33:40.
