data_PCOD9010906
_publ_section_title
;
Structure prediction by ZEFSAII (Michael W. Deem and Ramdas Pophale) SiO2 
 PCOD9010906
Probable space group: P -1
;
_chemical_formula_sum "Si O2"
_cell_formula_units_Z 16
_cell_length_a 18.554425
_cell_length_b 9.184313
_cell_length_c 12.486797
_cell_angle_alpha 134.234433
_cell_angle_beta 140.830187
_cell_angle_gamma 38.727755
_cell_volume 817.333070
_symmetry_space_group_name_H-M "P -1"
_symmetry_group_IT_number 2
_symmetry_cell_setting 'triclinic'
loop_
_space_group_symop_operation_xyz
x,y,z
-x,-y,-z
loop_
_atom_site_type_symbol
_atom_site_label
_atom_site_fract_x
_atom_site_fract_y
_atom_site_fract_z
Si Si1 0.115551 0.830393 0.677989
Si Si2 0.412478 0.778918 0.532136
Si Si3 0.524862 0.047168 0.934375
Si Si4 0.163803 0.193189 0.787858
Si Si5 0.103618 0.391504 0.349623
Si Si6 0.374311 0.965050 0.348404
Si Si7 0.133551 0.110710 0.465368
Si Si8 0.384362 0.592153 0.000901
O O1 0.127722 0.606003 0.513733
O O2 0.987066 0.922257 0.654652
O O3 0.116213 0.022713 0.697777
O O4 0.243388 0.718598 0.844370
O O5 0.500000 0.500000 0.500000
O O6 0.473711 0.925385 0.730216
O O7 0.394957 0.833743 0.416099
O O8 0.269051 0.871184 0.467042
O O9 0.430393 0.335158 0.970662
O O10 0.500000 0.000000 0.000000
O O11 0.687335 0.919103 0.048722
O O12 0.169327 0.183820 0.658556
O O13 0.043029 0.470879 0.806096
O O14 0.225982 0.202626 0.318245
O O15 0.102400 0.278664 0.408695
O O16 0.500000 0.000000 0.500000
O O17 0.382371 0.789299 0.175613
O O18 0.500000 0.500000 0.000000
#
# Coordination Sequence:
#
# PCOD9010906 Si02
#       8
#     2   2   2   2   2   2   2   2
#     4  11  22  38  67  94 129 171 219 268 315 391
#     4  11  24  44  63  98 131 170 218 266 332 381
#     4  12  24  40  69  97 131 172 222 271 312 388
#     4  11  22  38  66  99 128 171 219 264 322 382
#     4  10  22  42  63  97 131 169 216 265 330 384
#     4  11  25  42  67  91 131 176 208 272 330 381
#     4  10  21  40  64  95 130 172 214 265 323 383
#     4  12  24  44  65  98 128 165 224 265 324 390
#
# _framework density 19.575862999999998
#
# number of rings (size 3 to 8) (size 9 to 14) (size 15 to 20)
#    0.000    1.000    2.500    6.750    1.750    1.000 
#    2.250    1.875    0.000    0.000    0.000    0.000 
#    0.000    0.000    0.000    0.000    0.000    0.000 
#
# Total GULP energy -89173.593034 kJ/mol
# GULP energy per Si atom -5573.349565 kJ/mol
# Density = 1.953131 g / cm^3
# Si number density = 19.575863 Si / 1000 Ang^3
#
#
#
# Elastic Constant Matrix: (Units=GPa)
#
#
# Indices 1 2 3 4 5 6 
#
# 1 119.6575 63.2399 33.8144 8.9074 1.8402 -26.9094
# 2 63.2399 172.9589 49.2183 2.0480 1.6016 -21.4416
# 3 33.8144 49.2183 102.1464 -5.2790 0.5464 -23.2487
# 4 8.9074 2.0480 -5.2790 32.1243 -4.4623 4.9877
# 5 1.8402 1.6016 0.5464 -4.4623 26.4102 -2.7232
# 6 -26.9094 -21.4416 -23.2487 4.9877 -2.7232 42.2636
#
#
#
# Elastic Compliance Matrix: (Units=1/GPa)
#
#
# Indices 1 2 3 4 5 6 
#
# 1 0.012098 -0.003268 -0.001337 -0.004368 -0.000760 0.005776
# 2 -0.003268 0.007764 -0.002561 -0.000102 -0.000161 0.000451
# 3 -0.001337 -0.002561 0.012613 0.002003 0.000801 0.004603
# 4 -0.004368 -0.000102 0.002003 0.034282 0.005502 -0.005422
# 5 -0.000760 -0.000161 0.000801 0.005502 0.039019 0.001740
# 6 0.005776 0.000451 0.004603 -0.005422 0.001740 0.030851
#
#
# Mechanical properties :
#
#
# Convention : Reuss Voigt Hill
#
# Bulk Modulus (GPa) = 55.11826 76.36756 65.74291
# Shear Modulus (GPa) = 31.84534 36.72564 34.28549
#
# Velocity S-wave (km/s) = 4.03769 4.33606 4.18953
# Velocity P-wave (km/s) = 7.06786 8.01026 7.55377
#
# Compressibility (1/GPa) = 0.01814281
#
# Stress axis : x y z
#
# Youngs Moduli (GPa) = 82.65754 128.79909 79.28067
#
# Poissons Ratio (x) = 0.42094 0.10602
# Poissons Ratio (y) = 0.27014 0.20303
# Poissons Ratio (z) = 0.11054 0.32984
#
# Static dielectric constant tensor:
#      x y z
#    x 1.771570 -0.141910 0.033950 
#    y -0.141910 1.876550 -0.047470 
#    z 0.033950 -0.047470 1.665980 
# 
# From -- ./inp_files/462591.got.cif
#   From: 2010.05.17/outbox.cif.g08.bks.cpg/sg2_232_cif.got.tgz:462591.got - 2010.06.03 11:33:40.
