data_PCOD9010106
_publ_section_title
;
Structure prediction by ZEFSAII (Michael W. Deem and Ramdas Pophale) SiO2 
 PCOD9010106
Probable space group: P -1
;
_chemical_formula_sum "Si O2"
_cell_formula_units_Z 14
_cell_length_a 9.268746
_cell_length_b 15.809419
_cell_length_c 16.087274
_cell_angle_alpha 155.596663
_cell_angle_beta 52.015493
_cell_angle_gamma 112.269485
_cell_volume 637.349115
_symmetry_space_group_name_H-M "P -1"
_symmetry_group_IT_number 2
_symmetry_cell_setting 'triclinic'
loop_
_space_group_symop_operation_xyz
x,y,z
-x,-y,-z
loop_
_atom_site_type_symbol
_atom_site_label
_atom_site_fract_x
_atom_site_fract_y
_atom_site_fract_z
Si Si1 0.208777 0.010941 0.957197
Si Si2 0.158082 0.127870 0.479593
Si Si3 0.315812 0.733197 0.826700
Si Si4 0.671340 0.691217 0.916720
Si Si5 0.502919 0.536344 0.319748
Si Si6 0.982648 0.238694 0.821689
Si Si7 0.958912 0.625559 0.908563
O O1 0.255662 0.961939 0.994985
O O2 0.400191 0.782362 0.629721
O O3 0.197290 0.246617 0.138454
O O4 0.000000 0.000000 0.000000
O O5 0.069143 0.246515 0.708209
O O6 0.109402 0.335246 0.616617
O O7 0.026010 0.003694 0.391275
O O8 0.413718 0.912135 0.204806
O O9 0.500000 0.500000 0.500000
O O10 0.419593 0.685200 0.838569
O O11 0.106702 0.713565 0.894802
O O12 0.669449 0.459376 0.677621
O O13 0.772210 0.671185 0.952748
O O14 0.726280 0.459687 0.125476
O O15 0.114038 0.242663 0.857773
#
# Coordination Sequence:
#
# PCOD9010106 Si02
#       7
#     2   2   2   2   2   2   2
#     4  11  21  38  57  84 120 150 191 245 289 337
#     4  10  21  40  62  86 119 153 194 238 293 348
#     4   9  18  37  57  77 113 155 189 236 290 336
#     4  11  23  38  59  91 116 151 201 240 284 352
#     4   9  21  39  59  83 116 151 196 242 288 347
#     4   9  20  40  62  85 117 155 190 238 296 348
#     4  11  21  37  59  86 118 153 195 240 291 341
#
# _framework density 21.965983999999999
#
# number of rings (size 3 to 8) (size 9 to 14) (size 15 to 20)
#    0.000    2.000    1.429    3.000    0.000    2.857 
#    2.571    6.429    0.000    0.000    0.000    0.000 
#    0.000    0.000    0.000    0.000    0.000    0.000 
#
# Total GULP energy -78199.004710 kJ/mol
# GULP energy per Si atom -5585.643194 kJ/mol
# Density = 2.191599 g / cm^3
# Si number density = 21.965984 Si / 1000 Ang^3
#
#
#
# Elastic Constant Matrix: (Units=GPa)
#
#
# Indices 1 2 3 4 5 6 
#
# 1 148.2855 25.1271 2.8868 4.5074 11.5013 -18.9031
# 2 25.1271 78.4202 8.9343 -5.1532 6.4042 -1.9845
# 3 2.8868 8.9343 47.8353 -12.9658 5.2429 -8.1597
# 4 4.5074 -5.1532 -12.9658 29.1867 -1.8686 1.9843
# 5 11.5013 6.4042 5.2429 -1.8686 21.9746 0.7307
# 6 -18.9031 -1.9845 -8.1597 1.9843 0.7307 30.6751
#
#
#
# Elastic Compliance Matrix: (Units=1/GPa)
#
#
# Indices 1 2 3 4 5 6 
#
# 1 0.008189 -0.002370 0.000776 -0.001964 -0.004125 0.005325
# 2 -0.002370 0.014005 -0.001903 0.001930 -0.002185 -0.001133
# 3 0.000776 -0.001903 0.025689 0.010162 -0.005338 0.006658
# 4 -0.001964 0.001930 0.010162 0.039579 0.001439 -0.000977
# 5 -0.004125 -0.002185 -0.005338 0.001439 0.049878 -0.005384
# 6 0.005325 -0.001133 0.006658 -0.000977 -0.005384 0.037770
#
#
# Mechanical properties :
#
#
# Convention : Reuss Voigt Hill
#
# Bulk Modulus (GPa) = 24.45664 38.71526 31.58595
# Shear Modulus (GPa) = 25.54518 32.20681 28.87599
#
# Velocity S-wave (km/s) = 3.41389 3.83327 3.62964
# Velocity P-wave (km/s) = 5.16697 6.10371 5.65477
#
# Compressibility (1/GPa) = 0.04088868
#
# Stress axis : x y z
#
# Youngs Moduli (GPa) = 122.12165 71.40532 38.92746
#
# Poissons Ratio (x) = 0.16921 -0.03022
# Poissons Ratio (y) = 0.28939 0.07409
# Poissons Ratio (z) = -0.09481 0.13591
#
# Static dielectric constant tensor:
#      x y z
#    x 1.821170 0.004410 0.015320 
#    y 0.004410 1.820710 0.030610 
#    z 0.015320 0.030610 1.831440 
# 
# From -- ./inp_files/180864.got.cif
#   From: 2010.05.17/outbox.cif.g08.bks.cpg/sg2_91_cif.got.tgz:180864.got - 2010.06.03 11:33:40.
