data_PCOD9010945
_publ_section_title
;
Structure prediction by ZEFSAII (Michael W. Deem and Ramdas Pophale) SiO2 
 PCOD9010945
Probable space group: P -1
;
_chemical_formula_sum "Si O2"
_cell_formula_units_Z 15
_cell_length_a 17.567323
_cell_length_b 15.291803
_cell_length_c 6.372228
_cell_angle_alpha 57.288403
_cell_angle_beta 130.682004
_cell_angle_gamma 150.677058
_cell_volume 633.936317
_symmetry_space_group_name_H-M "P -1"
_symmetry_group_IT_number 2
_symmetry_cell_setting 'triclinic'
loop_
_space_group_symop_operation_xyz
x,y,z
-x,-y,-z
loop_
_atom_site_type_symbol
_atom_site_label
_atom_site_fract_x
_atom_site_fract_y
_atom_site_fract_z
Si Si1 0.712421 0.338068 0.519233
Si Si2 0.333628 0.331245 0.171793
Si Si3 0.186191 0.352185 0.566681
Si Si4 0.615304 0.440783 0.715972
Si Si5 0.703982 0.173085 0.080318
Si Si6 0.878478 0.965636 0.479332
Si Si7 0.601852 0.895072 0.000828
Si Si8 0.000000 0.500000 0.500000
O O1 0.750690 0.492405 0.406460
O O2 0.848224 0.406839 0.510891
O O3 0.738842 0.303481 0.831111
O O4 0.511574 0.157565 0.325488
O O5 0.480167 0.367587 0.393336
O O6 0.392494 0.482613 0.211113
O O7 0.187167 0.158280 0.283155
O O8 0.283535 0.331435 0.855352
O O9 0.206684 0.396252 0.299722
O O10 0.993161 0.156503 0.524104
O O11 0.548963 0.275546 0.892203
O O12 0.849687 0.302406 0.352721
O O13 0.711905 0.078341 0.067620
O O14 0.500000 0.000000 0.000000
O O15 0.718933 0.891182 0.178637
O O16 0.000000 0.000000 0.500000
#
# Coordination Sequence:
#
# PCOD9010945 Si02
#       8
#     2   2   2   2   2   2   2   1
#     4  12  27  48  77 111 148 198 253 317 380 460
#     4  10  21  40  64  96 140 189 238 300 360 431
#     4  12  23  40  69 103 136 191 245 298 372 434
#     4  10  21  40  68  98 140 182 246 299 358 439
#     4  12  26  52  80 114 152 196 253 316 388 454
#     4  11  24  43  67 102 149 193 245 309 362 443
#     4  11  24  48  72 108 147 197 247 305 380 448
#     4  12  28  50  78 104 154 190 254 316 380 442
#
# _framework density 23.661683
#
# number of rings (size 3 to 8) (size 9 to 14) (size 15 to 20)
#    0.000    0.800    4.000    3.200    0.000    1.067 
#    2.400    1.333    0.000    0.000    0.000    0.000 
#    0.000    0.000    0.000    0.000    0.000    0.000 
#
# Total GULP energy -83523.673261 kJ/mol
# GULP energy per Si atom -5568.244884 kJ/mol
# Density = 2.360783 g / cm^3
# Si number density = 23.661683 Si / 1000 Ang^3
#
#
#
# Elastic Constant Matrix: (Units=GPa)
#
#
# Indices 1 2 3 4 5 6 
#
# 1 80.1215 6.4913 0.7537 5.0877 4.7303 0.3820
# 2 6.4913 126.0729 8.3802 9.4957 0.9449 -13.2504
# 3 0.7537 8.3802 32.2464 -1.5279 9.5383 -0.5187
# 4 5.0877 9.4957 -1.5279 47.7954 -2.8654 -6.1124
# 5 4.7303 0.9449 9.5383 -2.8654 17.7491 5.6001
# 6 0.3820 -13.2504 -0.5187 -6.1124 5.6001 39.5076
#
#
#
# Elastic Compliance Matrix: (Units=1/GPa)
#
#
# Indices 1 2 3 4 5 6 
#
# 1 0.012859 -0.000582 0.001026 -0.001464 -0.004204 0.000063
# 2 -0.000582 0.008487 -0.002158 -0.001367 -0.000191 0.002639
# 3 0.001026 -0.002158 0.037942 0.000621 -0.021359 0.002888
# 4 -0.001464 -0.001367 0.000621 0.021866 0.002857 0.002542
# 5 -0.004204 -0.000191 -0.021359 0.002857 0.072615 -0.010155
# 6 0.000063 0.002639 0.002888 0.002542 -0.010155 0.028067
#
#
# Mechanical properties :
#
#
# Convention : Reuss Voigt Hill
#
# Bulk Modulus (GPa) = 17.90180 29.96567 23.93373
# Shear Modulus (GPa) = 24.52365 35.86479 30.19422
#
# Velocity S-wave (km/s) = 3.22285 3.89747 3.57610
# Velocity P-wave (km/s) = 4.62939 5.73980 5.21424
#
# Compressibility (1/GPa) = 0.05586030
#
# Stress axis : x y z
#
# Youngs Moduli (GPa) = 77.76405 117.82574 26.35604
#
# Poissons Ratio (x) = 0.06855 -0.02703
# Poissons Ratio (y) = 0.04525 0.05688
# Poissons Ratio (z) = -0.07977 0.25427
#
# Static dielectric constant tensor:
#      x y z
#    x 1.928340 0.029840 0.032460 
#    y 0.029840 1.903410 0.058110 
#    z 0.032460 0.058110 1.941920 
# 
# From -- ./inp_files/110696.got.cif
#   From: 2010.05.17/outbox.cif.g08.bks.cpg/sg2_56_cif.got.tgz:110696.got - 2010.06.03 11:33:40.
