data_PCOD9010765
_publ_section_title
;
Structure prediction by ZEFSAII (Michael W. Deem and Ramdas Pophale) SiO2 
 PCOD9010765
Probable space group: P -1
;
_chemical_formula_sum "Si O2"
_cell_formula_units_Z 16
_cell_length_a 22.620883
_cell_length_b 18.916717
_cell_length_c 6.982056
_cell_angle_alpha 60.613280
_cell_angle_beta 45.899080
_cell_angle_gamma 24.639659
_cell_volume 787.706018
_symmetry_space_group_name_H-M "P -1"
_symmetry_group_IT_number 2
_symmetry_cell_setting 'triclinic'
loop_
_space_group_symop_operation_xyz
x,y,z
-x,-y,-z
loop_
_atom_site_type_symbol
_atom_site_label
_atom_site_fract_x
_atom_site_fract_y
_atom_site_fract_z
Si Si1 0.496313 0.552775 0.632524
Si Si2 0.525294 0.715233 0.376331
Si Si3 0.780854 0.670692 0.318031
Si Si4 0.194414 0.524134 0.267430
Si Si5 0.769955 0.219185 0.719926
Si Si6 0.470256 0.023214 0.810053
Si Si7 0.258071 0.043410 0.259328
Si Si8 0.538102 0.263396 0.075659
O O1 0.500000 0.500000 0.500000
O O2 0.474905 0.667455 0.496735
O O3 0.694663 0.356847 0.564976
O O4 0.321257 0.682773 0.995859
O O5 0.524991 0.714713 0.605311
O O6 0.361761 0.919517 0.383796
O O7 0.723386 0.558899 0.022953
O O8 0.783197 0.581229 0.532005
O O9 0.673977 0.826286 0.503007
O O10 0.646600 0.798507 0.260845
O O11 0.000000 0.500000 0.000000
O O12 0.343067 0.450493 0.141716
O O13 0.973125 0.749605 0.474836
O O14 0.660937 0.235090 0.871017
O O15 0.000000 0.000000 0.500000
O O16 0.500000 0.000000 0.000000
O O17 0.338438 0.061467 0.014544
O O18 0.333437 0.916000 0.093223
#
# Coordination Sequence:
#
# PCOD9010765 Si02
#       8
#     2   2   2   2   2   2   2   2
#     4  10  21  40  64  91 126 165 204 261 313 369
#     4  10  23  40  61  92 128 162 208 258 314 372
#     4  11  23  44  65  93 124 166 211 258 319 372
#     4  11  23  42  63  92 127 165 214 257 313 378
#     4  10  23  41  66  96 126 164 217 256 313 377
#     4  11  25  43  66  91 127 162 210 265 313 374
#     4  11  23  42  62  93 124 167 212 259 314 375
#     4  10  23  43  64  89 130 169 204 265 313 371
#
# _framework density 20.312147
#
# number of rings (size 3 to 8) (size 9 to 14) (size 15 to 20)
#    0.000    1.500    3.750    1.500    1.750    8.000 
#    2.250    0.000    0.000    0.000    0.000    0.000 
#    0.000    0.000    0.000    0.000    0.000    0.000 
#
# Total GULP energy -89424.619867 kJ/mol
# GULP energy per Si atom -5589.038742 kJ/mol
# Density = 2.026592 g / cm^3
# Si number density = 20.312147 Si / 1000 Ang^3
#
#
#
# Elastic Constant Matrix: (Units=GPa)
#
#
# Indices 1 2 3 4 5 6 
#
# 1 47.5144 -4.8106 18.2547 14.2427 4.0244 -3.6127
# 2 -4.8106 85.9956 48.6714 30.3081 1.0840 -8.1214
# 3 18.2547 48.6714 102.1054 20.2129 9.4119 -26.8642
# 4 14.2427 30.3081 20.2129 53.0675 -2.1242 -9.3694
# 5 4.0244 1.0840 9.4119 -2.1242 39.7778 -11.7950
# 6 -3.6127 -8.1214 -26.8642 -9.3694 -11.7950 21.2829
#
#
#
# Elastic Compliance Matrix: (Units=1/GPa)
#
#
# Indices 1 2 3 4 5 6 
#
# 1 0.029746 0.011299 -0.011198 -0.012734 -0.005296 -0.013315
# 2 0.011299 0.023935 -0.014316 -0.014092 -0.003688 -0.015267
# 3 -0.011198 -0.014316 0.024475 0.007244 0.004836 0.029399
# 4 -0.012734 -0.014092 0.007244 0.031287 0.007406 0.019482
# 5 -0.005296 -0.003688 0.004836 0.007406 0.032453 0.025044
# 6 -0.013315 -0.015267 0.029399 0.019482 0.025044 0.098465
#
#
# Mechanical properties :
#
#
# Convention : Reuss Voigt Hill
#
# Bulk Modulus (GPa) = 20.11054 39.98292 30.04673
# Shear Modulus (GPa) = 17.52127 34.39231 25.95679
#
# Velocity S-wave (km/s) = 2.94019 4.11930 3.57864
# Velocity P-wave (km/s) = 4.63126 6.50783 5.64803
#
# Compressibility (1/GPa) = 0.04972516
#
# Stress axis : x y z
#
# Youngs Moduli (GPa) = 33.61807 41.78039 40.85746
#
# Poissons Ratio (x) = -0.47209 0.45754
# Poissons Ratio (y) = -0.37986 0.58493
# Poissons Ratio (z) = 0.37647 0.59814
#
# Static dielectric constant tensor:
#      x y z
#    x 1.737900 0.018440 -0.004900 
#    y 0.018440 1.726850 -0.034450 
#    z -0.004900 -0.034450 1.718110 
# 
# From -- ./inp_files/125003.got.cif
#   From: 2010.05.17/outbox.cif.g08.bks.cpg/sg2_63_cif.got.tgz:125003.got - 2010.06.03 11:33:40.
