data_PCOD9010157
_publ_section_title
;
Structure prediction by ZEFSAII (Michael W. Deem and Ramdas Pophale) SiO2 
 PCOD9010157
Probable space group: P -1
;
_chemical_formula_sum "Si O2"
_cell_formula_units_Z 12
_cell_length_a 7.322040
_cell_length_b 17.231994
_cell_length_c 19.068828
_cell_angle_alpha 163.398548
_cell_angle_beta 42.440318
_cell_angle_gamma 131.248585
_cell_volume 449.346769
_symmetry_space_group_name_H-M "P -1"
_symmetry_group_IT_number 2
_symmetry_cell_setting 'triclinic'
loop_
_space_group_symop_operation_xyz
x,y,z
-x,-y,-z
loop_
_atom_site_type_symbol
_atom_site_label
_atom_site_fract_x
_atom_site_fract_y
_atom_site_fract_z
Si Si1 0.803741 0.746554 0.726731
Si Si2 0.603111 0.757711 0.648504
Si Si3 0.221534 0.787297 0.204434
Si Si4 0.836226 0.135908 0.388533
Si Si5 0.158247 0.335966 0.920969
Si Si6 0.597435 0.711849 0.455703
O O1 0.408180 0.056207 0.989183
O O2 0.978103 0.941461 0.803875
O O3 0.000000 0.500000 0.500000
O O4 0.669708 0.619268 0.587470
O O5 0.506509 0.683205 0.535368
O O6 0.922629 0.782653 0.563600
O O7 0.024983 0.741936 0.157637
O O8 0.342025 0.513621 0.981531
O O9 0.000000 0.000000 0.500000
O O10 0.432104 0.960096 0.266709
O O11 0.580834 0.366252 0.626212
O O12 0.723234 0.922928 0.285520
O O13 0.915407 0.541583 0.212093
#
# Coordination Sequence:
#
# PCOD9010157 Si02
#       6
#     2   2   2   2   2   2
#     4   9  20  39  63  85 124 162 197 254 299 350
#     4   9  21  40  58  87 127 151 202 255 289 352
#     4   9  19  40  64  88 124 160 192 251 302 348
#     4  10  22  37  62  91 117 160 207 240 298 366
#     4  10  21  40  62  89 126 154 201 252 292 362
#     4  11  22  38  65  89 121 162 199 245 305 355
#
# _framework density 26.705434
#
# number of rings (size 3 to 8) (size 9 to 14) (size 15 to 20)
#    1.000    1.333    1.667    0.000    2.333    2.667 
#    3.000    9.167    0.000    0.000    0.000    0.000 
#    0.000    0.000    0.000    0.000    0.000    0.000 
#
# Total GULP energy -66891.757117 kJ/mol
# GULP energy per Si atom -5574.313093 kJ/mol
# Density = 2.664465 g / cm^3
# Si number density = 26.705434 Si / 1000 Ang^3
#
#
#
# Elastic Constant Matrix: (Units=GPa)
#
#
# Indices 1 2 3 4 5 6 
#
# 1 55.8018 17.1834 177.4741 93.2210 46.3882 91.9673
# 2 17.1834 134.6117 88.2043 65.6091 17.7579 3.6585
# 3 177.4741 88.2043 -182.1219 -160.0776 -116.8711 -267.9163
# 4 93.2210 65.6091 -160.0776 -58.7276 -85.6036 -164.0549
# 5 46.3882 17.7579 -116.8711 -85.6036 -5.1638 -104.7188
# 6 91.9673 3.6585 -267.9163 -164.0549 -104.7188 -175.1399
#
#
#
# Elastic Compliance Matrix: (Units=1/GPa)
#
#
# Indices 1 2 3 4 5 6 
#
# 1 0.011038 -0.001261 -0.002978 0.002364 0.003726 0.005883
# 2 -0.001261 0.011246 -0.001367 -0.005840 -0.000937 0.007694
# 3 -0.002978 -0.001367 0.009190 -0.006957 -0.005493 -0.005850
# 4 0.002364 -0.005840 -0.006957 0.020481 0.002731 -0.009056
# 5 0.003726 -0.000937 -0.005493 0.002731 0.021767 -0.005233
# 6 0.005883 0.007694 -0.005850 -0.009056 -0.005233 0.018100
#
#
# Mechanical properties :
#
#
# Convention : Reuss Voigt Hill
#
# Bulk Modulus (GPa) = 49.35578 63.77945 56.56761
# Shear Modulus (GPa) = 45.54190 -66.11094 -10.28452
#
# Velocity S-wave (km/s) = 4.13406 -4.98090 -1.96455
# Velocity P-wave (km/s) = 6.42720 3.02402 4.01025
#
# Compressibility (1/GPa) = 0.02026105
#
# Stress axis : x y z
#
# Youngs Moduli (GPa) = 90.59758 88.91778 108.81386
#
# Poissons Ratio (x) = 0.11216 0.32405
# Poissons Ratio (y) = 0.11428 0.14877
# Poissons Ratio (z) = 0.26980 0.12156
#
# Static dielectric constant tensor:
#      x y z
#    x 2.078830 0.120070 0.055080 
#    y 0.120070 2.236970 0.145100 
#    z 0.055080 0.145100 2.180930 
# 
# From -- ./inp_files/102561.got.cif
#   From: 2010.05.17/outbox.cif.g08.bks.cpg/sg2_52_cif.got.tgz:102561.got - 2010.06.03 11:33:40.
