data_PCOD9010226
_publ_section_title
;
Structure prediction by ZEFSAII (Michael W. Deem and Ramdas Pophale) SiO2 
 PCOD9010226
Probable space group: P -1
;
_chemical_formula_sum "Si O2"
_cell_formula_units_Z 16
_cell_length_a 17.683045
_cell_length_b 20.143446
_cell_length_c 8.629426
_cell_angle_alpha 131.079283
_cell_angle_beta 121.091104
_cell_angle_gamma 19.958304
_cell_volume 727.090382
_symmetry_space_group_name_H-M "P -1"
_symmetry_group_IT_number 2
_symmetry_cell_setting 'triclinic'
loop_
_space_group_symop_operation_xyz
x,y,z
-x,-y,-z
loop_
_atom_site_type_symbol
_atom_site_label
_atom_site_fract_x
_atom_site_fract_y
_atom_site_fract_z
Si Si1 0.624113 0.632181 0.576754
Si Si2 0.875732 0.567163 0.145963
Si Si3 0.084318 0.211266 0.619561
Si Si4 0.213054 0.784876 0.015674
Si Si5 0.714426 0.399622 0.923364
Si Si6 0.640811 0.802450 0.955049
Si Si7 0.168527 0.960997 0.524454
Si Si8 0.616385 0.691661 0.305071
O O1 0.530012 0.808497 0.831617
O O2 0.668769 0.625297 0.439324
O O3 0.871048 0.382385 0.541103
O O4 0.425096 0.740373 0.539541
O O5 0.775632 0.615321 0.267491
O O6 0.083885 0.446391 0.200911
O O7 0.671387 0.791333 0.154206
O O8 0.005425 0.368586 0.879034
O O9 0.121305 0.098258 0.604774
O O10 0.339237 0.980325 0.447864
O O11 0.227890 0.676582 0.951419
O O12 0.184655 0.877256 0.273553
O O13 0.471924 0.570708 0.890525
O O14 0.000000 0.000000 0.000000
O O15 0.944689 0.154027 0.695442
O O16 0.658332 0.554363 0.070886
O O17 0.500000 0.000000 0.000000
#
# Coordination Sequence:
#
# PCOD9010226 Si02
#       8
#     2   2   2   2   2   2   2   2
#     4  10  23  40  63  95 128 167 207 261 311 371
#     4  10  22  41  63  92 128 167 213 260 308 371
#     4  10  21  40  62  92 129 165 212 257 309 368
#     4  11  26  44  64  95 128 165 204 264 317 371
#     4  11  24  42  67  94 128 163 210 258 315 374
#     4  10  21  40  64  92 128 167 209 260 315 365
#     4  11  22  43  65  92 129 163 208 261 307 376
#     4  11  22  40  64  95 126 168 212 261 308 370
#
# _framework density 22.005517999999999
#
# number of rings (size 3 to 8) (size 9 to 14) (size 15 to 20)
#    0.000    1.500    3.750    1.875    1.750    3.000 
#    2.250    8.750    0.000    0.000    0.000    0.000 
#    0.000    0.000    0.000    0.000    0.000    0.000 
#
# Total GULP energy -89350.242363 kJ/mol
# GULP energy per Si atom -5584.390148 kJ/mol
# Density = 2.195543 g / cm^3
# Si number density = 22.005518 Si / 1000 Ang^3
#
#
#
# Elastic Constant Matrix: (Units=GPa)
#
#
# Indices 1 2 3 4 5 6 
#
# 1 75.9312 9.0576 5.8814 9.3173 -15.8458 -17.2989
# 2 9.0576 123.8632 30.0012 0.8273 -8.6022 -12.4836
# 3 5.8814 30.0012 71.6927 10.1031 -2.9682 -26.2804
# 4 9.3173 0.8273 10.1031 25.3378 -5.4954 3.4599
# 5 -15.8458 -8.6022 -2.9682 -5.4954 40.1457 13.7684
# 6 -17.2989 -12.4836 -26.2804 3.4599 13.7684 34.8324
#
#
#
# Elastic Compliance Matrix: (Units=1/GPa)
#
#
# Indices 1 2 3 4 5 6 
#
# 1 0.017189 -0.001058 0.004963 -0.009648 0.001381 0.012315
# 2 -0.001058 0.009256 -0.004830 0.002786 0.002287 -0.002033
# 3 0.004963 -0.004830 0.027601 -0.018228 -0.008728 0.026819
# 4 -0.009648 0.002786 -0.018228 0.056862 0.012933 -0.028305
# 5 0.001381 0.002287 -0.008728 0.012933 0.033839 -0.019740
# 6 0.012315 -0.002033 0.026819 -0.028305 -0.019740 0.064945
#
#
# Mechanical properties :
#
#
# Convention : Reuss Voigt Hill
#
# Bulk Modulus (GPa) = 19.15778 40.15195 29.65486
# Shear Modulus (GPa) = 21.83989 35.16631 28.50310
#
# Velocity S-wave (km/s) = 3.15377 4.00192 3.60289
# Velocity P-wave (km/s) = 4.68898 6.29601 5.55096
#
# Compressibility (1/GPa) = 0.05219811
#
# Stress axis : x y z
#
# Youngs Moduli (GPa) = 58.17623 108.03883 36.23100
#
# Poissons Ratio (x) = 0.11427 -0.17983
# Poissons Ratio (y) = 0.06153 0.17498
# Poissons Ratio (z) = -0.28876 0.52179
#
# Static dielectric constant tensor:
#      x y z
#    x 1.843000 -0.007840 0.052570 
#    y -0.007840 1.827620 0.013910 
#    z 0.052570 0.013910 1.870370 
# 
# From -- ./inp_files/337845.got.cif
#   From: 2010.05.17/outbox.cif.g08.bks.cpg/sg2_169_cif.got.tgz:337845.got - 2010.06.03 11:33:40.
