data_PCOD9010709
_publ_section_title
;
Structure prediction by ZEFSAII (Michael W. Deem and Ramdas Pophale) SiO2 
 PCOD9010709
Probable space group: P -1
;
_chemical_formula_sum "Si O2"
_cell_formula_units_Z 16
_cell_length_a 22.545874
_cell_length_b 11.597580
_cell_length_c 8.938568
_cell_angle_alpha 90.482135
_cell_angle_beta 116.480294
_cell_angle_gamma 30.651917
_cell_volume 607.161952
_symmetry_space_group_name_H-M "P -1"
_symmetry_group_IT_number 2
_symmetry_cell_setting 'triclinic'
loop_
_space_group_symop_operation_xyz
x,y,z
-x,-y,-z
loop_
_atom_site_type_symbol
_atom_site_label
_atom_site_fract_x
_atom_site_fract_y
_atom_site_fract_z
Si Si1 0.223485 0.052894 0.697189
Si Si2 0.602919 0.039423 0.272913
Si Si3 0.997124 0.880208 0.070217
Si Si4 0.114507 0.151666 0.248878
Si Si5 0.715208 0.621890 0.126003
Si Si6 0.928537 0.881888 0.279794
Si Si7 0.515737 0.878379 0.382920
Si Si8 0.667018 0.029245 0.673893
O O1 0.408869 0.841863 0.865029
O O2 0.000000 0.500000 0.500000
O O3 0.194975 0.030170 0.508700
O O4 0.248788 0.916210 0.853674
O O5 0.838584 0.578851 0.497928
O O6 0.653341 0.002166 0.492302
O O7 0.367343 0.363283 0.025335
O O8 0.849715 0.079143 0.045347
O O9 0.247083 0.475635 0.424802
O O10 0.969544 0.830589 0.909506
O O11 0.000000 0.000000 0.000000
O O12 0.291647 0.906390 0.320193
O O13 0.900205 0.595640 0.005485
O O14 0.679124 0.774041 0.954489
O O15 0.963630 0.216395 0.471703
O O16 0.500000 0.000000 0.000000
O O17 0.500000 0.000000 0.500000
O O18 0.513838 0.748321 0.434445
#
# Coordination Sequence:
#
# PCOD9010709 Si02
#       8
#     2   2   2   2   2   2   2   2
#     4   9  19  29  54  84 118 139 182 242 305 342
#     4   9  15  30  47  86 115 133 173 245 302 326
#     4  12  25  41  56  80 126 168 193 230 287 360
#     4  10  19  36  55  86 118 152 188 243 303 338
#     4  10  17  29  51  80 119 137 176 248 294 321
#     4  10  18  34  50  82 115 145 192 236 285 347
#     4  12  19  35  60  88 113 149 203 245 287 339
#     4  10  18  29  59  87 112 138 195 251 292 331
#
# _framework density 26.352111000000001
#
# number of rings (size 3 to 8) (size 9 to 14) (size 15 to 20)
#    0.000    1.750    6.250    0.750    1.750    0.000 
#    0.000    1.250    0.000    0.000    0.000    3.500 
#    0.000    0.000    0.000    0.000    0.000    0.000 
#
# Total GULP energy -89294.564400 kJ/mol
# GULP energy per Si atom -5580.910275 kJ/mol
# Density = 2.629213 g / cm^3
# Si number density = 26.352111 Si / 1000 Ang^3
#
#
#
# Elastic Constant Matrix: (Units=GPa)
#
#
# Indices 1 2 3 4 5 6 
#
# 1 234.3990 16.1925 27.7436 19.1577 -14.6675 -23.9520
# 2 16.1925 47.6144 19.1807 -5.3217 -11.1011 6.9252
# 3 27.7436 19.1807 63.2430 15.6663 -8.4337 4.8176
# 4 19.1577 -5.3217 15.6663 26.3295 -6.0541 -0.2391
# 5 -14.6675 -11.1011 -8.4337 -6.0541 50.6637 13.8231
# 6 -23.9520 6.9252 4.8176 -0.2391 13.8231 24.5751
#
#
#
# Elastic Compliance Matrix: (Units=1/GPa)
#
#
# Indices 1 2 3 4 5 6 
#
# 1 0.005708 -0.003623 -0.001139 -0.004605 -0.002039 0.007910
# 2 -0.003623 0.033519 -0.010181 0.017945 0.011451 -0.017247
# 3 -0.001139 -0.010181 0.023443 -0.015112 0.000414 -0.003217
# 4 -0.004605 0.017945 -0.015112 0.056136 0.009968 -0.011643
# 5 -0.002039 0.011451 0.000414 0.009968 0.028747 -0.021368
# 6 0.007910 -0.017247 -0.003217 -0.011643 -0.021368 0.065798
#
#
# Mechanical properties :
#
#
# Convention : Reuss Voigt Hill
#
# Bulk Modulus (GPa) = 30.50219 52.38779 41.44499
# Shear Modulus (GPa) = 19.67213 39.12298 29.39755
#
# Velocity S-wave (km/s) = 2.73520 3.85726 3.34363
# Velocity P-wave (km/s) = 4.64490 6.30564 5.53787
#
# Compressibility (1/GPa) = 0.03278453
#
# Stress axis : x y z
#
# Youngs Moduli (GPa) = 175.17972 29.83347 42.65632
#
# Poissons Ratio (x) = 0.10809 0.04859
# Poissons Ratio (y) = 0.63469 0.43428
# Poissons Ratio (z) = 0.19955 0.30373
#
# Static dielectric constant tensor:
#      x y z
#    x 1.447920 0.195430 -0.601540 
#    y 0.195430 2.166830 0.060580 
#    z -0.601540 0.060580 1.599740 
# 
# From -- ./inp_files/345290.got.cif
#   From: 2010.05.17/outbox.cif.g08.bks.cpg/sg2_173_cif.got.tgz:345290.got - 2010.06.03 11:33:40.
