data_PCOD9010218
_publ_section_title
;
Structure prediction by ZEFSAII (Michael W. Deem and Ramdas Pophale) SiO2 
 PCOD9010218
Probable space group: P -1
;
_chemical_formula_sum "Si O2"
_cell_formula_units_Z 14
_cell_length_a 8.435251
_cell_length_b 12.608587
_cell_length_c 12.170266
_cell_angle_alpha 145.058477
_cell_angle_beta 54.241044
_cell_angle_gamma 126.367739
_cell_volume 583.236000
_symmetry_space_group_name_H-M "P -1"
_symmetry_group_IT_number 2
_symmetry_cell_setting 'triclinic'
loop_
_space_group_symop_operation_xyz
x,y,z
-x,-y,-z
loop_
_atom_site_type_symbol
_atom_site_label
_atom_site_fract_x
_atom_site_fract_y
_atom_site_fract_z
Si Si1 0.284518 0.384307 0.027309
Si Si2 0.669226 0.356193 0.575247
Si Si3 0.831285 0.165739 0.769952
Si Si4 0.762451 0.731177 0.438652
Si Si5 0.835013 0.122956 0.155063
Si Si6 0.857133 0.373635 0.146987
Si Si7 0.549767 0.952223 0.300846
O O1 0.299460 0.169238 0.823052
O O2 0.500000 0.500000 0.000000
O O3 0.267919 0.454442 0.218319
O O4 0.097320 0.426218 0.077675
O O5 0.463959 0.341884 0.578224
O O6 0.843877 0.302794 0.386493
O O7 0.597112 0.161490 0.513699
O O8 0.683734 0.141259 0.703511
O O9 0.061236 0.246814 0.706150
O O10 0.801998 0.950465 0.647241
O O11 0.769840 0.295827 0.998866
O O12 0.793061 0.565820 0.367464
O O13 0.821692 0.209159 0.113709
O O14 0.626269 0.993599 0.177311
O O15 0.000000 0.000000 0.000000
#
# Coordination Sequence:
#
# PCOD9010218 Si02
#       7
#     2   2   2   2   2   2   2
#     4  12  23  37  64  94 117 158 207 248 305 362
#     4   9  22  42  60  86 123 164 192 249 305 352
#     4  10  21  40  63  89 124 155 194 255 309 352
#     4  10  21  40  62  92 121 154 199 250 308 361
#     4  10  22  45  60  84 127 163 207 247 297 355
#     4  12  23  36  62  93 118 159 205 246 297 360
#     4   9  21  43  59  84 124 164 194 247 305 351
#
# _framework density 24.004006
#
# number of rings (size 3 to 8) (size 9 to 14) (size 15 to 20)
#    0.857    0.857    1.429    3.000    0.000    4.571 
#    2.571    0.000    0.000    0.000    0.000    0.000 
#    0.000    0.000    0.000    0.000    0.000    0.000 
#
# Total GULP energy -78070.048076 kJ/mol
# GULP energy per Si atom -5576.432005 kJ/mol
# Density = 2.394937 g / cm^3
# Si number density = 24.004006 Si / 1000 Ang^3
#
#
#
# Elastic Constant Matrix: (Units=GPa)
#
#
# Indices 1 2 3 4 5 6 
#
# 1 87.8389 15.5486 35.7473 7.5461 -24.3710 2.5550
# 2 15.5486 46.6327 19.0994 0.2549 -4.2963 3.2056
# 3 35.7473 19.0994 108.7946 -2.5051 -24.6685 -5.7300
# 4 7.5461 0.2549 -2.5051 41.0813 -10.1230 -10.3026
# 5 -24.3710 -4.2963 -24.6685 -10.1230 45.5684 4.9777
# 6 2.5550 3.2056 -5.7300 -10.3026 4.9777 28.2589
#
#
#
# Elastic Compliance Matrix: (Units=1/GPa)
#
#
# Indices 1 2 3 4 5 6 
#
# 1 0.015234 -0.002871 -0.003418 -0.002462 0.005881 -0.003678
# 2 -0.002871 0.024067 -0.003741 -0.000980 -0.001140 -0.003385
# 3 -0.003418 -0.003741 0.012355 0.003528 0.004891 0.003663
# 4 -0.002462 -0.000980 0.003528 0.029115 0.005806 0.010641
# 5 0.005881 -0.001140 0.004891 0.005806 0.029187 -0.002435
# 6 -0.003678 -0.003385 0.003663 0.010641 -0.002435 0.041155
#
#
# Mechanical properties :
#
#
# Convention : Reuss Voigt Hill
#
# Bulk Modulus (GPa) = 31.65097 42.67297 37.16197
# Shear Modulus (GPa) = 27.51718 34.50644 31.01181
#
# Velocity S-wave (km/s) = 3.38946 3.79559 3.59826
# Velocity P-wave (km/s) = 5.34156 6.08479 5.72525
#
# Compressibility (1/GPa) = 0.03159461
#
# Stress axis : x y z
#
# Youngs Moduli (GPa) = 65.64202 41.55111 80.94044
#
# Poissons Ratio (x) = 0.11930 0.27669
# Poissons Ratio (y) = 0.18847 0.30279
# Poissons Ratio (z) = 0.22439 0.15544
#
# Static dielectric constant tensor:
#      x y z
#    x 1.940730 -0.102040 0.031190 
#    y -0.102040 2.117450 -0.022170 
#    z 0.031190 -0.022170 1.949290 
# 
# From -- ./inp_files/425378.got.cif
#   From: 2010.05.17/outbox.cif.g08.bks.cpg/sg2_213_cif.got.tgz:425378.got - 2010.06.03 11:33:40.
