data_PCOD9010922
_publ_section_title
;
Structure prediction by ZEFSAII (Michael W. Deem and Ramdas Pophale) SiO2 
 PCOD9010922
Probable space group: P -1
;
_chemical_formula_sum "Si O2"
_cell_formula_units_Z 12
_cell_length_a 7.758157
_cell_length_b 9.408810
_cell_length_c 9.021085
_cell_angle_alpha 101.477891
_cell_angle_beta 74.717424
_cell_angle_gamma 112.767070
_cell_volume 582.224216
_symmetry_space_group_name_H-M "P -1"
_symmetry_group_IT_number 2
_symmetry_cell_setting 'triclinic'
loop_
_space_group_symop_operation_xyz
x,y,z
-x,-y,-z
loop_
_atom_site_type_symbol
_atom_site_label
_atom_site_fract_x
_atom_site_fract_y
_atom_site_fract_z
Si Si1 0.206927 0.147330 0.396438
Si Si2 0.877894 0.335327 0.924057
Si Si3 0.705827 0.028544 0.395930
Si Si4 0.658385 0.285933 0.255319
Si Si5 0.955748 0.931190 0.155474
Si Si6 0.054594 0.412615 0.606114
O O1 0.432286 0.230055 0.324768
O O2 0.092875 0.062651 0.260411
O O3 0.124216 0.275000 0.505581
O O4 0.194435 0.010955 0.488675
O O5 0.874810 0.357618 0.751242
O O6 0.996775 0.221977 0.880778
O O7 0.703311 0.270477 0.067116
O O8 0.000000 0.500000 0.000000
O O9 0.747559 0.182786 0.318179
O O10 0.741112 0.907632 0.248590
O O11 0.500000 0.000000 0.500000
O O12 0.769838 0.461237 0.320192
O O13 0.000000 0.000000 0.000000
O O14 0.000000 0.500000 0.500000
#
# Coordination Sequence:
#
# PCOD9010922 Si02
#       6
#     2   2   2   2   2   2
#     4  11  24  40  65  94 127 168 211 261 317 370
#     4  10  23  41  64  87 130 165 209 256 317 366
#     4  10  21  40  64  96 123 158 211 263 312 373
#     4  10  22  43  62  96 130 162 210 259 319 377
#     4  12  23  41  65  91 128 168 212 260 317 378
#     4  11  23  40  68  91 125 171 214 260 311 375
#
# _framework density 20.610617000000001
#
# number of rings (size 3 to 8) (size 9 to 14) (size 15 to 20)
#    0.000    1.333    3.333    2.000    4.667    0.667 
#    0.000    0.833    0.000    0.000    0.000    0.000 
#    0.000    0.000    0.000    0.000    0.000    0.000 
#
# Total GULP energy -66853.650864 kJ/mol
# GULP energy per Si atom -5571.137572 kJ/mol
# Density = 2.056371 g / cm^3
# Si number density = 20.610617 Si / 1000 Ang^3
#
#
#
# Elastic Constant Matrix: (Units=GPa)
#
#
# Indices 1 2 3 4 5 6 
#
# 1 83.2446 38.7688 67.9223 -0.5813 -8.2291 -12.8459
# 2 38.7688 115.0543 72.0228 9.1875 -4.6640 -15.6242
# 3 67.9223 72.0228 197.4411 -15.0650 -9.0945 -14.5095
# 4 -0.5813 9.1875 -15.0650 54.5477 -10.2359 -0.5649
# 5 -8.2291 -4.6640 -9.0945 -10.2359 38.3843 -10.6591
# 6 -12.8459 -15.6242 -14.5095 -0.5649 -10.6591 30.3077
#
#
#
# Elastic Compliance Matrix: (Units=1/GPa)
#
#
# Indices 1 2 3 4 5 6 
#
# 1 0.018306 -0.002160 -0.004895 0.000037 0.004108 0.005748
# 2 -0.002160 0.012565 -0.003772 -0.003062 0.000422 0.003847
# 3 -0.004895 -0.003772 0.008489 0.003224 0.001543 0.000648
# 4 0.000037 -0.003062 0.003224 0.021039 0.006776 0.002756
# 5 0.004108 0.000422 0.001543 0.006776 0.033182 0.014494
# 6 0.005748 0.003847 0.000648 0.002756 0.014494 0.042873
#
#
# Mechanical properties :
#
#
# Convention : Reuss Voigt Hill
#
# Bulk Modulus (GPa) = 56.47722 83.68531 70.08127
# Shear Modulus (GPa) = 30.48592 39.11633 34.80112
#
# Velocity S-wave (km/s) = 3.85013 4.36118 4.11360
# Velocity P-wave (km/s) = 6.87213 8.12718 7.52586
#
# Compressibility (1/GPa) = 0.01770625
#
# Stress axis : x y z
#
# Youngs Moduli (GPa) = 54.62612 79.58923 117.79496
#
# Poissons Ratio (x) = 0.17192 0.57663
# Poissons Ratio (y) = 0.11800 0.44428
# Poissons Ratio (z) = 0.26740 0.30018
#
# Static dielectric constant tensor:
#      x y z
#    x 1.790950 0.010650 -0.023280 
#    y 0.010650 1.756030 -0.048190 
#    z -0.023280 -0.048190 1.795130 
# 
# From -- ./inp_files/146411.got.cif
#   From: 2010.05.17/outbox.cif.g08.bks.cpg/sg2_74_cif.got.tgz:146411.got - 2010.06.03 11:33:40.
