data_PCOD9011077
_publ_section_title
;
Structure prediction by ZEFSAII (Michael W. Deem and Ramdas Pophale) SiO2 
 PCOD9011077
Probable space group: P -1
;
_chemical_formula_sum "Si O2"
_cell_formula_units_Z 16
_cell_length_a 12.437423
_cell_length_b 14.141138
_cell_length_c 10.398492
_cell_angle_alpha 44.088671
_cell_angle_beta 144.915885
_cell_angle_gamma 135.857651
_cell_volume 691.766904
_symmetry_space_group_name_H-M "P -1"
_symmetry_group_IT_number 2
_symmetry_cell_setting 'triclinic'
loop_
_space_group_symop_operation_xyz
x,y,z
-x,-y,-z
loop_
_atom_site_type_symbol
_atom_site_label
_atom_site_fract_x
_atom_site_fract_y
_atom_site_fract_z
Si Si1 0.182401 0.870787 0.394783
Si Si2 0.334199 0.623956 0.722969
Si Si3 0.196803 0.961143 0.760547
Si Si4 0.876154 0.361753 0.937384
Si Si5 0.545918 0.344388 0.464804
Si Si6 0.512271 0.975002 0.248547
Si Si7 0.845639 0.647707 0.006802
Si Si8 0.772205 0.834762 0.973031
O O1 0.203009 0.728414 0.491788
O O2 0.954664 0.846686 0.235144
O O3 0.339665 0.910224 0.626276
O O4 0.242993 0.008831 0.224446
O O5 0.360344 0.572245 0.655018
O O6 0.228943 0.491749 0.840400
O O7 0.556312 0.718874 0.893723
O O8 0.150005 0.789047 0.872372
O O9 0.358578 0.034781 0.740024
O O10 0.314222 0.999818 0.975052
O O11 0.000000 0.000000 0.500000
O O12 0.972346 0.349263 0.905409
O O13 0.000000 0.500000 0.000000
O O14 0.669548 0.380598 0.679035
O O15 0.533101 0.180341 0.579548
O O16 0.332043 0.357481 0.258632
O O17 0.856066 0.783087 0.974671
#
# Coordination Sequence:
#
# PCOD9011077 Si02
#       8
#     2   2   2   2   2   2   2   2
#     4  11  22  37  63  96 130 158 207 260 304 374
#     4  11  23  39  64  98 131 167 202 254 315 377
#     4  10  23  43  66  90 118 163 219 261 315 370
#     4  11  26  44  64  92 122 166 216 265 310 364
#     4  10  21  43  68  88 130 167 204 252 321 384
#     4  10  21  40  65  90 126 162 205 262 314 364
#     4  11  23  43  65  90 129 174 204 251 316 380
#     4  10  22  39  63  95 128 165 208 248 316 383
#
# _framework density 23.129179000000001
#
# number of rings (size 3 to 8) (size 9 to 14) (size 15 to 20)
#    0.000    1.500    2.500    3.375    1.750    4.500 
#    2.250    0.000    0.000    0.000    0.000    0.000 
#    0.000    0.000    0.000    0.000    0.000    0.000 
#
# Total GULP energy -89447.535101 kJ/mol
# GULP energy per Si atom -5590.470944 kJ/mol
# Density = 2.307654 g / cm^3
# Si number density = 23.129179 Si / 1000 Ang^3
#
#
#
# Elastic Constant Matrix: (Units=GPa)
#
#
# Indices 1 2 3 4 5 6 
#
# 1 43.2942 -0.0611 7.7404 -12.1724 2.5369 14.3482
# 2 -0.0611 85.2183 40.3513 -1.0231 -4.8815 2.4433
# 3 7.7404 40.3513 157.3345 12.8960 15.4626 4.2709
# 4 -12.1724 -1.0231 12.8960 43.5421 5.3310 -4.9673
# 5 2.5369 -4.8815 15.4626 5.3310 26.4064 -2.5744
# 6 14.3482 2.4433 4.2709 -4.9673 -2.5744 29.2933
#
#
#
# Elastic Compliance Matrix: (Units=1/GPa)
#
#
# Indices 1 2 3 4 5 6 
#
# 1 0.030508 0.000979 -0.001561 0.008021 -0.004806 -0.013860
# 2 0.000979 0.014013 -0.004189 0.001225 0.004661 -0.000420
# 3 -0.001561 -0.004189 0.008230 -0.002463 -0.005038 -0.000946
# 4 0.008021 0.001225 -0.002463 0.026559 -0.004420 0.000443
# 5 -0.004806 0.004661 -0.005038 -0.004420 0.043599 0.005782
# 6 -0.013860 -0.000420 -0.000946 0.000443 0.005782 0.041682
#
#
# Mechanical properties :
#
#
# Convention : Reuss Voigt Hill
#
# Bulk Modulus (GPa) = 23.14309 42.43424 32.78866
# Shear Modulus (GPa) = 26.52017 35.70280 31.11148
#
# Velocity S-wave (km/s) = 3.38984 3.93316 3.67156
# Velocity P-wave (km/s) = 5.03479 6.24602 5.67282
#
# Compressibility (1/GPa) = 0.04320945
#
# Stress axis : x y z
#
# Youngs Moduli (GPa) = 32.77787 71.36465 121.50956
#
# Poissons Ratio (x) = -0.06989 0.18967
# Poissons Ratio (y) = -0.03210 0.50901
# Poissons Ratio (z) = 0.05117 0.29895
#
# Static dielectric constant tensor:
#      x y z
#    x 1.847100 -0.004190 -0.005710 
#    y -0.004190 1.870900 0.067230 
#    z -0.005710 0.067230 1.933540 
# 
# From -- ./inp_files/454581.got.cif
#   From: 2010.05.17/outbox.cif.g08.bks.cpg/sg2_228_cif.got.tgz:454581.got - 2010.06.03 11:33:40.
