data_PCOD9011625
_publ_section_title
;
Structure prediction by ZEFSAII (Michael W. Deem and Ramdas Pophale) SiO2 
 PCOD9011625
Probable space group: P -1
;
_chemical_formula_sum "Si O2"
_cell_formula_units_Z 14
_cell_length_a 5.066537
_cell_length_b 19.835256
_cell_length_c 9.992945
_cell_angle_alpha 50.722372
_cell_angle_beta 65.989064
_cell_angle_gamma 52.656356
_cell_volume 617.597391
_symmetry_space_group_name_H-M "P -1"
_symmetry_group_IT_number 2
_symmetry_cell_setting 'triclinic'
loop_
_space_group_symop_operation_xyz
x,y,z
-x,-y,-z
loop_
_atom_site_type_symbol
_atom_site_label
_atom_site_fract_x
_atom_site_fract_y
_atom_site_fract_z
Si Si1 0.913486 0.084660 0.799413
Si Si2 0.776382 0.405746 0.483952
Si Si3 0.858837 0.100462 0.189117
Si Si4 0.782521 0.586220 0.831323
Si Si5 0.855946 0.805740 0.202468
Si Si6 0.854276 0.308880 0.318749
Si Si7 0.220067 0.107850 0.367551
O O1 0.974206 0.193447 0.413625
O O2 0.117847 0.138482 0.738281
O O3 0.988625 0.015420 0.741295
O O4 0.000000 0.000000 0.000000
O O5 0.500000 0.500000 0.500000
O O6 0.682719 0.359039 0.432743
O O7 0.021902 0.437714 0.319935
O O8 0.952977 0.312066 0.663962
O O9 0.997081 0.100465 0.306946
O O10 0.463217 0.146022 0.206512
O O11 0.987949 0.157030 0.992368
O O12 0.401903 0.623699 0.829228
O O13 0.819004 0.679758 0.757970
O O14 0.000000 0.500000 0.000000
O O15 0.476250 0.840139 0.208398
O O16 0.500000 0.000000 0.500000
#
# Coordination Sequence:
#
# PCOD9011625 Si02
#       7
#     2   2   2   2   2   2   2
#     4  10  21  40  66  97 135 177 219 268 340 399
#     4  10  27  45  72 103 130 176 231 285 343 399
#     4  11  23  40  66  99 135 179 228 271 330 403
#     4  10  23  47  72  98 133 177 226 278 343 400
#     4  11  23  42  66 100 137 175 220 289 338 395
#     4  10  25  45  69  98 134 177 222 274 348 391
#     4  12  26  42  65 100 139 182 227 268 326 410
#
# _framework density 22.668489999999998
#
# number of rings (size 3 to 8) (size 9 to 14) (size 15 to 20)
#    0.857    0.571    0.000    6.000    6.000    2.857 
#    0.000    0.000    0.000    0.000    0.000    0.000 
#    0.000    0.000    0.000    0.000    0.000    0.000 
#
# Total GULP energy -78114.475631 kJ/mol
# GULP energy per Si atom -5579.605402 kJ/mol
# Density = 2.261690 g / cm^3
# Si number density = 22.668490 Si / 1000 Ang^3
#
#
#
# Elastic Constant Matrix: (Units=GPa)
#
#
# Indices 1 2 3 4 5 6 
#
# 1 116.2727 21.1617 4.3144 2.2417 20.7369 3.3408
# 2 21.1617 153.2064 30.3191 -12.7581 23.0345 2.1453
# 3 4.3144 30.3191 76.6723 -14.4658 13.6166 -5.7838
# 4 2.2417 -12.7581 -14.4658 29.2621 -8.1376 10.7857
# 5 20.7369 23.0345 13.6166 -8.1376 37.1113 2.5493
# 6 3.3408 2.1453 -5.7838 10.7857 2.5493 32.7110
#
#
#
# Elastic Compliance Matrix: (Units=1/GPa)
#
#
# Indices 1 2 3 4 5 6 
#
# 1 0.009791 -0.000783 0.000298 -0.002695 -0.005715 0.000438
# 2 -0.000783 0.007703 -0.002189 0.001941 -0.003031 -0.001216
# 3 0.000298 -0.002189 0.015606 0.005249 -0.003480 0.001413
# 4 -0.002695 0.001941 0.005249 0.045906 0.009457 -0.014798
# 5 -0.005715 -0.003031 -0.003480 0.009457 0.035766 -0.005739
# 6 0.000438 -0.001216 0.001413 -0.014798 -0.005739 0.036182
#
#
# Mechanical properties :
#
#
# Convention : Reuss Voigt Hill
#
# Bulk Modulus (GPa) = 36.03223 50.86023 43.44623
# Shear Modulus (GPa) = 30.20203 39.17394 34.68798
#
# Velocity S-wave (km/s) = 3.65408 4.16158 3.91606
# Velocity P-wave (km/s) = 5.80800 6.75107 6.29721
#
# Compressibility (1/GPa) = 0.02775293
#
# Stress axis : x y z
#
# Youngs Moduli (GPa) = 102.13964 129.82104 64.07627
#
# Poissons Ratio (x) = 0.10159 -0.01911
# Poissons Ratio (y) = 0.07993 0.14027
# Poissons Ratio (z) = -0.03046 0.28419
#
# Static dielectric constant tensor:
#      x y z
#    x 1.808930 -0.004900 -0.060010 
#    y -0.004900 1.829970 0.044740 
#    z -0.060010 0.044740 1.956250 
# 
# From -- ./inp_files/138488.got.cif
#   From: 2010.05.17/outbox.cif.g08.bks.cpg/sg2_70_cif.got.tgz:138488.got - 2010.06.03 11:33:40.
