data_PCOD9011622
_publ_section_title
;
Structure prediction by ZEFSAII (Michael W. Deem and Ramdas Pophale) SiO2 
 PCOD9011622
Probable space group: P -1
;
_chemical_formula_sum "Si O2"
_cell_formula_units_Z 12
_cell_length_a 7.757279
_cell_length_b 12.134796
_cell_length_c 18.733263
_cell_angle_alpha 154.154584
_cell_angle_beta 132.927624
_cell_angle_gamma 35.529413
_cell_volume 437.468391
_symmetry_space_group_name_H-M "P -1"
_symmetry_group_IT_number 2
_symmetry_cell_setting 'triclinic'
loop_
_space_group_symop_operation_xyz
x,y,z
-x,-y,-z
loop_
_atom_site_type_symbol
_atom_site_label
_atom_site_fract_x
_atom_site_fract_y
_atom_site_fract_z
Si Si1 0.835186 0.695635 0.779196
Si Si2 0.397883 0.578268 0.356837
Si Si3 0.988564 0.887830 0.072657
Si Si4 0.504661 0.654172 0.273261
Si Si5 0.298169 0.326021 0.934495
Si Si6 0.302518 0.132690 0.369377
O O1 0.825638 0.436866 0.667563
O O2 0.140220 0.526753 0.721785
O O3 0.528024 0.941980 0.791516
O O4 0.862284 0.890916 0.962512
O O5 0.349047 0.678544 0.317717
O O6 0.453790 0.813204 0.545134
O O7 0.698670 0.192408 0.211888
O O8 0.233250 0.945742 0.187880
O O9 0.146231 0.526919 0.935807
O O10 0.368778 0.971397 0.372109
O O11 0.470922 0.448959 0.088469
O O12 0.000000 0.500000 0.000000
O O13 0.000000 0.500000 0.500000
#
# Coordination Sequence:
#
# PCOD9011622 Si02
#       6
#     2   2   2   2   2   2
#     4  12  24  42  69 104 136 166 225 286 325 395
#     4  11  21  42  70  91 136 178 218 271 332 395
#     4  10  21  40  66  97 132 178 219 268 334 393
#     4  11  24  41  69 101 131 177 224 275 338 389
#     4  11  21  38  64 100 135 174 217 267 338 395
#     4   9  22  42  66  95 133 180 222 267 334 403
#
# _framework density 27.430551999999999
#
# number of rings (size 3 to 8) (size 9 to 14) (size 15 to 20)
#    0.000    1.333    3.333    2.500    0.000    3.333 
#    3.000    0.000    0.000   14.000    0.000    0.000 
#    0.000    0.000    0.000    0.000    0.000    0.000 
#
# Total GULP energy -67195.357395 kJ/mol
# GULP energy per Si atom -5599.613116 kJ/mol
# Density = 2.736812 g / cm^3
# Si number density = 27.430552 Si / 1000 Ang^3
#
#
#
# Elastic Constant Matrix: (Units=GPa)
#
#
# Indices 1 2 3 4 5 6 
#
# 1 99.4847 46.4380 40.8814 8.9303 20.3361 24.1420
# 2 46.4380 192.9093 23.1257 42.4985 3.8958 28.2198
# 3 40.8814 23.1257 137.9296 -0.3080 7.8194 24.7272
# 4 8.9303 42.4985 -0.3080 44.8440 10.6456 -2.8300
# 5 20.3361 3.8958 7.8194 10.6456 57.2912 2.6666
# 6 24.1420 28.2198 24.7272 -2.8300 2.6666 50.4646
#
#
#
# Elastic Compliance Matrix: (Units=1/GPa)
#
#
# Indices 1 2 3 4 5 6 
#
# 1 0.014162 -0.002508 -0.002862 0.000336 -0.004355 -0.003721
# 2 -0.002508 0.008036 -0.000050 -0.007828 0.001982 -0.003813
# 3 -0.002862 -0.000050 0.008615 0.000531 -0.000125 -0.002787
# 4 0.000336 -0.007828 0.000531 0.031406 -0.005775 0.006023
# 5 -0.004355 0.001982 -0.000125 -0.005775 0.019972 -0.000343
# 6 -0.003721 -0.003813 -0.002787 0.006023 -0.000343 0.025450
#
#
# Mechanical properties :
#
#
# Convention : Reuss Voigt Hill
#
# Bulk Modulus (GPa) = 50.07062 72.35708 61.21385
# Shear Modulus (GPa) = 39.95624 51.84519 45.90071
#
# Velocity S-wave (km/s) = 3.82073 4.35219 4.09509
# Velocity P-wave (km/s) = 6.14469 7.18964 6.68760
#
# Compressibility (1/GPa) = 0.01997179
#
# Stress axis : x y z
#
# Youngs Moduli (GPa) = 70.61386 124.44575 116.07855
#
# Poissons Ratio (x) = 0.31205 0.33224
# Poissons Ratio (y) = 0.17707 0.00585
# Poissons Ratio (z) = 0.20211 0.00627
#
# Static dielectric constant tensor:
#      x y z
#    x 2.227030 -0.036210 -0.006860 
#    y -0.036210 2.147400 0.002130 
#    z -0.006860 0.002130 2.142630 
# 
# From -- ./inp_files/617172.got.cif
#   From: 2010.05.17/outbox.cif.g08.bks.cpg/sg2_309_cif.got.tgz:617172.got - 2010.06.03 11:33:40.
