data_PCOD9011204
_publ_section_title
;
Structure prediction by ZEFSAII (Michael W. Deem and Ramdas Pophale) SiO2 
 PCOD9011204
Probable space group: P -1
;
_chemical_formula_sum "Si O2"
_cell_formula_units_Z 15
_cell_length_a 14.306703
_cell_length_b 12.233625
_cell_length_c 7.888790
_cell_angle_alpha 38.338045
_cell_angle_beta 53.423068
_cell_angle_gamma 44.351921
_cell_volume 596.762444
_symmetry_space_group_name_H-M "P -1"
_symmetry_group_IT_number 2
_symmetry_cell_setting 'triclinic'
loop_
_space_group_symop_operation_xyz
x,y,z
-x,-y,-z
loop_
_atom_site_type_symbol
_atom_site_label
_atom_site_fract_x
_atom_site_fract_y
_atom_site_fract_z
Si Si1 0.103994 0.265325 0.675856
Si Si2 0.408208 0.634837 0.779157
Si Si3 0.207371 0.337224 0.816187
Si Si4 0.500000 0.000000 0.000000
Si Si5 0.660125 0.974627 0.478807
Si Si6 0.517940 0.224983 0.010913
Si Si7 0.897561 0.185418 0.160274
Si Si8 0.019252 0.725658 0.694002
O O1 0.200569 0.257767 0.733399
O O2 0.183686 0.176717 0.524699
O O3 0.000000 0.500000 0.500000
O O4 0.015818 0.164664 0.939085
O O5 0.251388 0.707956 0.883658
O O6 0.405770 0.853297 0.511969
O O7 0.500000 0.500000 0.000000
O O8 0.463668 0.464797 0.779769
O O9 0.129448 0.582774 0.610797
O O10 0.104313 0.307869 0.082575
O O11 0.355384 0.219004 0.873783
O O12 0.560376 0.109739 0.929390
O O13 0.592949 0.834513 0.730263
O O14 0.627777 0.112199 0.177542
O O15 0.899953 0.307020 0.176800
O O16 0.945378 0.960328 0.442778
#
# Coordination Sequence:
#
# PCOD9011204 Si02
#       8
#     2   2   2   1   2   2   2   2
#     4  11  23  40  63  96 131 172 229 277 328 410
#     4  10  22  40  64  94 131 175 220 270 338 402
#     4  10  22  40  66  98 128 177 223 274 342 402
#     4  12  22  40  74 100 130 170 230 292 330 406
#     4  10  22  42  63  91 134 179 213 271 340 403
#     4  10  22  42  64  93 131 173 219 270 344 402
#     4  10  21  40  65  94 128 171 224 279 330 403
#     4   9  21  42  66  90 135 174 216 275 344 404
#
# _framework density 25.135632000000001
#
# number of rings (size 3 to 8) (size 9 to 14) (size 15 to 20)
#    0.000    1.867    1.333    1.600    3.733    1.600 
#    2.400    2.000    0.000    0.000    0.000    0.000 
#    0.000    0.000    0.000    0.000    0.000    0.000 
#
# Total GULP energy -83622.401145 kJ/mol
# GULP energy per Si atom -5574.826743 kJ/mol
# Density = 2.507842 g / cm^3
# Si number density = 25.135632 Si / 1000 Ang^3
#
#
#
# Elastic Constant Matrix: (Units=GPa)
#
#
# Indices 1 2 3 4 5 6 
#
# 1 127.7693 23.4403 4.0031 -3.8890 23.7590 -8.5930
# 2 23.4403 159.1703 11.6119 -30.3741 8.5950 9.8856
# 3 4.0031 11.6119 27.1020 -13.5014 9.9508 -1.4843
# 4 -3.8890 -30.3741 -13.5014 33.4462 5.6718 -0.7377
# 5 23.7590 8.5950 9.9508 5.6718 31.2772 -6.3120
# 6 -8.5930 9.8856 -1.4843 -0.7377 -6.3120 40.8049
#
#
#
# Elastic Compliance Matrix: (Units=1/GPa)
#
#
# Indices 1 2 3 4 5 6 
#
# 1 0.009649 -0.000577 0.004031 0.003762 -0.008934 0.001005
# 2 -0.000577 0.008422 0.002982 0.009591 -0.005103 -0.002669
# 3 0.004031 0.002982 0.062816 0.033637 -0.030303 -0.001668
# 4 0.003762 0.009591 0.033637 0.057172 -0.027267 -0.003492
# 5 -0.008934 -0.005103 -0.030303 -0.027267 0.056043 0.006429
# 6 0.001005 -0.002669 -0.001668 -0.003492 0.006429 0.026236
#
#
# Mechanical properties :
#
#
# Convention : Reuss Voigt Hill
#
# Bulk Modulus (GPa) = 10.66550 43.57244 27.11897
# Shear Modulus (GPa) = 20.94520 39.43808 30.19164
#
# Velocity S-wave (km/s) = 2.88980 3.96537 3.46952
# Velocity P-wave (km/s) = 3.92263 6.19178 5.18291
#
# Compressibility (1/GPa) = 0.09376026
#
# Stress axis : x y z
#
# Youngs Moduli (GPa) = 103.63247 118.74224 15.91953
#
# Poissons Ratio (x) = 0.06854 -0.06418
# Poissons Ratio (y) = 0.05981 -0.04748
# Poissons Ratio (z) = -0.41778 -0.35414
#
# Static dielectric constant tensor:
#      x y z
#    x 2.448960 0.303310 0.056590 
#    y 0.303310 2.129830 -0.015650 
#    z 0.056590 -0.015650 1.405390 
# 
# From -- ./inp_files/302070.got.cif
#   From: 2010.05.17/outbox.cif.g08.bks.cpg/sg2_152_cif.got.tgz:302070.got - 2010.06.03 11:33:40.
