data_PCOD9011107
_publ_section_title
;
Structure prediction by ZEFSAII (Michael W. Deem and Ramdas Pophale) SiO2 
 PCOD9011107
Probable space group: P -1
;
_chemical_formula_sum "Si O2"
_cell_formula_units_Z 16
_cell_length_a 13.556343
_cell_length_b 7.925869
_cell_length_c 12.890447
_cell_angle_alpha 133.714525
_cell_angle_beta 122.539055
_cell_angle_gamma 50.355466
_cell_volume 759.065167
_symmetry_space_group_name_H-M "P -1"
_symmetry_group_IT_number 2
_symmetry_cell_setting 'triclinic'
loop_
_space_group_symop_operation_xyz
x,y,z
-x,-y,-z
loop_
_atom_site_type_symbol
_atom_site_label
_atom_site_fract_x
_atom_site_fract_y
_atom_site_fract_z
Si Si1 0.910367 0.812350 0.754100
Si Si2 0.662278 0.216001 0.880392
Si Si3 0.247849 0.141338 0.532356
Si Si4 0.527106 0.250300 0.600799
Si Si5 0.997338 0.753347 0.443840
Si Si6 0.842881 0.287042 0.275835
Si Si7 0.368825 0.822193 0.797257
Si Si8 0.461041 0.201972 0.914256
O O1 0.047940 0.806920 0.793225
O O2 0.826497 0.846448 0.614316
O O3 0.943240 0.526273 0.695021
O O4 0.813444 0.025537 0.868582
O O5 0.602522 0.265972 0.752895
O O6 0.574342 0.112151 0.853100
O O7 0.634470 0.494990 0.030915
O O8 0.150523 0.168522 0.579827
O O9 0.262252 0.409244 0.664220
O O10 0.372351 0.867138 0.486326
O O11 0.415994 0.540603 0.648576
O O12 0.500000 0.000000 0.500000
O O13 0.072944 0.709530 0.576098
O O14 0.000000 0.000000 0.500000
O O15 0.766782 0.122032 0.197997
O O16 0.384579 0.028417 0.817084
O O17 0.463793 0.802626 0.938430
#
# Coordination Sequence:
#
# PCOD9011107 Si02
#       8
#     2   2   2   2   2   2   2   2
#     4   8  16  30  53  68  93 133 160 195 244 301
#     4   9  18  36  54  69  97 132 173 202 244 296
#     4   8  15  29  47  69 101 132 158 181 243 312
#     4  10  17  29  52  79 100 127 159 199 247 301
#     4   9  17  29  45  73 104 129 153 196 252 299
#     4   9  16  31  49  71  98 131 162 195 243 301
#     4  10  19  33  53  73 102 131 170 204 243 294
#     4   9  20  36  51  70  97 141 169 205 244 278
#
# _framework density 21.07856
#
# number of rings (size 3 to 8) (size 9 to 14) (size 15 to 20)
#    0.000    3.000    1.250    1.500    0.000    1.000 
#    2.250    4.375    0.000    0.000    0.000    0.000 
#    0.000    0.000    0.000    0.000    0.000    0.000 
#
# Total GULP energy -89072.975043 kJ/mol
# GULP energy per Si atom -5567.060940 kJ/mol
# Density = 2.103058 g / cm^3
# Si number density = 21.078560 Si / 1000 Ang^3
#
#
#
# Elastic Constant Matrix: (Units=GPa)
#
#
# Indices 1 2 3 4 5 6 
#
# 1 154.1283 51.6074 46.5362 49.9054 4.3924 1.5930
# 2 51.6074 43.6168 25.1344 25.9077 -7.3020 -3.0278
# 3 46.5362 25.1344 59.4126 7.7209 -1.1484 -14.0606
# 4 49.9054 25.9077 7.7209 33.3652 -2.4615 -0.5475
# 5 4.3924 -7.3020 -1.1484 -2.4615 31.3112 8.6334
# 6 1.5930 -3.0278 -14.0606 -0.5475 8.6334 27.4267
#
#
#
# Elastic Compliance Matrix: (Units=1/GPa)
#
#
# Indices 1 2 3 4 5 6 
#
# 1 0.019060 -0.001559 -0.012848 -0.024698 -0.003444 -0.007274
# 2 -0.001559 0.063693 -0.022355 -0.041101 0.013626 -0.009448
# 3 -0.012848 -0.022355 0.037263 0.027886 -0.005254 0.019592
# 4 -0.024698 -0.041101 0.027886 0.092481 -0.001558 0.013530
# 5 -0.003444 0.013626 -0.005254 -0.001558 0.038945 -0.013279
# 6 -0.007274 -0.009448 0.019592 0.013530 -0.013279 0.050335
#
#
# Mechanical properties :
#
#
# Convention : Reuss Voigt Hill
#
# Bulk Modulus (GPa) = 21.50948 55.96822 38.73885
# Shear Modulus (GPa) = 12.79435 27.34592 20.07013
#
# Velocity S-wave (km/s) = 2.46638 3.60576 3.08905
# Velocity P-wave (km/s) = 4.28220 6.62912 5.58043
#
# Compressibility (1/GPa) = 0.04649113
#
# Stress axis : x y z
#
# Youngs Moduli (GPa) = 52.46704 15.70034 26.83607
#
# Poissons Ratio (x) = 0.02448 0.34478
# Poissons Ratio (y) = 0.08182 0.59993
# Poissons Ratio (z) = 0.67408 0.35098
#
# Static dielectric constant tensor:
#      x y z
#    x 1.843450 -0.000910 0.025020 
#    y -0.000910 1.818660 0.007250 
#    z 0.025020 0.007250 1.789270 
# 
# From -- ./inp_files/527940.got.cif
#   From: 2010.05.17/outbox.cif.g08.bks.cpg/sg2_264_cif.got.tgz:527940.got - 2010.06.03 11:33:40.
