data_PCOD9011360
_publ_section_title
;
Structure prediction by ZEFSAII (Michael W. Deem and Ramdas Pophale) SiO2 
 PCOD9011360
Probable space group: P -1
;
_chemical_formula_sum "Si O2"
_cell_formula_units_Z 14
_cell_length_a 5.837740
_cell_length_b 25.411923
_cell_length_c 14.265823
_cell_angle_alpha 159.676587
_cell_angle_beta 45.468875
_cell_angle_gamma 134.620540
_cell_volume 515.346379
_symmetry_space_group_name_H-M "P -1"
_symmetry_group_IT_number 2
_symmetry_cell_setting 'triclinic'
loop_
_space_group_symop_operation_xyz
x,y,z
-x,-y,-z
loop_
_atom_site_type_symbol
_atom_site_label
_atom_site_fract_x
_atom_site_fract_y
_atom_site_fract_z
Si Si1 0.637311 0.478322 0.527378
Si Si2 0.142192 0.827720 0.597203
Si Si3 0.271281 0.826996 0.085658
Si Si4 0.744483 0.680786 0.137867
Si Si5 0.244602 0.388511 0.774971
Si Si6 0.774752 0.816929 0.065507
Si Si7 0.152388 0.890026 0.900009
O O1 0.500000 0.500000 0.500000
O O2 0.000000 0.500000 0.500000
O O3 0.578493 0.646797 0.869074
O O4 0.568253 0.288083 0.221474
O O5 0.453321 0.779179 0.376892
O O6 0.186888 0.794470 0.637453
O O7 0.805277 0.730460 0.493505
O O8 0.105867 0.000829 0.875354
O O9 0.517510 0.899722 0.220355
O O10 0.003554 0.721471 0.051355
O O11 0.027376 0.902393 0.213766
O O12 0.858305 0.695727 0.238352
O O13 0.586717 0.500740 0.873270
O O14 0.000000 0.500000 0.000000
O O15 0.019606 0.798846 0.878042
O O16 0.500000 0.000000 0.000000
#
# Coordination Sequence:
#
# PCOD9011360 Si02
#       7
#     2   2   2   2   2   2   2
#     4   8  16  34  53  84 122 163 201 250 310 383
#     4  10  23  42  66  96 125 174 223 287 326 388
#     4  10  22  39  65  96 138 170 213 271 337 414
#     4  10  21  40  66 101 135 172 212 272 339 403
#     4   9  20  38  64  97 132 168 218 262 328 395
#     4  10  23  41  63  96 129 175 224 270 336 395
#     4  11  25  44  69  89 127 173 235 285 324 388
#
# _framework density 27.166195999999999
#
# number of rings (size 3 to 8) (size 9 to 14) (size 15 to 20)
#    0.000    2.286    0.000    0.857    8.000    4.571 
#   10.286    1.429    0.000    0.000    0.000    0.000 
#    0.000    0.000    0.000    0.000    0.000    0.000 
#
# Total GULP energy -77950.822967 kJ/mol
# GULP energy per Si atom -5567.915926 kJ/mol
# Density = 2.710436 g / cm^3
# Si number density = 27.166196 Si / 1000 Ang^3
#
#
#
# Elastic Constant Matrix: (Units=GPa)
#
#
# Indices 1 2 3 4 5 6 
#
# 1 230.7265 4.0148 22.9123 4.4015 15.7780 -13.2711
# 2 4.0148 97.9063 9.2979 -7.2033 8.7303 -12.1371
# 3 22.9123 9.2979 80.2539 4.2967 -19.5019 4.4689
# 4 4.4015 -7.2033 4.2967 19.6041 -1.2637 -0.2428
# 5 15.7780 8.7303 -19.5019 -1.2637 61.2289 1.6358
# 6 -13.2711 -12.1371 4.4689 -0.2428 1.6358 30.3748
#
#
#
# Elastic Compliance Matrix: (Units=1/GPa)
#
#
# Indices 1 2 3 4 5 6 
#
# 1 0.004837 0.000475 -0.002056 -0.000560 -0.002053 0.002712
# 2 0.000475 0.011715 -0.002705 0.004684 -0.002704 0.005470
# 3 -0.002056 -0.002705 0.015217 -0.003549 0.005811 -0.004559
# 4 -0.000560 0.004684 -0.003549 0.053627 -0.000617 0.002611
# 5 -0.002053 -0.002704 0.005811 -0.000617 0.019188 -0.003871
# 6 0.002712 0.005470 -0.004559 0.002611 -0.003871 0.037192
#
#
# Mechanical properties :
#
#
# Convention : Reuss Voigt Hill
#
# Bulk Modulus (GPa) = 43.11007 53.48185 48.29596
# Shear Modulus (GPa) = 31.62926 47.08567 39.35746
#
# Velocity S-wave (km/s) = 3.41587 4.16774 3.81040
# Velocity P-wave (km/s) = 5.60901 6.54903 6.09716
#
# Compressibility (1/GPa) = 0.02319644
#
# Stress axis : x y z
#
# Youngs Moduli (GPa) = 206.73632 85.35999 65.71687
#
# Poissons Ratio (x) = -0.04054 0.13511
# Poissons Ratio (y) = -0.09819 0.17778
# Poissons Ratio (z) = 0.42504 0.23092
#
# Static dielectric constant tensor:
#      x y z
#    x 2.179120 0.061710 0.006500 
#    y 0.061710 2.249690 0.053280 
#    z 0.006500 0.053280 2.269730 
# 
# From -- ./inp_files/65832.got.cif
#   From: 2010.05.17/outbox.cif.g08.bks.cpg/sg2_33_cif.got.tgz:65832.got - 2010.06.03 11:33:40.
