data_PCOD9011584
_publ_section_title
;
Structure prediction by ZEFSAII (Michael W. Deem and Ramdas Pophale) SiO2 
 PCOD9011584
Probable space group: P -1
;
_chemical_formula_sum "Si O2"
_cell_formula_units_Z 16
_cell_length_a 11.737783
_cell_length_b 6.372143
_cell_length_c 13.992968
_cell_angle_alpha 90.903721
_cell_angle_beta 131.605835
_cell_angle_gamma 110.120318
_cell_volume 688.943781
_symmetry_space_group_name_H-M "P -1"
_symmetry_group_IT_number 2
_symmetry_cell_setting 'triclinic'
loop_
_space_group_symop_operation_xyz
x,y,z
-x,-y,-z
loop_
_atom_site_type_symbol
_atom_site_label
_atom_site_fract_x
_atom_site_fract_y
_atom_site_fract_z
Si Si1 0.047228 0.065564 0.223639
Si Si2 0.342540 0.941263 0.342298
Si Si3 0.519929 0.162886 0.249655
Si Si4 0.691365 0.640075 0.976129
Si Si5 0.394175 0.165343 0.824237
Si Si6 0.147954 0.448065 0.124612
Si Si7 0.849606 0.621208 0.380416
Si Si8 0.924671 0.273803 0.316676
O O1 0.064150 0.201608 0.134334
O O2 0.041665 0.241757 0.302179
O O3 0.202412 0.001670 0.313474
O O4 0.867788 0.821395 0.125634
O O5 0.257858 0.668447 0.257576
O O6 0.500000 0.000000 0.500000
O O7 0.417153 0.103325 0.290425
O O8 0.414989 0.221595 0.110928
O O9 0.709000 0.390384 0.359184
O O10 0.544780 0.940229 0.229882
O O11 0.564916 0.394971 0.957737
O O12 0.743749 0.569101 0.903938
O O13 0.261293 0.258309 0.717886
O O14 0.272446 0.929795 0.814732
O O15 0.000000 0.500000 0.000000
O O16 0.919226 0.519205 0.332865
O O17 0.003273 0.763288 0.541327
#
# Coordination Sequence:
#
# PCOD9011584 Si02
#       8
#     2   2   2   2   2   2   2   2
#     4  12  27  42  67 102 140 172 226 287 329 401
#     4  12  27  41  66 108 138 173 222 284 342 400
#     4  10  21  40  66  96 130 175 226 270 334 400
#     4  11  22  42  68  94 130 182 231 272 325 403
#     4  10  21  40  69  93 124 178 227 267 325 403
#     4  12  24  45  70  94 134 189 225 268 342 406
#     4   9  21  42  67  90 132 182 218 271 337 407
#     4  10  23  42  63  98 134 174 219 275 340 395
#
# _framework density 23.223955
#
# number of rings (size 3 to 8) (size 9 to 14) (size 15 to 20)
#    0.000    1.250    3.750    1.500    3.500    2.000 
#    0.000    5.625    0.000    0.000    0.000    0.000 
#    0.000    0.000    0.000    0.000    0.000    0.000 
#
# Total GULP energy -89513.864142 kJ/mol
# GULP energy per Si atom -5594.616509 kJ/mol
# Density = 2.317110 g / cm^3
# Si number density = 23.223955 Si / 1000 Ang^3
#
#
#
# Elastic Constant Matrix: (Units=GPa)
#
#
# Indices 1 2 3 4 5 6 
#
# 1 147.1471 26.3587 40.8729 11.2106 -2.9673 -38.7807
# 2 26.3587 76.7024 40.9135 10.9980 5.7428 -10.9131
# 3 40.8729 40.9135 111.4224 13.7024 21.1942 -10.2932
# 4 11.2106 10.9980 13.7024 35.7383 -5.4689 10.6539
# 5 -2.9673 5.7428 21.1942 -5.4689 37.4745 -2.1446
# 6 -38.7807 -10.9131 -10.2932 10.6539 -2.1446 44.7272
#
#
#
# Elastic Compliance Matrix: (Units=1/GPa)
#
#
# Indices 1 2 3 4 5 6 
#
# 1 0.010568 -0.000291 -0.002729 -0.004719 0.002291 0.009698
# 2 -0.000291 0.017106 -0.005297 -0.004258 -0.000058 0.003714
# 3 -0.002729 -0.005297 0.013939 -0.004108 -0.007879 0.000150
# 4 -0.004719 -0.004258 -0.004108 0.037857 0.007283 -0.014745
# 5 0.002291 -0.000058 -0.007879 0.007283 0.032393 -0.000022
# 6 0.009698 0.003714 0.000150 -0.014745 -0.000022 0.035218
#
#
# Mechanical properties :
#
#
# Convention : Reuss Voigt Hill
#
# Bulk Modulus (GPa) = 40.03455 61.28468 50.65961
# Shear Modulus (GPa) = 29.06304 38.72978 33.89641
#
# Velocity S-wave (km/s) = 3.54139 4.08814 3.82454
# Velocity P-wave (km/s) = 5.83076 6.98066 6.43146
#
# Compressibility (1/GPa) = 0.02497843
#
# Stress axis : x y z
#
# Youngs Moduli (GPa) = 94.62792 58.45906 71.74286
#
# Poissons Ratio (x) = 0.01700 0.19581
# Poissons Ratio (y) = 0.02752 0.38001
# Poissons Ratio (z) = 0.25827 0.30965
#
# Static dielectric constant tensor:
#      x y z
#    x 2.210830 -0.267670 -0.049270 
#    y -0.267670 2.132740 0.060050 
#    z -0.049270 0.060050 1.840460 
# 
# From -- ./inp_files/71477.got.cif
#   From: 2010.05.17/outbox.cif.g08.bks.cpg/sg2_36_cif.got.tgz:71477.got - 2010.06.03 11:33:40.
