data_PCOD9011231
_publ_section_title
;
Structure prediction by ZEFSAII (Michael W. Deem and Ramdas Pophale) SiO2 
 PCOD9011231
Probable space group: P -1
;
_chemical_formula_sum "Si O2"
_cell_formula_units_Z 16
_cell_length_a 9.042911
_cell_length_b 11.516931
_cell_length_c 14.606055
_cell_angle_alpha 111.193235
_cell_angle_beta 144.285286
_cell_angle_gamma 88.685111
_cell_volume 718.365699
_symmetry_space_group_name_H-M "P -1"
_symmetry_group_IT_number 2
_symmetry_cell_setting 'triclinic'
loop_
_space_group_symop_operation_xyz
x,y,z
-x,-y,-z
loop_
_atom_site_type_symbol
_atom_site_label
_atom_site_fract_x
_atom_site_fract_y
_atom_site_fract_z
Si Si1 0.941570 0.965052 0.087941
Si Si2 0.922779 0.192282 0.031223
Si Si3 0.074824 0.106254 0.730250
Si Si4 0.420689 0.182473 0.645868
Si Si5 0.415255 0.801213 0.481530
Si Si6 0.262326 0.513735 0.070162
Si Si7 0.091651 0.484149 0.281499
Si Si8 0.453462 0.601436 0.934285
O O1 0.292445 0.072779 0.292225
O O2 0.884749 0.836241 0.954917
O O3 0.879914 0.925817 0.151408
O O4 0.813393 0.061270 0.010423
O O5 0.655012 0.181530 0.833614
O O6 0.106756 0.343444 0.220168
O O7 0.851890 0.169224 0.630062
O O8 0.899942 0.954702 0.547551
O O9 0.384962 0.238566 0.896504
O O10 0.528673 0.186776 0.596588
O O11 0.451810 0.337110 0.719812
O O12 0.345164 0.647754 0.443463
O O13 0.377164 0.402958 0.073896
O O14 0.117381 0.520077 0.905636
O O15 0.000000 0.500000 0.000000
O O16 0.890381 0.453932 0.261156
O O17 0.500000 0.500000 0.000000
#
# Coordination Sequence:
#
# PCOD9011231 Si02
#       8
#     2   2   2   2   2   2   2   2
#     4  10  21  33  53  82 109 143 177 229 269 319
#     4  10  20  34  50  79 113 141 182 217 272 323
#     4  11  18  33  54  80 110 137 181 225 279 312
#     4  10  18  30  53  85 106 137 175 235 267 311
#     4  11  17  32  55  81 111 134 177 232 278 308
#     4  10  17  29  52  81 107 134 178 224 265 313
#     4  10  21  33  53  77 116 143 178 220 276 327
#     4  10  20  34  51  81 114 144 174 221 284 322
#
# _framework density 22.272777999999999
#
# number of rings (size 3 to 8) (size 9 to 14) (size 15 to 20)
#    0.000    1.750    6.250    0.750    1.750    0.500 
#    0.000    7.500    0.000    0.000    0.000   13.125 
#    0.000    0.000    0.000    0.000    0.000    0.000 
#
# Total GULP energy -89079.241876 kJ/mol
# GULP energy per Si atom -5567.452617 kJ/mol
# Density = 2.222208 g / cm^3
# Si number density = 22.272778 Si / 1000 Ang^3
#
#
#
# Elastic Constant Matrix: (Units=GPa)
#
#
# Indices 1 2 3 4 5 6 
#
# 1 65.9002 22.7779 12.6129 0.2214 3.1405 -2.0440
# 2 22.7779 80.0981 33.9637 19.8968 7.7872 -0.8973
# 3 12.6129 33.9637 48.8977 11.5415 2.8476 5.6300
# 4 0.2214 19.8968 11.5415 44.7136 2.5519 -2.6258
# 5 3.1405 7.7872 2.8476 2.5519 14.2939 13.6151
# 6 -2.0440 -0.8973 5.6300 -2.6258 13.6151 28.4369
#
#
#
# Elastic Compliance Matrix: (Units=1/GPa)
#
#
# Indices 1 2 3 4 5 6 
#
# 1 0.017499 -0.003859 -0.002751 0.003020 -0.006618 0.005128
# 2 -0.003859 0.022644 -0.013889 -0.004663 -0.019329 0.012011
# 3 -0.002751 -0.013889 0.032593 -0.004151 0.017532 -0.015866
# 4 0.003020 -0.004663 -0.004151 0.026508 -0.009577 0.007925
# 5 -0.006618 -0.019329 0.017532 -0.009577 0.156896 -0.080560
# 6 0.005128 0.012011 -0.015866 0.007925 -0.080560 0.078357
#
#
# Mechanical properties :
#
#
# Convention : Reuss Voigt Hill
#
# Bulk Modulus (GPa) = 31.50832 37.06722 34.28777
# Shear Modulus (GPa) = 12.95086 25.85831 19.40459
#
# Velocity S-wave (km/s) = 2.41398 3.41102 2.95485
# Velocity P-wave (km/s) = 4.68476 5.67379 5.20283
#
# Compressibility (1/GPa) = 0.03173765
#
# Stress axis : x y z
#
# Youngs Moduli (GPa) = 57.14574 44.16265 30.68107
#
# Poissons Ratio (x) = 0.17042 0.08441
# Poissons Ratio (y) = 0.22052 0.42613
# Poissons Ratio (z) = 0.15722 0.61338
#
# Static dielectric constant tensor:
#      x y z
#    x 1.299710 -0.239500 -0.279960 
#    y -0.239500 1.825040 -0.051100 
#    z -0.279960 -0.051100 1.672390 
# 
# From -- ./inp_files/500618.got.cif
#   From: 2010.05.17/outbox.cif.g08.bks.cpg/sg2_251_cif.got.tgz:500618.got - 2010.06.03 11:33:40.
