data_PCOD9011168
_publ_section_title
;
Structure prediction by ZEFSAII (Michael W. Deem and Ramdas Pophale) SiO2 
 PCOD9011168
Probable space group: P -1
;
_chemical_formula_sum "Si O2"
_cell_formula_units_Z 16
_cell_length_a 11.607507
_cell_length_b 9.139034
_cell_length_c 8.548186
_cell_angle_alpha 58.761486
_cell_angle_beta 69.700480
_cell_angle_gamma 55.597295
_cell_volume 637.844795
_symmetry_space_group_name_H-M "P -1"
_symmetry_group_IT_number 2
_symmetry_cell_setting 'triclinic'
loop_
_space_group_symop_operation_xyz
x,y,z
-x,-y,-z
loop_
_atom_site_type_symbol
_atom_site_label
_atom_site_fract_x
_atom_site_fract_y
_atom_site_fract_z
Si Si1 0.738755 0.179072 0.239163
Si Si2 0.442502 0.921637 0.403306
Si Si3 0.555666 0.685111 0.843457
Si Si4 0.054236 0.520967 0.633940
Si Si5 0.842239 0.910126 0.053812
Si Si6 0.679165 0.486097 0.615564
Si Si7 0.430234 0.816696 0.128826
Si Si8 0.984510 0.168149 0.294759
O O1 0.692165 0.066636 0.450796
O O2 0.587887 0.313479 0.149870
O O3 0.826282 0.263509 0.244028
O O4 0.841460 0.031054 0.140707
O O5 0.566025 0.700439 0.492967
O O6 0.433596 0.926352 0.218243
O O7 0.459061 0.110576 0.326711
O O8 0.685582 0.517646 0.782038
O O9 0.560674 0.691400 0.024004
O O10 0.104862 0.312041 0.803934
O O11 0.179794 0.566266 0.507904
O O12 0.973913 0.687431 0.709764
O O13 0.000000 0.500000 0.500000
O O14 0.918380 0.919208 0.855304
O O15 0.679432 0.020867 0.025138
O O16 0.626322 0.330181 0.707343
O O17 0.000000 0.000000 0.500000
#
# Coordination Sequence:
#
# PCOD9011168 Si02
#       8
#     2   2   2   2   2   2   2   2
#     4  10  21  40  65  93 128 170 215 265 320 383
#     4  11  21  40  66  95 131 172 214 266 326 389
#     4  10  22  39  62  94 129 170 213 265 326 386
#     4  12  27  46  68  96 129 173 223 275 330 389
#     4  11  24  45  67  96 133 172 220 274 326 389
#     4  11  22  41  64  92 128 171 215 265 326 389
#     4  11  23  40  64  99 132 168 216 270 326 389
#     4  12  25  43  68  97 128 172 221 272 330 390
#
# _framework density 25.084474
#
# number of rings (size 3 to 8) (size 9 to 14) (size 15 to 20)
#    0.000    1.000    0.000    8.625    0.000    4.000 
#    0.000    3.750    0.000    0.000    0.000    0.000 
#    0.000    0.000    0.000    0.000    0.000    0.000 
#
# Total GULP energy -89469.650795 kJ/mol
# GULP energy per Si atom -5591.853175 kJ/mol
# Density = 2.502738 g / cm^3
# Si number density = 25.084474 Si / 1000 Ang^3
#
#
#
# Elastic Constant Matrix: (Units=GPa)
#
#
# Indices 1 2 3 4 5 6 
#
# 1 47.1293 25.0149 4.2534 9.4835 7.0265 19.4051
# 2 25.0149 105.7257 19.4039 8.1911 11.8141 24.5622
# 3 4.2534 19.4039 106.1943 21.4444 -1.9397 0.1592
# 4 9.4835 8.1911 21.4444 61.4912 -1.4213 -4.4557
# 5 7.0265 11.8141 -1.9397 -1.4213 38.9297 7.9157
# 6 19.4051 24.5622 0.1592 -4.4557 7.9157 35.7251
#
#
#
# Elastic Compliance Matrix: (Units=1/GPa)
#
#
# Indices 1 2 3 4 5 6 
#
# 1 0.030227 -0.003260 0.000483 -0.005485 -0.001697 -0.014487
# 2 -0.003260 0.012377 -0.001962 -0.000972 -0.001998 -0.006409
# 3 0.000483 -0.001962 0.010459 -0.003410 0.000817 0.000433
# 4 -0.005485 -0.000972 -0.003410 0.018868 0.000608 0.005882
# 5 -0.001697 -0.001998 0.000817 0.000608 0.027417 -0.003707
# 6 -0.014487 -0.006409 0.000433 0.005882 -0.003707 0.041820
#
#
# Mechanical properties :
#
#
# Convention : Reuss Voigt Hill
#
# Bulk Modulus (GPa) = 22.94310 39.59930 31.27120
# Shear Modulus (GPa) = 30.27144 41.25434 35.76289
#
# Velocity S-wave (km/s) = 3.47764 4.05979 3.77994
# Velocity P-wave (km/s) = 5.02907 6.14788 5.61640
#
# Compressibility (1/GPa) = 0.04358610
#
# Stress axis : x y z
#
# Youngs Moduli (GPa) = 33.08328 80.79324 95.61425
#
# Poissons Ratio (x) = 0.26340 -0.04622
# Poissons Ratio (y) = 0.10786 0.18755
# Poissons Ratio (z) = -0.01599 0.15848
#
# Static dielectric constant tensor:
#      x y z
#    x 2.038840 0.002380 0.042320 
#    y 0.002380 1.984350 0.038070 
#    z 0.042320 0.038070 2.039660 
# 
# From -- ./inp_files/242510.got.cif
#   From: 2010.05.17/outbox.cif.g08.bks.cpg/sg2_122_cif.got.tgz:242510.got - 2010.06.03 11:33:40.
