data_PCOD9011620
_publ_section_title
;
Structure prediction by ZEFSAII (Michael W. Deem and Ramdas Pophale) SiO2 
 PCOD9011620
Probable space group: P -1
;
_chemical_formula_sum "Si O2"
_cell_formula_units_Z 16
_cell_length_a 19.169118
_cell_length_b 19.522647
_cell_length_c 10.797732
_cell_angle_alpha 31.508098
_cell_angle_beta 44.425658
_cell_angle_gamma 22.726365
_cell_volume 761.893960
_symmetry_space_group_name_H-M "P -1"
_symmetry_group_IT_number 2
_symmetry_cell_setting 'triclinic'
loop_
_space_group_symop_operation_xyz
x,y,z
-x,-y,-z
loop_
_atom_site_type_symbol
_atom_site_label
_atom_site_fract_x
_atom_site_fract_y
_atom_site_fract_z
Si Si1 0.514670 0.226518 0.977393
Si Si2 0.026289 0.093641 0.733713
Si Si3 0.709670 0.342403 0.126503
Si Si4 0.644687 0.678703 0.303942
Si Si5 0.515663 0.006418 0.755823
Si Si6 0.353743 0.901118 0.709440
Si Si7 0.675870 0.149310 0.651289
Si Si8 0.912670 0.244910 0.216559
O O1 0.598738 0.232674 0.761036
O O2 0.281651 0.505406 0.846921
O O3 0.598363 0.146068 0.132797
O O4 0.561345 0.029036 0.170871
O O5 0.818852 0.383946 0.514779
O O6 0.152007 0.901201 0.756133
O O7 0.149170 0.067471 0.685467
O O8 0.000000 0.000000 0.000000
O O9 0.641402 0.324403 0.353078
O O10 0.833531 0.323911 0.054521
O O11 0.520322 0.616414 0.882346
O O12 0.640642 0.740835 0.351582
O O13 0.444423 0.825935 0.306562
O O14 0.649458 0.789320 0.026701
O O15 0.620426 0.989833 0.558777
O O16 0.906899 0.868116 0.802849
O O17 0.000000 0.000000 0.500000
#
# Coordination Sequence:
#
# PCOD9011620 Si02
#       8
#     2   2   2   2   2   2   2   2
#     4  10  23  42  67  96 130 173 211 270 325 385
#     4  12  25  40  66  99 132 169 219 266 331 387
#     4  10  22  39  65  95 133 167 211 274 325 387
#     4  10  23  42  66  94 126 173 219 274 309 385
#     4  10  22  45  65  87 133 171 223 266 315 379
#     4  11  23  42  64  94 132 178 208 266 330 385
#     4  10  21  40  66  97 131 163 216 268 331 374
#     4   9  21  36  61  98 128 163 210 264 324 384
#
# _framework density 21.000297
#
# number of rings (size 3 to 8) (size 9 to 14) (size 15 to 20)
#    0.000    1.750    0.000    3.000    8.750    5.000 
#    6.750    0.625    0.000    0.000    0.000    0.000 
#    0.000    0.000    0.000    0.000    0.000    0.000 
#
# Total GULP energy -89328.673801 kJ/mol
# GULP energy per Si atom -5583.042113 kJ/mol
# Density = 2.095250 g / cm^3
# Si number density = 21.000297 Si / 1000 Ang^3
#
#
#
# Elastic Constant Matrix: (Units=GPa)
#
#
# Indices 1 2 3 4 5 6 
#
# 1 82.1402 39.4988 11.9692 3.9467 -4.0595 5.3267
# 2 39.4988 96.1601 31.6416 12.2321 7.2287 -2.2569
# 3 11.9692 31.6416 87.1226 32.6617 -2.6806 -2.0470
# 4 3.9467 12.2321 32.6617 31.0744 0.7812 3.0227
# 5 -4.0595 7.2287 -2.6806 0.7812 20.1179 -3.6371
# 6 5.3267 -2.2569 -2.0470 3.0227 -3.6371 40.5588
#
#
#
# Elastic Compliance Matrix: (Units=1/GPa)
#
#
# Indices 1 2 3 4 5 6 
#
# 1 0.015960 -0.007194 0.000358 0.000488 0.005468 -0.002024
# 2 -0.007194 0.015542 -0.004876 0.000024 -0.007527 0.000887
# 3 0.000358 -0.004876 0.021304 -0.020947 0.005992 0.002855
# 4 0.000488 0.000024 -0.020947 0.054831 -0.005867 -0.005732
# 5 0.005468 -0.007527 0.005992 -0.005867 0.055367 0.004568
# 6 -0.002024 0.000887 0.002855 -0.005732 0.004568 0.025952
#
#
# Mechanical properties :
#
#
# Convention : Reuss Voigt Hill
#
# Bulk Modulus (GPa) = 34.03477 47.96024 40.99751
# Shear Modulus (GPa) = 22.50486 30.50445 26.50465
#
# Velocity S-wave (km/s) = 3.27715 3.81540 3.55647
# Velocity P-wave (km/s) = 5.52826 6.50363 6.03568
#
# Compressibility (1/GPa) = 0.02938172
#
# Stress axis : x y z
#
# Youngs Moduli (GPa) = 62.65822 64.34013 46.93930
#
# Poissons Ratio (x) = 0.46286 -0.01680
# Poissons Ratio (y) = 0.45076 0.22888
# Poissons Ratio (z) = -0.02242 0.31372
#
# Static dielectric constant tensor:
#      x y z
#    x 1.830560 0.020050 0.005100 
#    y 0.020050 1.771930 0.003540 
#    z 0.005100 0.003540 1.741070 
# 
# From -- ./inp_files/472716.got.cif
#   From: 2010.05.17/outbox.cif.g08.bks.cpg/sg2_237_cif.got.tgz:472716.got - 2010.06.03 11:33:40.
