data_PCOD9011831
_publ_section_title
;
Structure prediction by ZEFSAII (Michael W. Deem and Ramdas Pophale) SiO2 
 PCOD9011831
Probable space group: P -1
;
_chemical_formula_sum "Si O2"
_cell_formula_units_Z 16
_cell_length_a 9.907419
_cell_length_b 12.922847
_cell_length_c 11.761420
_cell_angle_alpha 90.518040
_cell_angle_beta 125.813098
_cell_angle_gamma 129.258383
_cell_volume 753.477232
_symmetry_space_group_name_H-M "P -1"
_symmetry_group_IT_number 2
_symmetry_cell_setting 'triclinic'
loop_
_space_group_symop_operation_xyz
x,y,z
-x,-y,-z
loop_
_atom_site_type_symbol
_atom_site_label
_atom_site_fract_x
_atom_site_fract_y
_atom_site_fract_z
Si Si1 0.016740 0.283844 0.639649
Si Si2 0.382122 0.717941 0.573433
Si Si3 0.599913 0.443605 0.605472
Si Si4 0.816334 0.810782 0.416239
Si Si5 0.332852 0.648321 0.034064
Si Si6 0.943669 0.316826 0.974479
Si Si7 0.464559 0.662914 0.858098
Si Si8 0.075194 0.893101 0.181785
O O1 0.022566 0.214877 0.530593
O O2 0.312904 0.479390 0.799396
O O3 0.814326 0.280506 0.532565
O O4 0.938504 0.173028 0.705415
O O5 0.311942 0.595786 0.445723
O O6 0.373148 0.665404 0.693990
O O7 0.683806 0.907450 0.701179
O O8 0.500000 0.500000 0.500000
O O9 0.348442 0.274696 0.549853
O O10 0.832923 0.579088 0.814394
O O11 0.592097 0.713011 0.206121
O O12 0.000000 0.000000 0.500000
O O13 0.076454 0.451937 0.940823
O O14 0.369914 0.683520 0.919729
O O15 0.298620 0.735627 0.091595
O O16 0.878107 0.173399 0.890343
O O17 0.784648 0.802559 0.016973
#
# Coordination Sequence:
#
# PCOD9011831 Si02
#       8
#     2   2   2   2   2   2   2   2
#     4  12  24  43  70 100 131 178 232 276 332 405
#     4  12  28  43  68 104 142 174 220 289 344 390
#     4  11  24  45  66  94 134 179 215 266 343 408
#     4  11  24  40  65  96 132 169 221 277 331 391
#     4  10  21  40  67  95 126 175 222 270 320 401
#     4  10  22  40  69  96 128 170 226 272 326 395
#     4  12  23  45  69  97 133 180 229 271 332 411
#     4  12  24  43  69 103 136 176 226 281 338 395
#
# _framework density 21.234883
#
# number of rings (size 3 to 8) (size 9 to 14) (size 15 to 20)
#    0.000    0.750    2.500    6.000    5.250    1.000 
#    0.000    0.625    0.000    0.000    0.000    0.000 
#    0.000    0.000    0.000    0.000    0.000    0.000 
#
# Total GULP energy -89570.524981 kJ/mol
# GULP energy per Si atom -5598.157811 kJ/mol
# Density = 2.118655 g / cm^3
# Si number density = 21.234883 Si / 1000 Ang^3
#
#
#
# Elastic Constant Matrix: (Units=GPa)
#
#
# Indices 1 2 3 4 5 6 
#
# 1 129.8152 4.0694 23.1968 -12.1057 -4.3581 -6.5038
# 2 4.0694 64.3843 19.5642 -9.0470 1.3152 16.4797
# 3 23.1968 19.5642 46.3576 -15.9071 0.6135 8.1739
# 4 -12.1057 -9.0470 -15.9071 45.6247 3.5523 -6.1735
# 5 -4.3581 1.3152 0.6135 3.5523 27.4211 -5.0069
# 6 -6.5038 16.4797 8.1739 -6.1735 -5.0069 25.7607
#
#
#
# Elastic Compliance Matrix: (Units=1/GPa)
#
#
# Indices 1 2 3 4 5 6 
#
# 1 0.008994 -0.000154 -0.004905 0.001097 0.002249 0.004625
# 2 -0.000154 0.020589 -0.006345 0.000488 -0.003065 -0.011676
# 3 -0.004905 -0.006345 0.030306 0.007492 -0.003148 -0.005611
# 4 0.001097 0.000488 0.007492 0.025562 -0.002748 0.003179
# 5 0.002249 -0.003065 -0.003148 -0.002748 0.039318 0.010511
# 6 0.004625 -0.011676 -0.005611 0.003179 0.010511 0.052041
#
#
# Mechanical properties :
#
#
# Convention : Reuss Voigt Hill
#
# Bulk Modulus (GPa) = 26.96793 37.13533 32.05163
# Shear Modulus (GPa) = 23.58731 32.67641 28.13186
#
# Velocity S-wave (km/s) = 3.33645 3.92702 3.64372
# Velocity P-wave (km/s) = 5.25071 6.17153 5.72965
#
# Compressibility (1/GPa) = 0.03708109
#
# Stress axis : x y z
#
# Youngs Moduli (GPa) = 111.18546 48.56887 32.99722
#
# Poissons Ratio (x) = 0.00747 0.16184
# Poissons Ratio (y) = 0.01711 0.20938
# Poissons Ratio (z) = 0.54532 0.30819
#
# Static dielectric constant tensor:
#      x y z
#    x 1.824860 -0.012290 -0.067900 
#    y -0.012290 1.738120 0.040170 
#    z -0.067900 0.040170 1.908440 
# 
# From -- ./inp_files/261698.got.cif
#   From: 2010.05.17/outbox.cif.g08.bks.cpg/sg2_131_cif.got.tgz:261698.got - 2010.06.03 11:33:40.
