data_PCOD9011237
_publ_section_title
;
Structure prediction by ZEFSAII (Michael W. Deem and Ramdas Pophale) SiO2 
 PCOD9011237
Probable space group: P -1
;
_chemical_formula_sum "Si O2"
_cell_formula_units_Z 16
_cell_length_a 8.533194
_cell_length_b 10.688277
_cell_length_c 8.579708
_cell_angle_alpha 80.904635
_cell_angle_beta 116.064658
_cell_angle_gamma 118.830869
_cell_volume 614.359514
_symmetry_space_group_name_H-M "P -1"
_symmetry_group_IT_number 2
_symmetry_cell_setting 'triclinic'
loop_
_space_group_symop_operation_xyz
x,y,z
-x,-y,-z
loop_
_atom_site_type_symbol
_atom_site_label
_atom_site_fract_x
_atom_site_fract_y
_atom_site_fract_z
Si Si1 0.508727 0.324972 0.987268
Si Si2 0.106933 0.690284 0.886465
Si Si3 0.233449 0.050164 0.079689
Si Si4 0.761919 0.944009 0.584332
Si Si5 0.750368 0.573038 0.265672
Si Si6 0.102779 0.642659 0.227925
Si Si7 0.458106 0.628872 0.512056
Si Si8 0.171935 0.958980 0.733162
O O1 0.664199 0.271662 0.018836
O O2 0.363215 0.221172 0.075567
O O3 0.656795 0.483522 0.083347
O O4 0.367327 0.334772 0.790163
O O5 0.075094 0.787947 0.728223
O O6 0.982131 0.526399 0.814377
O O7 0.058195 0.707803 0.040232
O O8 0.285224 0.007028 0.279093
O O9 0.272989 0.997604 0.940322
O O10 0.000000 0.000000 0.000000
O O11 0.660521 0.772389 0.593153
O O12 0.997711 0.003241 0.661544
O O13 0.709664 0.984588 0.385600
O O14 0.683608 0.449409 0.387415
O O15 0.980993 0.658425 0.315967
O O16 0.327917 0.685127 0.347211
O O17 0.500000 0.500000 0.500000
#
# Coordination Sequence:
#
# PCOD9011237 Si02
#       8
#     2   2   2   2   2   2   2   2
#     4  10  21  40  65  95 126 169 222 269 331 392
#     4  10  22  43  64  96 133 167 222 278 327 397
#     4  10  22  41  66  93 132 175 225 268 325 393
#     4  10  23  44  64  99 136 171 228 271 321 406
#     4  10  22  39  66  91 131 171 214 278 329 392
#     4  10  23  40  65  97 130 171 220 270 340 396
#     4  12  23  39  66  98 135 174 218 277 338 390
#     4  10  23  42  69  94 134 180 217 274 331 388
#
# _framework density 26.043384
#
# number of rings (size 3 to 8) (size 9 to 14) (size 15 to 20)
#    0.000    1.750    1.250    1.875    7.000    2.500 
#    2.250    3.125    0.000    0.000    0.000    0.000 
#    0.000    0.000    0.000    0.000    0.000    0.000 
#
# Total GULP energy -89338.450335 kJ/mol
# GULP energy per Si atom -5583.653146 kJ/mol
# Density = 2.598411 g / cm^3
# Si number density = 26.043384 Si / 1000 Ang^3
#
#
#
# Elastic Constant Matrix: (Units=GPa)
#
#
# Indices 1 2 3 4 5 6 
#
# 1 93.2977 9.1910 35.4437 2.6321 1.8699 14.2186
# 2 9.1910 67.0209 19.8566 -10.1478 -10.7243 21.0133
# 3 35.4437 19.8566 111.7419 -23.2171 -41.4513 3.6879
# 4 2.6321 -10.1478 -23.2171 38.6011 11.2400 -4.0333
# 5 1.8699 -10.7243 -41.4513 11.2400 41.6251 -6.4507
# 6 14.2186 21.0133 3.6879 -4.0333 -6.4507 36.7532
#
#
#
# Elastic Compliance Matrix: (Units=1/GPa)
#
#
# Indices 1 2 3 4 5 6 
#
# 1 0.015791 0.000854 -0.009547 -0.004506 -0.010002 -0.007889
# 2 0.000854 0.019408 -0.003033 0.002176 -0.000342 -0.010944
# 3 -0.009547 -0.003033 0.021238 0.007624 0.019921 0.007629
# 4 -0.004506 0.002176 0.007624 0.031618 0.000323 0.003261
# 5 -0.010002 -0.000342 0.019921 0.000323 0.045704 0.010123
# 6 -0.007889 -0.010944 0.007629 0.003261 0.010123 0.037887
#
#
# Mechanical properties :
#
#
# Convention : Reuss Voigt Hill
#
# Bulk Modulus (GPa) = 30.31687 44.56033 37.43860
# Shear Modulus (GPa) = 24.26085 37.23383 30.74734
#
# Velocity S-wave (km/s) = 3.05545 3.78522 3.43974
# Velocity P-wave (km/s) = 4.91059 6.02088 5.49386
#
# Compressibility (1/GPa) = 0.03298493
#
# Stress axis : x y z
#
# Youngs Moduli (GPa) = 63.32746 51.52458 47.08463
#
# Poissons Ratio (x) = -0.04399 0.44950
# Poissons Ratio (y) = -0.05406 0.14282
# Poissons Ratio (z) = 0.60457 0.15629
#
# Static dielectric constant tensor:
#      x y z
#    x 2.060930 -0.040140 -0.023570 
#    y -0.040140 2.111030 0.047530 
#    z -0.023570 0.047530 2.129710 
# 
# From -- ./inp_files/186173.got.cif
#   From: 2010.05.17/outbox.cif.g08.bks.cpg/sg2_94_cif.got.tgz:186173.got - 2010.06.03 11:33:40.
