data_PCOD9011765
_publ_section_title
;
Structure prediction by ZEFSAII (Michael W. Deem and Ramdas Pophale) SiO2 
 PCOD9011765
Probable space group: P -1
;
_chemical_formula_sum "Si O2"
_cell_formula_units_Z 16
_cell_length_a 7.889165
_cell_length_b 9.009195
_cell_length_c 16.031817
_cell_angle_alpha 60.716444
_cell_angle_beta 94.458109
_cell_angle_gamma 49.789453
_cell_volume 612.368127
_symmetry_space_group_name_H-M "P -1"
_symmetry_group_IT_number 2
_symmetry_cell_setting 'triclinic'
loop_
_space_group_symop_operation_xyz
x,y,z
-x,-y,-z
loop_
_atom_site_type_symbol
_atom_site_label
_atom_site_fract_x
_atom_site_fract_y
_atom_site_fract_z
Si Si1 0.054550 0.525084 0.277006
Si Si2 0.297854 0.116959 0.258335
Si Si3 0.124530 0.213168 0.641646
Si Si4 0.078146 0.850725 0.130093
Si Si5 0.968010 0.772803 0.547101
Si Si6 0.151238 0.647300 0.932108
Si Si7 0.536725 0.383814 0.171031
Si Si8 0.661790 0.232602 0.523482
O O1 0.112335 0.568531 0.358752
O O2 0.920161 0.451043 0.319615
O O3 0.260541 0.293106 0.278330
O O4 0.918390 0.799682 0.155003
O O5 0.064636 0.311606 0.125971
O O6 0.598477 0.906228 0.289918
O O7 0.268289 0.958722 0.347044
O O8 0.924216 0.706184 0.478146
O O9 0.216576 0.942532 0.718304
O O10 0.391953 0.548175 0.206937
O O11 0.014490 0.046389 0.139585
O O12 0.000000 0.000000 0.000000
O O13 0.163280 0.767338 0.524001
O O14 0.686398 0.067071 0.495335
O O15 0.362829 0.529185 0.899069
O O16 0.319116 0.476360 0.069980
O O17 0.500000 0.500000 0.500000
#
# Coordination Sequence:
#
# PCOD9011765 Si02
#       8
#     2   2   2   2   2   2   2   2
#     4  11  23  42  64  97 131 167 217 267 316 384
#     4  11  25  41  62  97 133 168 214 266 325 380
#     4  12  23  40  64  95 130 175 212 263 320 379
#     4  10  21  41  67  94 124 166 219 264 322 387
#     4  10  24  41  65  96 134 171 215 264 317 384
#     4  10  22  42  66  91 126 168 214 272 323 381
#     4  10  21  40  67  92 122 166 222 262 320 386
#     4  10  22  42  65  96 131 173 216 264 319 382
#
# _framework density 26.128073000000001
#
# number of rings (size 3 to 8) (size 9 to 14) (size 15 to 20)
#    0.000    1.500    2.500    1.875    0.000    5.500 
#    0.000    0.625    0.000    0.000    0.000    0.000 
#    0.000    0.000    0.000    0.000    0.000    0.000 
#
# Total GULP energy -89083.775647 kJ/mol
# GULP energy per Si atom -5567.735978 kJ/mol
# Density = 2.606860 g / cm^3
# Si number density = 26.128073 Si / 1000 Ang^3
#
#
#
# Elastic Constant Matrix: (Units=GPa)
#
#
# Indices 1 2 3 4 5 6 
#
# 1 55.5348 19.9258 8.5044 0.4338 -33.9357 7.3717
# 2 19.9258 213.7928 18.4874 -18.1574 -2.4780 -1.7832
# 3 8.5044 18.4874 85.1237 7.6518 -54.2651 12.7396
# 4 0.4338 -18.1574 7.6518 29.6517 11.0683 -7.2426
# 5 -33.9357 -2.4780 -54.2651 11.0683 24.3888 10.8739
# 6 7.3717 -1.7832 12.7396 -7.2426 10.8739 40.1224
#
#
#
# Elastic Compliance Matrix: (Units=1/GPa)
#
#
# Indices 1 2 3 4 5 6 
#
# 1 0.011948 0.000315 -0.009722 0.007894 -0.010917 0.005289
# 2 0.000315 0.004673 0.001134 0.001085 0.003357 -0.000924
# 3 -0.009722 0.001134 0.002565 0.006540 -0.013259 0.005796
# 4 0.007894 0.001085 0.006540 0.026337 0.014929 -0.002771
# 5 -0.010917 0.003357 -0.013259 0.014929 -0.016109 0.013426
# 6 0.005289 -0.000924 0.005796 -0.002771 0.013426 0.017932
#
#
# Mechanical properties :
#
#
# Convention : Reuss Voigt Hill
#
# Bulk Modulus (GPa) = 378.73018 49.80960 214.26989
# Shear Modulus (GPa) = 77.19490 39.33481 58.26485
#
# Velocity S-wave (km/s) = 5.44141 3.88424 4.72738
# Velocity P-wave (km/s) = 13.59208 6.26270 10.58220
#
# Compressibility (1/GPa) = 0.00264040
#
# Stress axis : x y z
#
# Youngs Moduli (GPa) = 83.69650 213.98009 389.90217
#
# Poissons Ratio (x) = -0.06745 3.79082
# Poissons Ratio (y) = -0.02638 -0.44234
# Poissons Ratio (z) = 0.81374 -0.24276
#
# Static dielectric constant tensor:
#      x y z
#    x 2.154040 0.033530 0.048570 
#    y 0.033530 2.095040 -0.053550 
#    z 0.048570 -0.053550 2.069790 
# 
# From -- ./inp_files/556075.got.cif
#   From: 2010.05.17/outbox.cif.g08.bks.cpg/sg2_279_cif.got.tgz:556075.got - 2010.06.03 11:33:40.
