data_PCOD9011922
_publ_section_title
;
Structure prediction by ZEFSAII (Michael W. Deem and Ramdas Pophale) SiO2 
 PCOD9011922
Probable space group: P -1
;
_chemical_formula_sum "Si O2"
_cell_formula_units_Z 12
_cell_length_a 9.533135
_cell_length_b 8.628714
_cell_length_c 9.501315
_cell_angle_alpha 44.195521
_cell_angle_beta 60.762540
_cell_angle_gamma 54.260056
_cell_volume 438.868297
_symmetry_space_group_name_H-M "P -1"
_symmetry_group_IT_number 2
_symmetry_cell_setting 'triclinic'
loop_
_space_group_symop_operation_xyz
x,y,z
-x,-y,-z
loop_
_atom_site_type_symbol
_atom_site_label
_atom_site_fract_x
_atom_site_fract_y
_atom_site_fract_z
Si Si1 0.097173 0.324915 0.194393
Si Si2 0.390251 0.270271 0.437745
Si Si3 0.747124 0.061774 0.849283
Si Si4 0.305470 0.615909 0.840351
Si Si5 0.630710 0.677051 0.261173
Si Si6 0.055065 0.179350 0.612124
O O1 0.171817 0.065520 0.254316
O O2 0.017013 0.293452 0.400394
O O3 0.827094 0.108973 0.250295
O O4 0.250797 0.425704 0.078411
O O5 0.496372 0.410521 0.216736
O O6 0.417249 0.319580 0.556236
O O7 0.189423 0.297782 0.519088
O O8 0.500000 0.000000 0.500000
O O9 0.547627 0.203972 0.816934
O O10 0.742944 0.844882 0.089350
O O11 0.870592 0.193303 0.756765
O O12 0.000000 0.500000 0.000000
O O13 0.717141 0.441855 0.276128
#
# Coordination Sequence:
#
# PCOD9011922 Si02
#       6
#     2   2   2   2   2   2
#     4  11  22  37  67 100 122 169 225 263 307 383
#     4  10  22  40  64  98 132 173 206 271 331 384
#     4  10  21  40  67  99 128 171 220 270 310 391
#     4  10  22  42  68  96 127 175 215 266 316 391
#     4  10  22  40  70  97 131 170 222 263 328 378
#     4  11  23  41  69  98 132 168 218 265 327 383
#
# _framework density 27.343057000000002
#
# number of rings (size 3 to 8) (size 9 to 14) (size 15 to 20)
#    0.000    1.667    1.667    3.000    2.333    1.333 
#    0.000    4.167    0.000    0.000    0.000    0.000 
#    0.000    0.000    0.000    0.000    0.000    0.000 
#
# Total GULP energy -67035.875025 kJ/mol
# GULP energy per Si atom -5586.322919 kJ/mol
# Density = 2.728082 g / cm^3
# Si number density = 27.343057 Si / 1000 Ang^3
#
#
#
# Elastic Constant Matrix: (Units=GPa)
#
#
# Indices 1 2 3 4 5 6 
#
# 1 122.0436 -2.2096 41.7684 -8.8942 -56.4244 -14.2893
# 2 -2.2096 61.3479 -3.5267 -12.4984 -6.8802 10.3044
# 3 41.7684 -3.5267 160.1362 1.3897 -62.3332 1.9038
# 4 -8.8942 -12.4984 1.3897 37.6730 5.8774 -13.8309
# 5 -56.4244 -6.8802 -62.3332 5.8774 73.0333 3.5098
# 6 -14.2893 10.3044 1.9038 -13.8309 3.5098 34.8285
#
#
#
# Elastic Compliance Matrix: (Units=1/GPa)
#
#
# Indices 1 2 3 4 5 6 
#
# 1 0.014049 0.001631 0.000454 0.004324 0.010764 0.005889
# 2 0.001631 0.018425 0.001608 0.004501 0.004174 -0.003503
# 3 0.000454 0.001608 0.009763 -0.002088 0.009126 -0.002572
# 4 0.004324 0.004501 -0.002088 0.034687 -0.001504 0.014483
# 5 0.010764 0.004174 0.009126 -0.001504 0.030359 -0.000974
# 6 0.005889 -0.003503 -0.002572 0.014483 -0.000974 0.038155
#
#
# Mechanical properties :
#
#
# Convention : Reuss Voigt Hill
#
# Bulk Modulus (GPa) = 20.15201 46.17686 33.16444
# Shear Modulus (GPa) = 32.34287 49.60666 40.97477
#
# Velocity S-wave (km/s) = 3.44300 4.26400 3.87530
# Velocity P-wave (km/s) = 4.81578 6.41614 5.67268
#
# Compressibility (1/GPa) = 0.04962284
#
# Stress axis : x y z
#
# Youngs Moduli (GPa) = 71.17797 54.27341 102.43023
#
# Poissons Ratio (x) = -0.08852 -0.04650
# Poissons Ratio (y) = -0.11610 -0.16468
# Poissons Ratio (z) = -0.03231 -0.08726
#
# Static dielectric constant tensor:
#      x y z
#    x 2.252950 -0.069070 -0.057710 
#    y -0.069070 2.207390 -0.035360 
#    z -0.057710 -0.035360 2.106470 
# 
# From -- ./inp_files/395036.got.cif
#   From: 2010.05.17/outbox.cif.g08.bks.cpg/sg2_198_cif.got.tgz:395036.got - 2010.06.03 11:33:40.
