data_PCOD9011245
_publ_section_title
;
Structure prediction by ZEFSAII (Michael W. Deem and Ramdas Pophale) SiO2 
 PCOD9011245
Probable space group: P -1
;
_chemical_formula_sum "Si O2"
_cell_formula_units_Z 16
_cell_length_a 7.528063
_cell_length_b 5.236557
_cell_length_c 16.797920
_cell_angle_alpha 95.836683
_cell_angle_beta 94.271799
_cell_angle_gamma 74.699707
_cell_volume 634.626980
_symmetry_space_group_name_H-M "P -1"
_symmetry_group_IT_number 2
_symmetry_cell_setting 'triclinic'
loop_
_space_group_symop_operation_xyz
x,y,z
-x,-y,-z
loop_
_atom_site_type_symbol
_atom_site_label
_atom_site_fract_x
_atom_site_fract_y
_atom_site_fract_z
Si Si1 0.454433 0.744943 0.447151
Si Si2 0.261460 0.520400 0.838519
Si Si3 0.138432 0.165424 0.422526
Si Si4 0.779330 0.991421 0.252501
Si Si5 0.694332 0.322447 0.815294
Si Si6 0.339610 0.199638 0.277580
Si Si7 0.123843 0.706166 0.007941
Si Si8 0.173470 0.359715 0.609143
O O1 0.500000 0.500000 0.500000
O O2 0.606733 0.662755 0.380406
O O3 0.500000 0.000000 0.500000
O O4 0.240165 0.850599 0.420235
O O5 0.191229 0.255599 0.816413
O O6 0.474668 0.420585 0.819965
O O7 0.247491 0.625229 0.931044
O O8 0.171266 0.763005 0.783367
O O9 0.280296 0.250406 0.368570
O O10 0.137045 0.252457 0.517413
O O11 0.943662 0.334685 0.386852
O O12 0.866487 0.831802 0.329827
O O13 0.560931 0.107791 0.270468
O O14 0.745813 0.544768 0.770211
O O15 0.738410 0.041721 0.763784
O O16 0.773509 0.304454 0.905583
O O17 0.000000 0.500000 0.000000
O O18 0.000000 0.000000 0.000000
#
# Coordination Sequence:
#
# PCOD9011245 Si02
#       8
#     2   2   2   2   2   2   2   2
#     4  10  22  40  62  86 122 165 216 275 322 386
#     4  10  23  43  68  95 131 174 222 269 329 404
#     4  10  22  41  65  96 134 177 227 277 343 394
#     4  10  21  40  65  95 128 172 224 278 332 390
#     4  10  23  43  68  95 130 174 221 267 331 401
#     4  10  21  40  65  95 128 171 222 278 330 393
#     4  12  25  42  67 100 136 170 213 269 336 399
#     4  10  22  41  65  96 133 178 227 280 340 396
#
# _framework density 25.211658
#
# number of rings (size 3 to 8) (size 9 to 14) (size 15 to 20)
#    0.000    1.750    1.250    1.875    0.000    7.500 
#    0.000   10.000    0.000    0.000    0.000    0.000 
#    0.000    0.000    0.000    0.000    0.000    0.000 
#
# Total GULP energy -89565.855039 kJ/mol
# GULP energy per Si atom -5597.865940 kJ/mol
# Density = 2.515427 g / cm^3
# Si number density = 25.211658 Si / 1000 Ang^3
#
#
#
# Elastic Constant Matrix: (Units=GPa)
#
#
# Indices 1 2 3 4 5 6 
#
# 1 56.2523 51.7540 14.3730 -0.4237 3.4233 -31.1197
# 2 51.7540 217.1178 54.8425 -22.7104 11.6052 -1.4058
# 3 14.3730 54.8425 176.5831 -16.1273 17.9013 3.1855
# 4 -0.4237 -22.7104 -16.1273 45.5209 -3.0024 2.7172
# 5 3.4233 11.6052 17.9013 -3.0024 36.3864 -3.9371
# 6 -31.1197 -1.4058 3.1855 2.7172 -3.9371 45.9552
#
#
#
# Elastic Compliance Matrix: (Units=1/GPa)
#
#
# Indices 1 2 3 4 5 6 
#
# 1 0.045610 -0.011152 -0.001792 -0.007453 0.002926 0.031361
# 2 -0.011152 0.007933 -0.000908 0.003885 -0.001537 -0.007608
# 3 -0.001792 -0.000908 0.006581 0.001796 -0.002853 -0.002048
# 4 -0.007453 0.003885 0.001796 0.024858 -0.000077 -0.006529
# 5 0.002926 -0.001537 -0.002853 -0.000077 0.029600 0.004672
# 6 0.031361 -0.007608 -0.002048 -0.006529 0.004672 0.043693
#
#
# Mechanical properties :
#
#
# Convention : Reuss Voigt Hill
#
# Bulk Modulus (GPa) = 30.84554 76.87691 53.86122
# Shear Modulus (GPa) = 25.40827 47.50475 36.45651
#
# Velocity S-wave (km/s) = 3.17803 4.34549 3.80678
# Velocity P-wave (km/s) = 5.07225 7.46569 6.38217
#
# Compressibility (1/GPa) = 0.03241960
#
# Stress axis : x y z
#
# Youngs Moduli (GPa) = 21.92481 126.05891 151.94946
#
# Poissons Ratio (x) = 1.40586 0.27227
# Poissons Ratio (y) = 0.24451 0.13799
# Poissons Ratio (z) = 0.03929 0.11448
#
# Static dielectric constant tensor:
#      x y z
#    x 2.101250 0.039750 0.036030 
#    y 0.039750 1.993070 0.034430 
#    z 0.036030 0.034430 1.985280 
# 
# From -- ./inp_files/488433.got.cif
#   From: 2010.05.17/outbox.cif.g08.bks.cpg/sg2_245_cif.got.tgz:488433.got - 2010.06.03 11:33:40.
