data_PCOD9011477
_publ_section_title
;
Structure prediction by ZEFSAII (Michael W. Deem and Ramdas Pophale) SiO2 
 PCOD9011477
Probable space group: P -1
;
_chemical_formula_sum "Si O2"
_cell_formula_units_Z 16
_cell_length_a 25.460715
_cell_length_b 7.160502
_cell_length_c 14.029930
_cell_angle_alpha 63.607803
_cell_angle_beta 27.055630
_cell_angle_gamma 46.310246
_cell_volume 719.177752
_symmetry_space_group_name_H-M "P -1"
_symmetry_group_IT_number 2
_symmetry_cell_setting 'triclinic'
loop_
_space_group_symop_operation_xyz
x,y,z
-x,-y,-z
loop_
_atom_site_type_symbol
_atom_site_label
_atom_site_fract_x
_atom_site_fract_y
_atom_site_fract_z
Si Si1 0.046483 0.287252 0.557852
Si Si2 0.562966 0.205317 0.920395
Si Si3 0.596731 0.577293 0.360623
Si Si4 0.194838 0.738303 0.074859
Si Si5 0.849915 0.608083 0.285309
Si Si6 0.479775 0.863227 0.209935
Si Si7 0.658225 0.721801 0.405493
Si Si8 0.897743 0.690021 0.892286
O O1 0.000000 0.500000 0.500000
O O2 0.980004 0.151604 0.659184
O O3 0.949918 0.494155 0.760488
O O4 0.239280 0.053416 0.323682
O O5 0.526856 0.239322 0.858414
O O6 0.500000 0.500000 0.000000
O O7 0.485549 0.102246 0.120201
O O8 0.500000 0.500000 0.500000
O O9 0.613265 0.582008 0.446168
O O10 0.501174 0.916091 0.406894
O O11 0.767548 0.322617 0.085357
O O12 0.193161 0.975654 0.060024
O O13 0.349792 0.420033 0.947192
O O14 0.758156 0.555790 0.379306
O O15 0.943371 0.445419 0.270077
O O16 0.688777 0.958729 0.496314
O O17 0.000000 0.500000 0.000000
O O18 0.780225 0.700366 0.145679
#
# Coordination Sequence:
#
# PCOD9011477 Si02
#       8
#     2   2   2   2   2   2   2   2
#     4  12  26  46  67 101 137 177 231 291 355 410
#     4  11  27  48  72  97 136 181 235 289 353 412
#     4  11  21  39  63 100 133 177 225 277 334 415
#     4  12  25  40  71 100 136 179 231 278 350 417
#     4  10  22  43  69  99 140 188 223 281 351 409
#     4  11  24  47  70 101 139 179 231 294 339 419
#     4  10  21  40  66  92 140 181 224 280 341 404
#     4  11  24  43  67  97 141 181 223 289 347 411
#
# _framework density 22.247629
#
# number of rings (size 3 to 8) (size 9 to 14) (size 15 to 20)
#    0.000    1.000    6.250    0.000    3.500    0.500 
#    2.250    1.875    0.000    0.000    0.000    0.000 
#    0.000    0.000    0.000    0.000    0.000    0.000 
#
# Total GULP energy -89364.693096 kJ/mol
# GULP energy per Si atom -5585.293318 kJ/mol
# Density = 2.219699 g / cm^3
# Si number density = 22.247629 Si / 1000 Ang^3
#
#
#
# Elastic Constant Matrix: (Units=GPa)
#
#
# Indices 1 2 3 4 5 6 
#
# 1 131.8749 30.1074 12.8954 0.5640 -12.0744 19.6450
# 2 30.1074 75.2425 11.0805 3.8801 10.8545 34.6186
# 3 12.8954 11.0805 74.8468 -0.9377 3.7390 14.2368
# 4 0.5640 3.8801 -0.9377 23.0917 4.3277 -1.1151
# 5 -12.0744 10.8545 3.7390 4.3277 27.0053 -1.1338
# 6 19.6450 34.6186 14.2368 -1.1151 -1.1338 33.8959
#
#
#
# Elastic Compliance Matrix: (Units=1/GPa)
#
#
# Indices 1 2 3 4 5 6 
#
# 1 0.009281 -0.004187 -0.001215 -0.000736 0.006101 -0.000412
# 2 -0.004187 0.031554 0.002802 -0.003674 -0.015682 -0.031623
# 3 -0.001215 0.002802 0.015004 0.000540 -0.004194 -0.008582
# 4 -0.000736 -0.003674 0.000540 0.045335 -0.005972 0.005244
# 5 0.006101 -0.015682 -0.004194 -0.005972 0.048256 0.015659
# 6 -0.000412 -0.031623 -0.008582 0.005244 0.015659 0.066339
#
#
# Mechanical properties :
#
#
# Convention : Reuss Voigt Hill
#
# Bulk Modulus (GPa) = 19.74732 43.34788 31.54760
# Shear Modulus (GPa) = 21.02178 31.99065 26.50622
#
# Velocity S-wave (km/s) = 3.07726 3.79613 3.45544
# Velocity P-wave (km/s) = 4.63912 6.22420 5.48918
#
# Compressibility (1/GPa) = 0.05063977
#
# Stress axis : x y z
#
# Youngs Moduli (GPa) = 107.74815 31.69135 66.64991
#
# Poissons Ratio (x) = 0.13270 0.08096
# Poissons Ratio (y) = 0.45118 -0.18678
# Poissons Ratio (z) = 0.13088 -0.08881
#
# Static dielectric constant tensor:
#      x y z
#    x 1.819230 0.003020 0.021900 
#    y 0.003020 1.835960 -0.074220 
#    z 0.021900 -0.074220 1.744260 
# 
# From -- ./inp_files/542142.got.cif
#   From: 2010.05.17/outbox.cif.g08.bks.cpg/sg2_272_cif.got.tgz:542142.got - 2010.06.03 11:33:40.
