data_PCOD9011462
_publ_section_title
;
Structure prediction by ZEFSAII (Michael W. Deem and Ramdas Pophale) SiO2 
 PCOD9011462
Probable space group: P -1
;
_chemical_formula_sum "Si O2"
_cell_formula_units_Z 14
_cell_length_a 20.493851
_cell_length_b 8.815643
_cell_length_c 9.473890
_cell_angle_alpha 124.390796
_cell_angle_beta 43.225215
_cell_angle_gamma 150.518628
_cell_volume 564.510556
_symmetry_space_group_name_H-M "P -1"
_symmetry_group_IT_number 2
_symmetry_cell_setting 'triclinic'
loop_
_space_group_symop_operation_xyz
x,y,z
-x,-y,-z
loop_
_atom_site_type_symbol
_atom_site_label
_atom_site_fract_x
_atom_site_fract_y
_atom_site_fract_z
Si Si1 0.774553 0.115670 0.445727
Si Si2 0.188787 0.235708 0.844211
Si Si3 0.048808 0.960973 0.195693
Si Si4 0.506155 0.957706 0.722189
Si Si5 0.611260 0.849595 0.982448
Si Si6 0.925999 0.156626 0.592166
Si Si7 0.750220 0.240351 0.255804
O O1 0.796347 0.167413 0.267218
O O2 0.921625 0.466849 0.458769
O O3 0.779069 0.907684 0.357333
O O4 0.606082 0.961158 0.654070
O O5 0.329702 0.598847 0.773580
O O6 0.000000 0.000000 0.000000
O O7 0.197262 0.221152 0.992421
O O8 0.909444 0.609370 0.168752
O O9 0.092903 0.944841 0.269202
O O10 0.966885 0.032819 0.383374
O O11 0.619964 0.156037 0.507483
O O12 0.483383 0.121174 0.911614
O O13 0.679085 0.032033 0.121586
O O14 0.500000 0.500000 0.000000
O O15 0.764752 0.019312 0.740192
#
# Coordination Sequence:
#
# PCOD9011462 Si02
#       7
#     2   2   2   2   2   2   2
#     4   9  21  41  65  87 124 167 208 256 307 373
#     4  12  23  39  64  94 129 167 208 254 314 381
#     4  10  21  40  69  93 120 170 210 260 310 368
#     4  10  23  40  60  91 130 161 206 254 315 377
#     4  12  23  36  63  98 126 160 211 267 311 362
#     4  10  21  40  66  92 126 158 219 262 305 362
#     4   9  20  40  64  88 124 163 215 256 307 368
#
# _framework density 24.800242999999998
#
# number of rings (size 3 to 8) (size 9 to 14) (size 15 to 20)
#    0.857    0.857    0.000    5.143    2.000    3.429 
#    0.000    5.000    0.000    0.000    0.000    0.000 
#    0.000    0.000    0.000    0.000    0.000    0.000 
#
# Total GULP energy -78324.302481 kJ/mol
# GULP energy per Si atom -5594.593034 kJ/mol
# Density = 2.474380 g / cm^3
# Si number density = 24.800243 Si / 1000 Ang^3
#
#
#
# Elastic Constant Matrix: (Units=GPa)
#
#
# Indices 1 2 3 4 5 6 
#
# 1 67.3700 19.4251 43.9640 9.3058 -21.8039 -7.1240
# 2 19.4251 133.2174 50.8625 14.7133 -25.8705 -8.5671
# 3 43.9640 50.8625 152.0778 13.4592 -37.6315 -5.7489
# 4 9.3058 14.7133 13.4592 47.5860 -8.5229 -6.9736
# 5 -21.8039 -25.8705 -37.6315 -8.5229 69.9393 3.8699
# 6 -7.1240 -8.5671 -5.7489 -6.9736 3.8699 30.2917
#
#
#
# Elastic Compliance Matrix: (Units=1/GPa)
#
#
# Indices 1 2 3 4 5 6 
#
# 1 0.019386 -0.000123 -0.004525 -0.001468 0.003223 0.002916
# 2 -0.000123 0.009035 -0.002355 -0.001569 0.001763 0.001493
# 3 -0.004525 -0.002355 0.009381 -0.000618 0.002715 -0.000439
# 4 -0.001468 -0.001569 -0.000618 0.022786 0.001174 0.004189
# 5 0.003223 0.001763 0.002715 0.001174 0.017570 -0.000203
# 6 0.002916 0.001493 -0.000439 0.004189 -0.000203 0.035027
#
#
# Mechanical properties :
#
#
# Convention : Reuss Voigt Hill
#
# Bulk Modulus (GPa) = 42.02407 64.57426 53.29917
# Shear Modulus (GPa) = 37.00278 45.45764 41.23021
#
# Velocity S-wave (km/s) = 3.86687 4.28594 4.08179
# Velocity P-wave (km/s) = 6.07608 7.11243 6.61458
#
# Compressibility (1/GPa) = 0.02379589
#
# Stress axis : x y z
#
# Youngs Moduli (GPa) = 51.58252 110.67865 106.59568
#
# Poissons Ratio (x) = 0.01366 0.48239
# Poissons Ratio (y) = 0.00637 0.25099
# Poissons Ratio (z) = 0.23343 0.26061
#
# Static dielectric constant tensor:
#      x y z
#    x 2.149230 -0.012720 -0.009260 
#    y -0.012720 1.841540 0.003870 
#    z -0.009260 0.003870 1.953060 
# 
# From -- ./inp_files/474304.got.cif
#   From: 2010.05.17/outbox.cif.g08.bks.cpg/sg2_238_cif.got.tgz:474304.got - 2010.06.03 11:33:40.
