data_PCOD9011165
_publ_section_title
;
Structure prediction by ZEFSAII (Michael W. Deem and Ramdas Pophale) SiO2 
 PCOD9011165
Probable space group: P -1
;
_chemical_formula_sum "Si O2"
_cell_formula_units_Z 16
_cell_length_a 10.372861
_cell_length_b 13.672820
_cell_length_c 8.534722
_cell_angle_alpha 136.475188
_cell_angle_beta 68.022337
_cell_angle_gamma 107.243813
_cell_volume 772.423262
_symmetry_space_group_name_H-M "P -1"
_symmetry_group_IT_number 2
_symmetry_cell_setting 'triclinic'
loop_
_space_group_symop_operation_xyz
x,y,z
-x,-y,-z
loop_
_atom_site_type_symbol
_atom_site_label
_atom_site_fract_x
_atom_site_fract_y
_atom_site_fract_z
Si Si1 0.959953 0.193824 0.846068
Si Si2 0.554559 0.787861 0.841983
Si Si3 0.500673 0.830985 0.277604
Si Si4 0.744967 0.838466 0.400567
Si Si5 0.004071 0.507196 0.319818
Si Si6 0.734009 0.584778 0.350821
Si Si7 0.299736 0.954913 0.074100
Si Si8 0.218333 0.676864 0.197669
O O1 0.852024 0.117611 0.926639
O O2 0.877137 0.228399 0.762823
O O3 0.102298 0.112120 0.669374
O O4 0.009328 0.347204 0.067933
O O5 0.605845 0.643902 0.575313
O O6 0.669224 0.917606 0.912768
O O7 0.524831 0.784893 0.034738
O O8 0.416772 0.839222 0.875826
O O9 0.632080 0.783797 0.263730
O O10 0.349266 0.764246 0.311865
O O11 0.500000 0.000000 0.500000
O O12 0.771729 0.712352 0.362649
O O13 0.679689 0.965014 0.675301
O O14 0.125205 0.600724 0.286469
O O15 0.000000 0.500000 0.500000
O O16 0.859608 0.564858 0.389470
O O17 0.723031 0.443156 0.086318
#
# Coordination Sequence:
#
# PCOD9011165 Si02
#       8
#     2   2   2   2   2   2   2   2
#     4  11  20  42  68  91 124 176 217 253 324 390
#     4  10  22  40  61  94 137 159 223 259 316 373
#     4  12  25  42  64  98 133 171 212 269 320 375
#     4  11  21  40  67  93 131 165 221 264 315 385
#     4  11  24  43  65  97 130 159 214 277 320 382
#     4  10  22  42  68  92 126 175 214 261 318 387
#     4  10  21  40  65  93 127 177 210 264 318 378
#     4  11  22  45  68  91 130 173 215 258 326 387
#
# _framework density 20.714030999999999
#
# number of rings (size 3 to 8) (size 9 to 14) (size 15 to 20)
#    0.000    1.250    5.000    1.125    1.750    2.000 
#    0.000    0.625    0.000    0.000    0.000    0.000 
#    0.000    0.000    0.000    0.000    0.000    0.000 
#
# Total GULP energy -89359.826404 kJ/mol
# GULP energy per Si atom -5584.989150 kJ/mol
# Density = 2.066689 g / cm^3
# Si number density = 20.714031 Si / 1000 Ang^3
#
#
#
# Elastic Constant Matrix: (Units=GPa)
#
#
# Indices 1 2 3 4 5 6 
#
# 1 101.4420 41.0709 38.1441 4.1985 -2.5152 13.3746
# 2 41.0709 104.0382 23.4370 -8.3592 10.2479 22.8682
# 3 38.1441 23.4370 83.1412 1.1864 -20.2488 -0.7520
# 4 4.1985 -8.3592 1.1864 23.9604 3.2352 1.3633
# 5 -2.5152 10.2479 -20.2488 3.2352 30.0116 1.3520
# 6 13.3746 22.8682 -0.7520 1.3633 1.3520 41.3002
#
#
#
# Elastic Compliance Matrix: (Units=1/GPa)
#
#
# Indices 1 2 3 4 5 6 
#
# 1 0.013922 -0.003988 -0.005393 -0.003347 -0.000648 -0.002267
# 2 -0.003988 0.015542 -0.005073 0.008088 -0.009604 -0.007360
# 3 -0.005393 -0.005073 0.019624 -0.004048 0.014751 0.004564
# 4 -0.003347 0.008088 -0.004048 0.047046 -0.010634 -0.004673
# 5 -0.000648 -0.009604 0.014751 -0.010634 0.047438 0.004595
# 6 -0.002267 -0.007360 0.004564 -0.004673 0.004595 0.029109
#
#
# Mechanical properties :
#
#
# Convention : Reuss Voigt Hill
#
# Bulk Modulus (GPa) = 49.55443 54.88060 52.21751
# Shear Modulus (GPa) = 24.00206 31.45241 27.72724
#
# Velocity S-wave (km/s) = 3.40771 3.90091 3.66262
# Velocity P-wave (km/s) = 6.28159 6.84407 6.56886
#
# Compressibility (1/GPa) = 0.02017983
#
# Stress axis : x y z
#
# Youngs Moduli (GPa) = 71.83002 64.33997 50.95844
#
# Poissons Ratio (x) = 0.25657 0.27484
# Poissons Ratio (y) = 0.28644 0.25851
# Poissons Ratio (z) = 0.38741 0.32639
#
# Static dielectric constant tensor:
#      x y z
#    x 1.796580 0.029040 -0.062430 
#    y 0.029040 1.765270 0.000340 
#    z -0.062430 0.000340 1.769810 
# 
# From -- ./inp_files/209235.got.cif
#   From: 2010.05.17/outbox.cif.g08.bks.cpg/sg2_105_cif.got.tgz:209235.got - 2010.06.03 11:33:40.
