data_PCOD9011960
_publ_section_title
;
Structure prediction by ZEFSAII (Michael W. Deem and Ramdas Pophale) SiO2 
 PCOD9011960
Probable space group: P -1
;
_chemical_formula_sum "Si O2"
_cell_formula_units_Z 14
_cell_length_a 12.646250
_cell_length_b 22.425622
_cell_length_c 15.398282
_cell_angle_alpha 162.086529
_cell_angle_beta 148.294783
_cell_angle_gamma 24.574362
_cell_volume 554.960644
_symmetry_space_group_name_H-M "P -1"
_symmetry_group_IT_number 2
_symmetry_cell_setting 'triclinic'
loop_
_space_group_symop_operation_xyz
x,y,z
-x,-y,-z
loop_
_atom_site_type_symbol
_atom_site_label
_atom_site_fract_x
_atom_site_fract_y
_atom_site_fract_z
Si Si1 0.254990 0.278504 0.635938
Si Si2 0.644584 0.439920 0.609033
Si Si3 0.193919 0.620814 0.846232
Si Si4 0.646391 0.165326 0.605336
Si Si5 0.344557 0.010571 0.987636
Si Si6 0.179515 0.300246 0.992020
Si Si7 0.662247 0.188995 0.936162
O O1 0.438639 0.196145 0.568530
O O2 0.424243 0.247292 0.793417
O O3 0.178330 0.099566 0.334219
O O4 0.004460 0.556804 0.856854
O O5 0.500000 0.500000 0.500000
O O6 0.728554 0.174954 0.329589
O O7 0.841799 0.497411 0.803685
O O8 0.452766 0.639690 0.823441
O O9 0.238935 0.726046 0.109772
O O10 0.184206 0.758077 0.944287
O O11 0.465284 0.347977 0.654106
O O12 0.909409 0.711425 0.787446
O O13 0.856121 0.882129 0.333502
O O14 0.534242 0.892959 0.039333
O O15 0.500000 0.000000 0.000000
#
# Coordination Sequence:
#
# PCOD9011960 Si02
#       7
#     2   2   2   2   2   2   2
#     4  10  21  40  68 101 130 170 214 275 329 388
#     4  10  23  43  62  97 132 169 221 264 329 393
#     4  10  23  43  65  96 135 173 216 272 328 388
#     4  10  22  43  66 100 135 168 217 272 331 387
#     4  11  25  44  63  94 131 174 226 263 323 399
#     4  11  23  42  68  97 133 173 215 271 333 387
#     4  10  21  41  67  99 131 167 224 270 326 390
#
# _framework density 25.227014
#
# number of rings (size 3 to 8) (size 9 to 14) (size 15 to 20)
#    0.000    1.714    1.429    1.714    4.000    1.143 
#    5.143    7.143    0.000    0.000    0.000    0.000 
#    0.000    0.000    0.000    0.000    0.000    0.000 
#
# Total GULP energy -78307.607545 kJ/mol
# GULP energy per Si atom -5593.400539 kJ/mol
# Density = 2.516960 g / cm^3
# Si number density = 25.227014 Si / 1000 Ang^3
#
#
#
# Elastic Constant Matrix: (Units=GPa)
#
#
# Indices 1 2 3 4 5 6 
#
# 1 113.4608 2.2357 15.7661 9.5545 -6.2139 6.3726
# 2 2.2357 51.3311 -12.5009 3.8527 -7.0134 -4.2642
# 3 15.7661 -12.5009 109.0581 22.0479 -16.5446 5.9006
# 4 9.5545 3.8527 22.0479 30.7985 -1.8373 -9.0256
# 5 -6.2139 -7.0134 -16.5446 -1.8373 44.9809 7.9793
# 6 6.3726 -4.2642 5.9006 -9.0256 7.9793 22.8845
#
#
#
# Elastic Compliance Matrix: (Units=1/GPa)
#
#
# Indices 1 2 3 4 5 6 
#
# 1 0.009581 -0.000221 0.000068 -0.004386 0.002052 -0.005172
# 2 -0.000221 0.021618 0.004518 -0.005907 0.004962 -0.001135
# 3 0.000068 0.004518 0.014027 -0.013289 0.007201 -0.010546
# 4 -0.004386 -0.005907 -0.013289 0.051456 -0.009105 0.027016
# 5 0.002052 0.004962 0.007201 -0.009105 0.028215 -0.014932
# 6 -0.005172 -0.001135 -0.010546 0.027016 -0.014932 0.063507
#
#
# Mechanical properties :
#
#
# Convention : Reuss Voigt Hill
#
# Bulk Modulus (GPa) = 18.53349 31.65020 25.09184
# Shear Modulus (GPa) = 25.29610 37.62273 31.45942
#
# Velocity S-wave (km/s) = 3.17004 3.86601 3.53519
# Velocity P-wave (km/s) = 4.55648 5.70100 5.16057
#
# Compressibility (1/GPa) = 0.05395638
#
# Stress axis : x y z
#
# Youngs Moduli (GPa) = 104.37516 46.25689 71.29048
#
# Poissons Ratio (x) = 0.01022 -0.00481
# Poissons Ratio (y) = 0.02305 -0.32212
# Poissons Ratio (z) = -0.00705 -0.20901
#
# Static dielectric constant tensor:
#      x y z
#    x 1.954170 0.008870 0.053800 
#    y 0.008870 2.038600 -0.019600 
#    z 0.053800 -0.019600 2.117640 
# 
# From -- ./inp_files/95528.got.cif
#   From: 2010.05.17/outbox.cif.g08.bks.cpg/sg2_48_cif.got.tgz:95528.got - 2010.06.03 11:33:40.
