data_PCOD9011705
_publ_section_title
;
Structure prediction by ZEFSAII (Michael W. Deem and Ramdas Pophale) SiO2 
 PCOD9011705
Probable space group: P -1
;
_chemical_formula_sum "Si O2"
_cell_formula_units_Z 14
_cell_length_a 11.661350
_cell_length_b 8.505947
_cell_length_c 19.011576
_cell_angle_alpha 58.496201
_cell_angle_beta 30.984619
_cell_angle_gamma 81.990231
_cell_volume 588.514469
_symmetry_space_group_name_H-M "P -1"
_symmetry_group_IT_number 2
_symmetry_cell_setting 'triclinic'
loop_
_space_group_symop_operation_xyz
x,y,z
-x,-y,-z
loop_
_atom_site_type_symbol
_atom_site_label
_atom_site_fract_x
_atom_site_fract_y
_atom_site_fract_z
Si Si1 0.216810 0.677707 0.202206
Si Si2 0.087744 0.959393 0.642405
Si Si3 0.718096 0.719016 0.750445
Si Si4 0.655777 0.510370 0.612519
Si Si5 0.036147 0.488706 0.181444
Si Si6 0.803038 0.736810 0.208435
Si Si7 0.838370 0.972567 0.914314
O O1 0.302979 0.508743 0.209571
O O2 0.059896 0.550147 0.236857
O O3 0.981692 0.596822 0.407712
O O4 0.339209 0.956342 0.045619
O O5 0.819218 0.789066 0.763451
O O6 0.207471 0.822071 0.619908
O O7 0.583088 0.730676 0.155070
O O8 0.299409 0.254262 0.440365
O O9 0.381511 0.622885 0.943015
O O10 0.000000 0.000000 0.500000
O O11 0.520961 0.442441 0.620056
O O12 0.038219 0.062408 0.209677
O O13 0.934613 0.606736 0.163888
O O14 0.867939 0.822340 0.235505
O O15 0.000000 0.000000 0.000000
#
# Coordination Sequence:
#
# PCOD9011705 Si02
#       7
#     2   2   2   2   2   2   2
#     4   9  20  39  64  92 122 165 205 257 305 379
#     4  10  22  41  64  99 127 164 209 269 313 371
#     4  11  25  42  69  89 125 174 215 258 319 381
#     4  10  21  40  67 102 125 165 218 245 324 374
#     4  10  22  43  63  90 132 167 210 263 317 365
#     4   9  20  40  69  93 124 173 208 256 308 386
#     4   9  20  39  65  91 135 163 203 263 308 371
#
# _framework density 23.788709999999998
#
# number of rings (size 3 to 8) (size 9 to 14) (size 15 to 20)
#    0.000    2.286    0.000    1.714    8.000    5.714 
#    0.000   25.000    0.000    0.000    0.000    0.000 
#    0.000    0.000    0.000    0.000    0.000    0.000 
#
# Total GULP energy -78009.778796 kJ/mol
# GULP energy per Si atom -5572.127057 kJ/mol
# Density = 2.373457 g / cm^3
# Si number density = 23.788710 Si / 1000 Ang^3
#
#
#
# Elastic Constant Matrix: (Units=GPa)
#
#
# Indices 1 2 3 4 5 6 
#
# 1 134.6814 50.6037 12.4827 -5.1561 4.1930 17.5793
# 2 50.6037 183.6907 40.7283 -31.7697 6.5098 2.0693
# 3 12.4827 40.7283 60.6250 -15.6050 28.0748 8.8666
# 4 -5.1561 -31.7697 -15.6050 34.2752 -2.6613 -6.7465
# 5 4.1930 6.5098 28.0748 -2.6613 48.1885 -15.5468
# 6 17.5793 2.0693 8.8666 -6.7465 -15.5468 46.4274
#
#
#
# Elastic Compliance Matrix: (Units=1/GPa)
#
#
# Indices 1 2 3 4 5 6 
#
# 1 0.009090 -0.003087 0.001968 -0.001841 -0.003247 -0.005035
# 2 -0.003087 0.008475 -0.006311 0.005722 0.004517 0.004341
# 3 0.001968 -0.006311 0.035044 0.005701 -0.024062 -0.014386
# 4 -0.001841 0.005722 0.005701 0.037702 -0.000329 0.004722
# 5 -0.003247 0.004517 -0.024062 -0.000329 0.040610 0.019174
# 6 -0.005035 0.004341 -0.014386 0.004722 0.019174 0.033106
#
#
# Mechanical properties :
#
#
# Convention : Reuss Voigt Hill
#
# Bulk Modulus (GPa) = 26.49157 65.18073 45.83615
# Shear Modulus (GPa) = 26.11365 44.12369 35.11867
#
# Velocity S-wave (km/s) = 3.31680 4.31143 3.84640
# Velocity P-wave (km/s) = 5.08218 7.22800 6.24790
#
# Compressibility (1/GPa) = 0.03774786
#
# Stress axis : x y z
#
# Youngs Moduli (GPa) = 110.00755 118.00076 28.53582
#
# Poissons Ratio (x) = 0.36431 -0.05617
# Poissons Ratio (y) = 0.33963 0.18010
# Poissons Ratio (z) = -0.21655 0.74476
#
# Static dielectric constant tensor:
#      x y z
#    x 1.953530 0.023440 -0.096260 
#    y 0.023440 2.045040 -0.145900 
#    z -0.096260 -0.145900 2.047720 
# 
# From -- ./inp_files/593452.got.cif
#   From: 2010.05.17/outbox.cif.g08.bks.cpg/sg2_297_cif.got.tgz:593452.got - 2010.06.03 11:33:40.
