data_PCOD9011365
_publ_section_title
;
Structure prediction by ZEFSAII (Michael W. Deem and Ramdas Pophale) SiO2 
 PCOD9011365
Probable space group: P -1
;
_chemical_formula_sum "Si O2"
_cell_formula_units_Z 13
_cell_length_a 6.886113
_cell_length_b 14.839797
_cell_length_c 14.960686
_cell_angle_alpha 18.741564
_cell_angle_beta 104.606000
_cell_angle_gamma 107.374882
_cell_volume 466.450908
_symmetry_space_group_name_H-M "P -1"
_symmetry_group_IT_number 2
_symmetry_cell_setting 'triclinic'
loop_
_space_group_symop_operation_xyz
x,y,z
-x,-y,-z
loop_
_atom_site_type_symbol
_atom_site_label
_atom_site_fract_x
_atom_site_fract_y
_atom_site_fract_z
Si Si1 0.322926 0.156712 0.637854
Si Si2 0.500000 0.500000 0.500000
Si Si3 0.794719 0.451805 0.165425
Si Si4 0.875609 0.217916 0.578561
Si Si5 0.289842 0.574901 0.097720
Si Si6 0.166901 0.218346 0.868459
Si Si7 0.764868 0.891007 0.612043
O O1 0.433961 0.215807 0.689362
O O2 0.080217 0.111953 0.671753
O O3 0.351547 0.912716 0.799790
O O4 0.365550 0.452746 0.311654
O O5 0.343272 0.343717 0.703259
O O6 0.762356 0.329536 0.376293
O O7 0.698272 0.193232 0.330982
O O8 0.753195 0.746736 0.844493
O O9 0.042472 0.506893 0.132591
O O10 0.932140 0.514154 0.361861
O O11 0.771072 0.962815 0.870492
O O12 0.340943 0.367431 0.220698
O O13 0.000000 0.000000 0.000000
O O14 0.000000 0.000000 0.500000
#
# Coordination Sequence:
#
# PCOD9011365 Si02
#       7
#     2   1   2   2   2   2   2
#     4  11  23  39  61  93 129 176 220 270 327 391
#     4  12  30  44  72  98 130 176 236 268 342 402
#     4  10  18  30  57  90 128 175 216 262 330 399
#     4  11  23  43  65  96 134 177 218 277 339 391
#     4  10  19  33  55  88 135 171 211 273 327 375
#     4  12  26  46  69  96 132 175 226 280 337 394
#     4  10  17  29  52  92 134 170 216 268 325 392
#
# _framework density 27.870028999999999
#
# number of rings (size 3 to 8) (size 9 to 14) (size 15 to 20)
#    0.000    1.231    1.538    8.769    0.000    2.462 
#    0.000    0.000    0.000    0.000    0.000   21.538 
#    0.000    0.000    0.000    0.000    0.000    0.000 
#
# Total GULP energy -72540.052519 kJ/mol
# GULP energy per Si atom -5580.004040 kJ/mol
# Density = 2.780660 g / cm^3
# Si number density = 27.870029 Si / 1000 Ang^3
#
#
#
# Elastic Constant Matrix: (Units=GPa)
#
#
# Indices 1 2 3 4 5 6 
#
# 1 90.0514 40.7499 51.4278 0.9626 -15.6962 -4.2449
# 2 40.7499 131.2245 46.8795 -29.0698 0.9851 -3.2092
# 3 51.4278 46.8795 180.9376 -6.8026 -6.6286 -8.2450
# 4 0.9626 -29.0698 -6.8026 66.7580 -16.8126 0.8456
# 5 -15.6962 0.9851 -6.6286 -16.8126 50.4618 -8.2716
# 6 -4.2449 -3.2092 -8.2450 0.8456 -8.2716 32.1937
#
#
#
# Elastic Compliance Matrix: (Units=1/GPa)
#
#
# Indices 1 2 3 4 5 6 
#
# 1 0.015602 -0.003945 -0.003201 -0.001174 0.004449 0.002018
# 2 -0.003945 0.010311 -0.001392 0.004365 -0.000158 -0.000004
# 3 -0.003201 -0.001392 0.006868 0.000173 0.000195 0.001244
# 4 -0.001174 0.004365 0.000173 0.018389 0.005923 0.001363
# 5 0.004449 -0.000158 0.000195 0.005923 0.024303 0.006709
# 6 0.002018 -0.000004 0.001244 0.001363 0.006709 0.033334
#
#
# Mechanical properties :
#
#
# Convention : Reuss Voigt Hill
#
# Bulk Modulus (GPa) = 63.68270 75.59201 69.63735
# Shear Modulus (GPa) = 38.13358 47.42647 42.78003
#
# Velocity S-wave (km/s) = 3.70302 4.12964 3.92214
# Velocity P-wave (km/s) = 6.41737 7.06545 6.74919
#
# Compressibility (1/GPa) = 0.01570285
#
# Stress axis : x y z
#
# Youngs Moduli (GPa) = 64.09624 96.98273 145.60955
#
# Poissons Ratio (x) = 0.38263 0.46616
# Poissons Ratio (y) = 0.25288 0.20269
# Poissons Ratio (z) = 0.20520 0.13500
#
# Static dielectric constant tensor:
#      x y z
#    x 2.212170 -0.017520 -0.014350 
#    y -0.017520 2.152070 0.007610 
#    z -0.014350 0.007610 2.040790 
# 
# From -- ./inp_files/503522.got.cif
#   From: 2010.05.17/outbox.cif.g08.bks.cpg/sg2_252_cif.got.tgz:503522.got - 2010.06.03 11:33:40.
