data_PCOD9011142
_publ_section_title
;
Structure prediction by ZEFSAII (Michael W. Deem and Ramdas Pophale) SiO2 
 PCOD9011142
Probable space group: P -1
;
_chemical_formula_sum "Si O2"
_cell_formula_units_Z 14
_cell_length_a 14.375362
_cell_length_b 8.861749
_cell_length_c 13.502797
_cell_angle_alpha 115.458243
_cell_angle_beta 149.571968
_cell_angle_gamma 44.787917
_cell_volume 527.758135
_symmetry_space_group_name_H-M "P -1"
_symmetry_group_IT_number 2
_symmetry_cell_setting 'triclinic'
loop_
_space_group_symop_operation_xyz
x,y,z
-x,-y,-z
loop_
_atom_site_type_symbol
_atom_site_label
_atom_site_fract_x
_atom_site_fract_y
_atom_site_fract_z
Si Si1 0.258530 0.554729 0.161960
Si Si2 0.020122 0.763686 0.791061
Si Si3 0.431992 0.652618 0.884158
Si Si4 0.612797 0.983565 0.312329
Si Si5 0.208738 0.013064 0.028397
Si Si6 0.623492 0.564150 0.412570
Si Si7 0.187082 0.149021 0.749269
O O1 0.425461 0.274429 0.216675
O O2 0.481142 0.556197 0.367677
O O3 0.049278 0.697047 0.100967
O O4 0.061417 0.726148 0.935433
O O5 0.754969 0.894945 0.524697
O O6 0.084886 0.913999 0.864442
O O7 0.264791 0.480734 0.896789
O O8 0.377990 0.565513 0.717898
O O9 0.206170 0.946753 0.751916
O O10 0.500000 0.500000 0.000000
O O11 0.838739 0.832195 0.389705
O O12 0.412298 0.959217 0.121432
O O13 0.408548 0.846770 0.259253
O O14 0.940938 0.400640 0.655751
O O15 0.500000 0.000000 0.000000
#
# Coordination Sequence:
#
# PCOD9011142 Si02
#       7
#     2   2   2   2   2   2   2
#     4  10  22  47  71  98 138 178 235 279 328 403
#     4  10  23  43  69  96 139 182 219 281 337 404
#     4  10  21  40  65  92 132 175 226 270 339 405
#     4  12  25  43  70 103 140 175 227 281 350 397
#     4  10  24  44  71 102 134 180 234 277 332 408
#     4  10  22  42  68  91 133 183 218 277 337 405
#     4  12  27  41  66 104 140 172 225 288 340 413
#
# _framework density 26.527304999999998
#
# number of rings (size 3 to 8) (size 9 to 14) (size 15 to 20)
#    0.000    1.714    2.857    3.429    8.000    1.714 
#    0.000    4.286    0.000    0.000    0.000    0.000 
#    0.000    0.000    0.000    0.000    0.000    0.000 
#
# Total GULP energy -78264.678341 kJ/mol
# GULP energy per Si atom -5590.334167 kJ/mol
# Density = 2.646693 g / cm^3
# Si number density = 26.527305 Si / 1000 Ang^3
#
#
#
# Elastic Constant Matrix: (Units=GPa)
#
#
# Indices 1 2 3 4 5 6 
#
# 1 89.4138 13.5081 37.1805 -14.1209 17.3839 0.2511
# 2 13.5081 62.1462 20.4740 -22.4103 15.6595 3.5715
# 3 37.1805 20.4740 130.6809 -1.7869 7.5701 1.2321
# 4 -14.1209 -22.4103 -1.7869 39.9014 -5.3860 13.8498
# 5 17.3839 15.6595 7.5701 -5.3860 40.4487 -10.2475
# 6 0.2511 3.5715 1.2321 13.8498 -10.2475 35.1497
#
#
#
# Elastic Compliance Matrix: (Units=1/GPa)
#
#
# Indices 1 2 3 4 5 6 
#
# 1 0.015123 0.003040 -0.004202 0.007785 -0.007233 -0.005446
# 2 0.003040 0.027778 -0.004107 0.019714 -0.012222 -0.014031
# 3 -0.004202 -0.004107 0.009321 -0.003894 0.001676 0.002144
# 4 0.007785 0.019714 -0.003894 0.045232 -0.009965 -0.022650
# 5 -0.007233 -0.012222 0.001676 -0.009965 0.034800 0.015307
# 6 -0.005446 -0.014031 0.002144 -0.022650 0.015307 0.043226
#
#
# Mechanical properties :
#
#
# Convention : Reuss Voigt Hill
#
# Bulk Modulus (GPa) = 23.99002 47.17401 35.58201
# Shear Modulus (GPa) = 25.01078 37.17183 31.09130
#
# Velocity S-wave (km/s) = 3.07389 3.74741 3.42723
# Velocity P-wave (km/s) = 4.65419 6.04532 5.39479
#
# Compressibility (1/GPa) = 0.04168400
#
# Stress axis : x y z
#
# Youngs Moduli (GPa) = 66.12372 35.99907 107.28743
#
# Poissons Ratio (x) = -0.10945 0.45085
# Poissons Ratio (y) = -0.20104 0.44066
# Poissons Ratio (z) = 0.27787 0.14786
#
# Static dielectric constant tensor:
#      x y z
#    x 2.167940 -0.006110 0.017810 
#    y -0.006110 2.092170 0.037450 
#    z 0.017810 0.037450 2.169330 
# 
# From -- ./inp_files/530011.got.cif
#   From: 2010.05.17/outbox.cif.g08.bks.cpg/sg2_266_cif.got.tgz:530011.got - 2010.06.03 11:33:40.
