data_PCOD9011788
_publ_section_title
;
Structure prediction by ZEFSAII (Michael W. Deem and Ramdas Pophale) SiO2 
 PCOD9011788
Probable space group: P -1
;
_chemical_formula_sum "Si O2"
_cell_formula_units_Z 16
_cell_length_a 12.839942
_cell_length_b 8.184327
_cell_length_c 11.335319
_cell_angle_alpha 51.644132
_cell_angle_beta 121.954083
_cell_angle_gamma 89.448387
_cell_volume 682.638827
_symmetry_space_group_name_H-M "P -1"
_symmetry_group_IT_number 2
_symmetry_cell_setting 'triclinic'
loop_
_space_group_symop_operation_xyz
x,y,z
-x,-y,-z
loop_
_atom_site_type_symbol
_atom_site_label
_atom_site_fract_x
_atom_site_fract_y
_atom_site_fract_z
Si Si1 0.582762 0.805715 0.038513
Si Si2 0.134153 0.504537 0.137096
Si Si3 0.854598 0.359371 0.355263
Si Si4 0.351706 0.061805 0.225315
Si Si5 0.625992 0.052253 0.470713
Si Si6 0.957922 0.670348 0.177175
Si Si7 0.105254 0.972988 0.801822
Si Si8 0.319921 0.786253 0.817168
O O1 0.481059 0.697441 0.991257
O O2 0.601250 0.957349 0.874892
O O3 0.736832 0.578722 0.265248
O O4 0.500000 0.000000 0.000000
O O5 0.271970 0.239331 0.336135
O O6 0.089424 0.595983 0.203880
O O7 0.000000 0.500000 0.000000
O O8 0.154031 0.704336 0.992894
O O9 0.965404 0.438353 0.345051
O O10 0.758440 0.366013 0.185022
O O11 0.952966 0.098736 0.587390
O O12 0.461758 0.139532 0.306692
O O13 0.368393 0.872591 0.423798
O O14 0.182971 0.222520 0.036773
O O15 0.683459 0.123908 0.359206
O O16 0.926430 0.861445 0.175829
O O17 0.222681 0.959777 0.787034
#
# Coordination Sequence:
#
# PCOD9011788 Si02
#       8
#     2   2   2   2   2   2   2   2
#     4  10  22  41  67  97 130 167 209 270 330 378
#     4  12  23  41  65  93 128 170 215 261 319 382
#     4  11  23  41  66  95 128 172 217 262 317 384
#     4   9  20  39  67  88 123 162 219 249 324 370
#     4  10  21  40  67  93 124 169 212 268 307 379
#     4  11  23  43  64  89 133 170 208 272 325 375
#     4  12  26  41  63 100 131 166 217 266 325 385
#     4  11  22  41  66  99 127 167 224 260 315 386
#
# _framework density 23.438455000000001
#
# number of rings (size 3 to 8) (size 9 to 14) (size 15 to 20)
#    0.000    1.250    1.250    5.250    1.750    2.000 
#    2.250    0.625    0.000    0.000    0.000    0.000 
#    0.000    0.000    0.000    0.000    0.000    0.000 
#
# Total GULP energy -89188.410762 kJ/mol
# GULP energy per Si atom -5574.275673 kJ/mol
# Density = 2.338511 g / cm^3
# Si number density = 23.438455 Si / 1000 Ang^3
#
#
#
# Elastic Constant Matrix: (Units=GPa)
#
#
# Indices 1 2 3 4 5 6 
#
# 1 143.4296 28.4175 32.4378 1.6724 -1.5841 -38.0321
# 2 28.4175 58.0608 6.1994 -1.9281 -7.6967 -15.1000
# 3 32.4378 6.1994 87.0354 -7.3148 10.5305 -5.8346
# 4 1.6724 -1.9281 -7.3148 16.9491 5.7487 -0.1898
# 5 -1.5841 -7.6967 10.5305 5.7487 32.3124 3.7576
# 6 -38.0321 -15.1000 -5.8346 -0.1898 3.7576 50.4297
#
#
#
# Elastic Compliance Matrix: (Units=1/GPa)
#
#
# Indices 1 2 3 4 5 6 
#
# 1 0.010023 -0.002923 -0.003450 -0.002987 0.000728 0.006219
# 2 -0.002923 0.020214 -0.000558 0.000933 0.004284 0.003468
# 3 -0.003450 -0.000558 0.014274 0.008606 -0.006414 -0.000607
# 4 -0.002987 0.000933 0.008606 0.068174 -0.014903 0.000389
# 5 0.000728 0.004284 -0.006414 -0.014903 0.036946 -0.001719
# 6 0.006219 0.003468 -0.000607 0.000389 -0.001719 0.025618
#
#
# Mechanical properties :
#
#
# Convention : Reuss Voigt Hill
#
# Bulk Modulus (GPa) = 32.62589 46.95946 39.79268
# Shear Modulus (GPa) = 25.08443 34.70298 29.89370
#
# Velocity S-wave (km/s) = 3.27498 3.85203 3.57517
# Velocity P-wave (km/s) = 5.31514 6.31371 5.83582
#
# Compressibility (1/GPa) = 0.03065050
#
# Stress axis : x y z
#
# Youngs Moduli (GPa) = 99.76691 49.46984 70.05916
#
# Poissons Ratio (x) = 0.14459 0.24168
# Poissons Ratio (y) = 0.29160 0.03909
# Poissons Ratio (z) = 0.34416 0.02760
#
# Static dielectric constant tensor:
#      x y z
#    x 1.964310 -0.006670 -0.061200 
#    y -0.006670 1.972460 -0.001570 
#    z -0.061200 -0.001570 1.892270 
# 
# From -- ./inp_files/418965.got.cif
#   From: 2010.05.17/outbox.cif.g08.bks.cpg/sg2_210_cif.got.tgz:418965.got - 2010.06.03 11:33:40.
