data_PCOD9011493
_publ_section_title
;
Structure prediction by ZEFSAII (Michael W. Deem and Ramdas Pophale) SiO2 
 PCOD9011493
Probable space group: P -1
;
_chemical_formula_sum "Si O2"
_cell_formula_units_Z 16
_cell_length_a 11.950978
_cell_length_b 15.651792
_cell_length_c 14.226733
_cell_angle_alpha 137.594396
_cell_angle_beta 116.802332
_cell_angle_gamma 30.458894
_cell_volume 764.024603
_symmetry_space_group_name_H-M "P -1"
_symmetry_group_IT_number 2
_symmetry_cell_setting 'triclinic'
loop_
_space_group_symop_operation_xyz
x,y,z
-x,-y,-z
loop_
_atom_site_type_symbol
_atom_site_label
_atom_site_fract_x
_atom_site_fract_y
_atom_site_fract_z
Si Si1 0.723578 0.897756 0.298286
Si Si2 0.208612 0.806381 0.252768
Si Si3 0.539584 0.789816 0.200753
Si Si4 0.669550 0.022634 0.014384
Si Si5 0.077825 0.196112 0.500620
Si Si6 0.584426 0.806243 0.754694
Si Si7 0.266600 0.517925 0.146075
Si Si8 0.208521 0.629390 0.926400
O O1 0.636343 0.832292 0.227538
O O2 0.768851 0.907749 0.429005
O O3 0.004846 0.665858 0.166825
O O4 0.511614 0.143673 0.345559
O O5 0.174572 0.742741 0.276065
O O6 0.515040 0.578965 0.185105
O O7 0.026719 0.091531 0.409038
O O8 0.169284 0.761286 0.105307
O O9 0.743447 0.553104 0.160826
O O10 0.269707 0.040704 0.357795
O O11 0.542740 0.684476 0.033392
O O12 0.642584 0.022887 0.116153
O O13 0.432717 0.325905 0.141656
O O14 0.636941 0.911473 0.866661
O O15 0.939504 0.851604 0.949470
O O16 0.836135 0.503512 0.638362
#
# Coordination Sequence:
#
# PCOD9011493 Si02
#       8
#     2   2   2   2   2   2   2   2
#     4  12  23  41  67  97 131 171 210 264 327 382
#     4   9  21  42  63  89 127 174 215 257 316 386
#     4  10  21  40  66  93 127 167 210 266 321 377
#     4  11  22  40  65 100 127 164 220 276 309 377
#     4  11  24  44  62  95 137 170 208 262 325 384
#     4  11  24  41  65  99 134 165 214 265 325 385
#     4  11  22  41  68  95 125 171 220 263 315 376
#     4   9  19  39  67  90 122 172 217 264 315 370
#
# _framework density 20.941735999999999
#
# number of rings (size 3 to 8) (size 9 to 14) (size 15 to 20)
#    0.000    1.500    2.500    3.750    1.750    2.500 
#    6.750    1.250    0.000    0.000    0.000    0.000 
#    0.000    0.000    0.000    0.000    0.000    0.000 
#
# Total GULP energy -89236.793838 kJ/mol
# GULP energy per Si atom -5577.299615 kJ/mol
# Density = 2.089407 g / cm^3
# Si number density = 20.941736 Si / 1000 Ang^3
#
#
#
# Elastic Constant Matrix: (Units=GPa)
#
#
# Indices 1 2 3 4 5 6 
#
# 1 111.2796 40.5170 20.2323 12.5306 20.6506 7.4291
# 2 40.5170 80.3890 1.8408 4.4108 6.0570 6.9288
# 3 20.2323 1.8408 57.8499 6.6033 -2.1644 8.7436
# 4 12.5306 4.4108 6.6033 22.7401 10.3908 -1.4177
# 5 20.6506 6.0570 -2.1644 10.3908 43.2940 3.3981
# 6 7.4291 6.9288 8.7436 -1.4177 3.3981 26.8415
#
#
#
# Elastic Compliance Matrix: (Units=1/GPa)
#
#
# Indices 1 2 3 4 5 6 
#
# 1 0.013192 -0.006013 -0.004287 -0.002571 -0.005033 -0.000201
# 2 -0.006013 0.015673 0.002303 -0.001221 0.001348 -0.003367
# 3 -0.004287 0.002303 0.020759 -0.006825 0.004960 -0.007159
# 4 -0.002571 -0.001221 -0.006825 0.053779 -0.012453 0.007667
# 5 -0.005033 0.001348 0.004960 -0.012453 0.028930 -0.004891
# 6 -0.000201 -0.003367 -0.007159 0.007667 -0.004891 0.041537
#
#
# Mechanical properties :
#
#
# Convention : Reuss Voigt Hill
#
# Bulk Modulus (GPa) = 29.73538 41.63318 35.68428
# Shear Modulus (GPa) = 24.86646 31.03700 27.95173
#
# Velocity S-wave (km/s) = 3.44962 3.85394 3.65737
# Velocity P-wave (km/s) = 5.48602 6.30297 5.90863
#
# Compressibility (1/GPa) = 0.03362997
#
# Stress axis : x y z
#
# Youngs Moduli (GPa) = 75.80317 63.80345 48.17250
#
# Poissons Ratio (x) = 0.38366 0.20651
# Poissons Ratio (y) = 0.45582 -0.11094
# Poissons Ratio (z) = 0.32495 -0.14694
#
# Static dielectric constant tensor:
#      x y z
#    x 1.756870 0.025630 0.011770 
#    y 0.025630 1.762030 -0.016560 
#    z 0.011770 -0.016560 1.809620 
# 
# From -- ./inp_files/522521.got.cif
#   From: 2010.05.17/outbox.cif.g08.bks.cpg/sg2_262_cif.got.tgz:522521.got - 2010.06.03 11:33:40.
