data_PCOD9011802
_publ_section_title
;
Structure prediction by ZEFSAII (Michael W. Deem and Ramdas Pophale) SiO2 
 PCOD9011802
Probable space group: P -1
;
_chemical_formula_sum "Si O2"
_cell_formula_units_Z 15
_cell_length_a 9.994166
_cell_length_b 8.486384
_cell_length_c 13.343526
_cell_angle_alpha 97.563279
_cell_angle_beta 140.875000
_cell_angle_gamma 83.959910
_cell_volume 707.911305
_symmetry_space_group_name_H-M "P -1"
_symmetry_group_IT_number 2
_symmetry_cell_setting 'triclinic'
loop_
_space_group_symop_operation_xyz
x,y,z
-x,-y,-z
loop_
_atom_site_type_symbol
_atom_site_label
_atom_site_fract_x
_atom_site_fract_y
_atom_site_fract_z
Si Si1 0.948645 0.134725 0.848910
Si Si2 0.035634 0.562657 0.636404
Si Si3 0.365393 0.948652 0.074400
Si Si4 0.638634 0.171042 0.158719
Si Si5 0.582247 0.619334 0.472590
Si Si6 0.285383 0.643772 0.119577
Si Si7 0.500000 0.000000 0.500000
Si Si8 0.208484 0.369162 0.896181
O O1 0.890958 0.262791 0.911316
O O2 0.744027 0.031624 0.691007
O O3 0.031705 0.239493 0.811609
O O4 0.152642 0.034031 0.995289
O O5 0.824916 0.588572 0.581339
O O6 0.000000 0.500000 0.500000
O O7 0.155030 0.726631 0.701671
O O8 0.177601 0.443169 0.775342
O O9 0.397971 0.782257 0.132652
O O10 0.570822 0.060578 0.203051
O O11 0.326672 0.923560 0.931853
O O12 0.436288 0.285649 0.033392
O O13 0.500000 0.500000 0.500000
O O14 0.447968 0.579973 0.291126
O O15 0.547382 0.805115 0.496281
O O16 0.200652 0.511833 0.984223
#
# Coordination Sequence:
#
# PCOD9011802 Si02
#       8
#     2   2   2   2   2   2   1   2
#     4  10  22  41  64 102 127 178 220 283 340 407
#     4  12  24  41  68 100 137 182 227 285 350 411
#     4  10  21  40  67  93 132 170 229 277 335 398
#     4  10  22  41  65  93 131 176 220 282 333 403
#     4  11  26  48  71 102 143 184 228 284 354 412
#     4  11  22  42  69  97 130 176 230 278 336 407
#     4  10  22  44  68  94 146 176 222 274 354 404
#     4  11  23  42  69  94 134 172 233 278 338 408
#
# _framework density 21.189094000000001
#
# number of rings (size 3 to 8) (size 9 to 14) (size 15 to 20)
#    0.000    1.333    1.333    4.400    1.867    0.000 
#   19.200    0.667    0.000    0.000    0.000    0.000 
#    0.000    0.000    0.000    0.000    0.000    0.000 
#
# Total GULP energy -83556.639360 kJ/mol
# GULP energy per Si atom -5570.442624 kJ/mol
# Density = 2.114087 g / cm^3
# Si number density = 21.189094 Si / 1000 Ang^3
#
#
#
# Elastic Constant Matrix: (Units=GPa)
#
#
# Indices 1 2 3 4 5 6 
#
# 1 100.4971 40.2529 23.3459 12.4107 17.9583 8.5512
# 2 40.2529 90.6239 35.4617 9.5884 -5.3611 20.4298
# 3 23.3459 35.4617 71.1112 13.1702 -7.4336 16.9229
# 4 12.4107 9.5884 13.1702 27.7839 1.2318 -3.1051
# 5 17.9583 -5.3611 -7.4336 1.2318 23.5704 -0.6765
# 6 8.5512 20.4298 16.9229 -3.1051 -0.6765 45.6122
#
#
#
# Elastic Compliance Matrix: (Units=1/GPa)
#
#
# Indices 1 2 3 4 5 6 
#
# 1 0.016320 -0.006751 -0.003223 -0.002691 -0.014824 0.000757
# 2 -0.006751 0.017445 -0.004106 -0.001967 0.007774 -0.005043
# 3 -0.003223 -0.004106 0.020902 -0.008063 0.008370 -0.005736
# 4 -0.002691 -0.001967 -0.008063 0.042635 -0.002961 0.007236
# 5 -0.014824 0.007774 0.008370 -0.002961 0.058193 -0.003147
# 6 0.000757 -0.005043 -0.005736 0.007236 -0.003147 0.026615
#
#
# Mechanical properties :
#
#
# Convention : Reuss Voigt Hill
#
# Bulk Modulus (GPa) = 37.72527 51.15036 44.43782
# Shear Modulus (GPa) = 22.82027 30.27140 26.54583
#
# Velocity S-wave (km/s) = 3.28530 3.78382 3.54334
# Velocity P-wave (km/s) = 5.67747 6.57891 6.14475
#
# Compressibility (1/GPa) = 0.02650743
#
# Stress axis : x y z
#
# Youngs Moduli (GPa) = 61.27490 57.32416 47.84331
#
# Poissons Ratio (x) = 0.38697 0.15419
# Poissons Ratio (y) = 0.41364 0.19644
# Poissons Ratio (z) = 0.19747 0.23537
#
# Static dielectric constant tensor:
#      x y z
#    x 1.800630 0.051090 0.047420 
#    y 0.051090 1.788350 0.008300 
#    z 0.047420 0.008300 1.767200 
# 
# From -- ./inp_files/382445.got.cif
#   From: 2010.05.17/outbox.cif.g08.bks.cpg/sg2_192_cif.got.tgz:382445.got - 2010.06.03 11:33:40.
