data_PCOD9011413
_publ_section_title
;
Structure prediction by ZEFSAII (Michael W. Deem and Ramdas Pophale) SiO2 
 PCOD9011413
Probable space group: P -1
;
_chemical_formula_sum "Si O2"
_cell_formula_units_Z 16
_cell_length_a 10.227243
_cell_length_b 7.811970
_cell_length_c 8.488232
_cell_angle_alpha 75.096488
_cell_angle_beta 88.134451
_cell_angle_gamma 74.042546
_cell_volume 629.568469
_symmetry_space_group_name_H-M "P -1"
_symmetry_group_IT_number 2
_symmetry_cell_setting 'triclinic'
loop_
_space_group_symop_operation_xyz
x,y,z
-x,-y,-z
loop_
_atom_site_type_symbol
_atom_site_label
_atom_site_fract_x
_atom_site_fract_y
_atom_site_fract_z
Si Si1 0.701149 0.823495 0.727283
Si Si2 0.508255 0.702368 0.145104
Si Si3 0.948979 0.203131 0.756129
Si Si4 0.026994 0.228645 0.096939
Si Si5 0.200771 0.239425 0.599601
Si Si6 0.594247 0.061808 0.159130
Si Si7 0.319727 0.743203 0.406721
Si Si8 0.237565 0.561298 0.749448
O O1 0.740993 0.733695 0.577943
O O2 0.548412 0.828755 0.781216
O O3 0.826816 0.747515 0.860333
O O4 0.691918 0.039733 0.652960
O O5 0.458104 0.652990 0.328276
O O6 0.631823 0.534996 0.124609
O O7 0.568122 0.877345 0.128388
O O8 0.385175 0.797883 0.008872
O O9 0.796604 0.295470 0.689996
O O10 0.044667 0.239425 0.604766
O O11 0.997456 0.266269 0.904576
O O12 0.964673 0.985755 0.823956
O O13 0.899263 0.343918 0.175296
O O14 0.215016 0.398251 0.678667
O O15 0.282059 0.036687 0.710648
O O16 0.289111 0.691234 0.595163
#
# Coordination Sequence:
#
# PCOD9011413 Si02
#       8
#     2   2   2   2   2   2   2   2
#     4  10  21  40  66  90 116 164 206 246 294 361
#     4   9  20  38  63  90 119 161 201 249 303 353
#     4  10  23  40  65  89 117 163 209 247 291 363
#     4  10  23  40  64  90 121 158 208 248 299 358
#     4  11  23  38  64  93 124 158 199 252 303 356
#     4   9  20  37  64  90 120 155 210 247 293 361
#     4  10  21  41  65  87 123 161 203 247 298 362
#     4  11  23  40  61  93 128 157 193 254 311 356
#
# _framework density 25.414235999999999
#
# number of rings (size 3 to 8) (size 9 to 14) (size 15 to 20)
#    0.000    2.000    0.000    2.250   10.500    4.500 
#    2.250    1.875    0.000    0.000    0.000    0.000 
#    0.000    0.000    0.000    0.000    0.000    0.000 
#
# Total GULP energy -89546.086817 kJ/mol
# GULP energy per Si atom -5596.630426 kJ/mol
# Density = 2.535639 g / cm^3
# Si number density = 25.414236 Si / 1000 Ang^3
#
#
#
# Elastic Constant Matrix: (Units=GPa)
#
#
# Indices 1 2 3 4 5 6 
#
# 1 70.8761 37.9851 7.7595 -1.7423 -14.2380 -18.4321
# 2 37.9851 78.8440 43.7403 15.7350 -5.3050 -19.2824
# 3 7.7595 43.7403 70.6283 1.6432 -14.6084 -6.6252
# 4 -1.7423 15.7350 1.6432 37.0146 -0.9857 -5.6145
# 5 -14.2380 -5.3050 -14.6084 -0.9857 39.1132 5.4337
# 6 -18.4321 -19.2824 -6.6252 -5.6145 5.4337 32.9312
#
#
#
# Elastic Compliance Matrix: (Units=1/GPa)
#
#
# Indices 1 2 3 4 5 6 
#
# 1 0.027326 -0.019419 0.011655 0.010258 0.011065 0.006192
# 2 -0.019419 0.039030 -0.023512 -0.015789 -0.011860 0.006519
# 3 0.011655 -0.023512 0.029666 0.009294 0.012614 -0.001772
# 4 0.010258 -0.015789 0.009294 0.034450 0.005468 0.003337
# 5 0.011065 -0.011860 0.012614 0.005468 0.033219 -0.002763
# 6 0.006192 0.006519 -0.001772 0.003337 -0.002763 0.038318
#
#
# Mechanical properties :
#
#
# Convention : Reuss Voigt Hill
#
# Bulk Modulus (GPa) = 29.87844 44.36869 37.12357
# Shear Modulus (GPa) = 18.13448 30.53604 24.33526
#
# Velocity S-wave (km/s) = 2.67414 3.47007 3.09778
# Velocity P-wave (km/s) = 4.61702 5.79235 5.23776
#
# Compressibility (1/GPa) = 0.03346895
#
# Stress axis : x y z
#
# Youngs Moduli (GPa) = 36.59565 25.62120 33.70867
#
# Poissons Ratio (x) = 0.49754 -0.39287
# Poissons Ratio (y) = 0.71065 0.79257
# Poissons Ratio (z) = -0.42651 0.60241
#
# Static dielectric constant tensor:
#      x y z
#    x 2.002150 0.018190 0.050670 
#    y 0.018190 1.982810 -0.003190 
#    z 0.050670 -0.003190 2.037720 
# 
# From -- ./inp_files/238447.got.cif
#   From: 2010.05.17/outbox.cif.g08.bks.cpg/sg2_120_cif.got.tgz:238447.got - 2010.06.03 11:33:40.
