data_PCOD9011599
_publ_section_title
;
Structure prediction by ZEFSAII (Michael W. Deem and Ramdas Pophale) SiO2 
 PCOD9011599
Probable space group: P -1
;
_chemical_formula_sum "Si O2"
_cell_formula_units_Z 16
_cell_length_a 14.469840
_cell_length_b 5.855335
_cell_length_c 12.329325
_cell_angle_alpha 107.142360
_cell_angle_beta 137.454020
_cell_angle_gamma 83.877140
_cell_volume 665.026449
_symmetry_space_group_name_H-M "P -1"
_symmetry_group_IT_number 2
_symmetry_cell_setting 'triclinic'
loop_
_space_group_symop_operation_xyz
x,y,z
-x,-y,-z
loop_
_atom_site_type_symbol
_atom_site_label
_atom_site_fract_x
_atom_site_fract_y
_atom_site_fract_z
Si Si1 0.065402 0.662151 0.710790
Si Si2 0.461054 0.404178 0.332451
Si Si3 0.197291 0.978498 0.063503
Si Si4 0.613857 0.116422 0.272522
Si Si5 0.529671 0.352597 0.843288
Si Si6 0.085657 0.865389 0.399380
Si Si7 0.317769 0.553724 0.803234
Si Si8 0.073009 0.767554 0.131364
O O1 0.160328 0.580952 0.686198
O O2 0.990915 0.399720 0.658392
O O3 0.990039 0.892015 0.639611
O O4 0.170216 0.787020 0.914521
O O5 0.500000 0.500000 0.500000
O O6 0.325081 0.196504 0.193508
O O7 0.590878 0.310732 0.373258
O O8 0.431255 0.592358 0.238517
O O9 0.192044 0.854011 0.159138
O O10 0.053933 0.083873 0.957070
O O11 0.770417 0.070076 0.404905
O O12 0.603802 0.205009 0.153692
O O13 0.483544 0.917870 0.165253
O O14 0.369982 0.379759 0.735675
O O15 0.624877 0.507054 0.037982
O O16 0.125579 0.803251 0.303123
O O17 0.000000 0.500000 0.000000
#
# Coordination Sequence:
#
# PCOD9011599 Si02
#       8
#     2   2   2   2   2   2   2   2
#     4  11  25  45  74 110 138 195 247 305 354 446
#     4  11  27  43  70 108 146 190 240 301 365 442
#     4  10  23  41  67 100 140 185 245 291 358 431
#     4  11  26  46  68 101 149 191 237 307 370 428
#     4  10  24  46  73 103 141 195 240 304 366 433
#     4  11  27  43  73 105 151 188 244 299 377 428
#     4  10  24  45  75 100 143 185 255 298 366 424
#     4  10  21  40  66  96 136 190 233 296 353 427
#
# _framework density 24.059191999999999
#
# number of rings (size 3 to 8) (size 9 to 14) (size 15 to 20)
#    0.000    1.500    1.250    1.125   12.250    3.500 
#    0.000    0.000    0.000    0.000    0.000    0.000 
#    0.000    0.000    0.000    0.000    0.000    0.000 
#
# Total GULP energy -89082.459834 kJ/mol
# GULP energy per Si atom -5567.653740 kJ/mol
# Density = 2.400443 g / cm^3
# Si number density = 24.059192 Si / 1000 Ang^3
#
#
#
# Elastic Constant Matrix: (Units=GPa)
#
#
# Indices 1 2 3 4 5 6 
#
# 1 135.2191 60.4275 37.9861 -13.4901 -5.8163 16.0312
# 2 60.4275 111.9080 48.3637 -2.1795 5.0706 34.9897
# 3 37.9861 48.3637 84.7178 -4.5632 -5.4065 26.9389
# 4 -13.4901 -2.1795 -4.5632 36.2737 8.5827 3.4003
# 5 -5.8163 5.0706 -5.4065 8.5827 43.2917 -2.3187
# 6 16.0312 34.9897 26.9389 3.4003 -2.3187 60.5814
#
#
#
# Elastic Compliance Matrix: (Units=1/GPa)
#
#
# Indices 1 2 3 4 5 6 
#
# 1 0.010439 -0.005137 -0.001789 0.002973 0.001239 0.000881
# 2 -0.005137 0.015862 -0.005204 -0.000272 -0.003444 -0.005604
# 3 -0.001789 -0.005204 0.017067 0.001063 0.002071 -0.004090
# 4 0.002973 -0.000272 0.001063 0.030406 -0.005626 -0.003024
# 5 0.001239 -0.003444 0.002071 -0.005626 0.025151 0.002019
# 6 0.000881 -0.005604 -0.004090 -0.003024 0.002019 0.021576
#
#
# Mechanical properties :
#
#
# Convention : Reuss Voigt Hill
#
# Bulk Modulus (GPa) = 52.33530 69.48882 60.91206
# Shear Modulus (GPa) = 33.08367 40.36720 36.72544
#
# Velocity S-wave (km/s) = 3.71225 4.10057 3.91123
# Velocity P-wave (km/s) = 6.33832 7.16692 6.76532
#
# Compressibility (1/GPa) = 0.01910756
#
# Stress axis : x y z
#
# Youngs Moduli (GPa) = 95.79252 63.04297 58.59240
#
# Poissons Ratio (x) = 0.32388 0.10481
# Poissons Ratio (y) = 0.49213 0.30493
# Poissons Ratio (z) = 0.17135 0.32809
#
# Static dielectric constant tensor:
#      x y z
#    x 2.023980 -0.289340 0.096150 
#    y -0.289340 2.651730 -0.243880 
#    z 0.096150 -0.243880 2.091110 
# 
# From -- ./inp_files/442190.got.cif
#   From: 2010.05.17/outbox.cif.g08.bks.cpg/sg2_222_cif.got.tgz:442190.got - 2010.06.03 11:33:40.
