data_PCOD9011473
_publ_section_title
;
Structure prediction by ZEFSAII (Michael W. Deem and Ramdas Pophale) SiO2 
 PCOD9011473
Probable space group: P -1
;
_chemical_formula_sum "Si O2"
_cell_formula_units_Z 16
_cell_length_a 11.490048
_cell_length_b 13.847179
_cell_length_c 8.739226
_cell_angle_alpha 140.191728
_cell_angle_beta 85.489597
_cell_angle_gamma 73.528443
_cell_volume 747.548943
_symmetry_space_group_name_H-M "P -1"
_symmetry_group_IT_number 2
_symmetry_cell_setting 'triclinic'
loop_
_space_group_symop_operation_xyz
x,y,z
-x,-y,-z
loop_
_atom_site_type_symbol
_atom_site_label
_atom_site_fract_x
_atom_site_fract_y
_atom_site_fract_z
Si Si1 0.967019 0.111940 0.983444
Si Si2 0.468249 0.820604 0.622664
Si Si3 0.698768 0.866342 0.774995
Si Si4 0.869650 0.907791 0.569007
Si Si5 0.897163 0.438634 0.990225
Si Si6 0.245679 0.934536 0.529843
Si Si7 0.630057 0.466945 0.044884
Si Si8 0.875904 0.497381 0.428563
O O1 0.110745 0.037037 0.780778
O O2 0.872199 0.071646 0.838971
O O3 0.886265 0.323107 0.285653
O O4 0.000000 0.000000 0.000000
O O5 0.579984 0.875166 0.695152
O O6 0.379430 0.884585 0.554915
O O7 0.551656 0.604958 0.361698
O O8 0.358644 0.941253 0.910567
O O9 0.825084 0.825084 0.605415
O O10 0.747181 0.704688 0.694220
O O11 0.023041 0.763701 0.323230
O O12 0.779559 0.948982 0.476321
O O13 0.738898 0.523821 0.052854
O O14 0.892868 0.451059 0.189315
O O15 0.000000 0.500000 0.000000
O O16 0.277649 0.747361 0.226386
O O17 0.500000 0.500000 0.000000
O O18 0.000000 0.500000 0.500000
#
# Coordination Sequence:
#
# PCOD9011473 Si02
#       8
#     2   2   2   2   2   2   2   2
#     4  12  25  41  67  99 137 169 216 281 349 409
#     4  10  22  43  67  86 131 189 220 264 332 407
#     4  11  24  43  66  93 138 177 221 271 338 412
#     4  12  23  40  67 102 131 166 224 289 343 390
#     4  12  22  40  69 102 134 169 230 287 340 403
#     4  11  22  39  68  96 128 171 224 279 338 394
#     4  10  21  40  66  92 129 184 223 275 336 403
#     4  12  24  40  65 100 134 173 214 280 350 395
#
# _framework density 21.403279999999999
#
# number of rings (size 3 to 8) (size 9 to 14) (size 15 to 20)
#    0.000    0.750    5.000    3.375    0.000    0.500 
#    0.000    0.625   16.500    0.000    0.000    0.000 
#    0.000    0.000    0.000    0.000    0.000    0.000 
#
# Total GULP energy -89097.495505 kJ/mol
# GULP energy per Si atom -5568.593469 kJ/mol
# Density = 2.135457 g / cm^3
# Si number density = 21.403280 Si / 1000 Ang^3
#
#
#
# Elastic Constant Matrix: (Units=GPa)
#
#
# Indices 1 2 3 4 5 6 
#
# 1 105.5350 37.8307 11.5352 -0.8175 13.9647 -27.6359
# 2 37.8307 62.9806 6.4676 9.2120 8.2390 -9.5824
# 3 11.5352 6.4676 126.9268 9.9211 -0.2387 0.2076
# 4 -0.8175 9.2120 9.9211 26.2807 -10.5921 8.1837
# 5 13.9647 8.2390 -0.2387 -10.5921 31.6150 1.3864
# 6 -27.6359 -9.5824 0.2076 8.1837 1.3864 23.6173
#
#
#
# Elastic Compliance Matrix: (Units=1/GPa)
#
#
# Indices 1 2 3 4 5 6 
#
# 1 0.019145 -0.004746 -0.000798 -0.009742 -0.011565 0.024538
# 2 -0.004746 0.023830 0.000416 -0.015790 -0.009846 0.010160
# 3 -0.000798 0.000416 0.008229 -0.003858 -0.001011 0.000559
# 4 -0.009742 -0.015790 -0.003858 0.072761 0.034740 -0.045024
# 5 -0.011565 -0.009846 -0.001011 0.034740 0.052367 -0.032631
# 6 0.024538 0.010160 0.000559 -0.045024 -0.032631 0.092690
#
#
# Mechanical properties :
#
#
# Convention : Reuss Voigt Hill
#
# Bulk Modulus (GPa) = 24.42260 45.23439 34.82849
# Shear Modulus (GPa) = 17.06906 32.27651 24.67279
#
# Velocity S-wave (km/s) = 2.82706 3.88753 3.39891
# Velocity P-wave (km/s) = 4.70020 6.42890 5.63128
#
# Compressibility (1/GPa) = 0.04094568
#
# Stress axis : x y z
#
# Youngs Moduli (GPa) = 52.23335 41.96444 121.52599
#
# Poissons Ratio (x) = 0.19918 0.09704
# Poissons Ratio (y) = 0.24792 -0.05058
# Poissons Ratio (z) = 0.04171 -0.01746
#
# Static dielectric constant tensor:
#      x y z
#    x 1.842500 0.001430 -0.005590 
#    y 0.001430 1.780160 0.055800 
#    z -0.005590 0.055800 1.849380 
# 
# From -- ./inp_files/274657.got.cif
#   From: 2010.05.17/outbox.cif.g08.bks.cpg/sg2_138_cif.got.tgz:274657.got - 2010.06.03 11:33:40.
