data_PCOD9011155
_publ_section_title
;
Structure prediction by ZEFSAII (Michael W. Deem and Ramdas Pophale) SiO2 
 PCOD9011155
Probable space group: P -1
;
_chemical_formula_sum "Si O2"
_cell_formula_units_Z 14
_cell_length_a 9.337907
_cell_length_b 8.747071
_cell_length_c 9.453564
_cell_angle_alpha 103.418201
_cell_angle_beta 115.584946
_cell_angle_gamma 115.119587
_cell_volume 542.914888
_symmetry_space_group_name_H-M "P -1"
_symmetry_group_IT_number 2
_symmetry_cell_setting 'triclinic'
loop_
_space_group_symop_operation_xyz
x,y,z
-x,-y,-z
loop_
_atom_site_type_symbol
_atom_site_label
_atom_site_fract_x
_atom_site_fract_y
_atom_site_fract_z
Si Si1 0.341797 0.977121 0.321184
Si Si2 0.469100 0.864856 0.090872
Si Si3 0.932181 0.739411 0.787576
Si Si4 0.858269 0.233304 0.388131
Si Si5 0.069861 0.173972 0.875201
Si Si6 0.400564 0.611681 0.597000
Si Si7 0.273464 0.445058 0.781831
O O1 0.408893 0.187636 0.338561
O O2 0.500000 0.000000 0.500000
O O3 0.338375 0.867408 0.157426
O O4 0.131364 0.868243 0.280001
O O5 0.693457 0.997918 0.278823
O O6 0.361226 0.646315 0.945517
O O7 0.500000 0.000000 0.000000
O O8 0.717078 0.560056 0.602288
O O9 0.070200 0.716813 0.735506
O O10 0.020545 0.963653 0.837923
O O11 0.912661 0.728133 0.945743
O O12 0.736987 0.317050 0.401953
O O13 0.059610 0.330272 0.584362
O O14 0.238595 0.299145 0.858909
O O15 0.421103 0.520092 0.727185
#
# Coordination Sequence:
#
# PCOD9011155 Si02
#       7
#     2   2   2   2   2   2   2
#     4  11  24  40  62  98 129 161 209 266 324 377
#     4  11  21  37  63  94 126 160 208 271 317 366
#     4  10  23  42  63  88 131 174 205 261 319 380
#     4  10  21  40  65  93 125 161 217 264 310 376
#     4  11  25  40  62  93 131 169 212 251 327 389
#     4  10  22  40  65  92 124 166 217 261 318 367
#     4  11  22  39  62  95 119 168 213 258 324 365
#
# _framework density 25.786729999999999
#
# number of rings (size 3 to 8) (size 9 to 14) (size 15 to 20)
#    0.000    1.429    2.857    4.286    4.000    3.429 
#    0.000    0.714    0.000    0.000    0.000    0.000 
#    0.000    0.000    0.000    0.000    0.000    0.000 
#
# Total GULP energy -78281.854664 kJ/mol
# GULP energy per Si atom -5591.561047 kJ/mol
# Density = 2.572804 g / cm^3
# Si number density = 25.786730 Si / 1000 Ang^3
#
#
#
# Elastic Constant Matrix: (Units=GPa)
#
#
# Indices 1 2 3 4 5 6 
#
# 1 85.2452 21.0919 30.7270 -0.2718 -10.2343 2.4413
# 2 21.0919 118.7829 65.2999 3.1673 -12.9738 32.0832
# 3 30.7270 65.2999 163.6676 17.2008 -9.0634 -2.0146
# 4 -0.2718 3.1673 17.2008 54.8902 4.7217 -7.6765
# 5 -10.2343 -12.9738 -9.0634 4.7217 37.4275 -2.2087
# 6 2.4413 32.0832 -2.0146 -7.6765 -2.2087 29.6016
#
#
#
# Elastic Compliance Matrix: (Units=1/GPa)
#
#
# Indices 1 2 3 4 5 6 
#
# 1 0.012999 -0.001040 -0.001931 0.000536 0.002674 0.000262
# 2 -0.001040 0.018498 -0.007031 -0.002065 0.003463 -0.020719
# 3 -0.001931 -0.007031 0.009531 -0.001465 0.000003 0.008049
# 4 0.000536 -0.002065 -0.001465 0.020048 -0.003036 0.007066
# 5 0.002674 0.003463 0.000003 -0.003036 0.028880 -0.002606
# 6 0.000262 -0.020719 0.008049 0.007066 -0.002606 0.058402
#
#
# Mechanical properties :
#
#
# Convention : Reuss Voigt Hill
#
# Bulk Modulus (GPa) = 47.56316 66.88148 57.22232
# Shear Modulus (GPa) = 28.51095 41.08898 34.79996
#
# Velocity S-wave (km/s) = 3.32873 3.99609 3.67758
# Velocity P-wave (km/s) = 5.76704 6.87636 6.34599
#
# Compressibility (1/GPa) = 0.02102467
#
# Stress axis : x y z
#
# Youngs Moduli (GPa) = 76.92697 54.05900 104.92078
#
# Poissons Ratio (x) = 0.05622 0.20256
# Poissons Ratio (y) = 0.08000 0.73775
# Poissons Ratio (z) = 0.14852 0.38012
#
# Static dielectric constant tensor:
#      x y z
#    x 2.121770 -0.045830 0.082030 
#    y -0.045830 2.011680 -0.035940 
#    z 0.082030 -0.035940 2.065800 
# 
# From -- ./inp_files/239894.got.cif
#   From: 2010.05.17/outbox.cif.g08.bks.cpg/sg2_120_cif.got.tgz:239894.got - 2010.06.03 11:33:40.
