data_PCOD9011828
_publ_section_title
;
Structure prediction by ZEFSAII (Michael W. Deem and Ramdas Pophale) SiO2 
 PCOD9011828
Probable space group: P -1
;
_chemical_formula_sum "Si O2"
_cell_formula_units_Z 16
_cell_length_a 12.917811
_cell_length_b 8.336852
_cell_length_c 11.082044
_cell_angle_alpha 114.016908
_cell_angle_beta 121.778538
_cell_angle_gamma 48.091632
_cell_volume 752.162315
_symmetry_space_group_name_H-M "P -1"
_symmetry_group_IT_number 2
_symmetry_cell_setting 'triclinic'
loop_
_space_group_symop_operation_xyz
x,y,z
-x,-y,-z
loop_
_atom_site_type_symbol
_atom_site_label
_atom_site_fract_x
_atom_site_fract_y
_atom_site_fract_z
Si Si1 0.711964 0.992777 0.570998
Si Si2 0.751961 0.313509 0.269539
Si Si3 0.602210 0.711088 0.442668
Si Si4 0.733039 0.968017 0.041689
Si Si5 0.417645 0.276572 0.837021
Si Si6 0.961453 0.845522 0.491298
Si Si7 0.886474 0.599483 0.200613
Si Si8 0.904228 0.909200 0.883239
O O1 0.711486 0.785905 0.546791
O O2 0.802242 0.959492 0.495131
O O3 0.793928 0.028544 0.738945
O O4 0.534954 0.183506 0.518231
O O5 0.680152 0.458418 0.390453
O O6 0.644603 0.471933 0.143734
O O7 0.914771 0.267106 0.359532
O O8 0.763808 0.098019 0.196147
O O9 0.535626 0.808179 0.297220
O O10 0.818218 0.729398 0.073504
O O11 0.806187 0.952096 0.954188
O O12 0.554023 0.116385 0.958143
O O13 0.264845 0.310281 0.789229
O O14 0.973824 0.677314 0.351850
O O15 0.000000 0.000000 0.500000
O O16 0.986510 0.345288 0.159240
O O17 0.000000 0.000000 0.000000
#
# Coordination Sequence:
#
# PCOD9011828 Si02
#       8
#     2   2   2   2   2   2   2   2
#     4  11  21  42  66  94 127 162 225 274 314 380
#     4  10  21  40  67  95 126 170 223 262 317 386
#     4   9  21  38  68  93 120 164 223 274 309 362
#     4  12  23  43  62  94 136 170 207 269 323 392
#     4  10  21  41  64  92 121 173 219 258 314 381
#     4  12  23  41  67  95 135 171 210 272 331 385
#     4  12  25  41  65  95 135 170 211 266 332 387
#     4  12  26  41  66  96 128 171 219 265 320 388
#
# _framework density 21.272003000000002
#
# number of rings (size 3 to 8) (size 9 to 14) (size 15 to 20)
#    0.750    0.250    3.750    4.125    0.000    2.500 
#    0.000    0.625    0.000    0.000    0.000    0.000 
#    0.000    0.000    0.000    0.000    0.000    0.000 
#
# Total GULP energy -89203.375096 kJ/mol
# GULP energy per Si atom -5575.210944 kJ/mol
# Density = 2.122359 g / cm^3
# Si number density = 21.272003 Si / 1000 Ang^3
#
#
#
# Elastic Constant Matrix: (Units=GPa)
#
#
# Indices 1 2 3 4 5 6 
#
# 1 104.9189 41.2757 21.3083 13.3613 2.8690 -19.5551
# 2 41.2757 84.4506 26.9986 14.4397 10.3173 -11.2407
# 3 21.3083 26.9986 78.6477 10.8202 25.1642 0.5146
# 4 13.3613 14.4397 10.8202 38.4742 -3.7953 -3.1875
# 5 2.8690 10.3173 25.1642 -3.7953 34.2735 -0.6284
# 6 -19.5551 -11.2407 0.5146 -3.1875 -0.6284 28.2033
#
#
#
# Elastic Compliance Matrix: (Units=1/GPa)
#
#
# Indices 1 2 3 4 5 6 
#
# 1 0.013415 -0.004807 -0.002551 -0.001314 0.002186 0.007332
# 2 -0.004807 0.016490 -0.002995 -0.003713 -0.002722 0.002813
# 3 -0.002551 -0.002995 0.019655 -0.005246 -0.013974 -0.004225
# 4 -0.001314 -0.003713 -0.005246 0.030259 0.008454 0.001313
# 5 0.002186 -0.002722 -0.013974 0.008454 0.041057 0.002556
# 6 0.007332 0.002813 -0.004225 0.001313 0.002556 0.041944
#
#
# Mechanical properties :
#
#
# Convention : Reuss Voigt Hill
#
# Bulk Modulus (GPa) = 34.65839 49.68692 42.17266
# Shear Modulus (GPa) = 25.88743 32.08585 28.98664
#
# Velocity S-wave (km/s) = 3.49230 3.88797 3.69544
# Velocity P-wave (km/s) = 5.70875 6.60028 6.17064
#
# Compressibility (1/GPa) = 0.02885304
#
# Stress axis : x y z
#
# Youngs Moduli (GPa) = 74.54578 60.64189 50.87827
#
# Poissons Ratio (x) = 0.29153 0.12978
# Poissons Ratio (y) = 0.35838 0.15238
# Poissons Ratio (z) = 0.19015 0.18162
#
# Static dielectric constant tensor:
#      x y z
#    x 1.784680 0.006140 0.003570 
#    y 0.006140 1.833500 -0.022610 
#    z 0.003570 -0.022610 1.784740 
# 
# From -- ./inp_files/418247.got.cif
#   From: 2010.05.17/outbox.cif.g08.bks.cpg/sg2_210_cif.got.tgz:418247.got - 2010.06.03 11:33:40.
