data_PCOD9011663
_publ_section_title
;
Structure prediction by ZEFSAII (Michael W. Deem and Ramdas Pophale) SiO2 
 PCOD9011663
Probable space group: P -1
;
_chemical_formula_sum "Si O2"
_cell_formula_units_Z 16
_cell_length_a 15.571365
_cell_length_b 11.599171
_cell_length_c 11.518748
_cell_angle_alpha 41.323126
_cell_angle_beta 149.412839
_cell_angle_gamma 129.646330
_cell_volume 698.802417
_symmetry_space_group_name_H-M "P -1"
_symmetry_group_IT_number 2
_symmetry_cell_setting 'triclinic'
loop_
_space_group_symop_operation_xyz
x,y,z
-x,-y,-z
loop_
_atom_site_type_symbol
_atom_site_label
_atom_site_fract_x
_atom_site_fract_y
_atom_site_fract_z
Si Si1 0.298686 0.187463 0.606323
Si Si2 0.210034 0.329904 0.174698
Si Si3 0.940836 0.510051 0.556912
Si Si4 0.291986 0.201908 0.939389
Si Si5 0.803004 0.950612 0.816049
Si Si6 0.571583 0.439602 0.462914
Si Si7 0.604316 0.304684 0.343515
Si Si8 0.356383 0.898353 0.067045
O O1 0.163214 0.264292 0.298089
O O2 0.359195 0.363919 0.608684
O O3 0.459836 0.126452 0.760554
O O4 0.256692 0.019486 0.762888
O O5 0.242561 0.154080 0.272057
O O6 0.381821 0.438531 0.295115
O O7 0.072146 0.433647 0.860210
O O8 0.775740 0.396941 0.445245
O O9 0.000000 0.500000 0.500000
O O10 0.867351 0.694957 0.378201
O O11 0.222651 0.167603 0.012814
O O12 0.456340 0.316661 0.067246
O O13 0.347330 0.029696 0.065934
O O14 0.668574 0.104711 0.565076
O O15 0.000000 0.000000 0.000000
O O16 0.554618 0.364816 0.369459
O O17 0.677506 0.294290 0.772873
#
# Coordination Sequence:
#
# PCOD9011663 Si02
#       8
#     2   2   2   2   2   2   2   2
#     4  10  23  42  68  99 132 182 232 276 339 393
#     4  11  22  42  65  92 138 181 216 275 348 408
#     4  12  24  40  60  96 140 174 214 280 349 410
#     4  12  23  41  66 101 129 171 231 281 331 404
#     4  12  22  41  66  96 134 170 210 278 352 405
#     4  11  21  42  72  98 131 177 237 279 329 405
#     4  12  22  39  68  97 131 174 225 280 341 398
#     4  10  21  40  66  99 133 165 233 290 316 403
#
# _framework density 22.896314
#
# number of rings (size 3 to 8) (size 9 to 14) (size 15 to 20)
#    0.000    0.750    5.000    4.500    0.000    1.000 
#    0.000    8.750    0.000    4.500    0.000    0.000 
#    0.000    0.000    0.000    0.000    0.000    0.000 
#
# Total GULP energy -89285.841294 kJ/mol
# GULP energy per Si atom -5580.365081 kJ/mol
# Density = 2.284420 g / cm^3
# Si number density = 22.896314 Si / 1000 Ang^3
#
#
#
# Elastic Constant Matrix: (Units=GPa)
#
#
# Indices 1 2 3 4 5 6 
#
# 1 48.2480 17.8536 24.6512 9.2902 -6.4385 -7.6449
# 2 17.8536 70.5248 27.7380 -10.6728 10.8115 -23.1936
# 3 24.6512 27.7380 168.2099 -13.1341 -11.5774 -7.9337
# 4 9.2902 -10.6728 -13.1341 28.6782 -7.7417 4.2631
# 5 -6.4385 10.8115 -11.5774 -7.7417 29.2418 -6.6905
# 6 -7.6449 -23.1936 -7.9337 4.2631 -6.6905 48.0050
#
#
#
# Elastic Compliance Matrix: (Units=1/GPa)
#
#
# Indices 1 2 3 4 5 6 
#
# 1 0.028944 -0.008015 -0.003489 -0.012907 0.004996 0.002003
# 2 -0.008015 0.021447 -0.001987 0.006693 -0.007067 0.007178
# 3 -0.003489 -0.001987 0.007454 0.004959 0.004198 -0.000139
# 4 -0.012907 0.006693 0.004959 0.046294 0.008697 -0.000901
# 5 0.004996 -0.007067 0.004198 0.008697 0.042617 0.003242
# 6 0.002003 0.007178 -0.000139 -0.000901 0.003242 0.025127
#
#
# Mechanical properties :
#
#
# Convention : Reuss Voigt Hill
#
# Bulk Modulus (GPa) = 32.40362 47.49646 39.95004
# Shear Modulus (GPa) = 23.90578 35.63431 29.77005
#
# Velocity S-wave (km/s) = 3.23474 3.94932 3.60976
# Velocity P-wave (km/s) = 5.30419 6.44867 5.90423
#
# Compressibility (1/GPa) = 0.03086075
#
# Stress axis : x y z
#
# Youngs Moduli (GPa) = 34.54906 46.62659 134.16357
#
# Poissons Ratio (x) = 0.37373 0.46816
# Poissons Ratio (y) = 0.27693 0.26661
# Poissons Ratio (z) = 0.12056 0.09266
#
# Static dielectric constant tensor:
#      x y z
#    x -6.255120 -2.022530 11.323050 
#    y -2.022530 1.397840 2.698120 
#    z 11.323050 2.698120 -13.715470 
# 
# From -- ./inp_files/464337.got.cif
#   From: 2010.05.17/outbox.cif.g08.bks.cpg/sg2_233_cif.got.tgz:464337.got - 2010.06.03 11:33:40.
