data_PCOD9011429
_publ_section_title
;
Structure prediction by ZEFSAII (Michael W. Deem and Ramdas Pophale) SiO2 
 PCOD9011429
Probable space group: P -1
;
_chemical_formula_sum "Si O2"
_cell_formula_units_Z 16
_cell_length_a 8.485361
_cell_length_b 15.100516
_cell_length_c 8.918859
_cell_angle_alpha 64.094194
_cell_angle_beta 131.697766
_cell_angle_gamma 92.678866
_cell_volume 715.155168
_symmetry_space_group_name_H-M "P -1"
_symmetry_group_IT_number 2
_symmetry_cell_setting 'triclinic'
loop_
_space_group_symop_operation_xyz
x,y,z
-x,-y,-z
loop_
_atom_site_type_symbol
_atom_site_label
_atom_site_fract_x
_atom_site_fract_y
_atom_site_fract_z
Si Si1 0.457532 0.856343 0.531683
Si Si2 0.203916 0.750955 0.261145
Si Si3 0.976707 0.203848 0.336789
Si Si4 0.459795 0.300004 0.039649
Si Si5 0.141199 0.064457 0.293754
Si Si6 0.057466 0.301940 0.586606
Si Si7 0.860559 0.391096 0.912398
Si Si8 0.791789 0.508045 0.071625
O O1 0.404126 0.784923 0.424946
O O2 0.564487 0.784500 0.795308
O O3 0.627431 0.912937 0.550502
O O4 0.222124 0.946081 0.370899
O O5 0.269418 0.655542 0.253465
O O6 0.086859 0.718414 0.353206
O O7 0.022061 0.853237 0.988827
O O8 0.712809 0.254692 0.173668
O O9 0.023314 0.096558 0.356065
O O10 0.108879 0.206875 0.569595
O O11 0.013486 0.287441 0.180334
O O12 0.278851 0.315097 0.784045
O O13 0.402821 0.406639 0.020007
O O14 0.914557 0.406880 0.327317
O O15 0.021963 0.440012 0.892080
O O16 0.723818 0.471623 0.895903
#
# Coordination Sequence:
#
# PCOD9011429 Si02
#       8
#     2   2   2   2   2   2   2   2
#     4  11  23  41  72  95 120 170 212 259 328 378
#     4  11  20  41  67  97 124 165 211 265 318 374
#     4  10  23  41  62  92 130 163 209 265 317 373
#     4  12  22  39  64  93 130 172 210 258 317 376
#     4  10  23  45  68  94 128 159 212 269 318 381
#     4  11  22  39  64  93 131 169 209 263 311 372
#     4   9  20  39  61  90 125 162 211 262 299 363
#     4  10  21  40  66  90 129 176 212 258 316 363
#
# _framework density 22.372767
#
# number of rings (size 3 to 8) (size 9 to 14) (size 15 to 20)
#    0.000    1.500    3.750    1.500    0.000    4.500 
#    0.000    1.875    0.000    0.000    0.000    0.000 
#    0.000    0.000    0.000    0.000    0.000    0.000 
#
# Total GULP energy -89460.660632 kJ/mol
# GULP energy per Si atom -5591.291289 kJ/mol
# Density = 2.232185 g / cm^3
# Si number density = 22.372767 Si / 1000 Ang^3
#
#
#
# Elastic Constant Matrix: (Units=GPa)
#
#
# Indices 1 2 3 4 5 6 
#
# 1 58.0935 44.1921 30.2541 11.2855 -2.7891 -19.5124
# 2 44.1921 101.8549 40.3736 26.9272 -7.8224 -14.8322
# 3 30.2541 40.3736 76.6191 14.6503 -12.2041 -12.7248
# 4 11.2855 26.9272 14.6503 39.8694 1.1593 -2.1742
# 5 -2.7891 -7.8224 -12.2041 1.1593 30.9185 1.7916
# 6 -19.5124 -14.8322 -12.7248 -2.1742 1.7916 38.7148
#
#
#
# Elastic Compliance Matrix: (Units=1/GPa)
#
#
# Indices 1 2 3 4 5 6 
#
# 1 0.031020 -0.010106 -0.005843 0.000816 -0.002676 0.010012
# 2 -0.010106 0.017914 -0.003503 -0.008022 0.002536 0.000050
# 3 -0.005843 -0.003503 0.019016 -0.003063 0.006120 0.001508
# 4 0.000816 -0.008022 -0.003063 0.031425 -0.004245 -0.001708
# 5 -0.002676 0.002536 0.006120 -0.004245 0.035332 -0.000239
# 6 0.010012 0.000050 0.001508 -0.001708 -0.000239 0.031306
#
#
# Mechanical properties :
#
#
# Convention : Reuss Voigt Hill
#
# Bulk Modulus (GPa) = 34.42811 51.80079 43.11445
# Shear Modulus (GPa) = 23.29944 30.01704 26.65824
#
# Velocity S-wave (km/s) = 3.23060 3.66687 3.45563
# Velocity P-wave (km/s) = 5.41641 6.41339 5.93587
#
# Compressibility (1/GPa) = 0.02904604
#
# Stress axis : x y z
#
# Youngs Moduli (GPa) = 32.23741 55.82249 52.58864
#
# Poissons Ratio (x) = 0.56413 0.30727
# Poissons Ratio (y) = 0.32579 0.18421
# Poissons Ratio (z) = 0.18836 0.19554
#
# Static dielectric constant tensor:
#      x y z
#    x 1.858470 -0.020710 -0.005270 
#    y -0.020710 1.890980 -0.003770 
#    z -0.005270 -0.003770 1.784290 
# 
# From -- ./inp_files/201087.got.cif
#   From: 2010.05.17/outbox.cif.g08.bks.cpg/sg2_101_cif.got.tgz:201087.got - 2010.06.03 11:33:40.
