data_PCOD9011600
_publ_section_title
;
Structure prediction by ZEFSAII (Michael W. Deem and Ramdas Pophale) SiO2 
 PCOD9011600
Probable space group: P -1
;
_chemical_formula_sum "Si O2"
_cell_formula_units_Z 14
_cell_length_a 10.421367
_cell_length_b 10.857755
_cell_length_c 6.930170
_cell_angle_alpha 109.806613
_cell_angle_beta 68.302749
_cell_angle_gamma 66.992613
_cell_volume 553.276690
_symmetry_space_group_name_H-M "P -1"
_symmetry_group_IT_number 2
_symmetry_cell_setting 'triclinic'
loop_
_space_group_symop_operation_xyz
x,y,z
-x,-y,-z
loop_
_atom_site_type_symbol
_atom_site_label
_atom_site_fract_x
_atom_site_fract_y
_atom_site_fract_z
Si Si1 0.307894 0.619464 0.229335
Si Si2 0.153894 0.895116 0.204528
Si Si3 0.249110 0.120017 0.234105
Si Si4 0.673993 0.884890 0.226587
Si Si5 0.911181 0.419849 0.432486
Si Si6 0.699316 0.670986 0.389105
Si Si7 0.709866 0.150110 0.314423
O O1 0.216162 0.718350 0.141412
O O2 0.244634 0.523819 0.310573
O O3 0.276170 0.749350 0.476079
O O4 0.500000 0.500000 0.000000
O O5 0.270872 0.960277 0.211748
O O6 0.175324 0.880944 0.952536
O O7 0.000000 0.000000 0.500000
O O8 0.255587 0.291611 0.825055
O O9 0.056684 0.231893 0.304091
O O10 0.358853 0.096372 0.973240
O O11 0.500000 0.000000 0.500000
O O12 0.766616 0.972579 0.256555
O O13 0.828092 0.489995 0.306564
O O14 0.268845 0.220292 0.433991
O O15 0.498053 0.742388 0.553636
O O16 0.000000 0.500000 0.500000
#
# Coordination Sequence:
#
# PCOD9011600 Si02
#       7
#     2   2   2   2   2   2   2
#     4  12  26  46  72  98 139 179 228 289 339 404
#     4  11  23  44  72  97 136 183 221 278 345 394
#     4  10  21  42  65  96 135 173 224 273 333 406
#     4   9  20  37  63  97 129 168 218 272 331 401
#     4  10  23  42  64  95 133 178 227 272 336 409
#     4  10  21  40  66  96 137 174 214 277 338 397
#     4  10  24  42  68 105 130 172 236 275 333 413
#
# _framework density 25.303792000000001
#
# number of rings (size 3 to 8) (size 9 to 14) (size 15 to 20)
#    0.000    1.714    1.429    1.714    0.000   15.429 
#    2.571    1.429    0.000    0.000    0.000    0.000 
#    0.000    0.000    0.000    0.000    0.000    0.000 
#
# Total GULP energy -78144.448180 kJ/mol
# GULP energy per Si atom -5581.746299 kJ/mol
# Density = 2.524620 g / cm^3
# Si number density = 25.303792 Si / 1000 Ang^3
#
#
#
# Elastic Constant Matrix: (Units=GPa)
#
#
# Indices 1 2 3 4 5 6 
#
# 1 98.1379 13.6004 38.0482 -19.2800 -2.9330 6.8128
# 2 13.6004 103.2222 12.1511 -31.6929 -22.5781 -4.7425
# 3 38.0482 12.1511 146.0224 -32.5680 -11.9599 11.6372
# 4 -19.2800 -31.6929 -32.5680 45.9699 4.0672 -13.9846
# 5 -2.9330 -22.5781 -11.9599 4.0672 48.9641 -3.1314
# 6 6.8128 -4.7425 11.6372 -13.9846 -3.1314 34.8202
#
#
#
# Elastic Compliance Matrix: (Units=1/GPa)
#
#
# Indices 1 2 3 4 5 6 
#
# 1 0.011756 -0.000531 -0.002398 0.002747 -0.000387 -0.000503
# 2 -0.000531 0.015568 0.001816 0.013515 0.006958 0.007671
# 3 -0.002398 0.001816 0.008928 0.006535 0.002368 0.000570
# 4 0.002747 0.013515 0.006535 0.041287 0.005599 0.016204
# 5 -0.000387 0.006958 0.002368 0.005599 0.024019 0.004641
# 6 -0.000503 0.007671 0.000570 0.016204 0.004641 0.036597
#
#
# Mechanical properties :
#
#
# Convention : Reuss Voigt Hill
#
# Bulk Modulus (GPa) = 29.38968 52.77579 41.08273
# Shear Modulus (GPa) = 32.95482 44.85635 38.90558
#
# Velocity S-wave (km/s) = 3.61275 4.21493 3.92540
# Velocity P-wave (km/s) = 5.38911 6.67755 6.06763
#
# Compressibility (1/GPa) = 0.03402555
#
# Stress axis : x y z
#
# Youngs Moduli (GPa) = 85.06290 64.23453 112.00615
#
# Poissons Ratio (x) = 0.03410 0.26859
# Poissons Ratio (y) = 0.04516 -0.20337
# Poissons Ratio (z) = 0.20398 -0.11663
#
# Static dielectric constant tensor:
#      x y z
#    x 2.011260 -0.042050 -0.037300 
#    y -0.042050 2.219400 -0.030250 
#    z -0.037300 -0.030250 2.035560 
# 
# From -- ./inp_files/74667.got.cif
#   From: 2010.05.17/outbox.cif.g08.bks.cpg/sg2_38_cif.got.tgz:74667.got - 2010.06.03 11:33:40.
