data_PCOD9011329
_publ_section_title
;
Structure prediction by ZEFSAII (Michael W. Deem and Ramdas Pophale) SiO2 
 PCOD9011329
Probable space group: P -1
;
_chemical_formula_sum "Si O2"
_cell_formula_units_Z 16
_cell_length_a 6.705802
_cell_length_b 26.552713
_cell_length_c 12.298461
_cell_angle_alpha 154.014332
_cell_angle_beta 118.250833
_cell_angle_gamma 52.519755
_cell_volume 744.124321
_symmetry_space_group_name_H-M "P -1"
_symmetry_group_IT_number 2
_symmetry_cell_setting 'triclinic'
loop_
_space_group_symop_operation_xyz
x,y,z
-x,-y,-z
loop_
_atom_site_type_symbol
_atom_site_label
_atom_site_fract_x
_atom_site_fract_y
_atom_site_fract_z
Si Si1 0.099834 0.011241 0.318703
Si Si2 0.755474 0.674825 0.566919
Si Si3 0.530170 0.119733 0.287234
Si Si4 0.250552 0.365312 0.272659
Si Si5 0.221088 0.718707 0.825304
Si Si6 0.074982 0.627136 0.990820
Si Si7 0.204512 0.789318 0.200659
Si Si8 0.310826 0.173647 0.571269
O O1 0.282897 0.053479 0.382137
O O2 0.822322 0.072165 0.306467
O O3 0.030587 0.083161 0.558483
O O4 0.195668 0.858655 0.056960
O O5 0.559549 0.770456 0.614510
O O6 0.667982 0.710021 0.738221
O O7 0.813374 0.526829 0.274769
O O8 0.017066 0.686531 0.651496
O O9 0.353577 0.165626 0.438218
O O10 0.500000 0.000000 0.000000
O O11 0.488021 0.383270 0.326721
O O12 0.000000 0.500000 0.500000
O O13 0.154659 0.315659 0.048400
O O14 0.161791 0.736665 0.973308
O O15 0.266947 0.676095 0.086926
O O16 0.944667 0.699694 0.208497
O O17 0.441540 0.818470 0.304367
#
# Coordination Sequence:
#
# PCOD9011329 Si02
#       8
#     2   2   2   2   2   2   2   2
#     4  10  24  41  66  99 131 173 223 271 325 391
#     4  11  25  41  65 100 134 176 218 270 330 388
#     4  11  24  45  67  94 138 171 221 277 318 394
#     4  10  23  39  60  96 133 167 214 268 321 388
#     4  12  22  38  69  99 132 181 211 265 344 392
#     4  10  21  43  64  95 134 167 222 269 329 393
#     4  10  21  40  65  98 135 169 214 277 327 396
#     4  10  23  43  67  91 133 179 215 276 325 375
#
# _framework density 21.501784000000001
#
# number of rings (size 3 to 8) (size 9 to 14) (size 15 to 20)
#    0.000    1.500    3.750    0.375    1.750    6.500 
#    0.000    5.625    0.000    0.000    0.000    0.000 
#    0.000    0.000    0.000    0.000    0.000    0.000 
#
# Total GULP energy -89412.856279 kJ/mol
# GULP energy per Si atom -5588.303517 kJ/mol
# Density = 2.145285 g / cm^3
# Si number density = 21.501784 Si / 1000 Ang^3
#
#
#
# Elastic Constant Matrix: (Units=GPa)
#
#
# Indices 1 2 3 4 5 6 
#
# 1 111.4764 31.5409 36.7161 7.5705 6.6483 14.5798
# 2 31.5409 85.3522 28.6264 2.8083 -14.2253 20.7777
# 3 36.7161 28.6264 109.6812 12.0784 10.2365 12.0717
# 4 7.5705 2.8083 12.0784 33.1546 10.5982 6.3083
# 5 6.6483 -14.2253 10.2365 10.5982 37.3027 -1.3375
# 6 14.5798 20.7777 12.0717 6.3083 -1.3375 29.0311
#
#
#
# Elastic Compliance Matrix: (Units=1/GPa)
#
#
# Indices 1 2 3 4 5 6 
#
# 1 0.011126 -0.003146 -0.002381 -0.000117 -0.002584 -0.002440
# 2 -0.003146 0.017516 -0.003204 -0.000376 0.007897 -0.009179
# 3 -0.002381 -0.003204 0.011399 -0.002079 -0.003369 -0.000955
# 4 -0.000117 -0.000376 -0.002079 0.035461 -0.009877 -0.006968
# 5 -0.002584 0.007897 -0.003369 -0.009877 0.034038 0.000761
# 6 -0.002440 -0.009179 -0.000955 -0.006968 0.000761 0.044187
#
#
# Mechanical properties :
#
#
# Convention : Reuss Voigt Hill
#
# Bulk Modulus (GPa) = 44.28732 55.58630 49.93681
# Shear Modulus (GPa) = 27.97762 33.87277 30.92520
#
# Velocity S-wave (km/s) = 3.61110 3.97337 3.79656
# Velocity P-wave (km/s) = 6.16672 6.85261 6.51869
#
# Compressibility (1/GPa) = 0.02257982
#
# Stress axis : x y z
#
# Youngs Moduli (GPa) = 89.88101 57.08972 87.72663
#
# Poissons Ratio (x) = 0.17959 0.20887
# Poissons Ratio (y) = 0.28274 0.28108
# Poissons Ratio (z) = 0.21400 0.18292
#
# Static dielectric constant tensor:
#      x y z
#    x 1.788020 0.012470 0.011900 
#    y 0.012470 1.781080 0.006480 
#    z 0.011900 0.006480 1.801610 
# 
# From -- ./inp_files/71785.got.cif
#   From: 2010.05.17/outbox.cif.g08.bks.cpg/sg2_36_cif.got.tgz:71785.got - 2010.06.03 11:33:40.
