data_PCOD9011769
_publ_section_title
;
Structure prediction by ZEFSAII (Michael W. Deem and Ramdas Pophale) SiO2 
 PCOD9011769
Probable space group: P -1
;
_chemical_formula_sum "Si O2"
_cell_formula_units_Z 14
_cell_length_a 10.491578
_cell_length_b 13.173407
_cell_length_c 11.099888
_cell_angle_alpha 129.861566
_cell_angle_beta 38.765331
_cell_angle_gamma 145.655907
_cell_volume 541.892219
_symmetry_space_group_name_H-M "P -1"
_symmetry_group_IT_number 2
_symmetry_cell_setting 'triclinic'
loop_
_space_group_symop_operation_xyz
x,y,z
-x,-y,-z
loop_
_atom_site_type_symbol
_atom_site_label
_atom_site_fract_x
_atom_site_fract_y
_atom_site_fract_z
Si Si1 0.432003 0.185483 0.244619
Si Si2 0.917736 0.825787 0.871781
Si Si3 0.353368 0.999712 0.494890
Si Si4 0.166595 0.707559 0.769399
Si Si5 0.488131 0.436770 0.207733
Si Si6 0.019573 0.654184 0.340201
Si Si7 0.911257 0.772566 0.287809
O O1 0.681718 0.222046 0.158433
O O2 0.525438 0.318518 0.166821
O O3 0.283680 0.219601 0.477016
O O4 0.192139 0.979087 0.223509
O O5 0.037514 0.770004 0.834484
O O6 0.618713 0.646223 0.909713
O O7 0.064883 0.912473 0.697846
O O8 0.000000 0.000000 0.000000
O O9 0.557571 0.197863 0.444306
O O10 0.500000 0.000000 0.500000
O O11 0.283773 0.856428 0.340127
O O12 0.966535 0.494299 0.759570
O O13 0.242808 0.410569 0.436882
O O14 0.755916 0.647931 0.190114
O O15 0.961481 0.668743 0.257969
#
# Coordination Sequence:
#
# PCOD9011769 Si02
#       7
#     2   2   2   2   2   2   2
#     4  10  18  30  57  91 116 143 175 238 298 339
#     4  10  24  41  56  78 119 163 193 230 281 338
#     4   9  20  34  56  86 113 143 185 238 279 335
#     4  11  19  36  62  89 113 144 188 238 290 334
#     4  10  19  33  54  83 118 148 186 231 286 343
#     4  10  17  30  55  91 117 137 180 239 293 335
#     4  10  17  29  53  88 127 136 174 236 305 334
#
# _framework density 25.835394999999998
#
# number of rings (size 3 to 8) (size 9 to 14) (size 15 to 20)
#    0.000    2.000    4.286    0.857    2.000    5.143 
#    0.000    0.714    0.000   22.286    0.000    0.000 
#    0.000    0.000    0.000    0.000    0.000    0.000 
#
# Total GULP energy -78253.464500 kJ/mol
# GULP energy per Si atom -5589.533179 kJ/mol
# Density = 2.577659 g / cm^3
# Si number density = 25.835395 Si / 1000 Ang^3
#
#
#
# Elastic Constant Matrix: (Units=GPa)
#
#
# Indices 1 2 3 4 5 6 
#
# 1 182.0126 68.8131 48.8024 24.5694 -14.6948 11.6334
# 2 68.8131 161.1678 53.3252 28.1465 1.8781 16.1755
# 3 48.8024 53.3252 69.7457 23.7770 -3.9158 -0.6573
# 4 24.5694 28.1465 23.7770 47.8073 0.2141 6.7153
# 5 -14.6948 1.8781 -3.9158 0.2141 36.6680 9.4286
# 6 11.6334 16.1755 -0.6573 6.7153 9.4286 60.8653
#
#
#
# Elastic Compliance Matrix: (Units=1/GPa)
#
#
# Indices 1 2 3 4 5 6 
#
# 1 0.007570 -0.001839 -0.003410 -0.000932 0.003123 -0.001376
# 2 -0.001839 0.009218 -0.005310 -0.001585 -0.001310 -0.001778
# 3 -0.003410 -0.005310 0.023278 -0.007122 0.000662 0.002998
# 4 -0.000932 -0.001585 -0.007122 0.026193 -0.000622 -0.002271
# 5 0.003123 -0.001310 0.000662 -0.000622 0.029900 -0.004805
# 6 -0.001376 -0.001778 0.002998 -0.002271 -0.004805 0.018192
#
#
# Mechanical properties :
#
#
# Convention : Reuss Voigt Hill
#
# Bulk Modulus (GPa) = 52.78491 83.86749 68.32620
# Shear Modulus (GPa) = 35.26441 45.20047 40.23244
#
# Velocity S-wave (km/s) = 3.69855 4.18731 3.95050
# Velocity P-wave (km/s) = 6.22211 7.47735 6.87842
#
# Compressibility (1/GPa) = 0.01894481
#
# Stress axis : x y z
#
# Youngs Moduli (GPa) = 132.10476 108.48927 42.95947
#
# Poissons Ratio (x) = 0.19953 0.14651
# Poissons Ratio (y) = 0.24296 0.22814
# Poissons Ratio (z) = 0.45054 0.57613
#
# Static dielectric constant tensor:
#      x y z
#    x 2.001220 0.130660 -0.025700 
#    y 0.130660 2.265310 -0.148500 
#    z -0.025700 -0.148500 2.218560 
# 
# From -- ./inp_files/501200.got.cif
#   From: 2010.05.17/outbox.cif.g08.bks.cpg/sg2_251_cif.got.tgz:501200.got - 2010.06.03 11:33:40.
