data_PCOD9011022
_publ_section_title
;
Structure prediction by ZEFSAII (Michael W. Deem and Ramdas Pophale) SiO2 
 PCOD9011022
Probable space group: P -1
;
_chemical_formula_sum "Si O2"
_cell_formula_units_Z 10
_cell_length_a 5.249525
_cell_length_b 9.831076
_cell_length_c 11.318172
_cell_angle_alpha 135.984387
_cell_angle_beta 55.224925
_cell_angle_gamma 111.776094
_cell_volume 332.596881
_symmetry_space_group_name_H-M "P -1"
_symmetry_group_IT_number 2
_symmetry_cell_setting 'triclinic'
loop_
_space_group_symop_operation_xyz
x,y,z
-x,-y,-z
loop_
_atom_site_type_symbol
_atom_site_label
_atom_site_fract_x
_atom_site_fract_y
_atom_site_fract_z
Si Si1 0.614955 0.903725 0.787436
Si Si2 0.594962 0.605225 0.210335
Si Si3 0.856596 0.550075 0.368658
Si Si4 0.282749 0.250627 0.988904
Si Si5 0.789653 0.057981 0.475544
O O1 0.664928 0.670634 0.596621
O O2 0.965576 0.960249 0.706991
O O3 0.500000 0.000000 0.000000
O O4 0.398572 0.024756 0.824956
O O5 0.557430 0.369872 0.045102
O O6 0.583246 0.856030 0.392793
O O7 0.689022 0.576880 0.306850
O O8 0.759404 0.650496 0.065743
O O9 0.994869 0.325521 0.196244
O O10 0.184180 0.671324 0.348639
O O11 0.000000 0.000000 0.500000
#
# Coordination Sequence:
#
# PCOD9011022 Si02
#       5
#     2   2   2   2   2
#     4  10  24  46  69  98 139 190 230 271 345 419
#     4  10  21  40  65 107 136 172 227 292 352 395
#     4   9  22  42  65 103 139 176 230 286 342 408
#     4  10  22  41  68 102 140 179 221 293 347 406
#     4   9  22  39  67  98 134 176 224 287 333 397
#
# _framework density 30.066424999999999
#
# number of rings (size 3 to 8) (size 9 to 14) (size 15 to 20)
#    1.200    1.200    0.000    0.600    2.800    8.800 
#    0.000    5.000    0.000    0.000    0.000    1.400 
#    0.000    0.200    0.000    0.000    0.000    0.000 
#
# Total GULP energy -55813.721100 kJ/mol
# GULP energy per Si atom -5581.372110 kJ/mol
# Density = 2.999799 g / cm^3
# Si number density = 30.066425 Si / 1000 Ang^3
#
#
#
# Elastic Constant Matrix: (Units=GPa)
#
#
# Indices 1 2 3 4 5 6 
#
# 1 154.0980 30.6021 67.7034 -43.6388 15.4089 3.5188
# 2 30.6021 101.7995 62.0684 1.3028 -14.9419 6.5301
# 3 67.7034 62.0684 269.9323 -12.3790 -28.6086 -7.8956
# 4 -43.6388 1.3028 -12.3790 74.5620 -4.9766 0.6885
# 5 15.4089 -14.9419 -28.6086 -4.9766 62.7952 1.5540
# 6 3.5188 6.5301 -7.8956 0.6885 1.5540 23.2149
#
#
#
# Elastic Compliance Matrix: (Units=1/GPa)
#
#
# Indices 1 2 3 4 5 6 
#
# 1 0.009654 -0.002079 -0.002111 0.005124 -0.003382 -0.001522
# 2 -0.002079 0.012479 -0.002286 -0.001616 0.002411 -0.004086
# 3 -0.002111 -0.002286 0.005056 -0.000233 0.002196 0.002543
# 4 0.005124 -0.001616 -0.000233 0.016380 -0.000429 -0.000859
# 5 -0.003382 0.002411 0.002196 -0.000429 0.018311 -0.000632
# 6 -0.001522 -0.004086 0.002543 -0.000859 -0.000632 0.045388
#
#
# Mechanical properties :
#
#
# Convention : Reuss Voigt Hill
#
# Bulk Modulus (GPa) = 70.24342 94.06419 82.15380
# Shear Modulus (GPa) = 40.01114 56.47816 48.24465
#
# Velocity S-wave (km/s) = 3.65191 4.33881 4.01009
# Velocity P-wave (km/s) = 6.41837 7.51357 6.98746
#
# Compressibility (1/GPa) = 0.01423621
#
# Stress axis : x y z
#
# Youngs Moduli (GPa) = 103.58532 80.13668 197.77546
#
# Poissons Ratio (x) = 0.16662 0.41754
# Poissons Ratio (y) = 0.21537 0.45210
# Poissons Ratio (z) = 0.21869 0.18319
#
# Static dielectric constant tensor:
#      x y z
#    x 2.449560 0.175340 -0.034860 
#    y 0.175340 2.430390 0.123590 
#    z -0.034860 0.123590 2.450980 
# 
# From -- ./inp_files/363497.got.cif
#   From: 2010.05.17/outbox.cif.g08.bks.cpg/sg2_182_cif.got.tgz:363497.got - 2010.06.03 11:33:40.
