data_PCOD9011289
_publ_section_title
;
Structure prediction by ZEFSAII (Michael W. Deem and Ramdas Pophale) SiO2 
 PCOD9011289
Probable space group: P -1
;
_chemical_formula_sum "Si O2"
_cell_formula_units_Z 14
_cell_length_a 12.870047
_cell_length_b 12.314057
_cell_length_c 8.434019
_cell_angle_alpha 50.707599
_cell_angle_beta 43.670401
_cell_angle_gamma 39.341764
_cell_volume 576.716231
_symmetry_space_group_name_H-M "P -1"
_symmetry_group_IT_number 2
_symmetry_cell_setting 'triclinic'
loop_
_space_group_symop_operation_xyz
x,y,z
-x,-y,-z
loop_
_atom_site_type_symbol
_atom_site_label
_atom_site_fract_x
_atom_site_fract_y
_atom_site_fract_z
Si Si1 0.497045 0.241807 0.136064
Si Si2 0.034836 0.649549 0.795051
Si Si3 0.559817 0.317946 0.519823
Si Si4 0.134097 0.564078 0.097110
Si Si5 0.351282 0.985983 0.090521
Si Si6 0.240787 0.405246 0.569405
Si Si7 0.811332 0.196277 0.030706
O O1 0.332386 0.378455 0.070188
O O2 0.379327 0.296321 0.375554
O O3 0.668737 0.245293 0.998785
O O4 0.594315 0.057122 0.114820
O O5 0.140701 0.604474 0.554125
O O6 0.844481 0.835075 0.831728
O O7 0.000000 0.500000 0.000000
O O8 0.132963 0.639618 0.857530
O O9 0.500000 0.500000 0.500000
O O10 0.651118 0.168368 0.689775
O O11 0.377941 0.329980 0.643179
O O12 0.687653 0.249761 0.280994
O O13 0.942051 0.583885 0.287655
O O14 0.127238 0.676712 0.143374
O O15 0.500000 0.000000 0.000000
O O16 0.000000 0.000000 0.000000
#
# Coordination Sequence:
#
# PCOD9011289 Si02
#       7
#     2   2   2   2   2   2   2
#     4  11  24  41  67 102 134 176 229 288 348 406
#     4  10  21  40  65  96 133 175 222 278 333 396
#     4  11  25  47  72 102 142 185 228 283 349 415
#     4  11  21  42  67  95 138 184 229 281 340 413
#     4  12  24  43  71 102 134 181 233 280 340 414
#     4  10  22  42  70 101 135 179 230 288 341 402
#     4  11  25  43  64  98 140 180 224 286 350 410
#
# _framework density 24.275369000000001
#
# number of rings (size 3 to 8) (size 9 to 14) (size 15 to 20)
#    0.000    1.143    0.000    7.714    0.000    3.429 
#    0.000   12.143    0.000    0.000    0.000    0.000 
#    0.000    0.000    0.000    0.000    0.000    0.000 
#
# Total GULP energy -77998.187935 kJ/mol
# GULP energy per Si atom -5571.299138 kJ/mol
# Density = 2.422012 g / cm^3
# Si number density = 24.275369 Si / 1000 Ang^3
#
#
#
# Elastic Constant Matrix: (Units=GPa)
#
#
# Indices 1 2 3 4 5 6 
#
# 1 172.5493 24.3802 43.4817 17.0496 -11.9101 4.8637
# 2 24.3802 143.0314 42.1300 20.0410 1.7366 3.2278
# 3 43.4817 42.1300 77.1727 22.8567 12.0570 0.9998
# 4 17.0496 20.0410 22.8567 39.7921 5.4635 5.0432
# 5 -11.9101 1.7366 12.0570 5.4635 44.2574 15.2185
# 6 4.8637 3.2278 0.9998 5.0432 15.2185 47.8119
#
#
#
# Elastic Compliance Matrix: (Units=1/GPa)
#
#
# Indices 1 2 3 4 5 6 
#
# 1 0.007332 0.000220 -0.004567 -0.000941 0.003952 -0.001824
# 2 0.000220 0.008528 -0.004414 -0.001954 0.001428 -0.000754
# 3 -0.004567 -0.004414 0.021210 -0.007458 -0.007067 0.003355
# 4 -0.000941 -0.001954 -0.007458 0.031281 -0.001127 -0.002557
# 5 0.003952 0.001428 -0.007067 -0.001127 0.028911 -0.009434
# 6 -0.001824 -0.000754 0.003355 -0.002557 -0.009434 0.024354
#
#
# Mechanical properties :
#
#
# Convention : Reuss Voigt Hill
#
# Bulk Modulus (GPa) = 51.15209 68.08189 59.61699
# Shear Modulus (GPa) = 34.32807 45.22304 39.77556
#
# Velocity S-wave (km/s) = 3.76455 4.32084 4.05225
# Velocity P-wave (km/s) = 6.32559 7.28007 6.81955
#
# Compressibility (1/GPa) = 0.01954955
#
# Stress axis : x y z
#
# Youngs Moduli (GPa) = 136.38374 117.26668 47.14699
#
# Poissons Ratio (x) = -0.02584 0.21530
# Poissons Ratio (y) = -0.03005 0.20811
# Poissons Ratio (z) = 0.62281 0.51761
#
# Static dielectric constant tensor:
#      x y z
#    x 1.987990 -0.035690 -0.012040 
#    y -0.035690 1.965670 -0.015590 
#    z -0.012040 -0.015590 2.226320 
# 
# From -- ./inp_files/261926.got.cif
#   From: 2010.05.17/outbox.cif.g08.bks.cpg/sg2_131_cif.got.tgz:261926.got - 2010.06.03 11:33:40.
