data_PCOD9011745
_publ_section_title
;
Structure prediction by ZEFSAII (Michael W. Deem and Ramdas Pophale) SiO2 
 PCOD9011745
Probable space group: P -1
;
_chemical_formula_sum "Si O2"
_cell_formula_units_Z 16
_cell_length_a 11.217248
_cell_length_b 16.273213
_cell_length_c 8.872071
_cell_angle_alpha 45.212734
_cell_angle_beta 81.870520
_cell_angle_gamma 115.391764
_cell_volume 749.900278
_symmetry_space_group_name_H-M "P -1"
_symmetry_group_IT_number 2
_symmetry_cell_setting 'triclinic'
loop_
_space_group_symop_operation_xyz
x,y,z
-x,-y,-z
loop_
_atom_site_type_symbol
_atom_site_label
_atom_site_fract_x
_atom_site_fract_y
_atom_site_fract_z
Si Si1 0.605886 0.642283 0.160842
Si Si2 0.494630 0.998936 0.184019
Si Si3 0.784651 0.008171 0.726434
Si Si4 0.153198 0.614594 0.697612
Si Si5 0.364063 0.484109 0.135928
Si Si6 0.009092 0.145358 0.792896
Si Si7 0.847659 0.630647 0.958056
Si Si8 0.912425 0.315409 0.692975
O O1 0.500000 0.500000 0.500000
O O2 0.471044 0.602383 0.111728
O O3 0.736603 0.840028 0.931204
O O4 0.730938 0.640635 0.053500
O O5 0.347328 0.791119 0.507156
O O6 0.391258 0.039203 0.205740
O O7 0.500000 0.000000 0.000000
O O8 0.704012 0.148648 0.005693
O O9 0.842323 0.056061 0.828374
O O10 0.955683 0.177958 0.376837
O O11 0.100596 0.664722 0.509779
O O12 0.149733 0.483845 0.798072
O O13 0.000000 0.500000 0.000000
O O14 0.264565 0.486712 0.022070
O O15 0.197681 0.292501 0.480766
O O16 0.500000 0.500000 0.000000
O O17 0.005466 0.253537 0.770002
O O18 0.000000 0.000000 0.000000
O O19 0.000000 0.500000 0.500000
#
# Coordination Sequence:
#
# PCOD9011745 Si02
#       8
#     2   2   2   2   2   2   2   2
#     4  11  24  36  63 100 128 169 223 273 321 388
#     4  10  21  40  67  90 129 172 215 266 330 394
#     4  11  21  41  62  95 131 172 216 265 328 392
#     4  11  20  42  69  91 122 173 226 254 328 405
#     4   9  21  41  58  92 129 170 206 268 326 384
#     4  11  22  40  65  91 131 172 214 265 332 390
#     4  10  22  41  65  90 131 177 210 268 332 397
#     4  11  26  43  65  99 135 170 217 284 332 386
#
# _framework density 21.336169999999999
#
# number of rings (size 3 to 8) (size 9 to 14) (size 15 to 20)
#    0.000    1.500    3.750    1.875    5.250    3.000 
#    0.000    1.875    0.000    0.000    0.000    0.000 
#    0.000    0.000    0.000    0.000    0.000    0.000 
#
# Total GULP energy -89074.555414 kJ/mol
# GULP energy per Si atom -5567.159713 kJ/mol
# Density = 2.128761 g / cm^3
# Si number density = 21.336170 Si / 1000 Ang^3
#
#
#
# Elastic Constant Matrix: (Units=GPa)
#
#
# Indices 1 2 3 4 5 6 
#
# 1 102.2583 32.1778 61.5353 -8.2760 2.4849 -36.6582
# 2 32.1778 90.4189 31.7544 -20.7639 11.2754 -16.6910
# 3 61.5353 31.7544 115.4835 -14.9498 -8.2140 -21.4296
# 4 -8.2760 -20.7639 -14.9498 33.4880 -12.7294 5.6081
# 5 2.4849 11.2754 -8.2140 -12.7294 41.1592 -8.7871
# 6 -36.6582 -16.6910 -21.4296 5.6081 -8.7871 36.2961
#
#
#
# Elastic Compliance Matrix: (Units=1/GPa)
#
#
# Indices 1 2 3 4 5 6 
#
# 1 0.020508 -0.002300 -0.007646 -0.002186 0.000522 0.015605
# 2 -0.002300 0.014587 -0.001668 0.006766 -0.001682 0.001948
# 3 -0.007646 -0.001668 0.014408 0.005559 0.005624 0.000520
# 4 -0.002186 0.006766 0.005559 0.040446 0.012081 0.000861
# 5 0.000522 -0.001682 0.005624 0.012081 0.031468 0.008826
# 6 0.015605 0.001948 0.000520 0.000861 0.008826 0.046519
#
#
# Mechanical properties :
#
#
# Convention : Reuss Voigt Hill
#
# Bulk Modulus (GPa) = 38.05566 62.12175 50.08870
# Shear Modulus (GPa) = 25.00982 34.36820 29.68901
#
# Velocity S-wave (km/s) = 3.42743 4.01783 3.73431
# Velocity P-wave (km/s) = 5.79119 7.12059 6.49002
#
# Compressibility (1/GPa) = 0.02627730
#
# Stress axis : x y z
#
# Youngs Moduli (GPa) = 48.76050 68.55507 69.40548
#
# Poissons Ratio (x) = 0.15765 0.53065
# Poissons Ratio (y) = 0.11213 0.11575
# Poissons Ratio (z) = 0.37280 0.11433
#
# Static dielectric constant tensor:
#      x y z
#    x 1.883590 0.035630 0.032870 
#    y 0.035630 1.915950 -0.035230 
#    z 0.032870 -0.035230 1.765570 
# 
# From -- ./inp_files/271828.got.cif
#   From: 2010.05.17/outbox.cif.g08.bks.cpg/sg2_136_cif.got.tgz:271828.got - 2010.06.03 11:33:40.
