data_PCOD9011241
_publ_section_title
;
Structure prediction by ZEFSAII (Michael W. Deem and Ramdas Pophale) SiO2 
 PCOD9011241
Probable space group: P -1
;
_chemical_formula_sum "Si O2"
_cell_formula_units_Z 16
_cell_length_a 12.029632
_cell_length_b 7.728256
_cell_length_c 9.674631
_cell_angle_alpha 107.310277
_cell_angle_beta 58.962929
_cell_angle_gamma 99.161704
_cell_volume 735.739791
_symmetry_space_group_name_H-M "P -1"
_symmetry_group_IT_number 2
_symmetry_cell_setting 'triclinic'
loop_
_space_group_symop_operation_xyz
x,y,z
-x,-y,-z
loop_
_atom_site_type_symbol
_atom_site_label
_atom_site_fract_x
_atom_site_fract_y
_atom_site_fract_z
Si Si1 0.036422 0.078608 0.801666
Si Si2 0.584102 0.678528 0.029689
Si Si3 0.131159 0.711263 0.545521
Si Si4 0.562349 0.090391 0.346008
Si Si5 0.912106 0.696842 0.451464
Si Si6 0.808321 0.875916 0.023101
Si Si7 0.412041 0.639166 0.380503
Si Si8 0.378121 0.217252 0.264932
O O1 0.054812 0.209829 0.692143
O O2 0.093439 0.167307 0.925464
O O3 0.117476 0.894341 0.683589
O O4 0.891676 0.000322 0.895576
O O5 0.739832 0.695862 0.960864
O O6 0.525502 0.713610 0.227157
O O7 0.500000 0.500000 0.000000
O O8 0.577395 0.805161 0.927904
O O9 0.104761 0.521624 0.596740
O O10 0.279493 0.694266 0.401160
O O11 0.028201 0.727605 0.492363
O O12 0.593508 0.286006 0.442606
O O13 0.455319 0.099319 0.296831
O O14 0.500000 0.000000 0.500000
O O15 0.691566 0.999818 0.183515
O O16 0.777449 0.783857 0.614262
O O17 0.417201 0.423764 0.326419
#
# Coordination Sequence:
#
# PCOD9011241 Si02
#       8
#     2   2   2   2   2   2   2   2
#     4  11  23  43  66  96 136 177 220 275 335 392
#     4  10  22  42  62  95 129 171 215 274 331 384
#     4  10  21  40  66  94 133 171 227 273 322 404
#     4  12  22  40  65  93 130 168 214 273 328 397
#     4  10  22  40  66  98 130 178 224 269 332 397
#     4  11  24  41  65  97 135 173 223 274 333 402
#     4  10  21  40  65  95 127 173 214 270 337 385
#     4  10  23  39  65  94 130 169 222 265 330 398
#
# _framework density 21.746818000000001
#
# number of rings (size 3 to 8) (size 9 to 14) (size 15 to 20)
#    0.000    1.500    2.500    2.250    0.000    2.500 
#    2.250    5.000    0.000    0.000    0.000    0.000 
#    0.000    0.000    0.000    0.000    0.000    0.000 
#
# Total GULP energy -89233.755569 kJ/mol
# GULP energy per Si atom -5577.109723 kJ/mol
# Density = 2.169732 g / cm^3
# Si number density = 21.746818 Si / 1000 Ang^3
#
#
#
# Elastic Constant Matrix: (Units=GPa)
#
#
# Indices 1 2 3 4 5 6 
#
# 1 118.3814 33.8053 11.3052 -31.3531 0.4427 3.8582
# 2 33.8053 46.6533 22.4301 -16.7471 -2.1444 -1.4651
# 3 11.3052 22.4301 70.4733 -36.7451 -2.3959 -6.8823
# 4 -31.3531 -16.7471 -36.7451 39.7443 9.3185 2.8027
# 5 0.4427 -2.1444 -2.3959 9.3185 34.0469 4.3541
# 6 3.8582 -1.4651 -6.8823 2.8027 4.3541 35.7260
#
#
#
# Elastic Compliance Matrix: (Units=1/GPa)
#
#
# Indices 1 2 3 4 5 6 
#
# 1 0.015057 -0.009335 0.009805 0.018241 -0.004965 -0.000946
# 2 -0.009335 0.031926 -0.011015 -0.004727 0.002619 0.000247
# 3 0.009805 -0.011015 0.036243 0.038524 -0.009272 0.003579
# 4 0.018241 -0.004727 0.038524 0.077582 -0.019252 0.001518
# 5 -0.004965 0.002619 -0.009272 -0.019252 0.034711 -0.003863
# 6 -0.000946 0.000247 0.003579 0.001518 -0.003863 0.029144
#
#
# Mechanical properties :
#
#
# Convention : Reuss Voigt Hill
#
# Bulk Modulus (GPa) = 16.09334 41.17657 28.63495
# Shear Modulus (GPa) = 18.76413 33.10128 25.93270
#
# Velocity S-wave (km/s) = 2.94061 3.90567 3.45698
# Velocity P-wave (km/s) = 4.35270 6.27014 5.39725
#
# Compressibility (1/GPa) = 0.06213750
#
# Stress axis : x y z
#
# Youngs Moduli (GPa) = 66.41447 31.32248 27.59121
#
# Poissons Ratio (x) = 0.29238 -0.27054
# Poissons Ratio (y) = 0.61995 0.30392
# Poissons Ratio (z) = -0.65121 0.34502
#
# Static dielectric constant tensor:
#      x y z
#    x 1.863840 0.068480 0.032910 
#    y 0.068480 1.856120 0.058290 
#    z 0.032910 0.058290 1.807080 
# 
# From -- ./inp_files/238891.got.cif
#   From: 2010.05.17/outbox.cif.g08.bks.cpg/sg2_120_cif.got.tgz:238891.got - 2010.06.03 11:33:40.
