data_PCOD9011908
_publ_section_title
;
Structure prediction by ZEFSAII (Michael W. Deem and Ramdas Pophale) SiO2 
 PCOD9011908
Probable space group: P -1
;
_chemical_formula_sum "Si O2"
_cell_formula_units_Z 16
_cell_length_a 18.023211
_cell_length_b 21.804158
_cell_length_c 9.002885
_cell_angle_alpha 146.214087
_cell_angle_beta 155.039335
_cell_angle_gamma 28.524936
_cell_volume 702.399064
_symmetry_space_group_name_H-M "P -1"
_symmetry_group_IT_number 2
_symmetry_cell_setting 'triclinic'
loop_
_space_group_symop_operation_xyz
x,y,z
-x,-y,-z
loop_
_atom_site_type_symbol
_atom_site_label
_atom_site_fract_x
_atom_site_fract_y
_atom_site_fract_z
Si Si1 0.315457 0.117103 0.811916
Si Si2 0.902392 0.135278 0.179257
Si Si3 0.120158 0.628345 0.866698
Si Si4 0.449262 0.060708 0.369617
Si Si5 0.054126 0.379826 0.958074
Si Si6 0.985737 0.121935 0.635888
Si Si7 0.240650 0.353279 0.567068
Si Si8 0.280085 0.626686 0.827382
O O1 0.270078 0.260256 0.037255
O O2 0.099373 0.150223 0.551295
O O3 0.360824 0.054094 0.608031
O O4 0.500000 0.000000 0.000000
O O5 0.873448 0.136714 0.305019
O O6 0.720074 0.246427 0.970308
O O7 0.000000 0.000000 0.000000
O O8 0.276677 0.473562 0.879691
O O9 0.149295 0.650023 0.789460
O O10 0.901655 0.643428 0.547791
O O11 0.122519 0.742000 0.193642
O O12 0.422945 0.201103 0.585670
O O13 0.500000 0.000000 0.500000
O O14 0.223539 0.084854 0.965759
O O15 0.835110 0.389908 0.555550
O O16 0.108889 0.380700 0.230559
O O17 0.000000 0.500000 0.000000
O O18 0.000000 0.000000 0.500000
O O19 0.500000 0.500000 0.000000
#
# Coordination Sequence:
#
# PCOD9011908 Si02
#       8
#     2   2   2   2   2   2   2   2
#     4  11  21  41  66  98 131 168 226 280 326 395
#     4  11  25  43  71  93 133 181 218 276 341 395
#     4  10  21  40  68  91 131 174 216 275 344 390
#     4  11  24  39  67 104 134 172 224 279 337 405
#     4  11  22  40  65  96 133 174 221 276 332 391
#     4  11  24  46  66  98 139 177 224 278 344 413
#     4  10  21  40  67  98 134 172 224 279 337 402
#     4  11  24  42  64  97 132 176 227 272 326 412
#
# _framework density 22.779073
#
# number of rings (size 3 to 8) (size 9 to 14) (size 15 to 20)
#    0.000    1.250    3.750    3.000    8.750    2.000 
#    2.250    2.500    0.000    0.000    0.000    0.000 
#    0.000    0.000    0.000    0.000    0.000    0.000 
#
# Total GULP energy -89155.409016 kJ/mol
# GULP energy per Si atom -5572.213063 kJ/mol
# Density = 2.272723 g / cm^3
# Si number density = 22.779073 Si / 1000 Ang^3
#
#
#
# Elastic Constant Matrix: (Units=GPa)
#
#
# Indices 1 2 3 4 5 6 
#
# 1 135.1280 54.3116 22.8253 1.8513 -33.1346 12.8282
# 2 54.3116 212.4503 50.4826 7.9161 -18.5252 13.3977
# 3 22.8253 50.4826 62.8120 -5.7428 -14.5096 0.4532
# 4 1.8513 7.9161 -5.7428 39.1240 -0.3193 -0.7442
# 5 -33.1346 -18.5252 -14.5096 -0.3193 35.6443 0.8272
# 6 12.8282 13.3977 0.4532 -0.7442 0.8272 40.9375
#
#
#
# Elastic Compliance Matrix: (Units=1/GPa)
#
#
# Indices 1 2 3 4 5 6 
#
# 1 0.010597 -0.001621 -0.000498 -0.000231 0.008872 -0.002968
# 2 -0.001621 0.006415 -0.004754 -0.001950 -0.000089 -0.001572
# 3 -0.000498 -0.004754 0.021660 0.004240 0.005888 0.001430
# 4 -0.000231 -0.001950 0.004240 0.026615 0.000710 0.001133
# 5 0.008872 -0.000089 0.005888 0.000710 0.038742 -0.003586
# 6 -0.002968 -0.001572 0.001430 0.001133 -0.003586 0.025949
#
#
# Mechanical properties :
#
#
# Convention : Reuss Voigt Hill
#
# Bulk Modulus (GPa) = 40.12070 73.95882 57.03976
# Shear Modulus (GPa) = 32.88747 41.99256 37.44002
#
# Velocity S-wave (km/s) = 3.80380 4.29822 4.05855
# Velocity P-wave (km/s) = 6.07808 7.56117 6.85983
#
# Compressibility (1/GPa) = 0.02492479
#
# Stress axis : x y z
#
# Youngs Moduli (GPa) = 94.37077 155.87939 46.16786
#
# Poissons Ratio (x) = 0.25272 0.02299
# Poissons Ratio (y) = 0.15300 0.21950
# Poissons Ratio (z) = 0.04699 0.74111
#
# Static dielectric constant tensor:
#      x y z
#    x 1.713900 -0.277740 -0.095620 
#    y -0.277740 1.719630 -0.117700 
#    z -0.095620 -0.117700 1.778710 
# 
# From -- ./inp_files/337999.got.cif
#   From: 2010.05.17/outbox.cif.g08.bks.cpg/sg2_169_cif.got.tgz:337999.got - 2010.06.03 11:33:40.
