data_PCOD9011416
_publ_section_title
;
Structure prediction by ZEFSAII (Michael W. Deem and Ramdas Pophale) SiO2 
 PCOD9011416
Probable space group: P -1
;
_chemical_formula_sum "Si O2"
_cell_formula_units_Z 12
_cell_length_a 9.590908
_cell_length_b 9.214883
_cell_length_c 9.180229
_cell_angle_alpha 58.409850
_cell_angle_beta 73.289703
_cell_angle_gamma 64.676507
_cell_volume 622.576305
_symmetry_space_group_name_H-M "P -1"
_symmetry_group_IT_number 2
_symmetry_cell_setting 'triclinic'
loop_
_space_group_symop_operation_xyz
x,y,z
-x,-y,-z
loop_
_atom_site_type_symbol
_atom_site_label
_atom_site_fract_x
_atom_site_fract_y
_atom_site_fract_z
Si Si1 0.613094 0.597882 0.346924
Si Si2 0.114960 0.099022 0.355701
Si Si3 0.967094 0.331399 0.021389
Si Si4 0.031576 0.522690 0.645467
Si Si5 0.451197 0.866086 0.481664
Si Si6 0.392385 0.558604 0.860669
O O1 0.500000 0.500000 0.500000
O O2 0.792972 0.484451 0.377618
O O3 0.571413 0.778000 0.361777
O O4 0.589075 0.602963 0.177327
O O5 0.071070 0.157491 0.170873
O O6 0.080137 0.286398 0.357712
O O7 0.288143 0.971035 0.399478
O O8 0.000000 0.000000 0.500000
O O9 0.786867 0.361816 0.080335
O O10 0.000000 0.500000 0.000000
O O11 0.008113 0.357455 0.829838
O O12 0.000000 0.500000 0.500000
O O13 0.433266 0.709824 0.675090
O O14 0.500000 0.000000 0.500000
O O15 0.500000 0.500000 0.000000
#
# Coordination Sequence:
#
# PCOD9011416 Si02
#       6
#     2   2   2   2   2   2
#     4  10  21  41  60  93 124 166 212 250 310 383
#     4  11  20  42  64  88 128 163 203 261 319 367
#     4  10  21  40  66  90 121 169 216 249 315 376
#     4  11  23  39  68  90 121 167 217 254 308 385
#     4  11  24  39  65  96 130 164 203 265 328 363
#     4  11  23  41  66  93 126 170 217 255 311 384
#
# _framework density 19.274747000000001
#
# number of rings (size 3 to 8) (size 9 to 14) (size 15 to 20)
#    0.000    1.333    5.000    2.000    9.333    0.000 
#    0.000    5.833    0.000    0.000    0.000    0.000 
#    0.000    0.000    0.000    0.000    0.000    0.000 
#
# Total GULP energy -66972.767483 kJ/mol
# GULP energy per Si atom -5581.063957 kJ/mol
# Density = 1.923088 g / cm^3
# Si number density = 19.274747 Si / 1000 Ang^3
#
#
#
# Elastic Constant Matrix: (Units=GPa)
#
#
# Indices 1 2 3 4 5 6 
#
# 1 74.7052 6.9540 38.9202 7.9414 22.0696 -3.3026
# 2 6.9540 66.3678 28.5435 11.0548 17.3654 1.6552
# 3 38.9202 28.5435 160.6772 10.1544 29.6534 2.8205
# 4 7.9414 11.0548 10.1544 34.5763 5.1353 4.7325
# 5 22.0696 17.3654 29.6534 5.1353 41.4254 -0.9693
# 6 -3.3026 1.6552 2.8205 4.7325 -0.9693 33.7170
#
#
#
# Elastic Compliance Matrix: (Units=1/GPa)
#
#
# Indices 1 2 3 4 5 6 
#
# 1 0.017391 0.001860 -0.003017 -0.002873 -0.007481 0.002053
# 2 0.001860 0.018301 -0.002205 -0.004655 -0.006509 -0.000065
# 3 -0.003017 -0.002205 0.007965 -0.000351 -0.003147 -0.000895
# 4 -0.002873 -0.004655 -0.000351 0.031836 -0.000318 -0.004501
# 5 -0.007481 -0.006509 -0.003147 -0.000318 0.033166 0.000848
# 6 0.002053 -0.000065 -0.000895 -0.004501 0.000848 0.030594
#
#
# Mechanical properties :
#
#
# Convention : Reuss Voigt Hill
#
# Bulk Modulus (GPa) = 27.07604 50.06506 38.57055
# Shear Modulus (GPa) = 31.58812 37.09926 34.34369
#
# Velocity S-wave (km/s) = 4.05264 4.39197 4.22571
# Velocity P-wave (km/s) = 5.99804 7.19375 6.62293
#
# Compressibility (1/GPa) = 0.03693302
#
# Stress axis : x y z
#
# Youngs Moduli (GPa) = 57.50205 54.64161 125.55147
#
# Poissons Ratio (x) = -0.10163 0.37875
# Poissons Ratio (y) = -0.10695 0.27685
# Poissons Ratio (z) = 0.17347 0.12049
#
# Static dielectric constant tensor:
#      x y z
#    x 1.659530 0.009470 -0.003940 
#    y 0.009470 1.717420 0.004360 
#    z -0.003940 0.004360 1.695820 
# 
# From -- ./inp_files/144389.got.cif
#   From: 2010.05.17/outbox.cif.g08.bks.cpg/sg2_73_cif.got.tgz:144389.got - 2010.06.03 11:33:40.
