data_PCOD9011579
_publ_section_title
;
Structure prediction by ZEFSAII (Michael W. Deem and Ramdas Pophale) SiO2 
 PCOD9011579
Probable space group: P -1
;
_chemical_formula_sum "Si O2"
_cell_formula_units_Z 16
_cell_length_a 12.975618
_cell_length_b 20.726415
_cell_length_c 8.832980
_cell_angle_alpha 49.467847
_cell_angle_beta 38.551084
_cell_angle_gamma 32.410485
_cell_volume 793.114966
_symmetry_space_group_name_H-M "P -1"
_symmetry_group_IT_number 2
_symmetry_cell_setting 'triclinic'
loop_
_space_group_symop_operation_xyz
x,y,z
-x,-y,-z
loop_
_atom_site_type_symbol
_atom_site_label
_atom_site_fract_x
_atom_site_fract_y
_atom_site_fract_z
Si Si1 0.918452 0.622024 0.847574
Si Si2 0.804708 0.256473 0.234681
Si Si3 0.275526 0.552845 0.776140
Si Si4 0.255522 0.043652 0.196598
Si Si5 0.181721 0.414015 0.285654
Si Si6 0.003477 0.074809 0.712273
Si Si7 0.696129 0.198867 0.144071
Si Si8 0.376708 0.828744 0.230471
O O1 0.936107 0.608162 0.666165
O O2 0.069999 0.628420 0.770108
O O3 0.645986 0.737336 0.018048
O O4 0.000000 0.500000 0.000000
O O5 0.751802 0.370228 0.173973
O O6 0.722818 0.251158 0.176248
O O7 0.673589 0.243092 0.525778
O O8 0.082471 0.141053 0.117857
O O9 0.500000 0.500000 0.500000
O O10 0.259249 0.467577 0.011118
O O11 0.300596 0.928834 0.281983
O O12 0.118107 0.097795 0.429218
O O13 0.500000 0.000000 0.000000
O O14 0.427075 0.292076 0.258999
O O15 0.000000 0.500000 0.500000
O O16 0.795014 0.102406 0.820197
O O17 0.197728 0.933835 0.745647
O O18 0.872520 0.166840 0.860057
#
# Coordination Sequence:
#
# PCOD9011579 Si02
#       8
#     2   2   2   2   2   2   2   2
#     4  10  22  41  65  91 126 174 222 270 325 389
#     4  11  22  39  65  95 127 174 219 271 329 394
#     4  11  26  44  66  95 130 176 228 276 327 394
#     4  11  22  38  64  97 129 169 226 272 318 390
#     4  11  26  44  68  99 131 178 224 277 339 397
#     4  10  21  40  66  96 126 175 215 267 336 401
#     4  11  22  40  69  92 136 168 215 265 344 397
#     4  11  19  41  65  95 126 171 231 264 320 398
#
# _framework density 20.173621000000001
#
# number of rings (size 3 to 8) (size 9 to 14) (size 15 to 20)
#    0.000    1.250    3.750    3.000    7.000    1.500 
#    0.000    0.625    0.000    0.000    0.000    0.000 
#    0.000    0.000    0.000    0.000    0.000    0.000 
#
# Total GULP energy -89275.527010 kJ/mol
# GULP energy per Si atom -5579.720438 kJ/mol
# Density = 2.012770 g / cm^3
# Si number density = 20.173621 Si / 1000 Ang^3
#
#
#
# Elastic Constant Matrix: (Units=GPa)
#
#
# Indices 1 2 3 4 5 6 
#
# 1 112.6601 31.4269 27.1023 12.5406 16.8259 -19.9427
# 2 31.4269 86.6489 23.4575 21.1912 3.3002 -19.5822
# 3 27.1023 23.4575 70.9749 23.2259 6.7620 -14.3541
# 4 12.5406 21.1912 23.2259 30.7753 5.1442 -8.3418
# 5 16.8259 3.3002 6.7620 5.1442 36.4850 6.6862
# 6 -19.9427 -19.5822 -14.3541 -8.3418 6.6862 39.9584
#
#
#
# Elastic Compliance Matrix: (Units=1/GPa)
#
#
# Indices 1 2 3 4 5 6 
#
# 1 0.011805 -0.002543 -0.002478 0.001130 -0.005824 0.004966
# 2 -0.002543 0.015603 -0.000685 -0.008028 0.000210 0.004420
# 3 -0.002478 -0.000685 0.020189 -0.012644 -0.001353 0.003267
# 4 0.001130 -0.008028 -0.012644 0.048757 -0.004892 0.003085
# 5 -0.005824 0.000210 -0.001353 -0.004892 0.032812 -0.009801
# 6 0.004966 0.004420 0.003267 0.003085 -0.009801 0.033128
#
#
# Mechanical properties :
#
#
# Convention : Reuss Voigt Hill
#
# Bulk Modulus (GPa) = 27.63573 48.25081 37.94327
# Shear Modulus (GPa) = 26.91541 33.99689 30.45615
#
# Velocity S-wave (km/s) = 3.65662 4.10959 3.88970
# Velocity P-wave (km/s) = 5.61752 6.81821 6.24678
#
# Compressibility (1/GPa) = 0.03618504
#
# Stress axis : x y z
#
# Youngs Moduli (GPa) = 84.71121 64.09126 49.53135
#
# Poissons Ratio (x) = 0.16299 0.12274
# Poissons Ratio (y) = 0.21543 0.03392
# Poissons Ratio (z) = 0.20992 0.04389
#
# Static dielectric constant tensor:
#      x y z
#    x 1.747520 -0.000070 0.035300 
#    y -0.000070 1.729030 -0.015680 
#    z 0.035300 -0.015680 1.728630 
# 
# From -- ./inp_files/282847.got.cif
#   From: 2010.05.17/outbox.cif.g08.bks.cpg/sg2_142_cif.got.tgz:282847.got - 2010.06.03 11:33:40.
