data_PCOD9011852
_publ_section_title
;
Structure prediction by ZEFSAII (Michael W. Deem and Ramdas Pophale) SiO2 
 PCOD9011852
Probable space group: P -1
;
_chemical_formula_sum "Si O2"
_cell_formula_units_Z 14
_cell_length_a 8.737102
_cell_length_b 8.048131
_cell_length_c 16.292007
_cell_angle_alpha 63.859794
_cell_angle_beta 116.802347
_cell_angle_gamma 147.120481
_cell_volume 550.561822
_symmetry_space_group_name_H-M "P -1"
_symmetry_group_IT_number 2
_symmetry_cell_setting 'triclinic'
loop_
_space_group_symop_operation_xyz
x,y,z
-x,-y,-z
loop_
_atom_site_type_symbol
_atom_site_label
_atom_site_fract_x
_atom_site_fract_y
_atom_site_fract_z
Si Si1 0.084130 0.576954 0.908949
Si Si2 0.349748 0.861778 0.580534
Si Si3 0.863660 0.115238 0.340698
Si Si4 0.622333 0.587644 0.148788
Si Si5 0.664085 0.916283 0.946666
Si Si6 0.680860 0.525448 0.740858
Si Si7 0.946261 0.315384 0.698713
O O1 0.954840 0.268182 0.916540
O O2 0.916787 0.602155 0.825310
O O3 0.419887 0.860472 0.912716
O O4 0.000000 0.500000 0.000000
O O5 0.608983 0.026290 0.668754
O O6 0.500000 0.000000 0.500000
O O7 0.220172 0.939740 0.570953
O O8 0.104140 0.495288 0.610635
O O9 0.956870 0.413657 0.289071
O O10 0.130230 0.231519 0.342389
O O11 0.582532 0.810167 0.291194
O O12 0.451200 0.475329 0.215887
O O13 0.909418 0.736176 0.216016
O O14 0.685033 0.823049 0.057542
O O15 0.441410 0.305241 0.103746
#
# Coordination Sequence:
#
# PCOD9011852 Si02
#       7
#     2   2   2   2   2   2   2
#     4  12  24  43  62  87 121 180 225 268 310 353
#     4  10  21  41  71 100 119 157 213 260 312 382
#     4  10  22  40  65  93 119 165 205 264 301 380
#     4  11  26  42  62  96 134 173 211 265 330 368
#     4  11  27  43  62  87 132 177 221 268 308 371
#     4  12  23  38  62  91 129 164 220 261 308 373
#     4  10  21  40  67  96 126 165 201 266 314 379
#
# _framework density 25.428569
#
# number of rings (size 3 to 8) (size 9 to 14) (size 15 to 20)
#    0.857    0.286    2.857    3.429    2.000    5.714 
#    0.000    0.000    0.000    5.143    0.000    0.000 
#    0.000    0.000    0.000    0.000    0.000    0.000 
#
# Total GULP energy -78309.142695 kJ/mol
# GULP energy per Si atom -5593.510192 kJ/mol
# Density = 2.537069 g / cm^3
# Si number density = 25.428569 Si / 1000 Ang^3
#
#
#
# Elastic Constant Matrix: (Units=GPa)
#
#
# Indices 1 2 3 4 5 6 
#
# 1 76.1554 12.4301 45.9543 -5.3675 -33.5829 19.8309
# 2 12.4301 100.4765 16.6186 0.7803 -3.4745 22.6328
# 3 45.9543 16.6186 86.1563 -11.0922 -43.0233 9.9477
# 4 -5.3675 0.7803 -11.0922 33.6151 12.5275 -11.5067
# 5 -33.5829 -3.4745 -43.0233 12.5275 53.1221 -7.5621
# 6 19.8309 22.6328 9.9477 -11.5067 -7.5621 34.0359
#
#
#
# Elastic Compliance Matrix: (Units=1/GPa)
#
#
# Indices 1 2 3 4 5 6 
#
# 1 0.024851 0.001744 -0.008671 -0.006706 0.008463 -0.013491
# 2 0.001744 0.012538 -0.003338 -0.004085 -0.001246 -0.010036
# 3 -0.008671 -0.003338 0.023285 0.003006 0.013074 0.004388
# 4 -0.006706 -0.004085 0.003006 0.038844 -0.008824 0.016916
# 5 0.008463 -0.001246 0.013074 -0.008824 0.036360 -0.002828
# 6 -0.013491 -0.010036 0.004388 0.016916 -0.002828 0.047723
#
#
# Mechanical properties :
#
#
# Convention : Reuss Voigt Hill
#
# Bulk Modulus (GPa) = 24.91113 45.86603 35.38858
# Shear Modulus (GPa) = 22.98706 36.67362 29.83034
#
# Velocity S-wave (km/s) = 3.00990 3.80178 3.42878
# Velocity P-wave (km/s) = 4.67943 6.11128 5.44265
#
# Compressibility (1/GPa) = 0.04014271
#
# Stress axis : x y z
#
# Youngs Moduli (GPa) = 40.23930 79.75618 42.94652
#
# Poissons Ratio (x) = -0.13906 0.37240
# Poissons Ratio (y) = -0.07016 0.14336
# Poissons Ratio (z) = 0.34893 0.26623
#
# Static dielectric constant tensor:
#      x y z
#    x 2.033590 -0.039180 -0.075930 
#    y -0.039180 1.995350 -0.043940 
#    z -0.075930 -0.043940 2.151800 
# 
# From -- ./inp_files/557254.got.cif
#   From: 2010.05.17/outbox.cif.g08.bks.cpg/sg2_279_cif.got.tgz:557254.got - 2010.06.03 11:33:40.
