data_PCOD9011875
_publ_section_title
;
Structure prediction by ZEFSAII (Michael W. Deem and Ramdas Pophale) SiO2 
 PCOD9011875
Probable space group: P -1
;
_chemical_formula_sum "Si O2"
_cell_formula_units_Z 14
_cell_length_a 11.987029
_cell_length_b 8.750896
_cell_length_c 10.250605
_cell_angle_alpha 40.814283
_cell_angle_beta 61.939602
_cell_angle_gamma 72.148721
_cell_volume 617.902270
_symmetry_space_group_name_H-M "P -1"
_symmetry_group_IT_number 2
_symmetry_cell_setting 'triclinic'
loop_
_space_group_symop_operation_xyz
x,y,z
-x,-y,-z
loop_
_atom_site_type_symbol
_atom_site_label
_atom_site_fract_x
_atom_site_fract_y
_atom_site_fract_z
Si Si1 0.363898 0.603420 0.015394
Si Si2 0.100468 0.825705 0.307300
Si Si3 0.326440 0.953140 0.276546
Si Si4 0.279731 0.080461 0.840858
Si Si5 0.176886 0.325040 0.490630
Si Si6 0.405572 0.809379 0.601762
Si Si7 0.537543 0.667676 0.219561
O O1 0.361580 0.854626 0.927889
O O2 0.321858 0.675403 0.846946
O O3 0.500000 0.500000 0.000000
O O4 0.270291 0.420370 0.263055
O O5 0.183809 0.919089 0.324155
O O6 0.134366 0.559533 0.433027
O O7 0.949654 0.816234 0.403494
O O8 0.155692 0.981871 0.053920
O O9 0.337545 0.917095 0.447498
O O10 0.408453 0.768273 0.273039
O O11 0.397378 0.193551 0.028784
O O12 0.241619 0.175705 0.661016
O O13 0.359221 0.270651 0.763661
O O14 0.480239 0.602761 0.631927
O O15 0.500000 0.000000 0.500000
#
# Coordination Sequence:
#
# PCOD9011875 Si02
#       7
#     2   2   2   2   2   2   2
#     4  11  28  39  61 101 137 175 223 273 337 398
#     4   9  20  39  68 103 128 174 228 278 320 391
#     4  10  22  40  64  95 133 167 219 276 331 392
#     4  10  21  42  71 101 130 176 223 273 339 393
#     4  10  21  40  67  96 139 175 223 275 324 394
#     4  12  27  39  62  96 133 177 216 273 347 403
#     4  10  23  39  65  99 129 168 219 281 338 395
#
# _framework density 22.657304
#
# number of rings (size 3 to 8) (size 9 to 14) (size 15 to 20)
#    0.000    1.714    0.000    2.571   14.000    0.000 
#    0.000    0.714    0.000    4.286    0.000    0.000 
#    0.000    0.000    0.000    0.000    0.000    0.143 
#
# Total GULP energy -78392.943771 kJ/mol
# GULP energy per Si atom -5599.495984 kJ/mol
# Density = 2.260574 g / cm^3
# Si number density = 22.657304 Si / 1000 Ang^3
#
#
#
# Elastic Constant Matrix: (Units=GPa)
#
#
# Indices 1 2 3 4 5 6 
#
# 1 186.2942 44.4579 111.0887 10.9213 2.2326 25.6755
# 2 44.4579 108.0315 41.8185 -17.7271 -1.6076 11.8596
# 3 111.0887 41.8185 208.8271 20.0373 27.0212 19.4030
# 4 10.9213 -17.7271 20.0373 37.2096 6.6388 5.8863
# 5 2.2326 -1.6076 27.0212 6.6388 37.8085 7.1222
# 6 25.6755 11.8596 19.4030 5.8863 7.1222 31.1773
#
#
#
# Elastic Compliance Matrix: (Units=1/GPa)
#
#
# Indices 1 2 3 4 5 6 
#
# 1 0.009060 -0.001584 -0.004443 -0.000917 0.003628 -0.004749
# 2 -0.001584 0.012563 -0.002283 0.008017 0.001592 -0.003931
# 3 -0.004443 -0.002283 0.008564 -0.003588 -0.005540 0.001140
# 4 -0.000917 0.008017 -0.003588 0.034197 -0.001899 -0.006084
# 5 0.003628 0.001592 -0.005540 -0.001899 0.031930 -0.007081
# 6 -0.004749 -0.003931 0.001140 -0.006084 -0.007081 0.039538
#
#
# Mechanical properties :
#
#
# Convention : Reuss Voigt Hill
#
# Bulk Modulus (GPa) = 73.70361 99.76475 86.73418
# Shear Modulus (GPa) = 31.84839 41.62492 36.73666
#
# Velocity S-wave (km/s) = 3.75328 4.29085 4.03104
# Velocity P-wave (km/s) = 7.16820 8.28711 7.74788
#
# Compressibility (1/GPa) = 0.01356786
#
# Stress axis : x y z
#
# Youngs Moduli (GPa) = 110.37757 79.59855 116.76294
#
# Poissons Ratio (x) = 0.12607 0.51872
# Poissons Ratio (y) = 0.17482 0.26661
# Poissons Ratio (z) = 0.49035 0.18175
#
# Static dielectric constant tensor:
#      x y z
#    x 1.821280 0.002980 0.021800 
#    y 0.002980 1.883990 0.003180 
#    z 0.021800 0.003180 1.885880 
# 
# From -- ./inp_files/236562.got.cif
#   From: 2010.05.17/outbox.cif.g08.bks.cpg/sg2_119_cif.got.tgz:236562.got - 2010.06.03 11:33:40.
