data_PCOD9011376
_publ_section_title
;
Structure prediction by ZEFSAII (Michael W. Deem and Ramdas Pophale) SiO2 
 PCOD9011376
Probable space group: P -1
;
_chemical_formula_sum "Si O2"
_cell_formula_units_Z 16
_cell_length_a 9.920099
_cell_length_b 14.252939
_cell_length_c 12.243058
_cell_angle_alpha 31.403453
_cell_angle_beta 61.835666
_cell_angle_gamma 77.999150
_cell_volume 720.036638
_symmetry_space_group_name_H-M "P -1"
_symmetry_group_IT_number 2
_symmetry_cell_setting 'triclinic'
loop_
_space_group_symop_operation_xyz
x,y,z
-x,-y,-z
loop_
_atom_site_type_symbol
_atom_site_label
_atom_site_fract_x
_atom_site_fract_y
_atom_site_fract_z
Si Si1 0.754811 0.256578 0.127317
Si Si2 0.693626 0.624996 0.840483
Si Si3 0.446077 0.971069 0.379751
Si Si4 0.960226 0.488227 0.397947
Si Si5 0.053588 0.127180 0.678715
Si Si6 0.591107 0.694054 0.039658
Si Si7 0.637245 0.734825 0.434458
Si Si8 0.747429 0.701959 0.202454
O O1 0.718040 0.128388 0.380645
O O2 0.588710 0.132083 0.242550
O O3 0.766074 0.462582 0.965230
O O4 0.903129 0.333121 0.905170
O O5 0.803091 0.799933 0.542804
O O6 0.500000 0.500000 0.000000
O O7 0.699553 0.700773 0.884790
O O8 0.517971 0.818281 0.458563
O O9 0.426123 0.100650 0.160094
O O10 0.969941 0.283865 0.561854
O O11 0.000000 0.500000 0.500000
O O12 0.793975 0.524301 0.402881
O O13 0.168883 0.144980 0.722987
O O14 0.912595 0.909941 0.928637
O O15 0.419768 0.495404 0.282394
O O16 0.668705 0.662283 0.152820
O O17 0.631014 0.736760 0.304416
#
# Coordination Sequence:
#
# PCOD9011376 Si02
#       8
#     2   2   2   2   2   2   2   2
#     4  10  21  40  66 105 126 166 237 286 322 393
#     4  11  19  42  71  97 135 173 229 283 334 398
#     4  11  23  38  72 100 130 173 228 285 332 388
#     4  11  24  43  69  96 136 181 225 276 334 403
#     4  11  24  43  71 101 129 179 233 281 331 402
#     4  12  26  44  67 102 141 180 219 285 348 396
#     4  12  24  45  71  97 137 179 233 279 330 410
#     4  12  29  44  65 104 142 181 224 275 347 411
#
# _framework density 22.221091999999999
#
# number of rings (size 3 to 8) (size 9 to 14) (size 15 to 20)
#    0.000    0.750    5.000    2.250    5.250    2.000 
#    0.000    1.250    0.000    0.000    0.000    0.000 
#    0.000    0.000    0.000    0.000    0.000    0.000 
#
# Total GULP energy -89357.526083 kJ/mol
# GULP energy per Si atom -5584.845380 kJ/mol
# Density = 2.217052 g / cm^3
# Si number density = 22.221092 Si / 1000 Ang^3
#
#
#
# Elastic Constant Matrix: (Units=GPa)
#
#
# Indices 1 2 3 4 5 6 
#
# 1 61.1986 28.0503 28.3067 -3.0643 16.7707 9.2365
# 2 28.0503 92.8585 43.9744 8.7496 -0.5999 3.4384
# 3 28.3067 43.9744 103.6328 5.8923 3.1127 -10.9450
# 4 -3.0643 8.7496 5.8923 32.8756 -3.2593 11.4814
# 5 16.7707 -0.5999 3.1127 -3.2593 31.2068 6.2819
# 6 9.2365 3.4384 -10.9450 11.4814 6.2819 25.6218
#
#
#
# Elastic Compliance Matrix: (Units=1/GPa)
#
#
# Indices 1 2 3 4 5 6 
#
# 1 0.027293 -0.005459 -0.006739 0.008835 -0.010486 -0.013374
# 2 -0.005459 0.015199 -0.005156 -0.002507 0.003902 -0.002108
# 3 -0.006739 -0.005156 0.015484 -0.006737 -0.001360 0.013088
# 4 0.008835 -0.002507 -0.006737 0.042869 0.005651 -0.026322
# 5 -0.010486 0.003902 -0.001360 0.005651 0.040448 -0.009774
# 6 -0.013374 -0.002108 0.013088 -0.026322 -0.009774 0.063916
#
#
# Mechanical properties :
#
#
# Convention : Reuss Voigt Hill
#
# Bulk Modulus (GPa) = 42.97289 50.92808 46.95049
# Shear Modulus (GPa) = 20.18810 28.43140 24.30975
#
# Velocity S-wave (km/s) = 3.01742 3.58086 3.31115
# Velocity P-wave (km/s) = 5.61432 6.32972 5.98272
#
# Compressibility (1/GPa) = 0.02327049
#
# Stress axis : x y z
#
# Youngs Moduli (GPa) = 36.63904 65.79397 64.58323
#
# Poissons Ratio (x) = 0.35914 0.43520
# Poissons Ratio (y) = 0.20000 0.33297
# Poissons Ratio (z) = 0.24690 0.33921
#
# Static dielectric constant tensor:
#      x y z
#    x 1.837070 -0.061440 -0.000860 
#    y -0.061440 1.842440 0.031970 
#    z -0.000860 0.031970 1.853400 
# 
# From -- ./inp_files/398092.got.cif
#   From: 2010.05.17/outbox.cif.g08.bks.cpg/sg2_200_cif.got.tgz:398092.got - 2010.06.03 11:33:40.
