data_PCOD9011862
_publ_section_title
;
Structure prediction by ZEFSAII (Michael W. Deem and Ramdas Pophale) SiO2 
 PCOD9011862
Probable space group: P -1
;
_chemical_formula_sum "Si O2"
_cell_formula_units_Z 14
_cell_length_a 6.556094
_cell_length_b 8.230917
_cell_length_c 19.281890
_cell_angle_alpha 36.847027
_cell_angle_beta 93.454595
_cell_angle_gamma 83.969336
_cell_volume 602.068740
_symmetry_space_group_name_H-M "P -1"
_symmetry_group_IT_number 2
_symmetry_cell_setting 'triclinic'
loop_
_space_group_symop_operation_xyz
x,y,z
-x,-y,-z
loop_
_atom_site_type_symbol
_atom_site_label
_atom_site_fract_x
_atom_site_fract_y
_atom_site_fract_z
Si Si1 0.369937 0.632600 0.520729
Si Si2 0.895751 0.809742 0.343679
Si Si3 0.470864 0.746557 0.860255
Si Si4 0.983280 0.066061 0.395266
Si Si5 0.368409 0.444930 0.838268
Si Si6 0.203869 0.981809 0.058293
Si Si7 0.282524 0.777148 0.273308
O O1 0.500000 0.500000 0.500000
O O2 0.202266 0.445199 0.587917
O O3 0.540635 0.518918 0.623842
O O4 0.231401 0.953215 0.414409
O O5 0.130430 0.754396 0.340655
O O6 0.768977 0.070828 0.207103
O O7 0.875649 0.896508 0.394559
O O8 0.492172 0.625863 0.824418
O O9 0.608257 0.968207 0.798844
O O10 0.500000 0.500000 0.000000
O O11 0.824874 0.373796 0.274126
O O12 0.000000 0.000000 0.500000
O O13 0.561954 0.224507 0.881078
O O14 0.255136 0.282143 0.946841
O O15 0.152543 0.869390 0.169581
O O16 0.000000 0.000000 0.000000
#
# Coordination Sequence:
#
# PCOD9011862 Si02
#       7
#     2   2   2   2   2   2   2
#     4  11  23  45  71  97 137 183 231 278 335 409
#     4  10  24  41  67 101 134 177 229 274 341 411
#     4  10  21  40  67  96 130 176 223 282 328 401
#     4  11  23  44  70  99 136 178 223 287 339 398
#     4  10  24  46  64  99 139 176 234 282 334 412
#     4  11  25  43  67  99 140 181 222 279 353 413
#     4  11  23  41  70 100 132 181 225 279 344 401
#
# _framework density 23.253159
#
# number of rings (size 3 to 8) (size 9 to 14) (size 15 to 20)
#    0.000    1.429    2.857    1.286    2.000    5.143 
#    2.571    0.714    0.000    0.000    0.000    0.000 
#    0.000    0.000    0.000    0.000    0.000    0.000 
#
# Total GULP energy -77991.997080 kJ/mol
# GULP energy per Si atom -5570.856934 kJ/mol
# Density = 2.320023 g / cm^3
# Si number density = 23.253159 Si / 1000 Ang^3
#
#
#
# Elastic Constant Matrix: (Units=GPa)
#
#
# Indices 1 2 3 4 5 6 
#
# 1 87.5247 26.8061 54.5774 -0.4320 22.3294 -10.4512
# 2 26.8061 45.5014 34.6040 17.8658 17.7202 -7.0923
# 3 54.5774 34.6040 177.9441 10.6651 54.4138 -14.1096
# 4 -0.4320 17.8658 10.6651 40.2483 -1.4513 5.0093
# 5 22.3294 17.7202 54.4138 -1.4513 37.5076 5.7534
# 6 -10.4512 -7.0923 -14.1096 5.0093 5.7534 32.1699
#
#
#
# Elastic Compliance Matrix: (Units=1/GPa)
#
#
# Indices 1 2 3 4 5 6 
#
# 1 0.016505 -0.008185 -0.003120 0.004360 -0.001537 0.001785
# 2 -0.008185 0.047341 0.005327 -0.025979 -0.029200 0.019382
# 3 -0.003120 0.005327 0.014088 -0.008439 -0.023236 0.011810
# 4 0.004360 -0.025979 -0.008439 0.042018 0.026506 -0.019296
# 5 -0.001537 -0.029200 -0.023236 0.026506 0.081605 -0.035850
# 6 0.001785 0.019382 0.011810 -0.019296 -0.035850 0.050534
#
#
# Mechanical properties :
#
#
# Convention : Reuss Voigt Hill
#
# Bulk Modulus (GPa) = 15.15667 60.32724 37.74195
# Shear Modulus (GPa) = 17.48007 34.98401 26.23204
#
# Velocity S-wave (km/s) = 2.74474 3.88298 3.36237
# Velocity P-wave (km/s) = 4.07149 6.78994 5.59823
#
# Compressibility (1/GPa) = 0.06597754
#
# Stress axis : x y z
#
# Youngs Moduli (GPa) = 60.58872 21.12321 70.98130
#
# Poissons Ratio (x) = 0.17290 0.22147
# Poissons Ratio (y) = 0.49595 -0.37813
# Poissons Ratio (z) = 0.18904 -0.11253
#
# Static dielectric constant tensor:
#      x y z
#    x 1.888240 -0.033790 0.044240 
#    y -0.033790 1.948270 -0.016220 
#    z 0.044240 -0.016220 1.957050 
# 
# From -- ./inp_files/581797.got.cif
#   From: 2010.05.17/outbox.cif.g08.bks.cpg/sg2_291_cif.got.tgz:581797.got - 2010.06.03 11:33:40.
