data_PCOD9011099
_publ_section_title
;
Structure prediction by ZEFSAII (Michael W. Deem and Ramdas Pophale) SiO2 
 PCOD9011099
Probable space group: P -1
;
_chemical_formula_sum "Si O2"
_cell_formula_units_Z 15
_cell_length_a 15.518097
_cell_length_b 16.015779
_cell_length_c 9.069984
_cell_angle_alpha 56.979451
_cell_angle_beta 74.521410
_cell_angle_gamma 27.343105
_cell_volume 716.953448
_symmetry_space_group_name_H-M "P -1"
_symmetry_group_IT_number 2
_symmetry_cell_setting 'triclinic'
loop_
_space_group_symop_operation_xyz
x,y,z
-x,-y,-z
loop_
_atom_site_type_symbol
_atom_site_label
_atom_site_fract_x
_atom_site_fract_y
_atom_site_fract_z
Si Si1 0.147297 0.948405 0.481232
Si Si2 0.312601 0.106558 0.970732
Si Si3 0.098627 0.021621 0.091393
Si Si4 0.660477 0.401592 0.773861
Si Si5 0.093539 0.226499 0.702269
Si Si6 0.192634 0.104275 0.444467
Si Si7 0.401525 0.321699 0.560547
Si Si8 0.000000 0.500000 0.000000
O O1 0.150205 0.980621 0.278730
O O2 0.401656 0.660732 0.693467
O O3 0.074871 0.119266 0.443376
O O4 0.000000 0.000000 0.500000
O O5 0.204275 0.201004 0.770293
O O6 0.119982 0.326248 0.966842
O O7 0.500000 0.000000 0.000000
O O8 0.452835 0.865412 0.189406
O O9 0.267176 0.769423 0.183893
O O10 0.108448 0.113589 0.907597
O O11 0.846480 0.233348 0.976593
O O12 0.670388 0.489608 0.580800
O O13 0.218291 0.084383 0.627051
O O14 0.825720 0.510106 0.517277
O O15 0.054464 0.340945 0.223180
O O16 0.433525 0.857369 0.485033
#
# Coordination Sequence:
#
# PCOD9011099 Si02
#       8
#     2   2   2   2   2   2   2   1
#     4  11  24  40  62  96 137 173 215 270 331 388
#     4  11  24  42  65  98 125 167 214 265 331 387
#     4  10  21  40  65  91 128 173 218 266 322 380
#     4   9  20  39  63  90 125 172 217 263 318 380
#     4  11  23  43  69  94 131 169 216 269 323 385
#     4  10  23  43  65  99 127 173 222 264 327 389
#     4   9  21  42  64  87 134 166 213 266 315 385
#     4  10  22  44  68  88 132 162 214 270 314 388
#
# _framework density 20.921862000000001
#
# number of rings (size 3 to 8) (size 9 to 14) (size 15 to 20)
#    0.000    1.867    0.000    3.600    5.600    3.733 
#    7.200    2.667    0.000    0.000    0.000    0.000 
#    0.000    0.000    0.000    0.000    0.000    0.000 
#
# Total GULP energy -83526.386697 kJ/mol
# GULP energy per Si atom -5568.425780 kJ/mol
# Density = 2.087424 g / cm^3
# Si number density = 20.921862 Si / 1000 Ang^3
#
#
#
# Elastic Constant Matrix: (Units=GPa)
#
#
# Indices 1 2 3 4 5 6 
#
# 1 82.4204 11.6658 27.3024 -4.2765 11.4484 9.4750
# 2 11.6658 30.1997 24.3431 12.0520 10.9922 2.9350
# 3 27.3024 24.3431 72.8839 -6.3205 0.4269 13.2678
# 4 -4.2765 12.0520 -6.3205 43.3427 10.0058 -0.1645
# 5 11.4484 10.9922 0.4269 10.0058 36.3310 0.5957
# 6 9.4750 2.9350 13.2678 -0.1645 0.5957 31.3808
#
#
#
# Elastic Compliance Matrix: (Units=1/GPa)
#
#
# Indices 1 2 3 4 5 6 
#
# 1 0.014854 -0.000828 -0.004647 0.002147 -0.004929 -0.002338
# 2 -0.000828 0.064183 -0.023399 -0.018100 -0.013969 0.004311
# 3 -0.004647 -0.023399 0.025265 0.008302 0.006078 -0.007162
# 4 0.002147 -0.018100 0.008302 0.030355 -0.003621 -0.002238
# 5 -0.004929 -0.013969 0.006078 -0.003621 0.034237 -0.000444
# 6 -0.002338 0.004311 -0.007162 -0.002238 -0.000444 0.035194
#
#
# Mechanical properties :
#
#
# Convention : Reuss Voigt Hill
#
# Bulk Modulus (GPa) = 21.48074 34.68074 28.08074
# Shear Modulus (GPa) = 18.02744 30.35709 24.19227
#
# Velocity S-wave (km/s) = 2.93858 3.81330 3.40415
# Velocity P-wave (km/s) = 4.66938 6.00005 5.37605
#
# Compressibility (1/GPa) = 0.04655332
#
# Stress axis : x y z
#
# Youngs Moduli (GPa) = 67.32053 15.58048 39.58065
#
# Poissons Ratio (x) = 0.01289 0.18395
# Poissons Ratio (y) = 0.05571 0.92616
# Poissons Ratio (z) = 0.31286 0.36457
#
# Static dielectric constant tensor:
#      x y z
#    x 1.779120 -0.038880 -0.027340 
#    y -0.038880 1.728930 -0.018350 
#    z -0.027340 -0.018350 1.740350 
# 
# From -- ./inp_files/312720.got.cif
#   From: 2010.05.17/outbox.cif.g08.bks.cpg/sg2_157_cif.got.tgz:312720.got - 2010.06.03 11:33:40.
