data_PCOD9011882
_publ_section_title
;
Structure prediction by ZEFSAII (Michael W. Deem and Ramdas Pophale) SiO2 
 PCOD9011882
Probable space group: P -1
;
_chemical_formula_sum "Si O2"
_cell_formula_units_Z 14
_cell_length_a 20.936418
_cell_length_b 9.842561
_cell_length_c 5.771414
_cell_angle_alpha 58.678640
_cell_angle_beta 56.698566
_cell_angle_gamma 33.922483
_cell_volume 549.442041
_symmetry_space_group_name_H-M "P -1"
_symmetry_group_IT_number 2
_symmetry_cell_setting 'triclinic'
loop_
_space_group_symop_operation_xyz
x,y,z
-x,-y,-z
loop_
_atom_site_type_symbol
_atom_site_label
_atom_site_fract_x
_atom_site_fract_y
_atom_site_fract_z
Si Si1 0.718882 0.927126 0.389617
Si Si2 0.775102 0.169593 0.304268
Si Si3 0.880189 0.802157 0.789304
Si Si4 0.990912 0.868789 0.809742
Si Si5 0.180408 0.413913 0.126169
Si Si6 0.477880 0.349023 0.678693
Si Si7 0.545544 0.996841 0.168480
O O1 0.737450 0.050149 0.409987
O O2 0.579162 0.124852 0.502449
O O3 0.785327 0.670326 0.597968
O O4 0.775935 0.898672 0.069675
O O5 0.657704 0.461120 0.291807
O O6 0.837568 0.029130 0.543311
O O7 0.869276 0.075611 0.011508
O O8 0.893999 0.629853 0.745774
O O9 0.982420 0.713311 0.824407
O O10 0.096933 0.682258 0.950171
O O11 0.000000 0.000000 0.500000
O O12 0.311522 0.224387 0.923468
O O13 0.500000 0.500000 0.500000
O O14 0.500170 0.247364 0.982723
O O15 0.500000 0.000000 0.500000
O O16 0.500000 0.000000 0.000000
#
# Coordination Sequence:
#
# PCOD9011882 Si02
#       7
#     2   2   2   2   2   2   2
#     4   8  18  37  63  94 124 162 227 279 348 400
#     4   9  20  38  59  96 130 168 225 276 340 410
#     4  10  21  40  67  97 128 176 228 284 338 424
#     4  11  25  41  61  95 136 179 228 283 350 410
#     4  10  23  42  67  92 131 180 230 284 345 424
#     4   9  19  42  67  99 134 181 232 288 352 427
#     4  11  27  48  72 107 146 188 239 300 371 429
#
# _framework density 25.480395000000001
#
# number of rings (size 3 to 8) (size 9 to 14) (size 15 to 20)
#    0.000    2.286    0.000    1.286    6.000    8.571 
#    5.143    0.000    0.000    0.000    0.000    0.000 
#    0.000    0.000    0.000    0.000    0.000    0.000 
#
# Total GULP energy -78116.191092 kJ/mol
# GULP energy per Si atom -5579.727935 kJ/mol
# Density = 2.542240 g / cm^3
# Si number density = 25.480395 Si / 1000 Ang^3
#
#
#
# Elastic Constant Matrix: (Units=GPa)
#
#
# Indices 1 2 3 4 5 6 
#
# 1 114.9840 21.9929 17.8151 -5.0360 -7.6535 -4.6044
# 2 21.9929 124.3659 76.9712 -7.0528 -6.4304 -46.6597
# 3 17.8151 76.9712 243.1766 -2.7667 -23.3602 -18.1365
# 4 -5.0360 -7.0528 -2.7667 49.8356 -3.8865 -7.6985
# 5 -7.6535 -6.4304 -23.3602 -3.8865 26.4958 -4.2231
# 6 -4.6044 -46.6597 -18.1365 -7.6985 -4.2231 34.0426
#
#
#
# Elastic Compliance Matrix: (Units=1/GPa)
#
#
# Indices 1 2 3 4 5 6 
#
# 1 0.009181 -0.001752 0.000060 0.000757 0.002283 -0.000674
# 2 -0.001752 0.025167 -0.004262 0.009269 0.008810 0.035176
# 3 0.000060 -0.004262 0.005597 -0.000405 0.003457 -0.002515
# 4 0.000757 0.009269 -0.000405 0.025117 0.008883 0.019373
# 5 0.002283 0.008810 0.003457 0.008883 0.048435 0.022243
# 6 -0.000674 0.035176 -0.002515 0.019373 0.022243 0.083298
#
#
# Mechanical properties :
#
#
# Convention : Reuss Voigt Hill
#
# Bulk Modulus (GPa) = 35.66966 79.56500 57.61733
# Shear Modulus (GPa) = 22.93047 46.45793 34.69420
#
# Velocity S-wave (km/s) = 3.00313 4.27462 3.69399
# Velocity P-wave (km/s) = 5.10434 7.46036 6.39184
#
# Compressibility (1/GPa) = 0.02803503
#
# Stress axis : x y z
#
# Youngs Moduli (GPa) = 108.92166 39.73408 178.66986
#
# Poissons Ratio (x) = 0.06963 -0.01067
# Poissons Ratio (y) = 0.19087 0.76157
# Poissons Ratio (z) = -0.00651 0.16936
#
# Static dielectric constant tensor:
#      x y z
#    x 2.010080 0.098550 -0.067810 
#    y 0.098550 2.092910 -0.086980 
#    z -0.067810 -0.086980 1.992530 
# 
# From -- ./inp_files/123532.got.cif
#   From: 2010.05.17/outbox.cif.g08.bks.cpg/sg2_62_cif.got.tgz:123532.got - 2010.06.03 11:33:40.
