data_PCOD9011396
_publ_section_title
;
Structure prediction by ZEFSAII (Michael W. Deem and Ramdas Pophale) SiO2 
 PCOD9011396
Probable space group: P -1
;
_chemical_formula_sum "Si O2"
_cell_formula_units_Z 14
_cell_length_a 13.783796
_cell_length_b 8.678129
_cell_length_c 14.413507
_cell_angle_alpha 66.813009
_cell_angle_beta 32.100602
_cell_angle_gamma 87.041916
_cell_volume 687.765120
_symmetry_space_group_name_H-M "P -1"
_symmetry_group_IT_number 2
_symmetry_cell_setting 'triclinic'
loop_
_space_group_symop_operation_xyz
x,y,z
-x,-y,-z
loop_
_atom_site_type_symbol
_atom_site_label
_atom_site_fract_x
_atom_site_fract_y
_atom_site_fract_z
Si Si1 0.832950 0.971084 0.412132
Si Si2 0.267459 0.632661 0.485111
Si Si3 0.215595 0.232442 0.193876
Si Si4 0.106299 0.534622 0.305492
Si Si5 0.584373 0.936671 0.796709
Si Si6 0.991970 0.610353 0.890727
Si Si7 0.491101 0.524354 0.744902
O O1 0.039100 0.081506 0.293032
O O2 0.911679 0.150445 0.231787
O O3 0.631213 0.920011 0.655432
O O4 0.718527 0.750620 0.512242
O O5 0.459219 0.596039 0.340410
O O6 0.056701 0.463782 0.635683
O O7 0.156220 0.627513 0.673099
O O8 0.360253 0.838540 0.300378
O O9 0.141757 0.360854 0.280534
O O10 0.264401 0.103417 0.252102
O O11 0.435020 0.408174 0.917204
O O12 0.000000 0.500000 0.500000
O O13 0.337899 0.754537 0.065467
O O14 0.735105 0.493994 0.091595
O O15 0.000000 0.500000 0.000000
#
# Coordination Sequence:
#
# PCOD9011396 Si02
#       7
#     2   2   2   2   2   2   2
#     4  10  21  40  66  88 127 173 209 262 322 376
#     4  11  25  43  61  99 130 167 221 258 315 387
#     4  11  22  39  59  92 133 177 221 258 305 374
#     4  12  24  36  58  95 133 174 221 262 304 375
#     4  11  22  39  59  85 131 180 216 256 308 367
#     4  10  23  47  71  95 126 159 212 275 329 387
#     4  11  23  42  66  92 131 168 208 267 321 375
#
# _framework density 20.355785000000001
#
# number of rings (size 3 to 8) (size 9 to 14) (size 15 to 20)
#    0.000    1.143    5.714    1.714    2.000    5.714 
#    2.571    0.714    0.000    0.000    0.000    0.000 
#    0.000    0.000    0.000    0.000    0.000    0.000 
#
# Total GULP energy -78095.823026 kJ/mol
# GULP energy per Si atom -5578.273073 kJ/mol
# Density = 2.030945 g / cm^3
# Si number density = 20.355785 Si / 1000 Ang^3
#
#
#
# Elastic Constant Matrix: (Units=GPa)
#
#
# Indices 1 2 3 4 5 6 
#
# 1 73.5953 42.9616 50.8321 -19.7480 18.7999 -15.3679
# 2 42.9616 105.0939 57.2301 -11.9409 -1.1000 -9.0391
# 3 50.8321 57.2301 130.7449 -38.0220 0.1563 -6.2100
# 4 -19.7480 -11.9409 -38.0220 22.9684 -4.5904 6.3246
# 5 18.7999 -1.1000 0.1563 -4.5904 28.5824 -7.9596
# 6 -15.3679 -9.0391 -6.2100 6.3246 -7.9596 16.3925
#
#
#
# Elastic Compliance Matrix: (Units=1/GPa)
#
#
# Indices 1 2 3 4 5 6 
#
# 1 0.030423 -0.007420 -0.006575 0.004824 -0.016067 0.012276
# 2 -0.007420 0.015457 -0.006285 -0.009127 0.005548 0.005401
# 3 -0.006575 -0.006285 0.021287 0.030368 0.005949 -0.010394
# 4 0.004824 -0.009127 0.030368 0.101313 0.005501 -0.025423
# 5 -0.016067 0.005548 0.005949 0.005501 0.050085 0.012448
# 6 0.012276 0.005401 -0.010394 -0.025423 0.012448 0.087406
#
#
# Mechanical properties :
#
#
# Convention : Reuss Voigt Hill
#
# Bulk Modulus (GPa) = 37.58623 67.94239 52.76431
# Shear Modulus (GPa) = 14.06864 24.14934 19.10899
#
# Velocity S-wave (km/s) = 2.63180 3.44810 3.06723
# Velocity P-wave (km/s) = 5.26687 7.02157 6.20654
#
# Compressibility (1/GPa) = 0.02660549
#
# Stress axis : x y z
#
# Youngs Moduli (GPa) = 32.86994 64.69531 46.97797
#
# Poissons Ratio (x) = 0.48007 0.30886
# Poissons Ratio (y) = 0.24391 0.29527
# Poissons Ratio (z) = 0.21611 0.40663
#
# Static dielectric constant tensor:
#      x y z
#    x 1.711550 -0.025200 -0.050670 
#    y -0.025200 1.983230 0.098350 
#    z -0.050670 0.098350 1.814090 
# 
# From -- ./inp_files/187277.got.cif
#   From: 2010.05.17/outbox.cif.g08.bks.cpg/sg2_94_cif.got.tgz:187277.got - 2010.06.03 11:33:40.
