data_PCOD9011712
_publ_section_title
;
Structure prediction by ZEFSAII (Michael W. Deem and Ramdas Pophale) SiO2 
 PCOD9011712
Probable space group: P -1
;
_chemical_formula_sum "Si O2"
_cell_formula_units_Z 16
_cell_length_a 7.744972
_cell_length_b 5.094710
_cell_length_c 18.505126
_cell_angle_alpha 77.387343
_cell_angle_beta 118.902170
_cell_angle_gamma 82.250420
_cell_volume 598.607494
_symmetry_space_group_name_H-M "P -1"
_symmetry_group_IT_number 2
_symmetry_cell_setting 'triclinic'
loop_
_space_group_symop_operation_xyz
x,y,z
-x,-y,-z
loop_
_atom_site_type_symbol
_atom_site_label
_atom_site_fract_x
_atom_site_fract_y
_atom_site_fract_z
Si Si1 0.704604 0.160476 0.257128
Si Si2 0.062308 0.632989 0.190712
Si Si3 0.149003 0.695549 0.571630
Si Si4 0.589805 0.690560 0.936951
Si Si5 0.959869 0.370032 0.655246
Si Si6 0.464759 0.250467 0.422436
Si Si7 0.333000 0.045099 0.255270
Si Si8 0.724423 0.105276 0.008875
O O1 0.734733 0.307266 0.327706
O O2 0.586396 0.321403 0.154981
O O3 0.544874 0.984946 0.257642
O O4 0.929462 0.957274 0.300325
O O5 0.171792 0.349469 0.186739
O O6 0.976704 0.549008 0.255517
O O7 0.227901 0.799450 0.236058
O O8 0.887503 0.861708 0.099056
O O9 0.023440 0.483072 0.584939
O O10 0.337331 0.643531 0.558607
O O11 0.000000 0.000000 0.500000
O O12 0.471922 0.768341 0.985398
O O13 0.767784 0.400964 0.985119
O O14 0.676803 0.960406 0.934821
O O15 0.718527 0.494147 0.602692
O O16 0.396173 0.115264 0.344410
O O17 0.500000 0.000000 0.500000
#
# Coordination Sequence:
#
# PCOD9011712 Si02
#       8
#     2   2   2   2   2   2   2   2
#     4  11  26  44  66 105 140 190 238 296 360 433
#     4  11  23  46  69 106 138 191 238 294 361 431
#     4  11  25  46  70 104 145 183 246 296 358 424
#     4  10  22  38  66 101 138 183 232 299 355 420
#     4  11  25  40  76  96 140 195 233 293 364 422
#     4  10  22  47  68 105 143 186 243 299 355 429
#     4  10  26  43  70  99 147 185 236 299 362 421
#     4  10  21  40  67 102 137 179 241 294 352 431
#
# _framework density 26.7287
#
# number of rings (size 3 to 8) (size 9 to 14) (size 15 to 20)
#    0.000    1.500    2.500    0.750   10.500    1.500 
#    0.000    6.875    0.000    0.000    0.000    0.000 
#    0.000    0.000    0.000    0.000    0.000    0.000 
#
# Total GULP energy -89436.060014 kJ/mol
# GULP energy per Si atom -5589.753751 kJ/mol
# Density = 2.666786 g / cm^3
# Si number density = 26.728700 Si / 1000 Ang^3
#
#
#
# Elastic Constant Matrix: (Units=GPa)
#
#
# Indices 1 2 3 4 5 6 
#
# 1 107.9838 21.2329 35.6582 -16.5879 8.9298 -7.7222
# 2 21.2329 127.7935 42.3064 -26.1765 12.3550 1.0164
# 3 35.6582 42.3064 153.1262 -16.5680 7.3907 -12.6254
# 4 -16.5879 -26.1765 -16.5680 52.3140 -4.9569 11.1409
# 5 8.9298 12.3550 7.3907 -4.9569 32.8166 -4.4429
# 6 -7.7222 1.0164 -12.6254 11.1409 -4.4429 33.7395
#
#
#
# Elastic Compliance Matrix: (Units=1/GPa)
#
#
# Indices 1 2 3 4 5 6 
#
# 1 0.010531 -0.000502 -0.001932 0.002143 -0.001816 0.000756
# 2 -0.000502 0.009861 -0.002245 0.004456 -0.002816 -0.003094
# 3 -0.001932 -0.002245 0.007829 0.000213 -0.000024 0.002482
# 4 0.002143 0.004456 0.000213 0.023683 0.000273 -0.007348
# 5 -0.001816 -0.002816 -0.000024 0.000273 0.032596 0.003862
# 6 0.000756 -0.003094 0.002482 -0.007348 0.003862 0.033769
#
#
# Mechanical properties :
#
#
# Convention : Reuss Voigt Hill
#
# Bulk Modulus (GPa) = 53.00790 65.25539 59.13164
# Shear Modulus (GPa) = 37.33731 43.08775 40.21253
#
# Velocity S-wave (km/s) = 3.74157 4.01938 3.88296
# Velocity P-wave (km/s) = 6.20811 6.78288 6.50185
#
# Compressibility (1/GPa) = 0.01886511
#
# Stress axis : x y z
#
# Youngs Moduli (GPa) = 94.96115 101.40628 127.72282
#
# Poissons Ratio (x) = 0.05086 0.24674
# Poissons Ratio (y) = 0.04763 0.28670
# Poissons Ratio (z) = 0.18345 0.22763
#
# Static dielectric constant tensor:
#      x y z
#    x 2.276130 0.152930 -0.086090 
#    y 0.152930 2.203140 0.027260 
#    z -0.086090 0.027260 2.145900 
# 
# From -- ./inp_files/585611.got.cif
#   From: 2010.05.17/outbox.cif.g08.bks.cpg/sg2_293_cif.got.tgz:585611.got - 2010.06.03 11:33:40.
