data_PCOD9011988
_publ_section_title
;
Structure prediction by ZEFSAII (Michael W. Deem and Ramdas Pophale) SiO2 
 PCOD9011988
Probable space group: P -1
;
_chemical_formula_sum "Si O2"
_cell_formula_units_Z 14
_cell_length_a 17.630663
_cell_length_b 8.039392
_cell_length_c 5.974105
_cell_angle_alpha 60.513243
_cell_angle_beta 59.457114
_cell_angle_gamma 67.325463
_cell_volume 624.382036
_symmetry_space_group_name_H-M "P -1"
_symmetry_group_IT_number 2
_symmetry_cell_setting 'triclinic'
loop_
_space_group_symop_operation_xyz
x,y,z
-x,-y,-z
loop_
_atom_site_type_symbol
_atom_site_label
_atom_site_fract_x
_atom_site_fract_y
_atom_site_fract_z
Si Si1 0.538790 0.671716 0.209320
Si Si2 0.650176 0.176478 0.694398
Si Si3 0.297808 0.199305 0.859686
Si Si4 0.668287 0.533516 0.734396
Si Si5 0.948776 0.141761 0.170694
Si Si6 0.787297 0.226143 0.075546
Si Si7 0.880475 0.884561 0.826689
O O1 0.500000 0.500000 0.500000
O O2 0.450220 0.834751 0.221615
O O3 0.626154 0.716945 0.173192
O O4 0.576169 0.603883 0.955422
O O5 0.655218 0.383255 0.659532
O O6 0.715270 0.157454 0.396084
O O7 0.677819 0.024480 0.953090
O O8 0.304054 0.278672 0.547063
O O9 0.192294 0.245458 0.044060
O O10 0.739345 0.408102 0.879929
O O11 0.866889 0.275667 0.080586
O O12 0.026652 0.223158 0.132043
O O13 0.906110 0.008500 0.497891
O O14 0.000000 0.000000 0.000000
O O15 0.832134 0.045955 0.971273
#
# Coordination Sequence:
#
# PCOD9011988 Si02
#       7
#     2   2   2   2   2   2   2
#     4  12  26  45  65  97 138 180 226 281 330 389
#     4  12  25  46  66  96 135 180 228 274 337 390
#     4  12  26  42  68 101 133 175 232 272 331 400
#     4  12  25  43  68  95 140 175 225 282 330 389
#     4   9  19  37  69 100 134 170 217 269 338 402
#     4  11  20  41  70  96 135 175 219 274 336 395
#     4  10  21  40  68 103 131 173 220 275 333 397
#
# _framework density 22.422170000000001
#
# number of rings (size 3 to 8) (size 9 to 14) (size 15 to 20)
#    0.000    0.857    5.714    0.857    2.000    0.571 
#    0.000    0.714    0.000   14.571    0.000    0.000 
#    0.000    0.000    0.000    0.000    0.000    0.000 
#
# Total GULP energy -78157.914129 kJ/mol
# GULP energy per Si atom -5582.708152 kJ/mol
# Density = 2.237114 g / cm^3
# Si number density = 22.422170 Si / 1000 Ang^3
#
#
#
# Elastic Constant Matrix: (Units=GPa)
#
#
# Indices 1 2 3 4 5 6 
#
# 1 211.8264 18.8414 46.8254 -13.2792 -20.6335 -20.3226
# 2 18.8414 48.2858 54.2237 3.2821 2.3822 -15.8433
# 3 46.8254 54.2237 168.8661 6.9107 -8.9845 -15.2381
# 4 -13.2792 3.2821 6.9107 37.9660 -9.4494 6.8812
# 5 -20.6335 2.3822 -8.9845 -9.4494 40.5248 -5.9925
# 6 -20.3226 -15.8433 -15.2381 6.8812 -5.9925 16.5027
#
#
#
# Elastic Compliance Matrix: (Units=1/GPa)
#
#
# Indices 1 2 3 4 5 6 
#
# 1 0.006281 0.001569 -0.001265 0.001802 0.004574 0.008983
# 2 0.001569 0.046585 -0.011520 -0.008694 -0.000696 0.039390
# 3 -0.001265 -0.011520 0.009824 -0.000298 0.001728 -0.002796
# 4 0.001802 -0.008694 -0.000298 0.032557 0.006340 -0.017676
# 5 0.004574 -0.000696 0.001728 0.006340 0.031160 0.015231
# 6 0.008983 0.039390 -0.002796 -0.017676 0.015231 0.119794
#
#
# Mechanical properties :
#
#
# Convention : Reuss Voigt Hill
#
# Bulk Modulus (GPa) = 24.84061 74.30660 49.57360
# Shear Modulus (GPa) = 17.72718 39.60455 28.66587
#
# Velocity S-wave (km/s) = 2.81483 4.20731 3.57944
# Velocity P-wave (km/s) = 4.65478 7.53749 6.26421
#
# Compressibility (1/GPa) = 0.04025666
#
# Stress axis : x y z
#
# Youngs Moduli (GPa) = 159.20280 21.46630 101.79249
#
# Poissons Ratio (x) = -0.03369 0.12882
# Poissons Ratio (y) = -0.24985 1.17270
# Poissons Ratio (z) = 0.20147 0.24730
#
# Static dielectric constant tensor:
#      x y z
#    x 1.939780 -0.015170 0.018960 
#    y -0.015170 1.860720 -0.019570 
#    z 0.018960 -0.019570 1.789880 
# 
# From -- ./inp_files/46137.got.cif
#   From: 2010.05.17/outbox.cif.g08.bks.cpg/sg2_24_cif.got.tgz:46137.got - 2010.06.03 11:33:40.
