data_PCOD9011177
_publ_section_title
;
Structure prediction by ZEFSAII (Michael W. Deem and Ramdas Pophale) SiO2 
 PCOD9011177
Probable space group: P -1
;
_chemical_formula_sum "Si O2"
_cell_formula_units_Z 16
_cell_length_a 8.181847
_cell_length_b 21.131995
_cell_length_c 11.776442
_cell_angle_alpha 140.165103
_cell_angle_beta 64.209167
_cell_angle_gamma 143.700332
_cell_volume 675.423108
_symmetry_space_group_name_H-M "P -1"
_symmetry_group_IT_number 2
_symmetry_cell_setting 'triclinic'
loop_
_space_group_symop_operation_xyz
x,y,z
-x,-y,-z
loop_
_atom_site_type_symbol
_atom_site_label
_atom_site_fract_x
_atom_site_fract_y
_atom_site_fract_z
Si Si1 0.566088 0.641417 0.140874
Si Si2 0.906188 0.816730 0.512719
Si Si3 0.364147 0.851833 0.489195
Si Si4 0.573370 0.998631 0.102501
Si Si5 0.980356 0.493018 0.157787
Si Si6 0.199297 0.629056 0.723096
Si Si7 0.319777 0.327491 0.374533
Si Si8 0.312264 0.157268 0.790713
O O1 0.726691 0.749708 0.356659
O O2 0.763538 0.774650 0.159183
O O3 0.224995 0.537000 0.072874
O O4 0.500000 0.500000 0.000000
O O5 0.694616 0.685324 0.500673
O O6 0.189720 0.861671 0.486017
O O7 0.060307 0.993768 0.724380
O O8 0.501242 0.962406 0.714318
O O9 0.597387 0.886177 0.392498
O O10 0.088731 0.653756 0.338526
O O11 0.953578 0.156286 0.214345
O O12 0.500000 0.000000 0.000000
O O13 0.365701 0.808065 0.913476
O O14 0.030406 0.476866 0.246816
O O15 0.627972 0.314784 0.983195
O O16 0.476837 0.675274 0.726521
O O17 0.000000 0.500000 0.500000
O O18 0.500000 0.500000 0.500000
#
# Coordination Sequence:
#
# PCOD9011177 Si02
#       8
#     2   2   2   2   2   2   2   2
#     4  11  23  39  62  96 131 169 216 268 328 401
#     4  11  22  40  63  94 128 167 215 275 334 393
#     4  10  21  40  65  93 131 172 215 267 329 401
#     4  11  24  42  66 100 134 175 225 277 338 402
#     4  11  22  41  66  92 126 175 219 267 331 401
#     4  12  24  43  67  97 132 175 226 281 336 400
#     4  11  24  44  68  96 131 176 226 283 340 401
#     4  11  23  41  65  96 131 173 218 268 331 401
#
# _framework density 23.688856999999999
#
# number of rings (size 3 to 8) (size 9 to 14) (size 15 to 20)
#    0.000    1.000    0.000    9.375    0.000    2.000 
#    0.000    2.500    0.000    0.000    0.000    0.000 
#    0.000    0.000    0.000    0.000    0.000    0.000 
#
# Total GULP energy -89428.506558 kJ/mol
# GULP energy per Si atom -5589.281660 kJ/mol
# Density = 2.363494 g / cm^3
# Si number density = 23.688857 Si / 1000 Ang^3
#
#
#
# Elastic Constant Matrix: (Units=GPa)
#
#
# Indices 1 2 3 4 5 6 
#
# 1 79.3354 17.5551 31.7967 10.8546 -3.5451 -24.7276
# 2 17.5551 102.4067 38.3543 22.2493 -7.0030 -29.2626
# 3 31.7967 38.3543 160.2432 19.9494 1.9849 -22.4291
# 4 10.8546 22.2493 19.9494 45.2072 -11.5744 -12.2099
# 5 -3.5451 -7.0030 1.9849 -11.5744 53.7305 8.7049
# 6 -24.7276 -29.2626 -22.4291 -12.2099 8.7049 51.9776
#
#
#
# Elastic Compliance Matrix: (Units=1/GPa)
#
#
# Indices 1 2 3 4 5 6 
#
# 1 0.015534 0.000184 -0.002085 -0.001233 -0.000166 0.006332
# 2 0.000184 0.012907 -0.001833 -0.004079 -0.000025 0.005609
# 3 -0.002085 -0.001833 0.007485 -0.001958 -0.001229 0.000952
# 4 -0.001233 -0.004079 -0.001958 0.027051 0.004997 0.001790
# 5 -0.000166 -0.000025 -0.001229 0.004997 0.020177 -0.002829
# 6 0.006332 0.005609 0.000952 0.001790 -0.002829 0.026715
#
#
# Mechanical properties :
#
#
# Convention : Reuss Voigt Hill
#
# Bulk Modulus (GPa) = 35.13716 57.48860 46.31288
# Shear Modulus (GPa) = 39.42507 47.13500 43.28003
#
# Velocity S-wave (km/s) = 4.08399 4.46551 4.27900
# Velocity P-wave (km/s) = 6.09128 7.13502 6.63371
#
# Compressibility (1/GPa) = 0.02845990
#
# Stress axis : x y z
#
# Youngs Moduli (GPa) = 64.37289 77.47605 133.59934
#
# Poissons Ratio (x) = -0.01423 0.27850
# Poissons Ratio (y) = -0.01182 0.24482
# Poissons Ratio (z) = 0.13419 0.14198
#
# Static dielectric constant tensor:
#      x y z
#    x 1.898330 0.033570 -0.007250 
#    y 0.033570 2.271700 0.125740 
#    z -0.007250 0.125740 2.057290 
# 
# From -- ./inp_files/405580.got.cif
#   From: 2010.05.17/outbox.cif.g08.bks.cpg/sg2_203_cif.got.tgz:405580.got - 2010.06.03 11:33:40.
