data_PCOD9011651
_publ_section_title
;
Structure prediction by ZEFSAII (Michael W. Deem and Ramdas Pophale) SiO2 
 PCOD9011651
Probable space group: P -1
;
_chemical_formula_sum "Si O2"
_cell_formula_units_Z 16
_cell_length_a 9.456471
_cell_length_b 11.988227
_cell_length_c 9.166731
_cell_angle_alpha 83.947304
_cell_angle_beta 45.096724
_cell_angle_gamma 98.829851
_cell_volume 692.574383
_symmetry_space_group_name_H-M "P -1"
_symmetry_group_IT_number 2
_symmetry_cell_setting 'triclinic'
loop_
_space_group_symop_operation_xyz
x,y,z
-x,-y,-z
loop_
_atom_site_type_symbol
_atom_site_label
_atom_site_fract_x
_atom_site_fract_y
_atom_site_fract_z
Si Si1 0.791141 0.394832 0.115157
Si Si2 0.191852 0.450664 0.371615
Si Si3 0.472957 0.024983 0.688705
Si Si4 0.948473 0.168763 0.998349
Si Si5 0.683366 0.719993 0.500871
Si Si6 0.667957 0.583099 0.004897
Si Si7 0.759106 0.914993 0.674312
Si Si8 0.270137 0.175395 0.964429
O O1 0.558623 0.340323 0.367149
O O2 0.718387 0.464834 0.028705
O O3 0.867828 0.281687 0.055706
O O4 0.000000 0.500000 0.000000
O O5 0.221719 0.382897 0.503288
O O6 0.418382 0.549849 0.167301
O O7 0.000000 0.500000 0.500000
O O8 0.184988 0.367668 0.248188
O O9 0.638332 0.997628 0.678612
O O10 0.500000 0.000000 0.500000
O O11 0.441751 0.147806 0.739643
O O12 0.246707 0.932838 0.910251
O O13 0.152517 0.202575 0.743968
O O14 0.028018 0.119933 0.093222
O O15 0.698380 0.805140 0.618359
O O16 0.713907 0.686586 0.073519
O O17 0.696194 0.863309 0.890475
O O18 0.000000 0.000000 0.500000
#
# Coordination Sequence:
#
# PCOD9011651 Si02
#       8
#     2   2   2   2   2   2   2   2
#     4  11  23  45  73 103 149 194 246 303 361 442
#     4  10  21  40  66  98 144 185 230 290 370 427
#     4  12  27  50  76 104 145 202 250 307 376 436
#     4  12  25  47  75 104 147 195 250 297 375 440
#     4  11  24  44  72 106 143 195 243 300 366 440
#     4  10  22  42  65 106 141 181 241 294 356 440
#     4  12  25  46  71 109 147 185 248 305 370 443
#     4  12  25  45  71 107 144 187 244 311 360 443
#
# _framework density 23.102212000000002
#
# number of rings (size 3 to 8) (size 9 to 14) (size 15 to 20)
#    0.000    0.750    3.750    3.750    0.000    2.500 
#    4.500    0.000    0.000    0.000    0.000    0.000 
#    0.000    0.000    0.000    0.000    0.000    0.000 
#
# Total GULP energy -89254.940842 kJ/mol
# GULP energy per Si atom -5578.433803 kJ/mol
# Density = 2.304963 g / cm^3
# Si number density = 23.102212 Si / 1000 Ang^3
#
#
#
# Elastic Constant Matrix: (Units=GPa)
#
#
# Indices 1 2 3 4 5 6 
#
# 1 172.8654 31.2505 54.5926 6.5551 -28.9076 -23.3907
# 2 31.2505 74.9931 14.5584 14.9189 -9.4949 -18.3490
# 3 54.5926 14.5584 107.6884 -0.6794 -6.4070 -6.6338
# 4 6.5551 14.9189 -0.6794 37.4489 -0.4990 -11.1426
# 5 -28.9076 -9.4949 -6.4070 -0.4990 43.0523 -5.2115
# 6 -23.3907 -18.3490 -6.6338 -11.1426 -5.2115 47.8575
#
#
#
# Elastic Compliance Matrix: (Units=1/GPa)
#
#
# Indices 1 2 3 4 5 6 
#
# 1 0.008572 -0.001283 -0.003615 0.000154 0.005399 0.003821
# 2 -0.001283 0.016651 -0.001149 -0.004963 0.003162 0.004787
# 3 -0.003615 -0.001149 0.011186 0.001128 -0.001065 -0.000510
# 4 0.000154 -0.004963 0.001128 0.030283 0.000181 0.005399
# 5 0.005399 0.003162 -0.001065 0.000181 0.028219 0.006819
# 6 0.003821 0.004787 -0.000510 0.005399 0.006819 0.026527
#
#
# Mechanical properties :
#
#
# Convention : Reuss Voigt Hill
#
# Bulk Modulus (GPa) = 41.12414 61.81665 51.47039
# Shear Modulus (GPa) = 35.30142 42.68144 38.99143
#
# Velocity S-wave (km/s) = 3.91327 4.30292 4.11272
# Velocity P-wave (km/s) = 6.18530 7.17655 6.69928
#
# Compressibility (1/GPa) = 0.02431662
#
# Stress axis : x y z
#
# Youngs Moduli (GPa) = 116.65355 60.05629 89.39517
#
# Poissons Ratio (x) = 0.07703 0.32315
# Poissons Ratio (y) = 0.14961 0.10273
# Poissons Ratio (z) = 0.42168 0.06902
#
# Static dielectric constant tensor:
#      x y z
#    x 1.987380 0.060240 0.056580 
#    y 0.060240 1.978010 0.022180 
#    z 0.056580 0.022180 1.903760 
# 
# From -- ./inp_files/187335.got.cif
#   From: 2010.05.17/outbox.cif.g08.bks.cpg/sg2_94_cif.got.tgz:187335.got - 2010.06.03 11:33:40.
