data_PCOD9011252
_publ_section_title
;
Structure prediction by ZEFSAII (Michael W. Deem and Ramdas Pophale) SiO2 
 PCOD9011252
Probable space group: P -1
;
_chemical_formula_sum "Si O2"
_cell_formula_units_Z 15
_cell_length_a 8.788919
_cell_length_b 8.496607
_cell_length_c 12.167290
_cell_angle_alpha 54.903042
_cell_angle_beta 56.757330
_cell_angle_gamma 77.076518
_cell_volume 616.161194
_symmetry_space_group_name_H-M "P -1"
_symmetry_group_IT_number 2
_symmetry_cell_setting 'triclinic'
loop_
_space_group_symop_operation_xyz
x,y,z
-x,-y,-z
loop_
_atom_site_type_symbol
_atom_site_label
_atom_site_fract_x
_atom_site_fract_y
_atom_site_fract_z
Si Si1 0.196006 0.677445 0.701676
Si Si2 0.500000 0.500000 0.000000
Si Si3 0.053812 0.847560 0.204587
Si Si4 0.065510 0.029950 0.338549
Si Si5 0.930923 0.749460 0.064008
Si Si6 0.556044 0.233711 0.880950
Si Si7 0.353979 0.831903 0.790467
Si Si8 0.400455 0.819381 0.348912
O O1 0.329507 0.806529 0.680348
O O2 0.281838 0.695152 0.538789
O O3 0.999273 0.762791 0.746585
O O4 0.161120 0.460821 0.847261
O O5 0.469790 0.350241 0.963083
O O6 0.475522 0.682911 0.855653
O O7 0.921056 0.766085 0.193014
O O8 0.224328 0.728772 0.194930
O O9 0.970646 0.882885 0.342138
O O10 0.132778 0.066716 0.044888
O O11 0.266139 0.965264 0.292008
O O12 0.000000 0.000000 0.500000
O O13 0.148713 0.774511 0.942515
O O14 0.534941 0.291294 0.738282
O O15 0.500000 0.000000 0.000000
O O16 0.436586 0.044662 0.711251
#
# Coordination Sequence:
#
# PCOD9011252 Si02
#       8
#     2   1   2   2   2   2   2   2
#     4  11  24  42  66 102 139 180 232 282 342 415
#     4  12  26  40  70 110 130 178 236 278 348 402
#     4  10  21  40  65  95 130 177 228 278 347 399
#     4   9  20  39  65  97 133 180 219 277 344 413
#     4  11  23  39  68  98 132 178 228 288 335 408
#     4  11  22  43  71  97 140 178 229 287 341 415
#     4  12  24  42  68 104 137 179 235 284 336 417
#     4  10  23  44  68  97 142 187 220 286 355 403
#
# _framework density 24.344277999999999
#
# number of rings (size 3 to 8) (size 9 to 14) (size 15 to 20)
#    0.000    1.333    4.000    0.800    3.733    0.000 
#    0.000    9.333    0.000    0.000    0.000    0.000 
#    0.000    0.000    0.000    0.000    0.000    0.000 
#
# Total GULP energy -83573.121348 kJ/mol
# GULP energy per Si atom -5571.541423 kJ/mol
# Density = 2.428887 g / cm^3
# Si number density = 24.344278 Si / 1000 Ang^3
#
#
#
# Elastic Constant Matrix: (Units=GPa)
#
#
# Indices 1 2 3 4 5 6 
#
# 1 58.2393 19.9620 14.6350 4.0316 21.1948 15.7172
# 2 19.9620 90.1071 28.1862 14.6958 4.7841 32.2772
# 3 14.6350 28.1862 78.0468 26.4327 14.9936 17.8642
# 4 4.0316 14.6958 26.4327 45.1663 11.8261 17.5845
# 5 21.1948 4.7841 14.9936 11.8261 33.6585 8.0155
# 6 15.7172 32.2772 17.8642 17.5845 8.0155 33.7589
#
#
#
# Elastic Compliance Matrix: (Units=1/GPa)
#
#
# Indices 1 2 3 4 5 6 
#
# 1 0.025973 -0.002457 -0.001221 0.006775 -0.015725 -0.008893
# 2 -0.002457 0.018030 -0.003727 0.001735 0.003830 -0.015936
# 3 -0.001221 -0.003727 0.017903 -0.008072 -0.003783 -0.000239
# 4 0.006775 0.001735 -0.008072 0.034437 -0.009132 -0.016311
# 5 -0.015725 0.003830 -0.003783 -0.009132 0.043967 -0.000021
# 6 -0.008893 -0.015936 -0.000239 -0.016311 -0.000021 0.057626
#
#
# Mechanical properties :
#
#
# Convention : Reuss Voigt Hill
#
# Bulk Modulus (GPa) = 21.23283 39.10663 30.16973
# Shear Modulus (GPa) = 21.88720 33.42406 27.65563
#
# Velocity S-wave (km/s) = 3.00170 3.70939 3.37415
# Velocity P-wave (km/s) = 4.55571 5.86898 5.25354
#
# Compressibility (1/GPa) = 0.04709689
#
# Stress axis : x y z
#
# Youngs Moduli (GPa) = 38.50148 55.46329 55.85619
#
# Poissons Ratio (x) = 0.13625 0.06823
# Poissons Ratio (y) = 0.09458 0.20815
# Poissons Ratio (z) = 0.04703 0.20669
#
# Static dielectric constant tensor:
#      x y z
#    x 1.995230 -0.023260 -0.006030 
#    y -0.023260 1.951800 0.087120 
#    z -0.006030 0.087120 1.960620 
# 
# From -- ./inp_files/381265.got.cif
#   From: 2010.05.17/outbox.cif.g08.bks.cpg/sg2_191_cif.got.tgz:381265.got - 2010.06.03 11:33:40.
