data_PCOD9011591
_publ_section_title
;
Structure prediction by ZEFSAII (Michael W. Deem and Ramdas Pophale) SiO2 
 PCOD9011591
Probable space group: P -1
;
_chemical_formula_sum "Si O2"
_cell_formula_units_Z 16
_cell_length_a 13.753378
_cell_length_b 11.720653
_cell_length_c 8.367645
_cell_angle_alpha 35.465366
_cell_angle_beta 113.215715
_cell_angle_gamma 102.038975
_cell_volume 703.063701
_symmetry_space_group_name_H-M "P -1"
_symmetry_group_IT_number 2
_symmetry_cell_setting 'triclinic'
loop_
_space_group_symop_operation_xyz
x,y,z
-x,-y,-z
loop_
_atom_site_type_symbol
_atom_site_label
_atom_site_fract_x
_atom_site_fract_y
_atom_site_fract_z
Si Si1 0.144543 0.754754 0.829934
Si Si2 0.641114 0.884269 0.574465
Si Si3 0.609106 0.151233 0.555444
Si Si4 0.092197 0.627649 0.408851
Si Si5 0.629628 0.968027 0.116188
Si Si6 0.813008 0.629821 0.510576
Si Si7 0.265338 0.573850 0.835287
Si Si8 0.064797 0.025558 0.749918
O O1 0.249041 0.684535 0.868140
O O2 0.043361 0.870148 0.530506
O O3 0.146805 0.903524 0.809592
O O4 0.127553 0.541959 0.132761
O O5 0.517833 0.849658 0.532866
O O6 0.659548 0.991411 0.630988
O O7 0.655320 0.993612 0.291135
O O8 0.715678 0.663823 0.866115
O O9 0.641918 0.354863 0.287088
O O10 0.649895 0.096447 0.825535
O O11 0.185060 0.495590 0.506821
O O12 0.151558 0.646525 0.589648
O O13 0.000000 0.500000 0.500000
O O14 0.048110 0.848407 0.057708
O O15 0.696138 0.744388 0.366744
O O16 0.500000 0.000000 0.000000
O O17 0.881057 0.802888 0.337470
#
# Coordination Sequence:
#
# PCOD9011591 Si02
#       8
#     2   2   2   2   2   2   2   2
#     4  10  23  38  62  93 126 167 218 272 334 393
#     4  10  22  43  65  97 138 174 221 279 333 399
#     4  10  23  41  66  99 134 177 223 274 335 402
#     4  11  26  42  64  96 134 173 223 282 345 403
#     4  10  21  40  66  96 133 176 219 271 334 397
#     4  11  21  42  65  89 131 173 220 274 333 404
#     4  12  23  40  66  96 129 173 222 272 337 401
#     4  10  23  42  62  91 127 169 223 269 331 410
#
# _framework density 22.757539999999999
#
# number of rings (size 3 to 8) (size 9 to 14) (size 15 to 20)
#    0.000    1.500    1.250    3.000    1.750    6.000 
#    0.000    0.000    0.000    9.000    0.000    0.000 
#    0.000    0.000    0.000    0.000    0.000    0.000 
#
# Total GULP energy -89340.525239 kJ/mol
# GULP energy per Si atom -5583.782827 kJ/mol
# Density = 2.270574 g / cm^3
# Si number density = 22.757540 Si / 1000 Ang^3
#
#
#
# Elastic Constant Matrix: (Units=GPa)
#
#
# Indices 1 2 3 4 5 6 
#
# 1 61.4511 21.4361 25.3841 -2.8063 -12.9810 -11.6370
# 2 21.4361 94.4380 29.5858 -0.4244 -16.0231 -19.3624
# 3 25.3841 29.5858 125.7474 3.4114 -15.2811 4.6210
# 4 -2.8063 -0.4244 3.4114 31.7622 -8.3865 -2.5867
# 5 -12.9810 -16.0231 -15.2811 -8.3865 37.4270 -6.2331
# 6 -11.6370 -19.3624 4.6210 -2.5867 -6.2331 41.2835
#
#
#
# Elastic Compliance Matrix: (Units=1/GPa)
#
#
# Indices 1 2 3 4 5 6 
#
# 1 0.021376 -0.000805 -0.003568 0.004987 0.007990 0.007566
# 2 -0.000805 0.014460 -0.002793 0.002863 0.006756 0.008067
# 3 -0.003568 -0.002793 0.009565 -0.001506 0.000569 -0.003395
# 4 0.004987 0.002863 -0.001506 0.035720 0.011492 0.006890
# 5 0.007990 0.006756 0.000569 0.011492 0.037136 0.011684
# 6 0.007566 0.008067 -0.003395 0.006890 0.011684 0.032715
#
#
# Mechanical properties :
#
#
# Convention : Reuss Voigt Hill
#
# Bulk Modulus (GPa) = 32.18642 48.27207 40.22924
# Shear Modulus (GPa) = 28.46434 35.77658 32.12046
#
# Velocity S-wave (km/s) = 3.54045 3.96924 3.76096
# Velocity P-wave (km/s) = 5.55760 6.50108 6.04777
#
# Compressibility (1/GPa) = 0.03106901
#
# Stress axis : x y z
#
# Youngs Moduli (GPa) = 46.78100 69.15817 104.55266
#
# Poissons Ratio (x) = 0.05567 0.37305
# Poissons Ratio (y) = 0.03765 0.29198
# Poissons Ratio (z) = 0.16692 0.19314
#
# Static dielectric constant tensor:
#      x y z
#    x 1.884180 -0.048580 -0.023350 
#    y -0.048580 1.837690 0.028620 
#    z -0.023350 0.028620 1.823980 
# 
# From -- ./inp_files/78075.got.cif
#   From: 2010.05.17/outbox.cif.g08.bks.cpg/sg2_40_cif.got.tgz:78075.got - 2010.06.03 11:33:40.
