data_PCOD9011856
_publ_section_title
;
Structure prediction by ZEFSAII (Michael W. Deem and Ramdas Pophale) SiO2 
 PCOD9011856
Probable space group: P -1
;
_chemical_formula_sum "Si O2"
_cell_formula_units_Z 14
_cell_length_a 5.403733
_cell_length_b 23.279579
_cell_length_c 5.049142
_cell_angle_alpha 52.384330
_cell_angle_beta 93.720982
_cell_angle_gamma 100.376288
_cell_volume 494.073181
_symmetry_space_group_name_H-M "P -1"
_symmetry_group_IT_number 2
_symmetry_cell_setting 'triclinic'
loop_
_space_group_symop_operation_xyz
x,y,z
-x,-y,-z
loop_
_atom_site_type_symbol
_atom_site_label
_atom_site_fract_x
_atom_site_fract_y
_atom_site_fract_z
Si Si1 0.041183 0.654795 0.969988
Si Si2 0.157567 0.097651 0.680488
Si Si3 0.508890 0.616660 0.839982
Si Si4 0.809237 0.534436 0.691917
Si Si5 0.184554 0.195127 0.900567
Si Si6 0.281310 0.767620 0.106697
Si Si7 0.380383 0.939448 0.451805
O O1 0.241381 0.645301 0.776904
O O2 0.189132 0.719196 0.984020
O O3 0.748450 0.661047 0.888804
O O4 0.985753 0.579015 0.354458
O O5 0.148387 0.125757 0.897713
O O6 0.410156 0.065812 0.739830
O O7 0.893361 0.050913 0.696857
O O8 0.182470 0.167384 0.282227
O O9 0.408698 0.535245 0.184271
O O10 0.655013 0.593599 0.653474
O O11 0.000000 0.500000 0.000000
O O12 0.452007 0.245500 0.737849
O O13 0.956794 0.236419 0.710095
O O14 0.337129 0.856649 0.804324
O O15 0.500000 0.000000 0.500000
#
# Coordination Sequence:
#
# PCOD9011856 Si02
#       7
#     2   2   2   2   2   2   2
#     4  12  25  44  67  97 137 180 221 280 348 396
#     4  10  21  40  67  96 128 175 227 283 341 408
#     4  11  25  43  69  96 134 176 223 278 335 414
#     4  11  25  44  67 105 129 176 231 273 340 404
#     4  10  21  44  65  95 134 178 221 282 342 409
#     4  10  23  44  62  97 133 173 228 277 344 412
#     4  10  21  42  68  99 133 179 227 284 339 407
#
# _framework density 28.335882999999999
#
# number of rings (size 3 to 8) (size 9 to 14) (size 15 to 20)
#    0.000    1.429    1.429    3.000    4.000    0.000 
#   15.429   17.143    0.000    0.000    0.000    0.000 
#    0.000    0.000    0.000    0.000    0.000    0.000 
#
# Total GULP energy -78407.166226 kJ/mol
# GULP energy per Si atom -5600.511873 kJ/mol
# Density = 2.827139 g / cm^3
# Si number density = 28.335883 Si / 1000 Ang^3
#
#
#
# Elastic Constant Matrix: (Units=GPa)
#
#
# Indices 1 2 3 4 5 6 
#
# 1 289.2256 64.9943 37.8857 -3.1866 -11.7175 2.5410
# 2 64.9943 166.0771 -14.2020 -10.7578 -13.3353 18.8794
# 3 37.8857 -14.2020 102.4198 -20.0335 -18.9245 12.5820
# 4 -3.1866 -10.7578 -20.0335 35.2071 4.6437 -12.0177
# 5 -11.7175 -13.3353 -18.9245 4.6437 64.0363 -5.1690
# 6 2.5410 18.8794 12.5820 -12.0177 -5.1690 69.1096
#
#
#
# Elastic Compliance Matrix: (Units=1/GPa)
#
#
# Indices 1 2 3 4 5 6 
#
# 1 0.004156 -0.001964 -0.002147 -0.001239 -0.000149 0.000548
# 2 -0.001964 0.007579 0.002896 0.002915 0.001711 -0.001891
# 3 -0.002147 0.002896 0.013204 0.007200 0.003461 -0.001605
# 4 -0.001239 0.002915 0.007200 0.034594 0.000320 0.003978
# 5 -0.000149 0.001711 0.003461 0.000320 0.016963 0.000233
# 6 0.000548 -0.001891 -0.001605 0.003978 0.000233 0.015968
#
#
# Mechanical properties :
#
#
# Convention : Reuss Voigt Hill
#
# Bulk Modulus (GPa) = 44.42751 81.67538 63.05144
# Shear Modulus (GPa) = 48.82943 64.94026 56.88484
#
# Velocity S-wave (km/s) = 4.15569 4.79247 4.48540
# Velocity P-wave (km/s) = 6.22409 7.71429 7.00891
#
# Compressibility (1/GPa) = 0.02250858
#
# Stress axis : x y z
#
# Youngs Moduli (GPa) = 240.63573 131.94643 75.73231
#
# Poissons Ratio (x) = 0.25920 0.16258
# Poissons Ratio (y) = 0.47271 -0.21933
# Poissons Ratio (z) = 0.51660 -0.38213
#
# Static dielectric constant tensor:
#      x y z
#    x 2.256640 -0.091240 0.132310 
#    y -0.091240 2.200240 -0.133260 
#    z 0.132310 -0.133260 2.453930 
# 
# From -- ./inp_files/10068.got.cif
#   From: 2010.05.17/outbox.cif.g08.bks.cpg/sg2_6_cif.got.tgz:10068.got - 2010.06.03 11:33:40.
