data_PCOD9011928
_publ_section_title
;
Structure prediction by ZEFSAII (Michael W. Deem and Ramdas Pophale) SiO2 
 PCOD9011928
Probable space group: P -1
;
_chemical_formula_sum "Si O2"
_cell_formula_units_Z 16
_cell_length_a 14.121407
_cell_length_b 11.254709
_cell_length_c 8.846507
_cell_angle_alpha 65.328470
_cell_angle_beta 124.713093
_cell_angle_gamma 71.225973
_cell_volume 695.773892
_symmetry_space_group_name_H-M "P -1"
_symmetry_group_IT_number 2
_symmetry_cell_setting 'triclinic'
loop_
_space_group_symop_operation_xyz
x,y,z
-x,-y,-z
loop_
_atom_site_type_symbol
_atom_site_label
_atom_site_fract_x
_atom_site_fract_y
_atom_site_fract_z
Si Si1 0.724655 0.744349 0.480893
Si Si2 0.991228 0.395667 0.673217
Si Si3 0.422715 0.867021 0.993512
Si Si4 0.353819 0.682890 0.386728
Si Si5 0.304305 0.529525 0.701895
Si Si6 0.351095 0.456872 0.106728
Si Si7 0.160623 0.855743 0.839643
Si Si8 0.300090 0.205502 0.221542
O O1 0.875019 0.544840 0.629979
O O2 0.760921 0.743210 0.687779
O O3 0.681390 0.917074 0.266544
O O4 0.550217 0.802933 0.279436
O O5 0.891383 0.357568 0.534918
O O6 0.000000 0.500000 0.500000
O O7 0.182653 0.213209 0.007609
O O8 0.297459 0.851249 0.914376
O O9 0.562274 0.703926 0.081134
O O10 0.500000 0.500000 0.500000
O O11 0.322275 0.607639 0.533253
O O12 0.460501 0.706106 0.556714
O O13 0.180391 0.858122 0.038852
O O14 0.352356 0.535939 0.908602
O O15 0.281245 0.371817 0.063043
O O16 0.223949 0.652046 0.988324
O O17 0.000000 0.000000 0.500000
O O18 0.500000 0.000000 0.500000
#
# Coordination Sequence:
#
# PCOD9011928 Si02
#       8
#     2   2   2   2   2   2   2   2
#     4  10  24  41  72  97 135 189 227 286 348 402
#     4  11  25  44  66  99 138 178 231 290 340 406
#     4  10  21  40  67  99 134 174 231 275 341 411
#     4  10  21  41  67  98 125 175 227 272 337 418
#     4  11  21  42  70  96 136 177 231 285 349 404
#     4  11  23  42  71  94 134 181 221 279 354 395
#     4  11  25  41  65 100 139 171 225 283 337 417
#     4  12  26  45  68 105 139 180 237 284 345 419
#
# _framework density 22.995975999999999
#
# number of rings (size 3 to 8) (size 9 to 14) (size 15 to 20)
#    0.000    1.250    3.750    2.250   10.500    1.000 
#    2.250    0.625    0.000    0.000    0.000    0.000 
#    0.000    0.000    0.000    0.000    0.000    0.000 
#
# Total GULP energy -89335.761401 kJ/mol
# GULP energy per Si atom -5583.485088 kJ/mol
# Density = 2.294364 g / cm^3
# Si number density = 22.995976 Si / 1000 Ang^3
#
#
#
# Elastic Constant Matrix: (Units=GPa)
#
#
# Indices 1 2 3 4 5 6 
#
# 1 86.1279 -1.5538 28.8510 12.8535 -0.9955 1.6606
# 2 -1.5538 30.3423 18.4655 6.2709 -0.5919 3.9130
# 3 28.8510 18.4655 163.5848 25.0238 1.1048 -3.7787
# 4 12.8535 6.2709 25.0238 42.5312 -2.2922 -9.2021
# 5 -0.9955 -0.5919 1.1048 -2.2922 30.6037 14.5594
# 6 1.6606 3.9130 -3.7787 -9.2021 14.5594 34.3792
#
#
#
# Elastic Compliance Matrix: (Units=1/GPa)
#
#
# Indices 1 2 3 4 5 6 
#
# 1 0.013017 0.003153 -0.002170 -0.003663 0.001676 -0.002916
# 2 0.003153 0.038017 -0.004207 -0.005651 0.004555 -0.008383
# 3 -0.002170 -0.004207 0.007453 -0.002931 -0.001171 0.001114
# 4 -0.003663 -0.005651 -0.002931 0.029056 -0.002358 0.009274
# 5 0.001676 0.004555 -0.001171 -0.002358 0.041740 -0.019036
# 6 -0.002916 -0.008383 0.001114 0.009274 -0.019036 0.040849
#
#
# Mechanical properties :
#
#
# Convention : Reuss Voigt Hill
#
# Bulk Modulus (GPa) = 19.21695 41.28671 30.25183
# Shear Modulus (GPa) = 25.78293 37.12229 31.45261
#
# Velocity S-wave (km/s) = 3.35206 4.02219 3.70231
# Velocity P-wave (km/s) = 4.83286 6.28995 5.60892
#
# Compressibility (1/GPa) = 0.05203740
#
# Stress axis : x y z
#
# Youngs Moduli (GPa) = 76.82497 26.30385 134.18040
#
# Poissons Ratio (x) = -0.08293 0.29117
# Poissons Ratio (y) = -0.24222 0.56455
# Poissons Ratio (z) = 0.16671 0.11067
#
# Static dielectric constant tensor:
#      x y z
#    x 1.867670 -0.010620 0.000030 
#    y -0.010620 1.889840 0.029030 
#    z 0.000030 0.029030 1.909520 
# 
# From -- ./inp_files/307165.got.cif
#   From: 2010.05.17/outbox.cif.g08.bks.cpg/sg2_154_cif.got.tgz:307165.got - 2010.06.03 11:33:40.
