data_PCOD9011979
_publ_section_title
;
Structure prediction by ZEFSAII (Michael W. Deem and Ramdas Pophale) SiO2 
 PCOD9011979
Probable space group: P -1
;
_chemical_formula_sum "Si O2"
_cell_formula_units_Z 14
_cell_length_a 6.216994
_cell_length_b 19.979600
_cell_length_c 16.310800
_cell_angle_alpha 24.510769
_cell_angle_beta 132.407010
_cell_angle_gamma 121.865525
_cell_volume 595.840108
_symmetry_space_group_name_H-M "P -1"
_symmetry_group_IT_number 2
_symmetry_cell_setting 'triclinic'
loop_
_space_group_symop_operation_xyz
x,y,z
-x,-y,-z
loop_
_atom_site_type_symbol
_atom_site_label
_atom_site_fract_x
_atom_site_fract_y
_atom_site_fract_z
Si Si1 0.693807 0.628009 0.885674
Si Si2 0.401736 0.822570 0.742381
Si Si3 0.403805 0.840429 0.989405
Si Si4 0.831262 0.028102 0.055811
Si Si5 0.077142 0.743841 0.324346
Si Si6 0.681413 0.898952 0.456086
Si Si7 0.628653 0.427979 0.852486
O O1 0.600198 0.776974 0.763334
O O2 0.643522 0.725200 0.677020
O O3 0.500000 0.500000 0.000000
O O4 0.050081 0.535283 0.091566
O O5 0.044283 0.872927 0.573254
O O6 0.446675 0.960891 0.663136
O O7 0.461174 0.651202 0.000113
O O8 0.158168 0.898391 0.933527
O O9 0.436382 0.007121 0.764452
O O10 0.313983 0.720295 0.034813
O O11 0.732092 0.739005 0.223790
O O12 0.852418 0.155623 0.847840
O O13 0.054468 0.851470 0.282186
O O14 0.500000 0.000000 0.000000
O O15 0.345794 0.576803 0.586358
#
# Coordination Sequence:
#
# PCOD9011979 Si02
#       7
#     2   2   2   2   2   2   2
#     4  11  24  43  64  96 132 173 216 269 335 384
#     4   9  20  42  64  91 128 166 218 270 325 380
#     4  10  21  40  68 102 124 173 224 265 319 392
#     4   9  21  41  60  92 139 170 219 252 328 394
#     4  10  21  42  63  97 138 170 209 272 324 394
#     4   9  20  40  67  93 125 167 219 272 317 391
#     4  10  23  41  67  94 133 170 221 270 324 384
#
# _framework density 23.496237000000001
#
# number of rings (size 3 to 8) (size 9 to 14) (size 15 to 20)
#    0.000    2.286    0.000    1.714    0.000    8.571 
#   20.571    0.000    0.000    0.000    0.000    0.000 
#    0.000    0.000    0.000    0.000    0.000    0.000 
#
# Total GULP energy -78277.952699 kJ/mol
# GULP energy per Si atom -5591.282336 kJ/mol
# Density = 2.344276 g / cm^3
# Si number density = 23.496237 Si / 1000 Ang^3
#
#
#
# Elastic Constant Matrix: (Units=GPa)
#
#
# Indices 1 2 3 4 5 6 
#
# 1 127.3929 46.0538 47.1876 -1.3838 1.5530 -20.5927
# 2 46.0538 55.5454 40.5989 5.0162 4.7706 -3.2351
# 3 47.1876 40.5989 127.4361 16.3441 1.3963 7.3274
# 4 -1.3838 5.0162 16.3441 32.3715 1.1707 6.4021
# 5 1.5530 4.7706 1.3963 1.1707 14.6112 -0.9650
# 6 -20.5927 -3.2351 7.3274 6.4021 -0.9650 55.8529
#
#
#
# Elastic Compliance Matrix: (Units=1/GPa)
#
#
# Indices 1 2 3 4 5 6 
#
# 1 0.012614 -0.008809 -0.002413 0.002217 0.001868 0.004235
# 2 -0.008809 0.030644 -0.006170 -0.001582 -0.008394 -0.000627
# 3 -0.002413 -0.006170 0.011396 -0.004517 0.001398 -0.002200
# 4 0.002217 -0.001582 -0.004517 0.034111 -0.002194 -0.002629
# 5 0.001868 -0.008394 0.001398 -0.002194 0.071124 0.001499
# 6 0.004235 -0.000627 -0.002200 -0.002629 0.001499 0.020045
#
#
# Mechanical properties :
#
#
# Convention : Reuss Voigt Hill
#
# Bulk Modulus (GPa) = 50.32377 64.22833 57.27605
# Shear Modulus (GPa) = 22.58957 32.33605 27.46281
#
# Velocity S-wave (km/s) = 3.10403 3.71377 3.42251
# Velocity P-wave (km/s) = 5.85756 6.76642 6.32832
#
# Compressibility (1/GPa) = 0.01987133
#
# Stress axis : x y z
#
# Youngs Moduli (GPa) = 79.27812 32.63304 87.74637
#
# Poissons Ratio (x) = 0.28746 0.21171
# Poissons Ratio (y) = 0.69835 0.54138
# Poissons Ratio (z) = 0.19127 0.20134
#
# Static dielectric constant tensor:
#      x y z
#    x 1.867840 0.000080 0.004630 
#    y 0.000080 1.993430 -0.011700 
#    z 0.004630 -0.011700 1.859440 
# 
# From -- ./inp_files/551247.got.cif
#   From: 2010.05.17/outbox.cif.g08.bks.cpg/sg2_276_cif.got.tgz:551247.got - 2010.06.03 11:33:40.
