data_PCOD9011195
_publ_section_title
;
Structure prediction by ZEFSAII (Michael W. Deem and Ramdas Pophale) SiO2 
 PCOD9011195
Probable space group: P -1
;
_chemical_formula_sum "Si O2"
_cell_formula_units_Z 16
_cell_length_a 11.632931
_cell_length_b 13.723857
_cell_length_c 13.548762
_cell_angle_alpha 48.299374
_cell_angle_beta 148.419456
_cell_angle_gamma 143.110294
_cell_volume 679.086657
_symmetry_space_group_name_H-M "P -1"
_symmetry_group_IT_number 2
_symmetry_cell_setting 'triclinic'
loop_
_space_group_symop_operation_xyz
x,y,z
-x,-y,-z
loop_
_atom_site_type_symbol
_atom_site_label
_atom_site_fract_x
_atom_site_fract_y
_atom_site_fract_z
Si Si1 0.458670 0.452788 0.700396
Si Si2 0.063599 0.240803 0.379685
Si Si3 0.008332 0.943828 0.935122
Si Si4 0.971892 0.210778 0.650644
Si Si5 0.025278 0.493315 0.873848
Si Si6 0.195489 0.385485 0.898171
Si Si7 0.524522 0.744688 0.460002
Si Si8 0.408966 0.946940 0.688934
O O1 0.315601 0.352341 0.563751
O O2 0.258530 0.337347 0.719182
O O3 0.461529 0.608916 0.583113
O O4 0.760178 0.503566 0.902215
O O5 0.182693 0.192589 0.413839
O O6 0.973045 0.353240 0.205802
O O7 0.813147 0.104234 0.354365
O O8 0.326439 0.027823 0.090703
O O9 0.849285 0.750185 0.964363
O O10 0.926206 0.038387 0.745487
O O11 0.000000 0.000000 0.000000
O O12 0.003796 0.287872 0.728947
O O13 0.735580 0.175258 0.426888
O O14 0.128666 0.492154 0.839123
O O15 0.709955 0.339432 0.739690
O O16 0.500000 0.500000 0.000000
O O17 0.502347 0.878881 0.397591
#
# Coordination Sequence:
#
# PCOD9011195 Si02
#       8
#     2   2   2   2   2   2   2   2
#     4  10  21  40  65  94 123 167 209 261 308 373
#     4  10  24  42  63  94 126 166 210 263 315 366
#     4  10  23  42  64  90 128 167 203 256 309 371
#     4  10  23  41  64  95 131 164 209 253 310 380
#     4  11  21  41  65  89 130 163 209 260 313 361
#     4  11  22  39  65  96 125 164 205 256 311 372
#     4  11  24  41  64  95 126 163 216 261 312 370
#     4  11  23  42  66  93 128 169 205 256 318 372
#
# _framework density 23.561057000000002
#
# number of rings (size 3 to 8) (size 9 to 14) (size 15 to 20)
#    0.000    1.500    2.500    2.625    3.500    4.000 
#    0.000    6.875    0.000    6.000    0.000    0.000 
#    0.000    0.000    0.000    0.000    0.000    0.000 
#
# Total GULP energy -89393.846700 kJ/mol
# GULP energy per Si atom -5587.115419 kJ/mol
# Density = 2.350743 g / cm^3
# Si number density = 23.561057 Si / 1000 Ang^3
#
#
#
# Elastic Constant Matrix: (Units=GPa)
#
#
# Indices 1 2 3 4 5 6 
#
# 1 68.8307 1.4137 -12.0244 -2.4481 13.1544 12.5394
# 2 1.4137 52.2009 10.4550 5.5674 -4.4267 15.2934
# 3 -12.0244 10.4550 85.9102 1.9781 5.5253 6.3659
# 4 -2.4481 5.5674 1.9781 19.1507 9.5938 8.6205
# 5 13.1544 -4.4267 5.5253 9.5938 31.8899 -3.3203
# 6 12.5394 15.2934 6.3659 8.6205 -3.3203 32.4531
#
#
#
# Elastic Compliance Matrix: (Units=1/GPa)
#
#
# Indices 1 2 3 4 5 6 
#
# 1 0.022315 -0.000323 0.005048 0.018354 -0.017323 -0.016108
# 2 -0.000323 0.023021 -0.002379 -0.004792 0.004293 -0.008545
# 3 0.005048 -0.002379 0.013389 0.006189 -0.007202 -0.005836
# 4 0.018354 -0.004792 0.006189 0.090919 -0.040233 -0.034314
# 5 -0.017323 0.004293 -0.007202 -0.040233 0.054780 0.022375
# 6 -0.016108 -0.008545 -0.005836 -0.034314 0.022375 0.053613
#
#
# Mechanical properties :
#
#
# Convention : Reuss Voigt Hill
#
# Bulk Modulus (GPa) = 15.76899 22.95894 19.36397
# Shear Modulus (GPa) = 18.21598 30.50524 24.36061
#
# Velocity S-wave (km/s) = 2.78355 3.60214 3.21897
# Velocity P-wave (km/s) = 4.12774 5.20252 4.69598
#
# Compressibility (1/GPa) = 0.06341562
#
# Stress axis : x y z
#
# Youngs Moduli (GPa) = 44.81374 43.43943 74.68691
#
# Poissons Ratio (x) = 0.01402 -0.37699
# Poissons Ratio (y) = 0.01446 0.17770
# Poissons Ratio (z) = -0.22620 0.10335
#
# Static dielectric constant tensor:
#      x y z
#    x 1.890270 0.010020 0.000550 
#    y 0.010020 1.944560 -0.004990 
#    z 0.000550 -0.004990 1.960850 
# 
# From -- ./inp_files/397145.got.cif
#   From: 2010.05.17/outbox.cif.g08.bks.cpg/sg2_199_cif.got.tgz:397145.got - 2010.06.03 11:33:40.
