data_PCOD9011833
_publ_section_title
;
Structure prediction by ZEFSAII (Michael W. Deem and Ramdas Pophale) SiO2 
 PCOD9011833
Probable space group: P -1
;
_chemical_formula_sum "Si O2"
_cell_formula_units_Z 12
_cell_length_a 12.335690
_cell_length_b 9.107801
_cell_length_c 9.876384
_cell_angle_alpha 77.271430
_cell_angle_beta 143.306082
_cell_angle_gamma 123.941415
_cell_volume 488.795142
_symmetry_space_group_name_H-M "P -1"
_symmetry_group_IT_number 2
_symmetry_cell_setting 'triclinic'
loop_
_space_group_symop_operation_xyz
x,y,z
-x,-y,-z
loop_
_atom_site_type_symbol
_atom_site_label
_atom_site_fract_x
_atom_site_fract_y
_atom_site_fract_z
Si Si1 0.154577 0.950157 0.544664
Si Si2 0.749930 0.414914 0.697423
Si Si3 0.624605 0.681015 0.986437
Si Si4 0.559966 0.118315 0.336361
Si Si5 0.882300 0.262104 0.174445
Si Si6 0.590093 0.394034 0.828207
O O1 0.244389 0.885568 0.530286
O O2 0.146935 0.848988 0.695634
O O3 0.891593 0.865531 0.263766
O O4 0.348443 0.189263 0.688456
O O5 0.622474 0.212023 0.528565
O O6 0.590287 0.384198 0.667638
O O7 0.853370 0.590014 0.655510
O O8 0.000000 0.500000 0.000000
O O9 0.500000 0.500000 0.000000
O O10 0.463708 0.740145 0.800027
O O11 0.645565 0.592415 0.889903
O O12 0.305557 0.902019 0.092257
O O13 0.795730 0.387721 0.087079
#
# Coordination Sequence:
#
# PCOD9011833 Si02
#       6
#     2   2   2   2   2   2
#     4  11  23  43  67  93 129 167 209 263 315 369
#     4  10  22  40  65  93 128 169 209 258 316 374
#     4  12  25  40  66  99 127 164 213 262 315 375
#     4  11  24  41  65  95 127 167 214 258 313 377
#     4  10  21  40  67  95 127 168 211 260 315 372
#     4  10  23  41  62  94 129 166 212 261 313 373
#
# _framework density 24.550163000000001
#
# number of rings (size 3 to 8) (size 9 to 14) (size 15 to 20)
#    0.000    1.333    0.000    7.000    0.000   14.000 
#    0.000    1.667    0.000    0.000    0.000    0.000 
#    0.000    0.000    0.000    0.000    0.000    0.000 
#
# Total GULP energy -67212.948905 kJ/mol
# GULP energy per Si atom -5601.079075 kJ/mol
# Density = 2.449429 g / cm^3
# Si number density = 24.550163 Si / 1000 Ang^3
#
#
#
# Elastic Constant Matrix: (Units=GPa)
#
#
# Indices 1 2 3 4 5 6 
#
# 1 114.5472 14.0389 11.2661 13.8301 -16.3550 6.8647
# 2 14.0389 69.5317 -16.7257 4.9086 7.7866 6.6840
# 3 11.2661 -16.7257 75.7129 9.7640 -1.4043 2.6341
# 4 13.8301 4.9086 9.7640 40.1199 -10.4213 6.1313
# 5 -16.3550 7.7866 -1.4043 -10.4213 39.1041 2.5780
# 6 6.8647 6.6840 2.6341 6.1313 2.5780 55.4698
#
#
#
# Elastic Compliance Matrix: (Units=1/GPa)
#
#
# Indices 1 2 3 4 5 6 
#
# 1 0.010102 -0.002786 -0.001823 -0.001423 0.004393 -0.000875
# 2 -0.002786 0.016985 0.004551 -0.003376 -0.005198 -0.001303
# 3 -0.001823 0.004551 0.014985 -0.004069 -0.002183 -0.000483
# 4 -0.001423 -0.003376 -0.004069 0.029312 0.007929 -0.002832
# 5 0.004393 -0.005198 -0.002183 0.007929 0.030619 -0.002113
# 6 -0.000875 -0.001303 -0.000483 -0.002832 -0.002113 0.018727
#
#
# Mechanical properties :
#
#
# Convention : Reuss Voigt Hill
#
# Bulk Modulus (GPa) = 23.83405 30.77226 27.30316
# Shear Modulus (GPa) = 37.08330 43.68627 40.38479
#
# Velocity S-wave (km/s) = 3.89075 4.22295 4.06025
# Velocity P-wave (km/s) = 5.46930 6.02822 5.75555
#
# Compressibility (1/GPa) = 0.04195678
#
# Stress axis : x y z
#
# Youngs Moduli (GPa) = 98.98840 58.87628 66.73158
#
# Poissons Ratio (x) = 0.16401 0.12166
# Poissons Ratio (y) = 0.27574 -0.30369
# Poissons Ratio (z) = 0.18047 -0.26794
#
# Static dielectric constant tensor:
#      x y z
#    x 1.974370 -0.011170 -0.048420 
#    y -0.011170 1.979800 -0.033750 
#    z -0.048420 -0.033750 1.989160 
# 
# From -- ./inp_files/223138.got.cif
#   From: 2010.05.17/outbox.cif.g08.bks.cpg/sg2_112_cif.got.tgz:223138.got - 2010.06.03 11:33:40.
