data_PCOD9011410
_publ_section_title
;
Structure prediction by ZEFSAII (Michael W. Deem and Ramdas Pophale) SiO2 
 PCOD9011410
Probable space group: P -1
;
_chemical_formula_sum "Si O2"
_cell_formula_units_Z 16
_cell_length_a 16.268242
_cell_length_b 8.356519
_cell_length_c 9.625239
_cell_angle_alpha 101.602332
_cell_angle_beta 66.772029
_cell_angle_gamma 50.058827
_cell_volume 704.651470
_symmetry_space_group_name_H-M "P -1"
_symmetry_group_IT_number 2
_symmetry_cell_setting 'triclinic'
loop_
_space_group_symop_operation_xyz
x,y,z
-x,-y,-z
loop_
_atom_site_type_symbol
_atom_site_label
_atom_site_fract_x
_atom_site_fract_y
_atom_site_fract_z
Si Si1 0.451007 0.904972 0.086616
Si Si2 0.978213 0.250111 0.425792
Si Si3 0.203850 0.116639 0.086497
Si Si4 0.132183 0.710439 0.786943
Si Si5 0.192780 0.428971 0.960194
Si Si6 0.622876 0.407240 0.305146
Si Si7 0.498080 0.906981 0.339309
Si Si8 0.207434 0.644174 0.216322
O O1 0.387085 0.042868 0.307802
O O2 0.615686 0.578087 0.936750
O O3 0.500000 0.000000 0.000000
O O4 0.337078 0.979645 0.075388
O O5 0.911053 0.272406 0.334590
O O6 0.844478 0.423807 0.655619
O O7 0.111512 0.947206 0.353629
O O8 0.067062 0.272827 0.307065
O O9 0.144378 0.335731 0.051248
O O10 0.274337 0.865195 0.902913
O O11 0.164929 0.505982 0.830349
O O12 0.271079 0.630893 0.680863
O O13 0.000000 0.000000 0.000000
O O14 0.369358 0.179704 0.831327
O O15 0.148565 0.657837 0.111270
O O16 0.500000 0.500000 0.500000
O O17 0.542388 0.657600 0.305078
O O18 0.500000 0.000000 0.500000
#
# Coordination Sequence:
#
# PCOD9011410 Si02
#       8
#     2   2   2   2   2   2   2   2
#     4  11  23  41  70  95 131 180 213 273 343 389
#     4  11  24  41  68  93 131 176 223 276 322 404
#     4  12  23  42  66 100 134 166 228 281 327 388
#     4  11  21  44  66  89 128 181 215 259 348 387
#     4  10  21  40  66  89 131 168 213 274 324 399
#     4  11  25  40  66  99 133 166 222 284 316 393
#     4  10  21  42  66  93 132 172 213 263 336 397
#     4  10  22  43  64  91 129 177 216 264 337 400
#
# _framework density 22.70626
#
# number of rings (size 3 to 8) (size 9 to 14) (size 15 to 20)
#    0.000    1.250    5.000    2.250    1.750    4.000 
#    2.250    0.000    0.000    0.000    0.000    0.000 
#    0.000    0.000    0.000    0.000    0.000    0.000 
#
# Total GULP energy -89125.088397 kJ/mol
# GULP energy per Si atom -5570.318025 kJ/mol
# Density = 2.265458 g / cm^3
# Si number density = 22.706260 Si / 1000 Ang^3
#
#
#
# Elastic Constant Matrix: (Units=GPa)
#
#
# Indices 1 2 3 4 5 6 
#
# 1 100.1722 31.3925 31.2059 -16.2836 -12.3879 -17.3495
# 2 31.3925 86.0467 15.2055 -12.0566 -2.6235 -7.9315
# 3 31.2059 15.2055 95.2928 -18.7216 -11.2141 -6.9472
# 4 -16.2836 -12.0566 -18.7216 35.0658 5.7722 3.4972
# 5 -12.3879 -2.6235 -11.2141 5.7722 46.3592 -10.7619
# 6 -17.3495 -7.9315 -6.9472 3.4972 -10.7619 38.9168
#
#
#
# Elastic Compliance Matrix: (Units=1/GPa)
#
#
# Indices 1 2 3 4 5 6 
#
# 1 0.013810 -0.003567 -0.002560 0.002598 0.003896 0.005816
# 2 -0.003567 0.013434 -0.000444 0.002736 -0.000481 0.000690
# 3 -0.002560 -0.000444 0.012704 0.004997 0.002007 0.001142
# 4 0.002598 0.002736 0.004997 0.033839 -0.002411 -0.001100
# 5 0.003896 -0.000481 0.002007 -0.002411 0.025522 0.009271
# 6 0.005816 0.000690 0.001142 -0.001100 0.009271 0.031296
#
#
# Mechanical properties :
#
#
# Convention : Reuss Voigt Hill
#
# Bulk Modulus (GPa) = 37.30667 48.56882 42.93775
# Shear Modulus (GPa) = 32.74759 37.64889 35.19824
#
# Velocity S-wave (km/s) = 3.80179 4.07638 3.94147
# Velocity P-wave (km/s) = 5.97806 6.60244 6.29800
#
# Compressibility (1/GPa) = 0.02680485
#
# Stress axis : x y z
#
# Youngs Moduli (GPa) = 72.41314 74.44014 78.71286
#
# Poissons Ratio (x) = 0.26551 0.20152
# Poissons Ratio (y) = 0.25828 0.03498
# Poissons Ratio (z) = 0.18539 0.03308
#
# Static dielectric constant tensor:
#      x y z
#    x 1.879170 0.021610 0.046530 
#    y 0.021610 1.910750 0.058920 
#    z 0.046530 0.058920 2.072290 
# 
# From -- ./inp_files/298765.got.cif
#   From: 2010.05.17/outbox.cif.g08.bks.cpg/sg2_150_cif.got.tgz:298765.got - 2010.06.03 11:33:40.
