data_PCOD9011326
_publ_section_title
;
Structure prediction by ZEFSAII (Michael W. Deem and Ramdas Pophale) SiO2 
 PCOD9011326
Probable space group: P -1
;
_chemical_formula_sum "Si O2"
_cell_formula_units_Z 12
_cell_length_a 7.338533
_cell_length_b 8.876469
_cell_length_c 11.929604
_cell_angle_alpha 42.043537
_cell_angle_beta 74.644153
_cell_angle_gamma 96.024586
_cell_volume 443.741749
_symmetry_space_group_name_H-M "P -1"
_symmetry_group_IT_number 2
_symmetry_cell_setting 'triclinic'
loop_
_space_group_symop_operation_xyz
x,y,z
-x,-y,-z
loop_
_atom_site_type_symbol
_atom_site_label
_atom_site_fract_x
_atom_site_fract_y
_atom_site_fract_z
Si Si1 0.445682 0.010616 0.699999
Si Si2 0.759907 0.270482 0.679309
Si Si3 0.471003 0.487591 0.303071
Si Si4 0.896536 0.186113 0.935975
Si Si5 0.930937 0.702418 0.694345
Si Si6 0.683558 0.523032 0.044356
O O1 0.666772 0.084325 0.691546
O O2 0.466740 0.246124 0.496021
O O3 0.382480 0.771113 0.762900
O O4 0.257480 0.911701 0.877565
O O5 0.586912 0.372409 0.666697
O O6 0.763106 0.149333 0.863882
O O7 0.000000 0.500000 0.500000
O O8 0.278282 0.413179 0.287419
O O9 0.670774 0.629035 0.108615
O O10 0.019905 0.499244 0.759260
O O11 0.000000 0.000000 0.000000
O O12 0.890643 0.663658 0.856251
O O13 0.000000 0.000000 0.500000
O O14 0.500000 0.500000 0.000000
#
# Coordination Sequence:
#
# PCOD9011326 Si02
#       6
#     2   2   2   2   2   2
#     4  11  22  42  66  93 135 178 223 281 339 405
#     4  11  24  42  64  95 133 175 223 283 344 402
#     4  10  21  40  65  98 131 174 226 273 337 408
#     4  10  22  42  67  99 133 176 229 277 338 411
#     4   9  20  41  66  99 139 176 221 281 337 398
#     4   9  20  39  63  92 128 175 223 269 332 402
#
# _framework density 27.042757000000002
#
# number of rings (size 3 to 8) (size 9 to 14) (size 15 to 20)
#    0.000    2.000    0.000    3.500    0.000    5.333 
#    0.000   10.000    0.000    0.000    0.000    3.500 
#    0.000    0.000    0.000    0.000    0.000    0.000 
#
# Total GULP energy -67072.470042 kJ/mol
# GULP energy per Si atom -5589.372503 kJ/mol
# Density = 2.698121 g / cm^3
# Si number density = 27.042757 Si / 1000 Ang^3
#
#
#
# Elastic Constant Matrix: (Units=GPa)
#
#
# Indices 1 2 3 4 5 6 
#
# 1 89.3725 41.4588 33.8610 -10.5230 24.2828 -6.1870
# 2 41.4588 153.9884 82.4153 -25.6667 -10.0433 -14.5330
# 3 33.8610 82.4153 160.8570 -6.0760 25.1840 -23.6359
# 4 -10.5230 -25.6667 -6.0760 62.1169 -2.9914 9.9451
# 5 24.2828 -10.0433 25.1840 -2.9914 45.0696 -5.5796
# 6 -6.1870 -14.5330 -23.6359 9.9451 -5.5796 37.6293
#
#
#
# Elastic Compliance Matrix: (Units=1/GPa)
#
#
# Indices 1 2 3 4 5 6 
#
# 1 0.016315 -0.005721 0.001117 0.000061 -0.010739 -0.000434
# 2 -0.005721 0.013133 -0.006935 0.004243 0.010186 0.000165
# 3 0.001117 -0.006935 0.011311 -0.002617 -0.008134 0.004096
# 4 0.000061 0.004243 -0.002617 0.018461 0.003053 -0.004422
# 5 -0.010739 0.010186 -0.008134 0.003053 0.035173 0.001468
# 6 -0.000434 0.000165 0.004096 -0.004422 0.001468 0.030526
#
#
# Mechanical properties :
#
#
# Convention : Reuss Voigt Hill
#
# Bulk Modulus (GPa) = 56.55917 79.96533 68.26225
# Shear Modulus (GPa) = 32.49039 45.39534 38.94287
#
# Velocity S-wave (km/s) = 3.46995 4.10158 3.79891
# Velocity P-wave (km/s) = 6.08393 7.21559 6.67379
#
# Compressibility (1/GPa) = 0.01768060
#
# Stress axis : x y z
#
# Youngs Moduli (GPa) = 61.29295 76.14423 88.40957
#
# Poissons Ratio (x) = 0.43566 -0.09874
# Poissons Ratio (y) = 0.35069 0.61308
# Poissons Ratio (z) = -0.06845 0.52803
#
# Static dielectric constant tensor:
#      x y z
#    x 2.231290 -0.084050 -0.078010 
#    y -0.084050 2.255790 -0.060980 
#    z -0.078010 -0.060980 2.093770 
# 
# From -- ./inp_files/375331.got.cif
#   From: 2010.05.17/outbox.cif.g08.bks.cpg/sg2_188_cif.got.tgz:375331.got - 2010.06.03 11:33:40.
