data_PCOD9011192
_publ_section_title
;
Structure prediction by ZEFSAII (Michael W. Deem and Ramdas Pophale) SiO2 
 PCOD9011192
Probable space group: P -1
;
_chemical_formula_sum "Si O2"
_cell_formula_units_Z 16
_cell_length_a 9.933288
_cell_length_b 11.614793
_cell_length_c 17.060594
_cell_angle_alpha 148.385903
_cell_angle_beta 125.955680
_cell_angle_gamma 67.040736
_cell_volume 806.680900
_symmetry_space_group_name_H-M "P -1"
_symmetry_group_IT_number 2
_symmetry_cell_setting 'triclinic'
loop_
_space_group_symop_operation_xyz
x,y,z
-x,-y,-z
loop_
_atom_site_type_symbol
_atom_site_label
_atom_site_fract_x
_atom_site_fract_y
_atom_site_fract_z
Si Si1 0.840840 0.787703 0.807756
Si Si2 0.903487 0.906322 0.728515
Si Si3 0.433790 0.402611 0.177275
Si Si4 0.918884 0.576508 0.862367
Si Si5 0.481842 0.681374 0.665981
Si Si6 0.776189 0.039095 0.235111
Si Si7 0.987935 0.109270 0.642532
Si Si8 0.646821 0.866029 0.476351
O O1 0.844789 0.752654 0.695954
O O2 0.669565 0.854821 0.816951
O O3 0.866890 0.593479 0.763263
O O4 0.000000 0.000000 0.000000
O O5 0.743935 0.885316 0.604167
O O6 0.068134 0.855888 0.711593
O O7 0.969853 0.172627 0.930070
O O8 0.516637 0.389816 0.283821
O O9 0.557001 0.597562 0.280635
O O10 0.256993 0.471314 0.175831
O O11 0.367935 0.156914 0.972123
O O12 0.005539 0.376139 0.793218
O O13 0.500000 0.500000 0.500000
O O14 0.322534 0.787546 0.662627
O O15 0.870443 0.932036 0.272587
O O16 0.000000 0.000000 0.500000
O O17 0.799823 0.981927 0.537529
O O18 0.500000 0.000000 0.500000
#
# Coordination Sequence:
#
# PCOD9011192 Si02
#       8
#     2   2   2   2   2   2   2   2
#     4   9  19  38  63  93 121 158 203 253 308 365
#     4   9  20  39  62  96 121 163 210 255 307 370
#     4  10  21  40  65  94 121 166 211 255 310 366
#     4   9  19  38  66  86 124 169 201 251 315 374
#     4  11  23  40  67  94 127 166 203 259 319 371
#     4  10  24  42  65  91 129 164 209 258 312 378
#     4  11  25  42  59  90 128 166 211 255 316 373
#     4  11  22  38  64  88 124 161 210 258 301 372
#
# _framework density 19.834361000000001
#
# number of rings (size 3 to 8) (size 9 to 14) (size 15 to 20)
#    0.000    2.000    1.250    1.875    5.250    2.500 
#    6.750    2.500    0.000    0.000    0.000    0.000 
#    0.000    0.000    0.000    0.000    0.000    0.000 
#
# Total GULP energy -89272.709792 kJ/mol
# GULP energy per Si atom -5579.544362 kJ/mol
# Density = 1.978922 g / cm^3
# Si number density = 19.834361 Si / 1000 Ang^3
#
#
#
# Elastic Constant Matrix: (Units=GPa)
#
#
# Indices 1 2 3 4 5 6 
#
# 1 109.6341 79.5966 38.4373 4.5776 -2.7751 -1.0087
# 2 79.5966 93.1867 30.2758 2.3403 -5.0569 -12.8395
# 3 38.4373 30.2758 76.8901 -4.7546 1.9741 -4.5130
# 4 4.5776 2.3403 -4.7546 28.6558 1.6873 -2.2691
# 5 -2.7751 -5.0569 1.9741 1.6873 32.8778 0.4829
# 6 -1.0087 -12.8395 -4.5130 -2.2691 0.4829 37.7565
#
#
#
# Elastic Compliance Matrix: (Units=1/GPa)
#
#
# Indices 1 2 3 4 5 6 
#
# 1 0.027882 -0.023030 -0.005579 -0.004101 -0.000526 -0.007993
# 2 -0.023030 0.032091 -0.000490 0.001628 0.002787 0.010301
# 3 -0.005579 -0.000490 0.016385 0.003904 -0.001758 0.001900
# 4 -0.004101 0.001628 0.003904 0.036447 -0.002247 0.003130
# 5 -0.000526 0.002787 -0.001758 -0.002247 0.031018 0.000192
# 6 -0.007993 0.010301 0.001900 0.003130 0.000192 0.030188
#
#
# Mechanical properties :
#
#
# Convention : Reuss Voigt Hill
#
# Bulk Modulus (GPa) = 55.06296 64.03669 59.54982
# Shear Modulus (GPa) = 20.98533 28.61810 24.80171
#
# Velocity S-wave (km/s) = 3.25626 3.80261 3.53999
# Velocity P-wave (km/s) = 6.47760 7.18579 6.84087
#
# Compressibility (1/GPa) = 0.01816103
#
# Stress axis : x y z
#
# Youngs Moduli (GPa) = 35.86580 31.16139 61.02958
#
# Poissons Ratio (x) = 0.71764 0.34050
# Poissons Ratio (y) = 0.82598 0.02988
# Poissons Ratio (z) = 0.20010 0.01526
#
# Static dielectric constant tensor:
#      x y z
#    x 1.705860 0.015530 0.010390 
#    y 0.015530 1.700950 -0.017880 
#    z 0.010390 -0.017880 1.781680 
# 
# From -- ./inp_files/207977.got.cif
#   From: 2010.05.17/outbox.cif.g08.bks.cpg/sg2_104_cif.got.tgz:207977.got - 2010.06.03 11:33:40.
