data_PCOD9011224
_publ_section_title
;
Structure prediction by ZEFSAII (Michael W. Deem and Ramdas Pophale) SiO2 
 PCOD9011224
Probable space group: P -1
;
_chemical_formula_sum "Si O2"
_cell_formula_units_Z 16
_cell_length_a 9.735479
_cell_length_b 11.007824
_cell_length_c 9.513956
_cell_angle_alpha 75.734287
_cell_angle_beta 132.487048
_cell_angle_gamma 105.460195
_cell_volume 721.494288
_symmetry_space_group_name_H-M "P -1"
_symmetry_group_IT_number 2
_symmetry_cell_setting 'triclinic'
loop_
_space_group_symop_operation_xyz
x,y,z
-x,-y,-z
loop_
_atom_site_type_symbol
_atom_site_label
_atom_site_fract_x
_atom_site_fract_y
_atom_site_fract_z
Si Si1 0.164150 0.514518 0.995375
Si Si2 0.063138 0.415250 0.440695
Si Si3 0.300710 0.047344 0.713133
Si Si4 0.582006 0.979880 0.713635
Si Si5 0.050678 0.859218 0.045938
Si Si6 0.981881 0.155454 0.295591
Si Si7 0.283295 0.280242 0.040858
Si Si8 0.557978 0.673236 0.169521
O O1 0.279808 0.395998 0.109884
O O2 0.340783 0.627028 0.073751
O O3 0.000000 0.500000 0.000000
O O4 0.030555 0.514610 0.768401
O O5 0.284558 0.400646 0.623026
O O6 0.000000 0.500000 0.500000
O O7 0.980483 0.269498 0.375335
O O8 0.393233 0.179036 0.802987
O O9 0.153217 0.084888 0.485030
O O10 0.441077 0.975418 0.745873
O O11 0.196594 0.952217 0.781962
O O12 0.650389 0.842671 0.808989
O O13 0.500000 0.000000 0.500000
O O14 0.727574 0.108156 0.799891
O O15 0.999010 0.810019 0.865966
O O16 0.940839 0.771486 0.114351
O O17 0.000000 0.000000 0.000000
O O18 0.393588 0.330340 0.962872
#
# Coordination Sequence:
#
# PCOD9011224 Si02
#       8
#     2   2   2   2   2   2   2   2
#     4  12  28  49  76 109 148 199 251 317 378 442
#     4  11  25  47  76 106 151 199 255 310 368 441
#     4  10  22  40  68 104 139 186 237 304 374 441
#     4  11  25  41  67 106 144 189 244 301 377 450
#     4  10  21  40  65  94 141 182 230 299 368 433
#     4  10  22  41  68 102 146 187 244 303 370 447
#     4  11  24  45  70 102 143 192 244 305 371 446
#     4  11  26  48  74 110 147 191 257 308 372 461
#
# _framework density 22.176199
#
# number of rings (size 3 to 8) (size 9 to 14) (size 15 to 20)
#    0.000    1.250    1.250    4.125    5.250    4.500 
#    2.250    0.000    0.000    0.000    0.000    0.000 
#    0.000    0.000    0.000    0.000    0.000    0.000 
#
# Total GULP energy -89121.897370 kJ/mol
# GULP energy per Si atom -5570.118586 kJ/mol
# Density = 2.212573 g / cm^3
# Si number density = 22.176199 Si / 1000 Ang^3
#
#
#
# Elastic Constant Matrix: (Units=GPa)
#
#
# Indices 1 2 3 4 5 6 
#
# 1 148.1012 61.3016 48.0591 20.2185 2.2068 10.5438
# 2 61.3016 111.4699 25.1923 2.4506 4.8831 -5.4712
# 3 48.0591 25.1923 106.7949 1.9236 -2.9372 -1.3550
# 4 20.2185 2.4506 1.9236 29.6594 -11.3504 4.8312
# 5 2.2068 4.8831 -2.9372 -11.3504 18.3490 1.7509
# 6 10.5438 -5.4712 -1.3550 4.8312 1.7509 40.9849
#
#
#
# Elastic Compliance Matrix: (Units=1/GPa)
#
#
# Indices 1 2 3 4 5 6 
#
# 1 0.011775 -0.005193 -0.004109 -0.009299 -0.006206 -0.002497
# 2 -0.005193 0.012169 -0.000580 0.001259 -0.002203 0.002887
# 3 -0.004109 -0.000580 0.011421 0.003820 0.004773 0.000703
# 4 -0.009299 0.001259 0.003820 0.054075 0.035341 -0.005197
# 5 -0.006206 -0.002203 0.004773 0.035341 0.079037 -0.006082
# 6 -0.002497 0.002887 0.000703 -0.005197 -0.006082 0.026323
#
#
# Mechanical properties :
#
#
# Convention : Reuss Voigt Hill
#
# Bulk Modulus (GPa) = 64.10078 70.60800 67.35439
# Shear Modulus (GPa) = 22.75182 33.25285 28.00234
#
# Velocity S-wave (km/s) = 3.20653 3.87652 3.55733
# Velocity P-wave (km/s) = 6.53277 7.20730 6.87831
#
# Compressibility (1/GPa) = 0.01560044
#
# Stress axis : x y z
#
# Youngs Moduli (GPa) = 84.92831 82.17901 87.55872
#
# Poissons Ratio (x) = 0.42676 0.35974
# Poissons Ratio (y) = 0.44104 0.05080
# Poissons Ratio (z) = 0.34894 0.04768
#
# Static dielectric constant tensor:
#      x y z
#    x 1.860640 0.019730 0.067560 
#    y 0.019730 1.874520 -0.021190 
#    z 0.067560 -0.021190 1.873700 
# 
# From -- ./inp_files/187102.got.cif
#   From: 2010.05.17/outbox.cif.g08.bks.cpg/sg2_94_cif.got.tgz:187102.got - 2010.06.03 11:33:40.
