data_PCOD9011930
_publ_section_title
;
Structure prediction by ZEFSAII (Michael W. Deem and Ramdas Pophale) SiO2 
 PCOD9011930
Probable space group: P -1
;
_chemical_formula_sum "Si O2"
_cell_formula_units_Z 12
_cell_length_a 11.581556
_cell_length_b 8.466674
_cell_length_c 7.861260
_cell_angle_alpha 53.474567
_cell_angle_beta 92.093771
_cell_angle_gamma 115.575830
_cell_volume 532.297632
_symmetry_space_group_name_H-M "P -1"
_symmetry_group_IT_number 2
_symmetry_cell_setting 'triclinic'
loop_
_space_group_symop_operation_xyz
x,y,z
-x,-y,-z
loop_
_atom_site_type_symbol
_atom_site_label
_atom_site_fract_x
_atom_site_fract_y
_atom_site_fract_z
Si Si1 0.908582 0.077755 0.537093
Si Si2 0.429545 0.271630 0.754691
Si Si3 0.856641 0.972988 0.979518
Si Si4 0.513334 0.095125 0.176161
Si Si5 0.716614 0.228999 0.389945
Si Si6 0.998170 0.454093 0.825736
O O1 0.845001 0.955782 0.786956
O O2 0.788627 0.085776 0.425373
O O3 0.010415 0.347581 0.401073
O O4 0.000000 0.000000 0.500000
O O5 0.500000 0.500000 0.500000
O O6 0.429467 0.056072 0.805033
O O7 0.500601 0.268227 0.938236
O O8 0.279634 0.214795 0.822274
O O9 0.885130 0.213140 0.907391
O O10 0.000000 0.000000 0.000000
O O11 0.611436 0.224691 0.255276
O O12 0.367563 0.902866 0.363986
O O13 0.848688 0.478538 0.254654
O O14 0.000000 0.500000 0.000000
#
# Coordination Sequence:
#
# PCOD9011930 Si02
#       6
#     2   2   2   2   2   2
#     4  10  22  41  66 104 139 176 234 292 350 421
#     4  11  25  44  69 103 135 185 235 286 355 419
#     4  12  25  43  67 101 144 178 236 294 345 426
#     4  10  21  46  69  92 142 179 233 290 345 428
#     4   9  21  41  70  94 134 185 230 283 358 407
#     4  10  21  40  67  99 135 180 225 281 364 399
#
# _framework density 22.543778
#
# number of rings (size 3 to 8) (size 9 to 14) (size 15 to 20)
#    1.000    0.667    1.667    2.500    4.667    0.000 
#    6.000    5.000    0.000    0.000    0.000    0.000 
#    0.000    0.000    0.000    0.000    0.000    0.000 
#
# Total GULP energy -66869.209363 kJ/mol
# GULP energy per Si atom -5572.434114 kJ/mol
# Density = 2.249247 g / cm^3
# Si number density = 22.543778 Si / 1000 Ang^3
#
#
#
# Elastic Constant Matrix: (Units=GPa)
#
#
# Indices 1 2 3 4 5 6 
#
# 1 151.3443 17.9521 64.1986 -3.3691 -22.0123 -0.2474
# 2 17.9521 30.4951 23.1437 -0.8916 -13.8976 5.7571
# 3 64.1986 23.1437 162.5935 -2.9785 -23.9288 18.1294
# 4 -3.3691 -0.8916 -2.9785 26.4695 2.9213 0.1656
# 5 -22.0123 -13.8976 -23.9288 2.9213 45.0217 2.5249
# 6 -0.2474 5.7571 18.1294 0.1656 2.5249 31.6824
#
#
#
# Elastic Compliance Matrix: (Units=1/GPa)
#
#
# Indices 1 2 3 4 5 6 
#
# 1 0.008393 -0.002304 -0.002959 0.000460 0.001676 0.002041
# 2 -0.002304 0.042556 -0.002755 -0.000336 0.010963 -0.007046
# 3 -0.002959 -0.002755 0.008604 0.000250 0.002521 -0.004648
# 4 0.000460 -0.000336 0.000250 0.038100 -0.002212 -0.000101
# 5 0.001676 0.010963 0.002521 -0.002212 0.028215 -0.005658
# 6 0.002041 -0.007046 -0.004648 -0.000101 -0.005658 0.035971
#
#
# Mechanical properties :
#
#
# Convention : Reuss Voigt Hill
#
# Bulk Modulus (GPa) = 22.97865 61.66907 42.32386
# Shear Modulus (GPa) = 25.99029 36.57729 31.28379
#
# Velocity S-wave (km/s) = 3.39909 4.03240 3.72921
# Velocity P-wave (km/s) = 5.06163 7.00678 6.11208
#
# Compressibility (1/GPa) = 0.04351865
#
# Stress axis : x y z
#
# Youngs Moduli (GPa) = 119.14703 23.49869 116.21895
#
# Poissons Ratio (x) = 0.05414 0.34384
# Poissons Ratio (y) = 0.27449 0.32017
# Poissons Ratio (z) = 0.35250 0.06474
#
# Static dielectric constant tensor:
#      x y z
#    x 2.210430 0.085160 0.105290 
#    y 0.085160 1.974760 0.050750 
#    z 0.105290 0.050750 1.909980 
# 
# From -- ./inp_files/242187.got.cif
#   From: 2010.05.17/outbox.cif.g08.bks.cpg/sg2_122_cif.got.tgz:242187.got - 2010.06.03 11:33:40.
