data_PCOD9011525
_publ_section_title
;
Structure prediction by ZEFSAII (Michael W. Deem and Ramdas Pophale) SiO2 
 PCOD9011525
Probable space group: P -1
;
_chemical_formula_sum "Si O2"
_cell_formula_units_Z 14
_cell_length_a 15.417140
_cell_length_b 27.921777
_cell_length_c 12.529872
_cell_angle_alpha 24.654471
_cell_angle_beta 27.806056
_cell_angle_gamma 15.317407
_cell_volume 592.811919
_symmetry_space_group_name_H-M "P -1"
_symmetry_group_IT_number 2
_symmetry_cell_setting 'triclinic'
loop_
_space_group_symop_operation_xyz
x,y,z
-x,-y,-z
loop_
_atom_site_type_symbol
_atom_site_label
_atom_site_fract_x
_atom_site_fract_y
_atom_site_fract_z
Si Si1 0.058407 0.280804 0.695633
Si Si2 0.113253 0.226201 0.979935
Si Si3 0.174357 0.820295 0.475848
Si Si4 0.614082 0.429971 0.682565
Si Si5 0.183684 0.152389 0.459091
Si Si6 0.412325 0.820295 0.754323
Si Si7 0.641916 0.795360 0.038038
O O1 0.242399 0.297014 0.413724
O O2 0.793004 0.366702 0.729015
O O3 0.343317 0.039157 0.879640
O O4 0.964417 0.348426 0.784193
O O5 0.123899 0.303496 0.914820
O O6 0.922248 0.209376 0.258890
O O7 0.500000 0.000000 0.000000
O O8 0.298887 0.671356 0.548224
O O9 0.462375 0.764759 0.294143
O O10 0.838127 0.050189 0.336023
O O11 0.860409 0.334362 0.513026
O O12 0.548633 0.328887 0.949496
O O13 0.204827 0.240387 0.167701
O O14 0.500000 0.000000 0.500000
O O15 0.239312 0.995531 0.670308
#
# Coordination Sequence:
#
# PCOD9011525 Si02
#       7
#     2   2   2   2   2   2   2
#     4  10  21  43  67  91 130 175 214 265 325 381
#     4  10  21  42  68  93 129 178 215 260 331 388
#     4  12  24  41  68 102 129 167 222 270 319 385
#     4  12  26  40  67 105 128 167 224 268 318 383
#     4  11  20  44  69  91 132 177 211 262 328 387
#     4  11  22  45  66  92 135 175 211 262 330 389
#     4  10  21  40  66  94 128 171 219 256 322 385
#
# _framework density 23.61626
#
# number of rings (size 3 to 8) (size 9 to 14) (size 15 to 20)
#    0.000    1.143    8.571    0.429    0.000    6.286 
#    0.000    1.429    0.000    0.000    0.000    0.000 
#    0.000    0.000    0.000    0.000    0.000    0.000 
#
# Total GULP energy -78331.743043 kJ/mol
# GULP energy per Si atom -5595.124503 kJ/mol
# Density = 2.356251 g / cm^3
# Si number density = 23.616260 Si / 1000 Ang^3
#
#
#
# Elastic Constant Matrix: (Units=GPa)
#
#
# Indices 1 2 3 4 5 6 
#
# 1 132.4403 12.9572 56.4274 11.8574 -2.5108 4.7847
# 2 12.9572 76.0927 45.2919 16.1352 7.7750 5.1168
# 3 56.4274 45.2919 159.5798 27.5056 -27.5017 14.6424
# 4 11.8574 16.1352 27.5056 28.2424 1.4644 5.7025
# 5 -2.5108 7.7750 -27.5017 1.4644 32.3842 7.8382
# 6 4.7847 5.1168 14.6424 5.7025 7.8382 30.0018
#
#
#
# Elastic Compliance Matrix: (Units=1/GPa)
#
#
# Indices 1 2 3 4 5 6 
#
# 1 0.009173 0.001379 -0.004286 -0.000569 -0.003582 0.001438
# 2 0.001379 0.019305 -0.007618 -0.004410 -0.011797 0.004126
# 3 -0.004286 -0.007618 0.014792 -0.007469 0.016355 -0.008090
# 4 -0.000569 -0.004410 -0.007469 0.046305 -0.006809 -0.002534
# 5 -0.003582 -0.011797 0.016355 -0.006809 0.051906 -0.017665
# 6 0.001438 0.004126 -0.008090 -0.002534 -0.017665 0.041443
#
#
# Mechanical properties :
#
#
# Convention : Reuss Voigt Hill
#
# Bulk Modulus (GPa) = 45.00479 66.38509 55.69494
# Shear Modulus (GPa) = 23.65389 35.02143 29.33766
#
# Velocity S-wave (km/s) = 3.16823 3.85507 3.52840
# Velocity P-wave (km/s) = 5.69927 6.92722 6.34303
#
# Compressibility (1/GPa) = 0.02221986
#
# Stress axis : x y z
#
# Youngs Moduli (GPa) = 109.01671 51.80124 67.60196
#
# Poissons Ratio (x) = -0.07145 0.28975
# Poissons Ratio (y) = -0.15037 0.51501
# Poissons Ratio (z) = 0.46726 0.39463
#
# Static dielectric constant tensor:
#      x y z
#    x 1.939840 -0.002850 0.003790 
#    y -0.002850 1.918240 0.012150 
#    z 0.003790 0.012150 1.881330 
# 
# From -- ./inp_files/458005.got.cif
#   From: 2010.05.17/outbox.cif.g08.bks.cpg/sg2_230_cif.got.tgz:458005.got - 2010.06.03 11:33:40.
