data_PCOD9011795
_publ_section_title
;
Structure prediction by ZEFSAII (Michael W. Deem and Ramdas Pophale) SiO2 
 PCOD9011795
Probable space group: P -1
;
_chemical_formula_sum "Si O2"
_cell_formula_units_Z 14
_cell_length_a 18.304089
_cell_length_b 6.195269
_cell_length_c 5.259151
_cell_angle_alpha 79.653484
_cell_angle_beta 93.224356
_cell_angle_gamma 81.341192
_cell_volume 577.866249
_symmetry_space_group_name_H-M "P -1"
_symmetry_group_IT_number 2
_symmetry_cell_setting 'triclinic'
loop_
_space_group_symop_operation_xyz
x,y,z
-x,-y,-z
loop_
_atom_site_type_symbol
_atom_site_label
_atom_site_fract_x
_atom_site_fract_y
_atom_site_fract_z
Si Si1 0.295633 0.850702 0.735283
Si Si2 0.583184 0.399940 0.462192
Si Si3 0.961368 0.761589 0.503048
Si Si4 0.317305 0.288220 0.360887
Si Si5 0.918800 0.939104 0.957675
Si Si6 0.219792 0.719197 0.241410
Si Si7 0.448081 0.010206 0.229809
O O1 0.297308 0.091090 0.567415
O O2 0.380785 0.718091 0.760415
O O3 0.247013 0.749243 0.529221
O O4 0.261027 0.843106 0.006403
O O5 0.500000 0.500000 0.500000
O O6 0.632250 0.583767 0.481436
O O7 0.594152 0.197176 0.702601
O O8 0.923117 0.762523 0.768861
O O9 0.000000 0.500000 0.500000
O O10 0.904237 0.832839 0.247744
O O11 0.000000 0.000000 0.500000
O O12 0.245740 0.461190 0.231445
O O13 0.378585 0.208735 0.172498
O O14 0.864126 0.162572 0.827132
O O15 0.000000 0.000000 0.000000
O O16 0.500000 0.000000 0.500000
O O17 0.500000 0.000000 0.000000
#
# Coordination Sequence:
#
# PCOD9011795 Si02
#       7
#     2   2   2   2   2   2   2
#     4  10  25  43  65 100 134 183 233 279 349 430
#     4  10  21  40  67  93 128 174 224 288 343 402
#     4  10  21  42  70 106 146 181 229 294 361 429
#     4  10  24  44  67  94 139 180 228 287 352 411
#     4  10  22  44  72 108 140 181 239 297 357 432
#     4  11  24  47  69  97 142 182 234 282 356 427
#     4  11  24  39  62  97 126 167 229 279 341 410
#
# _framework density 24.227060000000002
#
# number of rings (size 3 to 8) (size 9 to 14) (size 15 to 20)
#    0.000    1.714    1.429    1.286    2.000    9.714 
#   15.429    0.000    0.000    0.000    0.000    0.000 
#    0.000    0.000    0.000    0.000    0.000    0.000 
#
# Total GULP energy -77946.109118 kJ/mol
# GULP energy per Si atom -5567.579223 kJ/mol
# Density = 2.417192 g / cm^3
# Si number density = 24.227060 Si / 1000 Ang^3
#
#
#
# Elastic Constant Matrix: (Units=GPa)
#
#
# Indices 1 2 3 4 5 6 
#
# 1 91.8789 38.2679 10.6470 5.5583 11.4400 -36.9034
# 2 38.2679 142.1323 14.6351 -9.6976 10.2078 -37.3828
# 3 10.6470 14.6351 126.1525 31.1165 6.9609 -9.5125
# 4 5.5583 -9.6976 31.1165 27.5213 -6.2237 -4.7329
# 5 11.4400 10.2078 6.9609 -6.2237 31.7779 -13.2850
# 6 -36.9034 -37.3828 -9.5125 -4.7329 -13.2850 46.3395
#
#
#
# Elastic Compliance Matrix: (Units=1/GPa)
#
#
# Indices 1 2 3 4 5 6 
#
# 1 0.016294 -0.001586 0.000375 -0.002656 -0.001307 0.011127
# 2 -0.001586 0.010401 -0.002968 0.009531 0.003271 0.008429
# 3 0.000375 -0.002968 0.012701 -0.017561 -0.006748 -0.003217
# 4 -0.002656 0.009531 -0.017561 0.067446 0.021194 0.014933
# 5 -0.001307 0.003271 -0.006748 0.021194 0.042619 0.014596
# 6 0.011127 0.008429 -0.003217 0.014933 0.014596 0.042291
#
#
# Mechanical properties :
#
#
# Convention : Reuss Voigt Hill
#
# Bulk Modulus (GPa) = 32.22046 54.14042 43.18044
# Shear Modulus (GPa) = 23.75795 40.90199 32.32997
#
# Velocity S-wave (km/s) = 3.13491 4.11332 3.65699
# Velocity P-wave (km/s) = 5.14119 6.70484 5.97439
#
# Compressibility (1/GPa) = 0.03103618
#
# Stress axis : x y z
#
# Youngs Moduli (GPa) = 61.37305 96.14699 78.73416
#
# Poissons Ratio (x) = 0.15252 -0.02953
# Poissons Ratio (y) = 0.09735 0.23372
# Poissons Ratio (z) = -0.02302 0.28541
#
# Static dielectric constant tensor:
#      x y z
#    x 2.033570 -0.061470 0.009090 
#    y -0.061470 2.133220 0.085720 
#    z 0.009090 0.085720 1.972430 
# 
# From -- ./inp_files/114000.got.cif
#   From: 2010.05.17/outbox.cif.g08.bks.cpg/sg2_57_cif.got.tgz:114000.got - 2010.06.03 11:33:40.
