data_PCOD9011894
_publ_section_title
;
Structure prediction by ZEFSAII (Michael W. Deem and Ramdas Pophale) SiO2 
 PCOD9011894
Probable space group: P -1
;
_chemical_formula_sum "Si O2"
_cell_formula_units_Z 16
_cell_length_a 9.377270
_cell_length_b 11.455098
_cell_length_c 9.313414
_cell_angle_alpha 97.038043
_cell_angle_beta 43.486313
_cell_angle_gamma 97.667088
_cell_volume 681.832485
_symmetry_space_group_name_H-M "P -1"
_symmetry_group_IT_number 2
_symmetry_cell_setting 'triclinic'
loop_
_space_group_symop_operation_xyz
x,y,z
-x,-y,-z
loop_
_atom_site_type_symbol
_atom_site_label
_atom_site_fract_x
_atom_site_fract_y
_atom_site_fract_z
Si Si1 0.952761 0.644054 0.458651
Si Si2 0.474042 0.578365 0.840682
Si Si3 0.652376 0.870032 0.020148
Si Si4 0.022579 0.854786 0.942915
Si Si5 0.053861 0.624337 0.057265
Si Si6 0.625751 0.354535 0.751456
Si Si7 0.836447 0.890432 0.579608
Si Si8 0.532350 0.073506 0.342941
O O1 0.713009 0.623860 0.669786
O O2 0.984225 0.784312 0.443936
O O3 0.127471 0.616238 0.444162
O O4 0.983871 0.599722 0.268756
O O5 0.306471 0.638064 0.876887
O O6 0.486006 0.439749 0.776699
O O7 0.401997 0.602514 0.058180
O O8 0.469209 0.778215 0.195856
O O9 0.608443 0.993213 0.144079
O O10 0.686203 0.878642 0.827055
O O11 0.869807 0.828894 0.917450
O O12 0.968009 0.746806 0.079252
O O13 0.267910 0.843095 0.746321
O O14 0.000000 0.000000 0.000000
O O15 0.000000 0.500000 0.000000
O O16 0.686475 0.887797 0.550165
O O17 0.000000 0.000000 0.500000
O O18 0.500000 0.000000 0.500000
#
# Coordination Sequence:
#
# PCOD9011894 Si02
#       8
#     2   2   2   2   2   2   2   2
#     4  11  24  40  70  98 136 178 238 293 357 419
#     4  10  21  43  65  97 134 179 227 295 347 418
#     4  11  23  43  67 100 135 184 235 294 351 429
#     4  10  24  43  69  95 142 184 231 291 361 412
#     4  11  25  45  68 100 139 191 237 291 356 431
#     4  10  21  40  67  97 136 170 231 292 355 410
#     4  12  25  41  70 101 139 182 244 292 356 428
#     4  11  25  43  65  98 139 187 234 292 359 425
#
# _framework density 23.466173000000001
#
# number of rings (size 3 to 8) (size 9 to 14) (size 15 to 20)
#    0.000    1.250    1.250    3.750    8.750    0.500 
#    4.500    0.000    0.000    0.000    0.000    0.000 
#    0.000    0.000    0.000    0.000    0.000    0.000 
#
# Total GULP energy -89173.145988 kJ/mol
# GULP energy per Si atom -5573.321624 kJ/mol
# Density = 2.341276 g / cm^3
# Si number density = 23.466173 Si / 1000 Ang^3
#
#
#
# Elastic Constant Matrix: (Units=GPa)
#
#
# Indices 1 2 3 4 5 6 
#
# 1 128.4443 12.4548 12.7267 -5.7112 -16.8225 -25.8600
# 2 12.4548 48.9697 -3.7746 -1.9628 -3.6922 -9.0205
# 3 12.7267 -3.7746 53.2804 -0.8620 -0.1511 1.0615
# 4 -5.7112 -1.9628 -0.8620 34.7049 4.3489 -5.4706
# 5 -16.8225 -3.6922 -0.1511 4.3489 36.9584 -10.3501
# 6 -25.8600 -9.0205 1.0615 -5.4706 -10.3501 41.6827
#
#
#
# Elastic Compliance Matrix: (Units=1/GPa)
#
#
# Indices 1 2 3 4 5 6 
#
# 1 0.010911 -0.000765 -0.002779 0.002172 0.007063 0.008713
# 2 -0.000765 0.022008 0.001672 0.001592 0.003136 0.005234
# 3 -0.002779 0.001672 0.019591 -0.000028 -0.001651 -0.002275
# 4 0.002172 0.001592 -0.000028 0.030230 -0.000886 0.005440
# 5 0.007063 0.003136 -0.001651 -0.000886 0.034477 0.013547
# 6 0.008713 0.005234 -0.002275 0.005440 0.013547 0.034665
#
#
# Mechanical properties :
#
#
# Convention : Reuss Voigt Hill
#
# Bulk Modulus (GPa) = 20.50528 30.38982 25.44755
# Shear Modulus (GPa) = 29.08998 36.62169 32.85583
#
# Velocity S-wave (km/s) = 3.52469 3.95475 3.74590
# Velocity P-wave (km/s) = 5.03208 5.81653 5.43847
#
# Compressibility (1/GPa) = 0.04876792
#
# Stress axis : x y z
#
# Youngs Moduli (GPa) = 91.65187 45.43707 51.04380
#
# Poissons Ratio (x) = 0.03474 0.14184
# Poissons Ratio (y) = 0.07008 -0.08535
# Poissons Ratio (z) = 0.25468 -0.07598
#
# Static dielectric constant tensor:
#      x y z
#    x 1.915230 -0.040480 -0.040230 
#    y -0.040480 2.050080 -0.082420 
#    z -0.040230 -0.082420 1.980660 
# 
# From -- ./inp_files/188235.got.cif
#   From: 2010.05.17/outbox.cif.g08.bks.cpg/sg2_95_cif.got.tgz:188235.got - 2010.06.03 11:33:40.
