data_PCOD9011439
_publ_section_title
;
Structure prediction by ZEFSAII (Michael W. Deem and Ramdas Pophale) SiO2 
 PCOD9011439
Probable space group: P -1
;
_chemical_formula_sum "Si O2"
_cell_formula_units_Z 16
_cell_length_a 19.688920
_cell_length_b 20.369882
_cell_length_c 8.590021
_cell_angle_alpha 44.063929
_cell_angle_beta 40.334438
_cell_angle_gamma 18.546699
_cell_volume 709.122213
_symmetry_space_group_name_H-M "P -1"
_symmetry_group_IT_number 2
_symmetry_cell_setting 'triclinic'
loop_
_space_group_symop_operation_xyz
x,y,z
-x,-y,-z
loop_
_atom_site_type_symbol
_atom_site_label
_atom_site_fract_x
_atom_site_fract_y
_atom_site_fract_z
Si Si1 0.788239 0.050856 0.485602
Si Si2 0.424681 0.042078 0.810156
Si Si3 0.756932 0.304134 0.500155
Si Si4 0.658496 0.359720 0.108934
Si Si5 0.949151 0.805189 0.338855
Si Si6 0.551981 0.107572 0.277829
Si Si7 0.513369 0.321179 0.792423
Si Si8 0.875763 0.693307 0.833624
O O1 0.794239 0.976272 0.455663
O O2 0.022645 0.856165 0.506433
O O3 0.778734 0.162776 0.239154
O O4 0.581236 0.213488 0.696007
O O5 0.433570 0.963672 0.784837
O O6 0.401601 0.164948 0.562824
O O7 0.658659 0.850087 0.830378
O O8 0.223487 0.183866 0.042076
O O9 0.524551 0.491119 0.688239
O O10 0.728080 0.222507 0.615690
O O11 0.710275 0.433762 0.255075
O O12 0.500000 0.500000 0.000000
O O13 0.845916 0.290222 0.897046
O O14 0.794723 0.915635 0.268947
O O15 0.029372 0.643828 0.553185
O O16 0.488155 0.264531 0.069283
O O17 0.000000 0.500000 0.000000
#
# Coordination Sequence:
#
# PCOD9011439 Si02
#       8
#     2   2   2   2   2   2   2   2
#     4  11  22  40  62  85 129 165 205 263 302 362
#     4   9  21  44  66  91 126 158 199 264 313 371
#     4  10  22  39  58  88 125 163 213 252 308 362
#     4  11  23  39  60  92 128 165 212 259 302 362
#     4  11  23  39  65  94 123 169 210 253 314 372
#     4  10  21  40  66  91 124 164 206 253 318 365
#     4  10  22  37  60  88 120 165 206 252 308 372
#     4  10  22  43  67  96 125 157 207 259 312 373
#
# _framework density 22.563106999999999
#
# number of rings (size 3 to 8) (size 9 to 14) (size 15 to 20)
#    0.000    1.750    1.250    2.250    1.750    4.000 
#    4.500    8.125    0.000    0.000    0.000    0.000 
#    0.000    0.000    0.000    0.000    0.000    0.000 
#
# Total GULP energy -89381.320817 kJ/mol
# GULP energy per Si atom -5586.332551 kJ/mol
# Density = 2.251175 g / cm^3
# Si number density = 22.563107 Si / 1000 Ang^3
#
#
#
# Elastic Constant Matrix: (Units=GPa)
#
#
# Indices 1 2 3 4 5 6 
#
# 1 80.7396 2.8930 11.2006 -7.4501 23.0414 3.0228
# 2 2.8930 42.3826 37.1688 -25.7206 6.5376 6.1251
# 3 11.2006 37.1688 180.4477 -44.4712 0.6353 -7.2744
# 4 -7.4501 -25.7206 -44.4712 42.7985 -0.4144 8.3153
# 5 23.0414 6.5376 0.6353 -0.4144 32.4265 -1.7783
# 6 3.0228 6.1251 -7.2744 8.3153 -1.7783 25.0215
#
#
#
# Elastic Compliance Matrix: (Units=1/GPa)
#
#
# Indices 1 2 3 4 5 6 
#
# 1 0.017390 0.008115 -0.000975 0.008337 -0.014314 -0.008159
# 2 0.008115 0.055396 -0.004197 0.035790 -0.017982 -0.028933
# 3 -0.000975 -0.004197 0.007780 0.005050 0.001552 0.001839
# 4 0.008337 0.035790 0.005050 0.056918 -0.014059 -0.028215
# 5 -0.014314 -0.017982 0.001552 -0.014059 0.045219 0.014468
# 6 -0.008159 -0.028933 0.001839 -0.028215 0.014468 0.058973
#
#
# Mechanical properties :
#
#
# Convention : Reuss Voigt Hill
#
# Bulk Modulus (GPa) = 11.56711 45.12163 28.34437
# Shear Modulus (GPa) = 18.89593 36.86982 27.88287
#
# Velocity S-wave (km/s) = 2.89705 4.04676 3.51917
# Velocity P-wave (km/s) = 4.04082 6.47119 5.39465
#
# Compressibility (1/GPa) = 0.08645201
#
# Stress axis : x y z
#
# Youngs Moduli (GPa) = 57.50523 18.05182 128.53539
#
# Poissons Ratio (x) = -0.14648 0.12527
# Poissons Ratio (y) = -0.46663 0.53944
# Poissons Ratio (z) = 0.05604 0.07576
#
# Static dielectric constant tensor:
#      x y z
#    x 1.852490 0.011350 -0.032550 
#    y 0.011350 1.764350 -0.086700 
#    z -0.032550 -0.086700 1.848730 
# 
# From -- ./inp_files/349695.got.cif
#   From: 2010.05.17/outbox.cif.g08.bks.cpg/sg2_175_cif.got.tgz:349695.got - 2010.06.03 11:33:40.
