data_PCOD9011073
_publ_section_title
;
Structure prediction by ZEFSAII (Michael W. Deem and Ramdas Pophale) SiO2 
 PCOD9011073
Probable space group: P -1
;
_chemical_formula_sum "Si O2"
_cell_formula_units_Z 16
_cell_length_a 12.427497
_cell_length_b 11.206449
_cell_length_c 14.923255
_cell_angle_alpha 126.205032
_cell_angle_beta 28.272111
_cell_angle_gamma 131.836048
_cell_volume 733.419472
_symmetry_space_group_name_H-M "P -1"
_symmetry_group_IT_number 2
_symmetry_cell_setting 'triclinic'
loop_
_space_group_symop_operation_xyz
x,y,z
-x,-y,-z
loop_
_atom_site_type_symbol
_atom_site_label
_atom_site_fract_x
_atom_site_fract_y
_atom_site_fract_z
Si Si1 0.607802 0.193018 0.511554
Si Si2 0.967676 0.146568 0.362370
Si Si3 0.504619 0.635534 0.987827
Si Si4 0.708812 0.321746 0.155388
Si Si5 0.016530 0.687464 0.394308
Si Si6 0.498815 0.522790 0.268134
Si Si7 0.093538 0.360653 0.753218
Si Si8 0.439215 0.192642 0.455865
O O1 0.811570 0.228990 0.456006
O O2 0.422205 0.285108 0.707532
O O3 0.654836 0.229897 0.387148
O O4 0.500000 0.000000 0.500000
O O5 0.000355 0.191278 0.463709
O O6 0.235079 0.215829 0.150702
O O7 0.795607 0.959926 0.407858
O O8 0.451110 0.545315 0.891732
O O9 0.500000 0.500000 0.000000
O O10 0.286534 0.687695 0.200303
O O11 0.584070 0.421058 0.232430
O O12 0.865473 0.455330 0.173210
O O13 0.527513 0.179170 0.284954
O O14 0.876273 0.270694 0.942641
O O15 0.792816 0.528338 0.521379
O O16 0.968754 0.698958 0.328814
O O17 0.339042 0.333856 0.586277
#
# Coordination Sequence:
#
# PCOD9011073 Si02
#       8
#     2   2   2   2   2   2   2   2
#     4  10  21  40  65  90 123 163 205 257 313 367
#     4  10  25  43  61  95 127 165 216 252 312 381
#     4  11  23  40  63  92 125 169 213 259 306 368
#     4  11  22  38  64  98 125 160 213 257 310 376
#     4  11  22  39  65  91 126 164 208 256 311 364
#     4  11  20  39  66  93 124 161 211 257 309 377
#     4  11  22  38  63  98 125 161 211 255 313 372
#     4  11  22  42  66  90 130 170 200 262 320 366
#
# _framework density 21.815619999999999
#
# number of rings (size 3 to 8) (size 9 to 14) (size 15 to 20)
#    0.000    1.250    3.750    2.625    0.000    3.500 
#    0.000    1.250    0.000    8.250    0.000    0.000 
#    0.000    0.000    0.000    0.000    0.000    0.000 
#
# Total GULP energy -89103.493242 kJ/mol
# GULP energy per Si atom -5568.968328 kJ/mol
# Density = 2.176597 g / cm^3
# Si number density = 21.815620 Si / 1000 Ang^3
#
#
#
# Elastic Constant Matrix: (Units=GPa)
#
#
# Indices 1 2 3 4 5 6 
#
# 1 96.8012 1.3763 -1.5419 -4.1172 11.7246 0.5084
# 2 1.3763 48.4454 0.0225 -12.8486 6.1767 2.5590
# 3 -1.5419 0.0225 100.5543 -14.6621 13.9437 -5.0028
# 4 -4.1172 -12.8486 -14.6621 21.1562 -2.2129 1.6089
# 5 11.7246 6.1767 13.9437 -2.2129 29.3063 1.9577
# 6 0.5084 2.5590 -5.0028 1.6089 1.9577 29.7538
#
#
#
# Elastic Compliance Matrix: (Units=1/GPa)
#
#
# Indices 1 2 3 4 5 6 
#
# 1 0.011092 0.001202 0.001361 0.003292 -0.005096 0.000093
# 2 0.001202 0.026304 0.003384 0.018089 -0.006116 -0.002289
# 3 0.001361 0.003384 0.012428 0.010126 -0.006517 0.001656
# 4 0.003292 0.018089 0.010126 0.065651 -0.004780 -0.003145
# 5 -0.005096 -0.006116 -0.006517 -0.004780 0.040383 -0.002881
# 6 0.000093 -0.002289 0.001656 -0.003145 -0.002881 0.034443
#
#
# Mechanical properties :
#
#
# Convention : Reuss Voigt Hill
#
# Bulk Modulus (GPa) = 16.20242 27.27941 21.74091
# Shear Modulus (GPa) = 25.12851 32.43953 28.78402
#
# Velocity S-wave (km/s) = 3.39759 3.86033 3.63633
# Velocity P-wave (km/s) = 4.77855 5.69221 5.25527
#
# Compressibility (1/GPa) = 0.06171918
#
# Stress axis : x y z
#
# Youngs Moduli (GPa) = 90.15665 38.01643 80.46656
#
# Poissons Ratio (x) = -0.04570 -0.10953
# Poissons Ratio (y) = -0.10838 -0.27233
# Poissons Ratio (z) = -0.12271 -0.12866
#
# Static dielectric constant tensor:
#      x y z
#    x 1.884160 0.019370 -0.004180 
#    y 0.019370 1.912140 -0.044160 
#    z -0.004180 -0.044160 1.828030 
# 
# From -- ./inp_files/519025.got.cif
#   From: 2010.05.17/outbox.cif.g08.bks.cpg/sg2_260_cif.got.tgz:519025.got - 2010.06.03 11:33:40.
