data_PCOD9011985
_publ_section_title
;
Structure prediction by ZEFSAII (Michael W. Deem and Ramdas Pophale) SiO2 
 PCOD9011985
Probable space group: P -1
;
_chemical_formula_sum "Si O2"
_cell_formula_units_Z 16
_cell_length_a 20.998648
_cell_length_b 13.263290
_cell_length_c 13.333430
_cell_angle_alpha 42.776271
_cell_angle_beta 28.724001
_cell_angle_gamma 24.619027
_cell_volume 705.429197
_symmetry_space_group_name_H-M "P -1"
_symmetry_group_IT_number 2
_symmetry_cell_setting 'triclinic'
loop_
_space_group_symop_operation_xyz
x,y,z
-x,-y,-z
loop_
_atom_site_type_symbol
_atom_site_label
_atom_site_fract_x
_atom_site_fract_y
_atom_site_fract_z
Si Si1 0.441933 0.495554 0.864222
Si Si2 0.753863 0.301374 0.422846
Si Si3 0.480850 0.849063 0.381152
Si Si4 0.521016 0.319257 0.158288
Si Si5 0.695028 0.784735 0.467226
Si Si6 0.146941 0.021147 0.208493
Si Si7 0.915482 0.607247 0.923607
Si Si8 0.060102 0.024143 0.791748
O O1 0.525953 0.423576 0.685661
O O2 0.455911 0.649895 0.780935
O O3 0.632300 0.230378 0.852673
O O4 0.186616 0.678621 0.105987
O O5 0.669296 0.548257 0.362347
O O6 0.862174 0.155922 0.274176
O O7 0.941217 0.104176 0.396288
O O8 0.265790 0.954009 0.560155
O O9 0.366513 0.053828 0.474577
O O10 0.651805 0.809251 0.121367
O O11 0.331082 0.368623 0.364950
O O12 0.500000 0.500000 0.000000
O O13 0.744792 0.040202 0.005672
O O14 0.930738 0.604734 0.219001
O O15 0.500000 0.000000 0.500000
O O16 0.049544 0.248429 0.234793
O O17 0.000000 0.500000 0.000000
O O18 0.000000 0.000000 0.000000
#
# Coordination Sequence:
#
# PCOD9011985 Si02
#       8
#     2   2   2   2   2   2   2   2
#     4  11  24  43  70 101 142 181 234 285 353 415
#     4  12  24  42  70 103 140 178 235 292 351 416
#     4  12  26  41  66 101 136 181 231 288 348 418
#     4  10  21  40  68 102 139 179 222 284 356 414
#     4  12  23  39  69 101 140 178 226 294 360 407
#     4  11  21  42  70 106 136 176 228 297 352 415
#     4  12  23  40  67 101 140 176 228 294 361 411
#     4  12  28  45  68 100 141 192 236 282 349 430
#
# _framework density 22.681228999999998
#
# number of rings (size 3 to 8) (size 9 to 14) (size 15 to 20)
#    0.000    0.500    6.250    2.250    1.750    1.000 
#    0.000    0.625    0.000    1.500    0.000    0.000 
#    0.000    0.000    0.000    0.000    0.000    0.000 
#
# Total GULP energy -89159.015455 kJ/mol
# GULP energy per Si atom -5572.438466 kJ/mol
# Density = 2.262961 g / cm^3
# Si number density = 22.681229 Si / 1000 Ang^3
#
#
#
# Elastic Constant Matrix: (Units=GPa)
#
#
# Indices 1 2 3 4 5 6 
#
# 1 77.5644 39.1261 58.0693 11.7067 -8.6847 12.3519
# 2 39.1261 87.7753 37.2570 18.6716 4.0941 12.1145
# 3 58.0693 37.2570 153.6533 37.7121 -0.7802 17.6215
# 4 11.7067 18.6716 37.7121 45.8344 10.2209 4.7061
# 5 -8.6847 4.0941 -0.7802 10.2209 45.9008 10.6133
# 6 12.3519 12.1145 17.6215 4.7061 10.6133 27.9330
#
#
#
# Elastic Compliance Matrix: (Units=1/GPa)
#
#
# Indices 1 2 3 4 5 6 
#
# 1 0.022698 -0.007246 -0.006679 0.001931 0.005583 -0.005128
# 2 -0.007246 0.015849 0.000237 -0.004257 -0.001223 -0.002637
# 3 -0.006679 0.000237 0.011249 -0.007601 0.001408 -0.003500
# 4 0.001931 -0.004257 -0.007601 0.030523 -0.006939 0.003281
# 5 0.005583 -0.001223 0.001408 -0.006939 0.027303 -0.012031
# 6 -0.005128 -0.002637 -0.003500 0.003281 -0.012031 0.045438
#
#
# Mechanical properties :
#
#
# Convention : Reuss Voigt Hill
#
# Bulk Modulus (GPa) = 44.60547 65.32196 54.96372
# Shear Modulus (GPa) = 26.60865 36.23635 31.42250
#
# Velocity S-wave (km/s) = 3.42885 4.00138 3.72613
# Velocity P-wave (km/s) = 5.94853 7.08594 6.54200
#
# Compressibility (1/GPa) = 0.02241877
#
# Stress axis : x y z
#
# Youngs Moduli (GPa) = 44.05651 63.09606 88.89778
#
# Poissons Ratio (x) = 0.45722 0.59372
# Poissons Ratio (y) = 0.31925 -0.02103
# Poissons Ratio (z) = 0.29424 -0.01493
#
# Static dielectric constant tensor:
#      x y z
#    x 2.052850 0.147160 0.010200 
#    y 0.147160 2.169780 -0.087560 
#    z 0.010200 -0.087560 1.976970 
# 
# From -- ./inp_files/541102.got.cif
#   From: 2010.05.17/outbox.cif.g08.bks.cpg/sg2_271_cif.got.tgz:541102.got - 2010.06.03 11:33:40.
