data_PCOD9011733
_publ_section_title
;
Structure prediction by ZEFSAII (Michael W. Deem and Ramdas Pophale) SiO2 
 PCOD9011733
Probable space group: P -1
;
_chemical_formula_sum "Si O2"
_cell_formula_units_Z 14
_cell_length_a 14.027319
_cell_length_b 15.910246
_cell_length_c 6.788629
_cell_angle_alpha 103.170994
_cell_angle_beta 83.946090
_cell_angle_gamma 151.592988
_cell_volume 686.904003
_symmetry_space_group_name_H-M "P -1"
_symmetry_group_IT_number 2
_symmetry_cell_setting 'triclinic'
loop_
_space_group_symop_operation_xyz
x,y,z
-x,-y,-z
loop_
_atom_site_type_symbol
_atom_site_label
_atom_site_fract_x
_atom_site_fract_y
_atom_site_fract_z
Si Si1 0.680542 0.081582 0.582362
Si Si2 0.396766 0.298913 0.848353
Si Si3 0.620724 0.555616 0.316339
Si Si4 0.518876 0.118291 0.093108
Si Si5 0.784599 0.572633 0.624822
Si Si6 0.075633 0.490242 0.635264
Si Si7 0.787023 0.028704 0.202332
O O1 0.756024 0.070446 0.409026
O O2 0.879942 0.298476 0.693296
O O3 0.500000 0.000000 0.500000
O O4 0.583884 0.953296 0.712103
O O5 0.291784 0.295434 0.753246
O O6 0.588484 0.426532 0.731874
O O7 0.255708 0.103663 0.803872
O O8 0.480636 0.396029 0.097001
O O9 0.500000 0.500000 0.500000
O O10 0.763808 0.604644 0.433877
O O11 0.752723 0.333120 0.167950
O O12 0.500000 0.000000 0.000000
O O13 0.386691 0.074225 0.960174
O O14 0.826551 0.508090 0.517555
O O15 0.978731 0.767911 0.801065
O O16 0.000000 0.500000 0.500000
#
# Coordination Sequence:
#
# PCOD9011733 Si02
#       7
#     2   2   2   2   2   2   2
#     4  11  22  42  59  84 126 163 205 258 305 354
#     4  10  21  40  67  89 121 160 201 255 313 362
#     4   9  20  42  65  91 122 158 199 254 314 372
#     4  12  23  38  57  85 121 161 212 255 297 363
#     4  10  22  40  61  90 126 159 206 252 304 371
#     4  11  22  38  63  88 122 168 205 252 308 357
#     4  11  24  38  60  93 120 160 210 252 300 369
#
# _framework density 20.381305999999999
#
# number of rings (size 3 to 8) (size 9 to 14) (size 15 to 20)
#    0.000    1.429    2.857    2.571    0.000    5.714 
#    0.000    6.429    0.000    0.000    0.000    0.000 
#    0.000    0.000    0.000    0.000    0.000    0.000 
#
# Total GULP energy -78094.917522 kJ/mol
# GULP energy per Si atom -5578.208394 kJ/mol
# Density = 2.033492 g / cm^3
# Si number density = 20.381306 Si / 1000 Ang^3
#
#
#
# Elastic Constant Matrix: (Units=GPa)
#
#
# Indices 1 2 3 4 5 6 
#
# 1 91.2543 12.8936 20.9580 6.9254 11.5390 -25.2227
# 2 12.8936 95.9369 18.4123 29.3602 1.1714 -9.2790
# 3 20.9580 18.4123 68.2576 9.9113 14.9000 -3.6850
# 4 6.9254 29.3602 9.9113 30.2638 2.7994 -5.0677
# 5 11.5390 1.1714 14.9000 2.7994 35.9558 -3.0681
# 6 -25.2227 -9.2790 -3.6850 -5.0677 -3.0681 35.6164
#
#
#
# Elastic Compliance Matrix: (Units=1/GPa)
#
#
# Indices 1 2 3 4 5 6 
#
# 1 0.014820 -0.000339 -0.003370 -0.000081 -0.002503 0.009831
# 2 -0.000339 0.015307 -0.002307 -0.013900 0.001792 0.001686
# 3 -0.003370 -0.002307 0.017943 -0.002631 -0.006248 -0.002044
# 4 -0.000081 -0.013900 -0.002631 0.048043 -0.001939 0.002718
# 5 -0.002503 0.001792 -0.006248 -0.001939 0.031337 0.000471
# 6 0.009831 0.001686 -0.002044 0.002718 0.000471 0.035694
#
#
# Mechanical properties :
#
#
# Convention : Reuss Voigt Hill
#
# Bulk Modulus (GPa) = 27.74750 39.99740 33.87245
# Shear Modulus (GPa) = 26.71094 33.91288 30.31191
#
# Velocity S-wave (km/s) = 3.62409 4.08354 3.86066
# Velocity P-wave (km/s) = 5.58174 6.47309 6.04387
#
# Compressibility (1/GPa) = 0.03603928
#
# Stress axis : x y z
#
# Youngs Moduli (GPa) = 67.47498 65.32974 55.73160
#
# Poissons Ratio (x) = 0.02212 0.18782
# Poissons Ratio (y) = 0.02285 0.12856
# Poissons Ratio (z) = 0.22740 0.15070
#
# Static dielectric constant tensor:
#      x y z
#    x 0.933260 -0.232090 0.049900 
#    y -0.232090 1.662910 0.031390 
#    z 0.049900 0.031390 1.719870 
# 
# From -- ./inp_files/98311.got.cif
#   From: 2010.05.17/outbox.cif.g08.bks.cpg/sg2_50_cif.got.tgz:98311.got - 2010.06.03 11:33:40.
