data_PCOD9011542
_publ_section_title
;
Structure prediction by ZEFSAII (Michael W. Deem and Ramdas Pophale) SiO2 
 PCOD9011542
Probable space group: P -1
;
_chemical_formula_sum "Si O2"
_cell_formula_units_Z 13
_cell_length_a 9.290377
_cell_length_b 9.120477
_cell_length_c 19.958666
_cell_angle_alpha 31.206234
_cell_angle_beta 35.925076
_cell_angle_gamma 43.761508
_cell_volume 511.656898
_symmetry_space_group_name_H-M "P -1"
_symmetry_group_IT_number 2
_symmetry_cell_setting 'triclinic'
loop_
_space_group_symop_operation_xyz
x,y,z
-x,-y,-z
loop_
_atom_site_type_symbol
_atom_site_label
_atom_site_fract_x
_atom_site_fract_y
_atom_site_fract_z
Si Si1 0.251799 0.658080 0.114981
Si Si2 0.000000 0.500000 0.000000
Si Si3 0.663194 0.059171 0.757892
Si Si4 0.474984 0.229081 0.480086
Si Si5 0.294405 0.007973 0.375348
Si Si6 0.950085 0.484216 0.177606
Si Si7 0.943983 0.168369 0.733235
O O1 0.360294 0.328651 0.210256
O O2 0.045612 0.659182 0.134964
O O3 0.154397 0.734005 0.195702
O O4 0.451092 0.864827 0.936527
O O5 0.989220 0.404245 0.961628
O O6 0.012433 0.829527 0.843105
O O7 0.625028 0.166659 0.653878
O O8 0.907980 0.831151 0.743914
O O9 0.738503 0.222302 0.732301
O O10 0.660167 0.460439 0.301007
O O11 0.186482 0.311898 0.566425
O O12 0.500000 0.000000 0.500000
O O13 0.573440 0.098534 0.564830
O O14 0.000000 0.000000 0.500000
#
# Coordination Sequence:
#
# PCOD9011542 Si02
#       7
#     2   1   2   2   2   2   2
#     4  11  24  41  65  97 133 162 221 273 305 378
#     4  10  22  40  66  86 128 172 208 252 330 382
#     4  10  21  41  64  91 131 171 212 258 315 388
#     4  12  22  42  69  93 129 168 215 262 318 393
#     4  11  21  42  69  93 124 178 213 249 328 386
#     4  10  21  40  66  95 123 169 215 257 318 381
#     4  11  25  42  65  98 129 167 215 271 321 373
#
# _framework density 25.407651000000001
#
# number of rings (size 3 to 8) (size 9 to 14) (size 15 to 20)
#    0.000    1.231    6.154    2.308    6.462    1.231 
#    0.000    3.077    0.000    0.000    0.000    0.000 
#    0.000    0.000    0.000    0.000    0.000    0.000 
#
# Total GULP energy -72596.314448 kJ/mol
# GULP energy per Si atom -5584.331881 kJ/mol
# Density = 2.534982 g / cm^3
# Si number density = 25.407651 Si / 1000 Ang^3
#
#
#
# Elastic Constant Matrix: (Units=GPa)
#
#
# Indices 1 2 3 4 5 6 
#
# 1 237.2135 46.7261 104.8044 22.9941 4.3976 56.1721
# 2 46.7261 87.3784 25.3428 20.4533 -3.8795 47.7140
# 3 104.8044 25.3428 138.7976 10.2024 0.3822 22.1724
# 4 22.9941 20.4533 10.2024 52.4802 0.4475 16.2829
# 5 4.3976 -3.8795 0.3822 0.4475 59.6651 8.4466
# 6 56.1721 47.7140 22.1724 16.2829 8.4466 55.1455
#
#
#
# Elastic Compliance Matrix: (Units=1/GPa)
#
#
# Indices 1 2 3 4 5 6 
#
# 1 0.007907 0.001232 -0.005029 -0.000820 0.000518 -0.006936
# 2 0.001232 0.023450 -0.001706 -0.002977 0.004391 -0.020652
# 3 -0.005029 -0.001706 0.010959 0.000058 -0.000122 0.002194
# 4 -0.000820 -0.002977 0.000058 0.021485 0.000127 -0.002976
# 5 0.000518 0.004391 -0.000122 0.000127 0.018009 -0.007073
# 6 -0.006936 -0.020652 0.002194 -0.002976 -0.007073 0.044148
#
#
# Mechanical properties :
#
#
# Convention : Reuss Voigt Hill
#
# Bulk Modulus (GPa) = 31.93835 90.79290 61.36562
# Shear Modulus (GPa) = 33.92157 52.55924 43.24040
#
# Velocity S-wave (km/s) = 3.65786 4.55316 4.12984
# Velocity P-wave (km/s) = 5.51702 7.96579 6.85169
#
# Compressibility (1/GPa) = 0.03131032
#
# Stress axis : x y z
#
# Youngs Moduli (GPa) = 126.47381 42.64473 91.24991
#
# Poissons Ratio (x) = -0.05256 0.45886
# Poissons Ratio (y) = -0.15587 0.15571
# Poissons Ratio (z) = 0.63598 0.07277
#
# Static dielectric constant tensor:
#      x y z
#    x 1.991840 -0.034830 -0.039410 
#    y -0.034830 2.140450 -0.048140 
#    z -0.039410 -0.048140 1.906100 
# 
# From -- ./inp_files/152043.got.cif
#   From: 2010.05.17/outbox.cif.g08.bks.cpg/sg2_77_cif.got.tgz:152043.got - 2010.06.03 11:33:40.
