data_PCOD9011300
_publ_section_title
;
Structure prediction by ZEFSAII (Michael W. Deem and Ramdas Pophale) SiO2 
 PCOD9011300
Probable space group: P -1
;
_chemical_formula_sum "Si O2"
_cell_formula_units_Z 16
_cell_length_a 8.993270
_cell_length_b 14.624917
_cell_length_c 7.568262
_cell_angle_alpha 71.506462
_cell_angle_beta 130.445550
_cell_angle_gamma 87.432934
_cell_volume 673.734156
_symmetry_space_group_name_H-M "P -1"
_symmetry_group_IT_number 2
_symmetry_cell_setting 'triclinic'
loop_
_space_group_symop_operation_xyz
x,y,z
-x,-y,-z
loop_
_atom_site_type_symbol
_atom_site_label
_atom_site_fract_x
_atom_site_fract_y
_atom_site_fract_z
Si Si1 0.722357 0.935649 0.634553
Si Si2 0.073686 0.374068 0.255931
Si Si3 0.443129 0.761448 0.940994
Si Si4 0.417563 0.559842 0.213748
Si Si5 0.719997 0.850255 0.294770
Si Si6 0.157724 0.530404 0.479623
Si Si7 0.957375 0.067405 0.605451
Si Si8 0.816672 0.714272 0.984765
O O1 0.692272 0.906749 0.425952
O O2 0.805706 0.828064 0.864307
O O3 0.500000 0.000000 0.500000
O O4 0.875327 0.000825 0.716303
O O5 0.138934 0.269116 0.484574
O O6 0.156431 0.455811 0.360912
O O7 0.181549 0.340060 0.169702
O O8 0.823044 0.423575 0.017978
O O9 0.421621 0.675122 0.110520
O O10 0.512132 0.843557 0.054913
O O11 0.229671 0.825490 0.641786
O O12 0.629334 0.715547 0.969533
O O13 0.500000 0.500000 0.500000
O O14 0.604934 0.493308 0.269944
O O15 0.838112 0.904004 0.224743
O O16 0.000000 0.500000 0.500000
O O17 0.040115 0.648766 0.276203
O O18 0.000000 0.000000 0.500000
#
# Coordination Sequence:
#
# PCOD9011300 Si02
#       8
#     2   2   2   2   2   2   2   2
#     4  10  21  40  65  97 128 171 214 274 336 382
#     4  11  23  43  67  97 135 178 219 271 338 385
#     4  12  23  45  67  97 130 174 226 273 331 403
#     4  12  25  39  67 101 133 172 225 271 331 403
#     4  10  22  41  71  93 126 178 218 270 332 393
#     4  12  24  44  67  99 135 177 224 269 328 402
#     4  10  22  41  69  95 131 169 224 273 329 392
#     4  11  23  41  67  94 138 174 218 276 327 395
#
# _framework density 23.748239999999999
#
# number of rings (size 3 to 8) (size 9 to 14) (size 15 to 20)
#    0.000    1.000    6.250    0.375    0.000    2.500 
#    0.000    3.125    0.000    0.000    0.000    0.000 
#    0.000    0.000    0.000    0.000    0.000    0.000 
#
# Total GULP energy -89468.071854 kJ/mol
# GULP energy per Si atom -5591.754491 kJ/mol
# Density = 2.369419 g / cm^3
# Si number density = 23.748240 Si / 1000 Ang^3
#
#
#
# Elastic Constant Matrix: (Units=GPa)
#
#
# Indices 1 2 3 4 5 6 
#
# 1 133.0423 61.1003 31.0544 1.3190 0.2361 15.9846
# 2 61.1003 96.4226 46.6305 -21.2945 -4.1546 16.3683
# 3 31.0544 46.6305 75.2452 -15.8791 8.2919 -0.2769
# 4 1.3190 -21.2945 -15.8791 48.8376 -0.5125 -2.0349
# 5 0.2361 -4.1546 8.2919 -0.5125 33.7989 -7.8514
# 6 15.9846 16.3683 -0.2769 -2.0349 -7.8514 48.9586
#
#
#
# Elastic Compliance Matrix: (Units=1/GPa)
#
#
# Indices 1 2 3 4 5 6 
#
# 1 0.011355 -0.007485 -0.000738 -0.003888 -0.001242 -0.001570
# 2 -0.007485 0.022150 -0.009743 0.006569 0.004324 -0.004050
# 3 -0.000738 -0.009743 0.020808 0.002596 -0.005602 0.002825
# 4 -0.003888 0.006569 0.002596 0.024304 0.000612 0.000196
# 5 -0.001242 0.004324 -0.005602 0.000612 0.032477 0.004162
# 6 -0.001570 -0.004050 0.002825 0.000196 0.004162 0.022984
#
#
# Mechanical properties :
#
#
# Convention : Reuss Voigt Hill
#
# Bulk Modulus (GPa) = 54.39847 64.69782 59.54814
# Shear Modulus (GPa) = 28.38718 37.38070 32.88394
#
# Velocity S-wave (km/s) = 3.46112 3.97172 3.72518
# Velocity P-wave (km/s) = 6.23927 6.95235 6.60544
#
# Compressibility (1/GPa) = 0.01838287
#
# Stress axis : x y z
#
# Youngs Moduli (GPa) = 88.06476 45.14658 48.05913
#
# Poissons Ratio (x) = 0.33790 0.03545
# Poissons Ratio (y) = 0.65912 0.46824
# Poissons Ratio (z) = 0.06496 0.43986
#
# Static dielectric constant tensor:
#      x y z
#    x 1.988310 -0.009220 -0.071680 
#    y -0.009220 1.911030 -0.053480 
#    z -0.071680 -0.053480 2.021880 
# 
# From -- ./inp_files/201098.got.cif
#   From: 2010.05.17/outbox.cif.g08.bks.cpg/sg2_101_cif.got.tgz:201098.got - 2010.06.03 11:33:40.
