data_PCOD9011008
_publ_section_title
;
Structure prediction by ZEFSAII (Michael W. Deem and Ramdas Pophale) SiO2 
 PCOD9011008
Probable space group: P -1
;
_chemical_formula_sum "Si O2"
_cell_formula_units_Z 16
_cell_length_a 12.861715
_cell_length_b 13.411552
_cell_length_c 11.026721
_cell_angle_alpha 107.170477
_cell_angle_beta 146.854781
_cell_angle_gamma 52.882841
_cell_volume 726.701150
_symmetry_space_group_name_H-M "P -1"
_symmetry_group_IT_number 2
_symmetry_cell_setting 'triclinic'
loop_
_space_group_symop_operation_xyz
x,y,z
-x,-y,-z
loop_
_atom_site_type_symbol
_atom_site_label
_atom_site_fract_x
_atom_site_fract_y
_atom_site_fract_z
Si Si1 0.910427 0.954089 0.289808
Si Si2 0.908815 0.537231 0.061878
Si Si3 0.277748 0.164614 0.049533
Si Si4 0.409055 0.400178 0.620780
Si Si5 0.602077 0.356829 0.304425
Si Si6 0.679660 0.240473 0.072411
Si Si7 0.178514 0.026598 0.347235
Si Si8 0.946503 0.164049 0.920289
O O1 0.197076 0.796201 0.488885
O O2 0.717450 0.102995 0.081366
O O3 0.743489 0.910193 0.108309
O O4 0.000000 0.000000 0.500000
O O5 0.167383 0.422084 0.350119
O O6 0.786581 0.697890 0.014717
O O7 0.679894 0.545752 0.876607
O O8 0.000000 0.500000 0.000000
O O9 0.547918 0.068528 0.352416
O O10 0.068086 0.199579 0.956366
O O11 0.316298 0.554081 0.577089
O O12 0.661984 0.294490 0.744072
O O13 0.491944 0.339224 0.814982
O O14 0.600355 0.323872 0.149959
O O15 0.968218 0.161272 0.277500
O O16 0.088287 0.939431 0.207066
O O17 0.144141 0.084912 0.199577
#
# Coordination Sequence:
#
# PCOD9011008 Si02
#       8
#     2   2   2   2   2   2   2   2
#     4  10  22  43  67  94 132 174 219 278 330 387
#     4  12  27  41  66  99 133 177 225 267 327 413
#     4  12  22  40  69  97 131 180 221 272 333 398
#     4  11  24  44  67  97 130 180 218 270 339 389
#     4  11  24  47  67  94 135 172 222 277 334 393
#     4  10  22  46  69  94 134 169 217 286 331 388
#     4  10  21  40  65 102 130 174 219 270 338 398
#     4  10  22  39  66  96 141 168 215 281 328 392
#
# _framework density 22.017302999999998
#
# number of rings (size 3 to 8) (size 9 to 14) (size 15 to 20)
#    0.000    1.250    2.500    3.000    1.750    1.500 
#   11.250    3.750    0.000    0.000    0.000    0.000 
#    0.000    0.000    0.000    0.000    0.000    0.000 
#
# Total GULP energy -89243.264249 kJ/mol
# GULP energy per Si atom -5577.704016 kJ/mol
# Density = 2.196719 g / cm^3
# Si number density = 22.017303 Si / 1000 Ang^3
#
#
#
# Elastic Constant Matrix: (Units=GPa)
#
#
# Indices 1 2 3 4 5 6 
#
# 1 52.9158 -15.2932 11.4569 1.1495 -7.2885 -12.1884
# 2 -15.2932 52.7216 -6.1559 5.7855 -1.1658 -7.5870
# 3 11.4569 -6.1559 146.0033 -1.5538 5.5321 -13.5097
# 4 1.1495 5.7855 -1.5538 30.4449 3.1880 -2.7575
# 5 -7.2885 -1.1658 5.5321 3.1880 21.4592 -2.3360
# 6 -12.1884 -7.5870 -13.5097 -2.7575 -2.3360 35.7083
#
#
#
# Elastic Compliance Matrix: (Units=1/GPa)
#
#
# Indices 1 2 3 4 5 6 
#
# 1 0.026077 0.009612 -0.001081 -0.003051 0.011312 0.011039
# 2 0.009612 0.023736 0.000770 -0.004678 0.005992 0.008646
# 3 -0.001081 0.000770 0.007280 0.000703 -0.002037 0.002470
# 4 -0.003051 -0.004678 0.000703 0.034617 -0.006563 0.000474
# 5 0.011312 0.005992 -0.002037 -0.006563 0.053066 0.007328
# 6 0.011039 0.008646 0.002470 0.000474 0.007328 0.035060
#
#
# Mechanical properties :
#
#
# Convention : Reuss Voigt Hill
#
# Bulk Modulus (GPa) = 13.21125 25.73959 19.47542
# Shear Modulus (GPa) = 26.81480 34.96467 30.88974
#
# Velocity S-wave (km/s) = 3.49362 3.98936 3.74969
# Velocity P-wave (km/s) = 4.72094 5.73899 5.25468
#
# Compressibility (1/GPa) = 0.07569304
#
# Stress axis : x y z
#
# Youngs Moduli (GPa) = 38.34829 42.13086 137.36950
#
# Poissons Ratio (x) = -0.40494 0.14846
# Poissons Ratio (y) = -0.36859 -0.10574
# Poissons Ratio (z) = 0.04144 -0.03243
#
# Static dielectric constant tensor:
#      x y z
#    x 1.907720 -0.048350 -0.007980 
#    y -0.048350 1.827420 -0.000050 
#    z -0.007980 -0.000050 1.846930 
# 
# From -- ./inp_files/454891.got.cif
#   From: 2010.05.17/outbox.cif.g08.bks.cpg/sg2_228_cif.got.tgz:454891.got - 2010.06.03 11:33:40.
