data_PCOD9011097
_publ_section_title
;
Structure prediction by ZEFSAII (Michael W. Deem and Ramdas Pophale) SiO2 
 PCOD9011097
Probable space group: P -1
;
_chemical_formula_sum "Si O2"
_cell_formula_units_Z 10
_cell_length_a 8.925791
_cell_length_b 10.619967
_cell_length_c 7.650982
_cell_angle_alpha 77.029710
_cell_angle_beta 124.798464
_cell_angle_gamma 136.298572
_cell_volume 388.182953
_symmetry_space_group_name_H-M "P -1"
_symmetry_group_IT_number 2
_symmetry_cell_setting 'triclinic'
loop_
_space_group_symop_operation_xyz
x,y,z
-x,-y,-z
loop_
_atom_site_type_symbol
_atom_site_label
_atom_site_fract_x
_atom_site_fract_y
_atom_site_fract_z
Si Si1 0.095995 0.343609 0.681768
Si Si2 0.778159 0.035353 0.994838
Si Si3 0.337945 0.287175 0.170202
Si Si4 0.259822 0.046044 0.626049
Si Si5 0.806865 0.335032 0.778428
O O1 0.346569 0.510257 0.670322
O O2 0.860196 0.143717 0.487639
O O3 0.971438 0.398545 0.689542
O O4 0.221683 0.310185 0.919379
O O5 0.638906 0.933744 0.117629
O O6 0.107507 0.198841 0.185478
O O7 0.266923 0.849394 0.152329
O O8 0.691669 0.877138 0.854782
O O9 0.506854 0.239283 0.620456
O O10 0.000000 0.000000 0.500000
O O11 0.000000 0.500000 0.000000
#
# Coordination Sequence:
#
# PCOD9011097 Si02
#       5
#     2   2   2   2   2
#     4  10  21  40  65  92 129 160 209 257 314 365
#     4  10  21  40  65  91 127 167 210 249 315 375
#     4   9  19  39  66  92 122 171 203 253 313 378
#     4  12  24  40  65  98 127 159 212 266 308 362
#     4  11  25  44  65  89 129 173 207 251 316 378
#
# _framework density 25.761047999999999
#
# number of rings (size 3 to 8) (size 9 to 14) (size 15 to 20)
#    0.000    1.600    2.000    2.400    5.600    0.800 
#    0.000    2.000    0.000    0.000    0.000    0.000 
#    0.000    0.000    0.000    0.000    0.000    0.000 
#
# Total GULP energy -56006.529208 kJ/mol
# GULP energy per Si atom -5600.652921 kJ/mol
# Density = 2.570241 g / cm^3
# Si number density = 25.761048 Si / 1000 Ang^3
#
#
#
# Elastic Constant Matrix: (Units=GPa)
#
#
# Indices 1 2 3 4 5 6 
#
# 1 114.9907 26.2133 19.2560 24.1210 3.9202 23.8338
# 2 26.2133 111.2169 13.3594 18.7889 7.4649 35.1267
# 3 19.2560 13.3594 58.0297 27.6907 3.5706 10.5741
# 4 24.1210 18.7889 27.6907 64.0500 5.7642 11.5461
# 5 3.9202 7.4649 3.5706 5.7642 42.2552 -5.4988
# 6 23.8338 35.1267 10.5741 11.5461 -5.4988 51.3405
#
#
#
# Elastic Compliance Matrix: (Units=1/GPa)
#
#
# Indices 1 2 3 4 5 6 
#
# 1 0.010365 -0.000670 -0.001451 -0.002348 -0.000871 -0.003619
# 2 -0.000670 0.012123 -0.000224 -0.001523 -0.002881 -0.007903
# 3 -0.001451 -0.000224 0.022265 -0.008599 -0.000782 -0.001908
# 4 -0.002348 -0.001523 -0.008599 0.021004 -0.001783 -0.001012
# 5 -0.000871 -0.002881 -0.000782 -0.001783 0.025300 0.005648
# 6 -0.003619 -0.007903 -0.001908 -0.001012 0.005648 0.027791
#
#
# Mechanical properties :
#
#
# Convention : Reuss Voigt Hill
#
# Bulk Modulus (GPa) = 24.96202 44.65495 34.80849
# Shear Modulus (GPa) = 36.52475 46.55639 41.54057
#
# Velocity S-wave (km/s) = 3.76949 4.25578 4.01999
# Velocity P-wave (km/s) = 5.35316 6.44366 5.92356
#
# Compressibility (1/GPa) = 0.04006086
#
# Stress axis : x y z
#
# Youngs Moduli (GPa) = 96.48192 82.48625 44.91361
#
# Poissons Ratio (x) = 0.05529 0.06518
# Poissons Ratio (y) = 0.06467 0.01008
# Poissons Ratio (z) = 0.14002 0.01851
#
# Static dielectric constant tensor:
#      x y z
#    x 2.096180 0.026550 0.129670 
#    y 0.026550 2.036540 -0.093820 
#    z 0.129670 -0.093820 2.083970 
# 
# From -- ./inp_files/144340.got.cif
#   From: 2010.05.17/outbox.cif.g08.bks.cpg/sg2_73_cif.got.tgz:144340.got - 2010.06.03 11:33:40.
