data_PCOD9011713
_publ_section_title
;
Structure prediction by ZEFSAII (Michael W. Deem and Ramdas Pophale) SiO2 
 PCOD9011713
Probable space group: P -1
;
_chemical_formula_sum "Si O2"
_cell_formula_units_Z 15
_cell_length_a 11.920954
_cell_length_b 12.686168
_cell_length_c 6.660744
_cell_angle_alpha 119.842827
_cell_angle_beta 72.913168
_cell_angle_gamma 135.490756
_cell_volume 609.415354
_symmetry_space_group_name_H-M "P -1"
_symmetry_group_IT_number 2
_symmetry_cell_setting 'triclinic'
loop_
_space_group_symop_operation_xyz
x,y,z
-x,-y,-z
loop_
_atom_site_type_symbol
_atom_site_label
_atom_site_fract_x
_atom_site_fract_y
_atom_site_fract_z
Si Si1 0.824979 0.931710 0.308937
Si Si2 0.180601 0.263224 0.570781
Si Si3 0.355211 0.222088 0.129156
Si Si4 0.297615 0.586905 0.317908
Si Si5 0.915793 0.553810 0.350931
Si Si6 0.500000 0.500000 0.000000
Si Si7 0.422371 0.090013 0.306366
Si Si8 0.767482 0.277073 0.863278
O O1 0.787583 0.766332 0.249656
O O2 0.701598 0.925662 0.495209
O O3 0.790080 0.913793 0.075950
O O4 0.003620 0.093095 0.432012
O O5 0.301669 0.277069 0.380708
O O6 0.179370 0.403829 0.667330
O O7 0.406807 0.138614 0.141439
O O8 0.475692 0.378692 0.071705
O O9 0.127684 0.462481 0.408281
O O10 0.404584 0.754056 0.553782
O O11 0.283719 0.644660 0.168602
O O12 0.386916 0.521157 0.206764
O O13 0.100657 0.696143 0.323111
O O14 0.856458 0.388058 0.120752
O O15 0.370278 0.914399 0.186478
#
# Coordination Sequence:
#
# PCOD9011713 Si02
#       8
#     2   2   2   2   2   1   2   2
#     4  10  21  40  67 103 139 178 224 294 344 414
#     4  10  21  40  69 101 138 180 231 283 352 405
#     4  11  24  41  69 105 137 181 228 287 350 416
#     4  12  27  46  73 103 142 186 228 292 352 418
#     4  11  25  46  73 102 140 185 235 294 344 409
#     4  12  26  44  70 106 136 178 226 284 362 408
#     4  11  25  45  71 100 140 186 234 282 347 418
#     4  11  27  50  70 102 138 190 241 287 337 416
#
# _framework density 24.613755000000001
#
# number of rings (size 3 to 8) (size 9 to 14) (size 15 to 20)
#    0.000    1.067    4.000    1.200    3.733    2.133 
#    4.800    0.000    0.000    0.000    0.000    0.000 
#    0.000    0.000    0.000    0.000    0.000    0.000 
#
# Total GULP energy -83774.337711 kJ/mol
# GULP energy per Si atom -5584.955847 kJ/mol
# Density = 2.455773 g / cm^3
# Si number density = 24.613755 Si / 1000 Ang^3
#
#
#
# Elastic Constant Matrix: (Units=GPa)
#
#
# Indices 1 2 3 4 5 6 
#
# 1 95.3211 25.3650 32.0958 -15.9923 -11.6234 -20.2734
# 2 25.3650 102.4192 44.7092 -12.3852 -10.8150 -13.7581
# 3 32.0958 44.7092 88.9507 -12.9070 13.4004 -9.3581
# 4 -15.9923 -12.3852 -12.9070 31.8598 -1.7204 -4.8240
# 5 -11.6234 -10.8150 13.4004 -1.7204 49.3127 -9.0565
# 6 -20.2734 -13.7581 -9.3581 -4.8240 -9.0565 40.2229
#
#
#
# Elastic Compliance Matrix: (Units=1/GPa)
#
#
# Indices 1 2 3 4 5 6 
#
# 1 0.016644 0.001684 -0.005697 0.008728 0.008074 0.010504
# 2 0.001684 0.014953 -0.007832 0.004828 0.007135 0.006327
# 3 -0.005697 -0.007832 0.018276 0.000557 -0.008589 -0.003165
# 4 0.008728 0.004828 0.000557 0.040122 0.006659 0.012491
# 5 0.008074 0.007135 -0.008589 0.006659 0.028465 0.011720
# 6 0.010504 0.006327 -0.003165 0.012491 0.011720 0.035720
#
#
# Mechanical properties :
#
#
# Convention : Reuss Voigt Hill
#
# Bulk Modulus (GPa) = 38.19281 54.55898 46.37590
# Shear Modulus (GPa) = 26.79562 36.58049 31.68805
#
# Velocity S-wave (km/s) = 3.30304 3.85928 3.59195
# Velocity P-wave (km/s) = 5.48610 6.48637 6.00709
#
# Compressibility (1/GPa) = 0.02618294
#
# Stress axis : x y z
#
# Youngs Moduli (GPa) = 60.08219 66.87680 54.71663
#
# Poissons Ratio (x) = -0.11261 0.31171
# Poissons Ratio (y) = -0.10117 0.42854
# Poissons Ratio (z) = 0.34227 0.52378
#
# Static dielectric constant tensor:
#      x y z
#    x 2.094640 0.382580 0.057240 
#    y 0.382580 2.566390 0.140020 
#    z 0.057240 0.140020 1.939850 
# 
# From -- ./inp_files/71815.got.cif
#   From: 2010.05.17/outbox.cif.g08.bks.cpg/sg2_36_cif.got.tgz:71815.got - 2010.06.03 11:33:40.
