data_PCOD9011737
_publ_section_title
;
Structure prediction by ZEFSAII (Michael W. Deem and Ramdas Pophale) SiO2 
 PCOD9011737
Probable space group: P -1
;
_chemical_formula_sum "Si O2"
_cell_formula_units_Z 12
_cell_length_a 9.621587
_cell_length_b 7.431881
_cell_length_c 6.617889
_cell_angle_alpha 63.144696
_cell_angle_beta 70.846670
_cell_angle_gamma 84.523514
_cell_volume 398.031813
_symmetry_space_group_name_H-M "P -1"
_symmetry_group_IT_number 2
_symmetry_cell_setting 'triclinic'
loop_
_space_group_symop_operation_xyz
x,y,z
-x,-y,-z
loop_
_atom_site_type_symbol
_atom_site_label
_atom_site_fract_x
_atom_site_fract_y
_atom_site_fract_z
Si Si1 0.458890 0.263200 0.132211
Si Si2 0.159220 0.122051 0.253944
Si Si3 0.392797 0.120985 0.700356
Si Si4 0.710303 0.299584 0.497030
Si Si5 0.085868 0.700580 0.946004
Si Si6 0.879278 0.703719 0.376610
O O1 0.317148 0.236391 0.065518
O O2 0.409800 0.168811 0.423605
O O3 0.576870 0.098986 0.112600
O O4 0.500000 0.500000 0.000000
O O5 0.011914 0.129667 0.190945
O O6 0.120684 0.242852 0.416543
O O7 0.210615 0.898758 0.373799
O O8 0.535101 0.264960 0.629517
O O9 0.217790 0.140507 0.780061
O O10 0.780788 0.497495 0.472268
O O11 0.755787 0.304287 0.232803
O O12 0.039637 0.694579 0.203869
O O13 0.000000 0.500000 0.000000
#
# Coordination Sequence:
#
# PCOD9011737 Si02
#       6
#     2   2   2   2   2   2
#     4   9  19  35  64  94 125 171 207 263 325 374
#     4  10  22  43  61  92 131 162 216 264 314 382
#     4   9  19  39  62  94 130 163 213 264 320 379
#     4  10  21  40  67  89 130 171 203 269 319 371
#     4  10  23  40  64  93 126 170 213 258 319 383
#     4  10  22  42  65  94 126 169 212 259 323 376
#
# _framework density 30.148346
#
# number of rings (size 3 to 8) (size 9 to 14) (size 15 to 20)
#    0.000    2.333    0.000    2.000    4.667    3.333 
#    6.000    1.667    0.000    0.000    0.000    0.000 
#    0.000    0.000    0.000    0.000    0.000    0.000 
#
# Total GULP energy -67216.885396 kJ/mol
# GULP energy per Si atom -5601.407116 kJ/mol
# Density = 3.007973 g / cm^3
# Si number density = 30.148346 Si / 1000 Ang^3
#
#
#
# Elastic Constant Matrix: (Units=GPa)
#
#
# Indices 1 2 3 4 5 6 
#
# 1 170.9413 43.3476 63.3153 -2.2349 -6.3031 4.3830
# 2 43.3476 142.4965 46.5241 -10.9111 -8.9859 -7.8180
# 3 63.3153 46.5241 91.9198 16.1379 -29.3993 -15.3803
# 4 -2.2349 -10.9111 16.1379 75.3910 -10.3206 3.1064
# 5 -6.3031 -8.9859 -29.3993 -10.3206 69.3668 2.6940
# 6 4.3830 -7.8180 -15.3803 3.1064 2.6940 60.3372
#
#
#
# Elastic Compliance Matrix: (Units=1/GPa)
#
#
# Indices 1 2 3 4 5 6 
#
# 1 0.008550 -0.000477 -0.006930 0.001508 -0.001903 -0.002442
# 2 -0.000477 0.008834 -0.004732 0.002204 -0.000572 -0.000115
# 3 -0.006930 -0.004732 0.022115 -0.004864 0.007195 0.005457
# 4 0.001508 0.002204 -0.004864 0.014833 0.000640 -0.001856
# 5 -0.001903 -0.000572 0.007195 0.000640 0.017271 0.001094
# 6 -0.002442 -0.000115 0.005457 -0.001856 0.001094 0.018174
#
#
# Mechanical properties :
#
#
# Convention : Reuss Voigt Hill
#
# Bulk Modulus (GPa) = 65.69252 79.08129 72.38690
# Shear Modulus (GPa) = 41.97163 57.83037 49.90100
#
# Velocity S-wave (km/s) = 3.73523 4.38447 4.07281
# Velocity P-wave (km/s) = 6.35922 7.20549 6.79554
#
# Compressibility (1/GPa) = 0.01522243
#
# Stress axis : x y z
#
# Youngs Moduli (GPa) = 116.96255 113.19828 45.21737
#
# Poissons Ratio (x) = 0.05398 0.31334
# Poissons Ratio (y) = 0.05577 0.21396
# Poissons Ratio (z) = 0.81051 0.53564
#
# Static dielectric constant tensor:
#      x y z
#    x 2.308780 -0.051890 0.007890 
#    y -0.051890 2.526350 0.087000 
#    z 0.007890 0.087000 2.571150 
# 
# From -- ./inp_files/180789.got.cif
#   From: 2010.05.17/outbox.cif.g08.bks.cpg/sg2_91_cif.got.tgz:180789.got - 2010.06.03 11:33:40.
