data_PCOD9011590
_publ_section_title
;
Structure prediction by ZEFSAII (Michael W. Deem and Ramdas Pophale) SiO2 
 PCOD9011590
Probable space group: P -1
;
_chemical_formula_sum "Si O2"
_cell_formula_units_Z 16
_cell_length_a 8.070070
_cell_length_b 9.027891
_cell_length_c 11.029893
_cell_angle_alpha 96.296753
_cell_angle_beta 122.526426
_cell_angle_gamma 89.986336
_cell_volume 671.798876
_symmetry_space_group_name_H-M "P -1"
_symmetry_group_IT_number 2
_symmetry_cell_setting 'triclinic'
loop_
_space_group_symop_operation_xyz
x,y,z
-x,-y,-z
loop_
_atom_site_type_symbol
_atom_site_label
_atom_site_fract_x
_atom_site_fract_y
_atom_site_fract_z
Si Si1 0.787123 0.649199 0.676737
Si Si2 0.414073 0.407402 0.155250
Si Si3 0.078339 0.022890 0.332124
Si Si4 0.793648 0.573071 0.405373
Si Si5 0.857586 0.363503 0.051601
Si Si6 0.888274 0.826760 0.044061
Si Si7 0.264566 0.087882 0.645060
Si Si8 0.625180 0.079772 0.950651
O O1 0.639537 0.639710 0.731096
O O2 0.710051 0.590888 0.511608
O O3 0.870456 0.821295 0.702290
O O4 0.978659 0.562711 0.786911
O O5 0.639824 0.471431 0.254398
O O6 0.282958 0.538590 0.070619
O O7 0.315959 0.274329 0.020584
O O8 0.876871 0.015919 0.332029
O O9 0.246491 0.015600 0.498671
O O10 0.030530 0.884341 0.213023
O O11 0.810960 0.744217 0.378195
O O12 0.000000 0.500000 0.500000
O O13 0.720255 0.235842 0.049525
O O14 0.989938 0.275391 0.002385
O O15 0.799106 0.976337 0.972756
O O16 0.482173 0.101112 0.784300
O O17 0.500000 0.000000 0.000000
#
# Coordination Sequence:
#
# PCOD9011590 Si02
#       8
#     2   2   2   2   2   2   2   2
#     4  10  21  42  68  93 135 179 217 281 338 386
#     4  11  25  43  68 100 137 175 228 281 335 400
#     4  10  21  40  66  96 133 174 222 277 333 389
#     4  11  25  45  68  95 136 183 225 276 339 409
#     4  11  23  43  65  98 137 172 229 277 334 395
#     4  11  23  40  69 100 130 179 224 276 334 398
#     4  10  22  42  66  95 135 177 224 277 332 398
#     4  12  22  41  68  95 135 177 222 274 330 396
#
# _framework density 23.816651
#
# number of rings (size 3 to 8) (size 9 to 14) (size 15 to 20)
#    0.000    1.250    3.750    2.250    1.750    6.000 
#    0.000    5.000    0.000    0.000    0.000    0.000 
#    0.000    0.000    0.000    0.000    0.000    0.000 
#
# Total GULP energy -89388.491954 kJ/mol
# GULP energy per Si atom -5586.780747 kJ/mol
# Density = 2.376244 g / cm^3
# Si number density = 23.816651 Si / 1000 Ang^3
#
#
#
# Elastic Constant Matrix: (Units=GPa)
#
#
# Indices 1 2 3 4 5 6 
#
# 1 56.4960 27.5582 -0.9964 -9.6688 8.5916 8.5667
# 2 27.5582 110.9682 32.9096 2.9680 10.1965 10.2012
# 3 -0.9964 32.9096 116.9224 17.1666 13.7662 -4.5802
# 4 -9.6688 2.9680 17.1666 47.6681 4.3805 5.4335
# 5 8.5916 10.1965 13.7662 4.3805 33.0913 0.3744
# 6 8.5667 10.2012 -4.5802 5.4335 0.3744 37.7996
#
#
#
# Elastic Compliance Matrix: (Units=1/GPa)
#
#
# Indices 1 2 3 4 5 6 
#
# 1 0.022726 -0.005294 0.001366 0.005442 -0.005509 -0.004284
# 2 -0.005294 0.011581 -0.003260 -0.000291 -0.000774 -0.002271
# 3 0.001366 -0.003260 0.010437 -0.003242 -0.003289 0.002334
# 4 0.005442 -0.000291 -0.003242 0.024122 -0.003111 -0.004984
# 5 -0.005509 -0.000774 -0.003289 -0.003111 0.033655 0.001173
# 6 -0.004284 -0.002271 0.002334 -0.004984 0.001173 0.029027
#
#
# Mechanical properties :
#
#
# Convention : Reuss Voigt Hill
#
# Bulk Modulus (GPa) = 32.93167 44.81439 38.87303
# Shear Modulus (GPa) = 32.04192 38.70614 35.37403
#
# Velocity S-wave (km/s) = 3.67189 4.03572 3.85809
# Velocity P-wave (km/s) = 5.64218 6.36971 6.01695
#
# Compressibility (1/GPa) = 0.03036591
#
# Stress axis : x y z
#
# Youngs Moduli (GPa) = 44.00315 86.34980 95.81720
#
# Poissons Ratio (x) = 0.45716 -0.13085
# Poissons Ratio (y) = 0.23297 0.31235
# Poissons Ratio (z) = -0.06009 0.28149
#
# Static dielectric constant tensor:
#      x y z
#    x 1.968430 0.013030 -0.022130 
#    y 0.013030 1.930520 0.009340 
#    z -0.022130 0.009340 1.943800 
# 
# From -- ./inp_files/382443.got.cif
#   From: 2010.05.17/outbox.cif.g08.bks.cpg/sg2_192_cif.got.tgz:382443.got - 2010.06.03 11:33:40.
