data_PCOD9011668
_publ_section_title
;
Structure prediction by ZEFSAII (Michael W. Deem and Ramdas Pophale) SiO2 
 PCOD9011668
Probable space group: P -1
;
_chemical_formula_sum "Si O2"
_cell_formula_units_Z 14
_cell_length_a 5.360665
_cell_length_b 15.268086
_cell_length_c 8.503964
_cell_angle_alpha 64.153587
_cell_angle_beta 101.940980
_cell_angle_gamma 71.614765
_cell_volume 543.946429
_symmetry_space_group_name_H-M "P -1"
_symmetry_group_IT_number 2
_symmetry_cell_setting 'triclinic'
loop_
_space_group_symop_operation_xyz
x,y,z
-x,-y,-z
loop_
_atom_site_type_symbol
_atom_site_label
_atom_site_fract_x
_atom_site_fract_y
_atom_site_fract_z
Si Si1 0.570443 0.375160 0.069580
Si Si2 0.666990 0.705118 0.612663
Si Si3 0.309207 0.125840 0.689274
Si Si4 0.647668 0.097651 0.072650
Si Si5 0.982378 0.770879 0.970402
Si Si6 0.248160 0.675044 0.391972
Si Si7 0.836115 0.495356 0.325614
O O1 0.897364 0.299887 0.116268
O O2 0.356147 0.394072 0.878767
O O3 0.500000 0.500000 0.000000
O O4 0.490994 0.316904 0.244809
O O5 0.636995 0.827030 0.503435
O O6 0.496246 0.707920 0.425832
O O7 0.953352 0.592970 0.702736
O O8 0.030201 0.231965 0.632235
O O9 0.237748 0.024788 0.749880
O O10 0.552983 0.093917 0.881462
O O11 0.874151 0.146162 0.071825
O O12 0.351360 0.168263 0.075959
O O13 0.143277 0.681641 0.197656
O O14 0.348031 0.561079 0.583144
O O15 0.000000 0.500000 0.500000
#
# Coordination Sequence:
#
# PCOD9011668 Si02
#       7
#     2   2   2   2   2   2   2
#     4  12  27  44  64  97 142 187 225 282 353 413
#     4  11  22  42  63  97 134 180 225 280 345 420
#     4   9  21  38  69 100 132 175 224 288 349 402
#     4  10  22  42  70 101 135 176 232 292 342 404
#     4  11  25  42  67 102 135 179 235 287 335 413
#     4  10  21  40  66  99 135 169 233 283 340 410
#     4  11  25  41  69  98 130 182 236 289 339 407
#
# _framework density 25.737831
#
# number of rings (size 3 to 8) (size 9 to 14) (size 15 to 20)
#    0.000    1.429    2.857    1.286    8.000    4.000 
#    0.000    1.429    0.000    0.000    0.000    0.000 
#    0.000    0.000    0.000    0.000    0.000    0.000 
#
# Total GULP energy -78326.535052 kJ/mol
# GULP energy per Si atom -5594.752504 kJ/mol
# Density = 2.567925 g / cm^3
# Si number density = 25.737831 Si / 1000 Ang^3
#
#
#
# Elastic Constant Matrix: (Units=GPa)
#
#
# Indices 1 2 3 4 5 6 
#
# 1 70.7679 12.7241 25.4691 -6.1671 -18.3334 2.2389
# 2 12.7241 74.6653 40.8491 -1.5308 -20.1197 6.1318
# 3 25.4691 40.8491 148.2213 -17.4013 -26.1540 -3.8247
# 4 -6.1671 -1.5308 -17.4013 40.7902 9.5404 -8.7867
# 5 -18.3334 -20.1197 -26.1540 9.5404 47.4642 8.2520
# 6 2.2389 6.1318 -3.8247 -8.7867 8.2520 45.4091
#
#
#
# Elastic Compliance Matrix: (Units=1/GPa)
#
#
# Indices 1 2 3 4 5 6 
#
# 1 0.016321 -0.000101 -0.001847 -0.000059 0.005599 -0.001975
# 2 -0.000101 0.017888 -0.004284 -0.003772 0.006763 -0.004730
# 3 -0.001847 -0.004284 0.008941 0.003446 0.001385 0.001838
# 4 -0.000059 -0.003772 0.003446 0.029108 -0.006911 0.007691
# 5 0.005599 0.006763 0.001385 -0.006911 0.029605 -0.007790
# 6 -0.001975 -0.004730 0.001838 0.007691 -0.007790 0.025817
#
#
# Mechanical properties :
#
#
# Convention : Reuss Voigt Hill
#
# Bulk Modulus (GPa) = 32.58751 50.19322 41.39037
# Shear Modulus (GPa) = 33.25069 41.04018 37.14544
#
# Velocity S-wave (km/s) = 3.59820 3.99751 3.80310
# Velocity P-wave (km/s) = 5.47280 6.39147 5.94989
#
# Compressibility (1/GPa) = 0.03068660
#
# Stress axis : x y z
#
# Youngs Moduli (GPa) = 61.26934 55.90426 111.84379
#
# Poissons Ratio (x) = 0.00567 0.20652
# Poissons Ratio (y) = 0.00621 0.47912
# Poissons Ratio (z) = 0.11313 0.23949
#
# Static dielectric constant tensor:
#      x y z
#    x 2.140670 0.071480 0.008540 
#    y 0.071480 2.098510 0.065790 
#    z 0.008540 0.065790 2.020380 
# 
# From -- ./inp_files/46107.got.cif
#   From: 2010.05.17/outbox.cif.g08.bks.cpg/sg2_24_cif.got.tgz:46107.got - 2010.06.03 11:33:40.
