data_PCOD9011996
_publ_section_title
;
Structure prediction by ZEFSAII (Michael W. Deem and Ramdas Pophale) SiO2 
 PCOD9011996
Probable space group: P -1
;
_chemical_formula_sum "Si O2"
_cell_formula_units_Z 14
_cell_length_a 12.113594
_cell_length_b 12.631140
_cell_length_c 18.877931
_cell_angle_alpha 151.278495
_cell_angle_beta 153.058978
_cell_angle_gamma 38.454787
_cell_volume 628.885246
_symmetry_space_group_name_H-M "P -1"
_symmetry_group_IT_number 2
_symmetry_cell_setting 'triclinic'
loop_
_space_group_symop_operation_xyz
x,y,z
-x,-y,-z
loop_
_atom_site_type_symbol
_atom_site_label
_atom_site_fract_x
_atom_site_fract_y
_atom_site_fract_z
Si Si1 0.851318 0.971955 0.617498
Si Si2 0.185856 0.913363 0.497484
Si Si3 0.749848 0.395304 0.050250
Si Si4 0.408345 0.659396 0.232798
Si Si5 0.215194 0.679911 0.727388
Si Si6 0.715067 0.031664 0.925781
Si Si7 0.786177 0.536553 0.699323
O O1 0.831332 0.982201 0.528020
O O2 0.781830 0.206729 0.749784
O O3 0.638409 0.815315 0.435302
O O4 0.111141 0.870563 0.729147
O O5 0.161133 0.648734 0.320737
O O6 0.440891 0.973591 0.714378
O O7 0.000000 0.000000 0.500000
O O8 0.012244 0.515575 0.277747
O O9 0.500000 0.500000 0.000000
O O10 0.704820 0.393741 0.939466
O O11 0.792371 0.158550 0.972661
O O12 0.533049 0.449372 0.219070
O O13 0.000000 0.500000 0.500000
O O14 0.247606 0.788208 0.886493
O O15 0.816436 0.799659 0.877696
O O16 0.500000 0.500000 0.500000
#
# Coordination Sequence:
#
# PCOD9011996 Si02
#       7
#     2   2   2   2   2   2   2
#     4  10  22  43  65  99 143 187 232 300 369 436
#     4  11  24  46  70 100 145 191 240 296 372 442
#     4  12  21  39  75 105 133 187 252 302 349 431
#     4  10  21  40  68 103 141 178 239 305 365 417
#     4  10  22  41  67 104 141 179 234 305 369 419
#     4  11  22  44  70 106 137 183 253 300 351 430
#     4  10  25  42  63 105 148 184 230 305 374 426
#
# _framework density 22.261614000000002
#
# number of rings (size 3 to 8) (size 9 to 14) (size 15 to 20)
#    0.000    1.429    2.857    2.143    0.000    0.000 
#   15.429    3.571    0.000    0.000    0.000    0.000 
#    0.000    0.000    0.000    0.000    0.000    0.000 
#
# Total GULP energy -78038.889315 kJ/mol
# GULP energy per Si atom -5574.206380 kJ/mol
# Density = 2.221095 g / cm^3
# Si number density = 22.261614 Si / 1000 Ang^3
#
#
#
# Elastic Constant Matrix: (Units=GPa)
#
#
# Indices 1 2 3 4 5 6 
#
# 1 79.9972 51.8942 32.3100 -8.0231 -7.4799 -16.8437
# 2 51.8942 196.3383 40.2475 -7.9516 -12.6836 -10.2449
# 3 32.3100 40.2475 84.3459 1.2417 -5.2836 -6.0529
# 4 -8.0231 -7.9516 1.2417 35.1365 3.5192 -1.8113
# 5 -7.4799 -12.6836 -5.2836 3.5192 41.5035 -0.7369
# 6 -16.8437 -10.2449 -6.0529 -1.8113 -0.7369 22.1138
#
#
#
# Elastic Compliance Matrix: (Units=1/GPa)
#
#
# Indices 1 2 3 4 5 6 
#
# 1 0.019997 -0.003270 -0.005139 0.004484 0.001796 0.012737
# 2 -0.003270 0.006418 -0.001744 0.000663 0.001095 0.000096
# 3 -0.005139 -0.001744 0.014663 -0.002189 0.000578 -0.000869
# 4 0.004484 0.000663 -0.002189 0.030170 -0.001728 0.005537
# 5 0.001796 0.001095 0.000578 -0.001728 0.025021 0.002726
# 6 0.012737 0.000096 -0.000869 0.005537 0.002726 0.055273
#
#
# Mechanical properties :
#
#
# Convention : Reuss Voigt Hill
#
# Bulk Modulus (GPa) = 48.14360 67.73164 57.93762
# Shear Modulus (GPa) = 27.96869 35.49941 31.73405
#
# Velocity S-wave (km/s) = 3.54837 3.99763 3.77968
# Velocity P-wave (km/s) = 6.20170 7.19718 6.71791
#
# Compressibility (1/GPa) = 0.02077119
#
# Stress axis : x y z
#
# Youngs Moduli (GPa) = 50.00855 155.82258 68.19926
#
# Poissons Ratio (x) = 0.50946 0.35050
# Poissons Ratio (y) = 0.16350 0.11894
# Poissons Ratio (z) = 0.25701 0.27176
#
# Static dielectric constant tensor:
#      x y z
#    x 1.886580 -0.118110 0.074220 
#    y -0.118110 1.987670 -0.011820 
#    z 0.074220 -0.011820 1.885720 
# 
# From -- ./inp_files/242476.got.cif
#   From: 2010.05.17/outbox.cif.g08.bks.cpg/sg2_122_cif.got.tgz:242476.got - 2010.06.03 11:33:40.
