data_PCOD9011800
_publ_section_title
;
Structure prediction by ZEFSAII (Michael W. Deem and Ramdas Pophale) SiO2 
 PCOD9011800
Probable space group: P -1
;
_chemical_formula_sum "Si O2"
_cell_formula_units_Z 16
_cell_length_a 16.365584
_cell_length_b 19.297413
_cell_length_c 26.116613
_cell_angle_alpha 17.449864
_cell_angle_beta 161.111422
_cell_angle_gamma 151.843832
_cell_volume 781.833225
_symmetry_space_group_name_H-M "P -1"
_symmetry_group_IT_number 2
_symmetry_cell_setting 'triclinic'
loop_
_space_group_symop_operation_xyz
x,y,z
-x,-y,-z
loop_
_atom_site_type_symbol
_atom_site_label
_atom_site_fract_x
_atom_site_fract_y
_atom_site_fract_z
Si Si1 0.052654 0.492318 0.735097
Si Si2 0.449297 0.589781 0.971038
Si Si3 0.803718 0.392266 0.758874
Si Si4 0.202736 0.965920 0.908883
Si Si5 0.250233 0.435543 0.157236
Si Si6 0.128040 0.724639 0.776958
Si Si7 0.628982 0.059472 0.481222
Si Si8 0.453020 0.337090 0.753174
O O1 0.289841 0.361160 0.932921
O O2 0.931810 0.362665 0.799990
O O3 0.805813 0.599747 0.478516
O O4 0.201753 0.668514 0.730977
O O5 0.476889 0.304927 0.194120
O O6 0.383179 0.686681 0.919760
O O7 0.500000 0.500000 0.500000
O O8 0.947560 0.562353 0.757814
O O9 0.824593 0.148881 0.972269
O O10 0.411065 0.125627 0.914278
O O11 0.309622 0.758243 0.077526
O O12 0.915641 0.103128 0.629246
O O13 0.483459 0.465978 0.311077
O O14 0.322025 0.173911 0.360213
O O15 0.196306 0.621332 0.946849
O O16 0.000000 0.500000 0.000000
O O17 0.000000 0.000000 0.500000
O O18 0.500000 0.000000 0.500000
#
# Coordination Sequence:
#
# PCOD9011800 Si02
#       8
#     2   2   2   2   2   2   2   2
#     4  10  21  40  67  93 131 173 222 274 327 397
#     4  10  22  42  70  95 128 183 232 267 336 415
#     4  11  21  38  66  96 131 171 228 271 325 400
#     4  11  22  40  65 100 133 182 226 272 332 408
#     4  12  25  42  67 106 140 170 225 283 339 396
#     4  11  25  43  66  96 133 175 224 282 337 394
#     4  12  21  43  70  94 136 184 224 272 334 409
#     4  11  23  39  66 100 138 173 226 278 334 396
#
# _framework density 20.464722999999999
#
# number of rings (size 3 to 8) (size 9 to 14) (size 15 to 20)
#    0.000    1.000    6.250    0.750    1.750    4.000 
#    0.000    3.125    5.500    0.000    0.000    0.000 
#    0.000    0.000    0.000    0.000    0.000    0.000 
#
# Total GULP energy -89251.763731 kJ/mol
# GULP energy per Si atom -5578.235233 kJ/mol
# Density = 2.041814 g / cm^3
# Si number density = 20.464723 Si / 1000 Ang^3
#
#
#
# Elastic Constant Matrix: (Units=GPa)
#
#
# Indices 1 2 3 4 5 6 
#
# 1 181.0091 40.7381 42.0571 -2.1328 12.9484 28.0165
# 2 40.7381 40.0305 25.6338 4.6531 -0.6761 3.8494
# 3 42.0571 25.6338 91.5067 7.5223 0.1801 0.2569
# 4 -2.1328 4.6531 7.5223 41.3091 2.8354 3.8583
# 5 12.9484 -0.6761 0.1801 2.8354 38.1603 2.2485
# 6 28.0165 3.8494 0.2569 3.8583 2.2485 28.6856
#
#
#
# Elastic Compliance Matrix: (Units=1/GPa)
#
#
# Indices 1 2 3 4 5 6 
#
# 1 0.009269 -0.007510 -0.002351 0.002720 -0.002989 -0.008156
# 2 -0.007510 0.037127 -0.006647 -0.003839 0.003366 0.002664
# 3 -0.002351 -0.006647 0.014048 -0.002281 0.000587 0.003323
# 4 0.002720 -0.003839 -0.002281 0.025878 -0.002585 -0.005399
# 5 -0.002989 0.003366 0.000587 -0.002585 0.027429 0.000660
# 6 -0.008156 0.002664 0.003323 -0.005399 0.000660 0.043113
#
#
# Mechanical properties :
#
#
# Convention : Reuss Voigt Hill
#
# Bulk Modulus (GPa) = 36.45982 58.82270 47.64126
# Shear Modulus (GPa) = 25.12262 35.23881 30.18072
#
# Velocity S-wave (km/s) = 3.50752 4.15412 3.84444
# Velocity P-wave (km/s) = 5.85305 7.19825 6.56022
#
# Compressibility (1/GPa) = 0.02742746
#
# Stress axis : x y z
#
# Youngs Moduli (GPa) = 107.88390 26.93462 71.18442
#
# Poissons Ratio (x) = 0.20227 0.16737
# Poissons Ratio (y) = 0.81018 0.47319
# Poissons Ratio (z) = 0.25367 0.17904
#
# Static dielectric constant tensor:
#      x y z
#    x 1.783810 0.001080 -0.078070 
#    y 0.001080 1.737250 -0.001290 
#    z -0.078070 -0.001290 1.892920 
# 
# From -- ./inp_files/612190.got.cif
#   From: 2010.05.17/outbox.cif.g08.bks.cpg/sg2_307_cif.got.tgz:612190.got - 2010.06.03 11:33:40.
