data_PCOD9011427
_publ_section_title
;
Structure prediction by ZEFSAII (Michael W. Deem and Ramdas Pophale) SiO2 
 PCOD9011427
Probable space group: P -1
;
_chemical_formula_sum "Si O2"
_cell_formula_units_Z 14
_cell_length_a 14.137803
_cell_length_b 8.848480
_cell_length_c 9.996063
_cell_angle_alpha 60.594272
_cell_angle_beta 81.653212
_cell_angle_gamma 40.024049
_cell_volume 638.367441
_symmetry_space_group_name_H-M "P -1"
_symmetry_group_IT_number 2
_symmetry_cell_setting 'triclinic'
loop_
_space_group_symop_operation_xyz
x,y,z
-x,-y,-z
loop_
_atom_site_type_symbol
_atom_site_label
_atom_site_fract_x
_atom_site_fract_y
_atom_site_fract_z
Si Si1 0.346440 0.621775 0.417974
Si Si2 0.491922 0.699533 0.981219
Si Si3 0.144355 0.248740 0.178333
Si Si4 0.683408 0.802365 0.035591
Si Si5 0.512450 0.167408 0.355440
Si Si6 0.770358 0.319050 0.306842
Si Si7 0.873374 0.781263 0.498157
O O1 0.500000 0.500000 0.500000
O O2 0.399675 0.451044 0.347381
O O3 0.282256 0.599298 0.563010
O O4 0.211086 0.959566 0.268263
O O5 0.536049 0.759030 0.821824
O O6 0.326695 0.017858 0.940015
O O7 0.500000 0.500000 0.000000
O O8 0.619053 0.502580 0.161105
O O9 0.105217 0.316884 0.312065
O O10 0.281968 0.177647 0.127489
O O11 0.000000 0.500000 0.000000
O O12 0.805589 0.468022 0.194931
O O13 0.500000 0.000000 0.000000
O O14 0.500000 0.000000 0.500000
O O15 0.692817 0.983910 0.406565
O O16 0.879200 0.985880 0.409864
O O17 0.000000 0.500000 0.500000
#
# Coordination Sequence:
#
# PCOD9011427 Si02
#       7
#     2   2   2   2   2   2   2
#     4  11  19  43  68  93 129 176 223 267 325 397
#     4  11  20  35  64 101 128 158 211 271 327 378
#     4  11  25  43  69  95 133 178 218 266 336 398
#     4  10  22  38  69  99 127 165 227 270 315 394
#     4  12  25  39  68 102 128 164 225 282 325 382
#     4  10  21  40  66  90 128 172 214 268 325 386
#     4  11  26  46  62  90 139 178 211 271 345 388
#
# _framework density 21.930942999999999
#
# number of rings (size 3 to 8) (size 9 to 14) (size 15 to 20)
#    0.000    1.143    4.286    3.429    6.000    1.143 
#    2.571    2.143    0.000    0.000    0.000    0.000 
#    0.000    0.000    0.000    0.000    0.000    0.000 
#
# Total GULP energy -78170.887459 kJ/mol
# GULP energy per Si atom -5583.634818 kJ/mol
# Density = 2.188103 g / cm^3
# Si number density = 21.930943 Si / 1000 Ang^3
#
#
#
# Elastic Constant Matrix: (Units=GPa)
#
#
# Indices 1 2 3 4 5 6 
#
# 1 44.3252 32.1622 23.0067 -2.3058 -12.8296 10.6021
# 2 32.1622 190.0456 75.0482 15.7087 -14.5268 19.2999
# 3 23.0067 75.0482 166.8775 9.1448 -24.9829 1.9613
# 4 -2.3058 15.7087 9.1448 36.8990 -4.0199 -1.7037
# 5 -12.8296 -14.5268 -24.9829 -4.0199 41.6744 -5.1524
# 6 10.6021 19.2999 1.9613 -1.7037 -5.1524 24.9167
#
#
#
# Elastic Compliance Matrix: (Units=1/GPa)
#
#
# Indices 1 2 3 4 5 6 
#
# 1 0.029992 -0.003360 -0.001799 0.004051 0.006332 -0.008431
# 2 -0.003360 0.007623 -0.002889 -0.003061 -0.000981 -0.004659
# 3 -0.001799 -0.002889 0.008065 -0.000344 0.003623 0.003094
# 4 0.004051 -0.003061 -0.000344 0.029246 0.003208 0.003337
# 5 0.006332 -0.000981 0.003623 0.003208 0.028567 0.003907
# 6 -0.008431 -0.004659 0.003094 0.003337 0.003907 0.048123
#
#
# Mechanical properties :
#
#
# Convention : Reuss Voigt Hill
#
# Bulk Modulus (GPa) = 33.80234 73.52030 53.66132
# Shear Modulus (GPa) = 28.15744 38.76676 33.46210
#
# Velocity S-wave (km/s) = 3.58706 4.20893 3.91038
# Velocity P-wave (km/s) = 5.70987 7.56416 6.70146
#
# Compressibility (1/GPa) = 0.02958375
#
# Stress axis : x y z
#
# Youngs Moduli (GPa) = 33.34179 131.18777 123.99905
#
# Poissons Ratio (x) = 0.44079 0.22305
# Poissons Ratio (y) = 0.11203 0.35825
# Poissons Ratio (z) = 0.05998 0.37902
#
# Static dielectric constant tensor:
#      x y z
#    x 1.896590 -0.060550 -0.006740 
#    y -0.060550 1.810510 0.001120 
#    z -0.006740 0.001120 1.811300 
# 
# From -- ./inp_files/209578.got.cif
#   From: 2010.05.17/outbox.cif.g08.bks.cpg/sg2_105_cif.got.tgz:209578.got - 2010.06.03 11:33:40.
