data_PCOD9011469
_publ_section_title
;
Structure prediction by ZEFSAII (Michael W. Deem and Ramdas Pophale) SiO2 
 PCOD9011469
Probable space group: P -1
;
_chemical_formula_sum "Si O2"
_cell_formula_units_Z 16
_cell_length_a 5.402692
_cell_length_b 19.611282
_cell_length_c 16.405514
_cell_angle_alpha 158.209123
_cell_angle_beta 81.243778
_cell_angle_gamma 100.853675
_cell_volume 632.500539
_symmetry_space_group_name_H-M "P -1"
_symmetry_group_IT_number 2
_symmetry_cell_setting 'triclinic'
loop_
_space_group_symop_operation_xyz
x,y,z
-x,-y,-z
loop_
_atom_site_type_symbol
_atom_site_label
_atom_site_fract_x
_atom_site_fract_y
_atom_site_fract_z
Si Si1 0.103268 0.876013 0.233837
Si Si2 0.271627 0.854321 0.629074
Si Si3 0.690853 0.198754 0.022480
Si Si4 0.249755 0.631375 0.231730
Si Si5 0.345612 0.157172 0.652628
Si Si6 0.570469 0.602733 0.434859
Si Si7 0.294889 0.521409 0.875599
Si Si8 0.151144 0.034338 0.113477
O O1 0.084343 0.818737 0.075559
O O2 0.863552 0.822147 0.245655
O O3 0.207447 0.081372 0.490435
O O4 0.303167 0.736872 0.094891
O O5 0.230478 0.809299 0.486533
O O6 0.330814 0.678590 0.487108
O O7 0.042889 0.929132 0.766481
O O8 0.500929 0.018781 0.805655
O O9 0.576770 0.395003 0.239224
O O10 0.741912 0.146161 0.055520
O O11 0.427366 0.684921 0.205639
O O12 0.437605 0.524865 0.158292
O O13 0.965095 0.540032 0.131423
O O14 0.500000 0.000000 0.500000
O O15 0.748243 0.589086 0.331046
O O16 0.662985 0.771585 0.678811
O O17 0.000000 0.000000 0.000000
#
# Coordination Sequence:
#
# PCOD9011469 Si02
#       8
#     2   2   2   2   2   2   2   2
#     4  10  24  43  60  94 132 173 225 275 337 400
#     4  10  21  40  66  92 127 175 220 275 336 410
#     4  10  22  42  68  92 130 180 222 273 340 409
#     4  11  23  42  68  92 130 178 224 280 339 394
#     4  11  26  38  62  94 135 173 221 283 330 405
#     4   9  21  41  63  97 132 170 226 273 332 409
#     4  10  23  42  68  94 128 180 231 276 333 402
#     4  11  24  41  66  99 132 170 219 282 344 409
#
# _framework density 25.296420999999999
#
# number of rings (size 3 to 8) (size 9 to 14) (size 15 to 20)
#    0.000    1.750    2.500    0.000    7.000    4.500 
#    4.500    1.250    0.000    0.000    0.000    0.000 
#    0.000    0.000    0.000    0.000    0.000    0.000 
#
# Total GULP energy -89272.508358 kJ/mol
# GULP energy per Si atom -5579.531772 kJ/mol
# Density = 2.523885 g / cm^3
# Si number density = 25.296421 Si / 1000 Ang^3
#
#
#
# Elastic Constant Matrix: (Units=GPa)
#
#
# Indices 1 2 3 4 5 6 
#
# 1 72.3310 6.1396 16.6443 8.6657 -0.0592 1.3771
# 2 6.1396 71.9281 41.4244 11.4097 -2.8846 -25.8128
# 3 16.6443 41.4244 85.1594 19.3434 -9.3749 -20.1777
# 4 8.6657 11.4097 19.3434 39.0950 -13.0658 -3.4497
# 5 -0.0592 -2.8846 -9.3749 -13.0658 46.0157 0.2305
# 6 1.3771 -25.8128 -20.1777 -3.4497 0.2305 43.4780
#
#
#
# Elastic Compliance Matrix: (Units=1/GPa)
#
#
# Indices 1 2 3 4 5 6 
#
# 1 0.014837 0.000077 -0.003000 -0.002427 -0.001266 -0.002002
# 2 0.000077 0.022260 -0.008334 -0.001872 -0.000880 0.009201
# 3 -0.003000 -0.008334 0.018547 -0.005197 0.001760 0.003333
# 4 -0.002427 -0.001872 -0.005197 0.031772 0.007847 -0.000967
# 5 -0.001266 -0.000880 0.001760 0.007847 0.024257 0.000828
# 6 -0.002002 0.009201 0.003333 -0.000967 0.000828 0.029992
#
#
# Mechanical properties :
#
#
# Convention : Reuss Voigt Hill
#
# Bulk Modulus (GPa) = 30.18513 39.75944 34.97229
# Shear Modulus (GPa) = 28.53512 36.73177 32.63344
#
# Velocity S-wave (km/s) = 3.36226 3.81472 3.59561
# Velocity P-wave (km/s) = 5.19918 5.92911 5.57610
#
# Compressibility (1/GPa) = 0.03312889
#
# Stress axis : x y z
#
# Youngs Moduli (GPa) = 67.39931 44.92379 53.91699
#
# Poissons Ratio (x) = -0.00345 0.16174
# Poissons Ratio (y) = -0.00517 0.44937
# Poissons Ratio (z) = 0.20219 0.37442
#
# Static dielectric constant tensor:
#      x y z
#    x 2.076730 -0.041440 0.075220 
#    y -0.041440 2.076890 0.021100 
#    z 0.075220 0.021100 2.106490 
# 
# From -- ./inp_files/50708.got.cif
#   From: 2010.05.17/outbox.cif.g08.bks.cpg/sg2_26_cif.got.tgz:50708.got - 2010.06.03 11:33:40.
