data_PCOD9011437
_publ_section_title
;
Structure prediction by ZEFSAII (Michael W. Deem and Ramdas Pophale) SiO2 
 PCOD9011437
Probable space group: P -1
;
_chemical_formula_sum "Si O2"
_cell_formula_units_Z 12
_cell_length_a 4.906192
_cell_length_b 13.835285
_cell_length_c 13.691883
_cell_angle_alpha 30.162349
_cell_angle_beta 103.986539
_cell_angle_gamma 108.871961
_cell_volume 440.457697
_symmetry_space_group_name_H-M "P -1"
_symmetry_group_IT_number 2
_symmetry_cell_setting 'triclinic'
loop_
_space_group_symop_operation_xyz
x,y,z
-x,-y,-z
loop_
_atom_site_type_symbol
_atom_site_label
_atom_site_fract_x
_atom_site_fract_y
_atom_site_fract_z
Si Si1 0.606516 0.779357 0.314593
Si Si2 0.827534 0.173729 0.216928
Si Si3 0.616244 0.597452 0.028248
Si Si4 0.124001 0.852637 0.068265
Si Si5 0.897751 0.408346 0.423323
Si Si6 0.134335 0.273532 0.363500
O O1 0.402455 0.793326 0.192157
O O2 0.388663 0.705093 0.448081
O O3 0.835482 0.643211 0.445166
O O4 0.781910 0.007208 0.139129
O O5 0.514440 0.210360 0.139163
O O6 0.046869 0.314474 0.038850
O O7 0.942444 0.252499 0.266726
O O8 0.824508 0.944609 0.420904
O O9 0.500000 0.500000 0.000000
O O10 0.434721 0.434040 0.229444
O O11 0.911781 0.641724 0.217126
O O12 0.000000 0.000000 0.000000
O O13 0.968957 0.334561 0.388120
#
# Coordination Sequence:
#
# PCOD9011437 Si02
#       6
#     2   2   2   2   2   2
#     4  11  26  45  69 100 130 172 215 267 331 394
#     4  10  23  41  67  90 128 177 220 261 311 385
#     4  10  21  40  66  91 122 175 222 261 313 380
#     4  11  25  46  75  94 129 177 218 260 329 401
#     4  12  27  41  68 102 136 166 216 277 323 386
#     4  10  24  42  64  97 131 171 216 265 325 371
#
# _framework density 27.244385999999999
#
# number of rings (size 3 to 8) (size 9 to 14) (size 15 to 20)
#    0.000    1.333    1.667    3.000    4.667   15.333 
#    0.000    0.000    3.667    0.000    0.000    0.000 
#    0.000    0.000    0.000    0.000    0.000    0.000 
#
# Total GULP energy -67322.339584 kJ/mol
# GULP energy per Si atom -5610.194965 kJ/mol
# Density = 2.718238 g / cm^3
# Si number density = 27.244386 Si / 1000 Ang^3
#
#
#
# Elastic Constant Matrix: (Units=GPa)
#
#
# Indices 1 2 3 4 5 6 
#
# 1 158.3327 30.7398 70.1582 -16.9793 -15.7123 -17.1050
# 2 30.7398 99.4639 51.2052 -33.7033 -19.2803 -9.4100
# 3 70.1582 51.2052 228.7325 -31.5169 -30.3202 -23.0542
# 4 -16.9793 -33.7033 -31.5169 54.5993 -2.0919 3.2976
# 5 -15.7123 -19.2803 -30.3202 -2.0919 66.8306 4.5564
# 6 -17.1050 -9.4100 -23.0542 3.2976 4.5564 37.5727
#
#
#
# Elastic Compliance Matrix: (Units=1/GPa)
#
#
# Indices 1 2 3 4 5 6 
#
# 1 0.007624 -0.000904 -0.001752 0.000703 0.000620 0.002033
# 2 -0.000904 0.014510 -0.001264 0.008004 0.003561 0.001313
# 3 -0.001752 -0.001264 0.005930 0.002040 0.001833 0.002123
# 4 0.000703 0.008004 0.002040 0.024755 0.004113 0.000905
# 5 0.000620 0.003561 0.001833 0.004113 0.017106 -0.000136
# 6 0.002033 0.001313 0.002123 0.000905 -0.000136 0.029109
#
#
# Mechanical properties :
#
#
# Convention : Reuss Voigt Hill
#
# Bulk Modulus (GPa) = 49.44317 87.85950 68.65133
# Shear Modulus (GPa) = 44.00763 54.09558 49.05160
#
# Velocity S-wave (km/s) = 4.02343 4.46081 4.24775
# Velocity P-wave (km/s) = 6.30646 7.67140 7.02217
#
# Compressibility (1/GPa) = 0.02022524
#
# Stress axis : x y z
#
# Youngs Moduli (GPa) = 131.16132 68.91604 168.62076
#
# Poissons Ratio (x) = 0.06227 0.29549
# Poissons Ratio (y) = 0.11851 0.21314
# Poissons Ratio (z) = 0.22984 0.08711
#
# Static dielectric constant tensor:
#      x y z
#    x 2.071910 0.047860 0.033160 
#    y 0.047860 2.268040 0.105230 
#    z 0.033160 0.105230 2.148400 
# 
# From -- ./inp_files/483793.got.cif
#   From: 2010.05.17/outbox.cif.g08.bks.cpg/sg2_242_cif.got.tgz:483793.got - 2010.06.03 11:33:40.
