data_PCOD9011899
_publ_section_title
;
Structure prediction by ZEFSAII (Michael W. Deem and Ramdas Pophale) SiO2 
 PCOD9011899
Probable space group: P -1
;
_chemical_formula_sum "Si O2"
_cell_formula_units_Z 14
_cell_length_a 5.415692
_cell_length_b 14.130779
_cell_length_c 7.878055
_cell_angle_alpha 91.165600
_cell_angle_beta 78.228935
_cell_angle_gamma 72.466929
_cell_volume 560.628641
_symmetry_space_group_name_H-M "P -1"
_symmetry_group_IT_number 2
_symmetry_cell_setting 'triclinic'
loop_
_space_group_symop_operation_xyz
x,y,z
-x,-y,-z
loop_
_atom_site_type_symbol
_atom_site_label
_atom_site_fract_x
_atom_site_fract_y
_atom_site_fract_z
Si Si1 0.964865 0.328052 0.683177
Si Si2 0.232380 0.477162 0.103503
Si Si3 0.464937 0.165195 0.603905
Si Si4 0.308702 0.945034 0.938835
Si Si5 0.869565 0.239361 0.342501
Si Si6 0.627062 0.279358 0.026058
Si Si7 0.700088 0.951529 0.638163
O O1 0.890653 0.446358 0.724757
O O2 0.955309 0.300007 0.484963
O O3 0.246116 0.259864 0.721039
O O4 0.750853 0.299516 0.831808
O O5 0.345572 0.359521 0.111155
O O6 0.500000 0.500000 0.000000
O O7 0.000000 0.500000 0.000000
O O8 0.611700 0.218795 0.457807
O O9 0.276541 0.105483 0.545876
O O10 0.686267 0.067001 0.648554
O O11 0.380511 0.832262 0.983144
O O12 0.413940 0.945520 0.734849
O O13 0.500000 0.000000 0.000000
O O14 0.000000 0.000000 0.000000
O O15 0.805271 0.285439 0.166638
O O16 0.081902 0.129443 0.287418
#
# Coordination Sequence:
#
# PCOD9011899 Si02
#       7
#     2   2   2   2   2   2   2
#     4  10  25  45  73 106 141 195 250 296 368 437
#     4  10  25  48  76 107 143 190 243 302 369 431
#     4  10  21  40  67  97 147 189 239 303 353 429
#     4  12  26  41  67 107 145 187 243 289 353 435
#     4  11  23  44  71 105 147 191 245 296 368 432
#     4  11  25  49  74 103 151 188 240 312 362 429
#     4  10  22  39  63  97 147 195 236 292 367 422
#
# _framework density 24.971964
#
# number of rings (size 3 to 8) (size 9 to 14) (size 15 to 20)
#    0.000    1.429    1.429    2.143    6.000    5.143 
#    0.000    0.714    0.000    0.000    0.000    0.000 
#    0.000    0.000    0.000    0.000    0.000    0.000 
#
# Total GULP energy -78143.587746 kJ/mol
# GULP energy per Si atom -5581.684839 kJ/mol
# Density = 2.491513 g / cm^3
# Si number density = 24.971964 Si / 1000 Ang^3
#
#
#
# Elastic Constant Matrix: (Units=GPa)
#
#
# Indices 1 2 3 4 5 6 
#
# 1 121.0820 46.4309 26.6876 17.7569 2.9520 -19.6386
# 2 46.4309 145.8074 27.7579 41.9263 2.6554 -34.5598
# 3 26.6876 27.7579 82.9195 25.4261 14.5925 -6.4100
# 4 17.7569 41.9263 25.4261 47.6493 -2.1598 -4.2974
# 5 2.9520 2.6554 14.5925 -2.1598 45.0385 -0.5352
# 6 -19.6386 -34.5598 -6.4100 -4.2974 -0.5352 46.8080
#
#
#
# Elastic Compliance Matrix: (Units=1/GPa)
#
#
# Indices 1 2 3 4 5 6 
#
# 1 0.009986 -0.002068 -0.002224 -0.000497 0.000192 0.002314
# 2 -0.002068 0.011777 0.000240 -0.009132 -0.000991 0.007011
# 3 -0.002224 0.000240 0.016244 -0.008242 -0.005519 0.000649
# 4 -0.000497 -0.009132 -0.008242 0.033375 0.004783 -0.004961
# 5 0.000192 -0.000991 -0.005519 0.004783 0.024258 -0.000691
# 6 0.002314 0.007011 0.000649 -0.004961 -0.000691 0.027137
#
#
# Mechanical properties :
#
#
# Convention : Reuss Voigt Hill
#
# Bulk Modulus (GPa) = 33.44233 61.28464 47.36348
# Shear Modulus (GPa) = 35.49902 44.49464 39.99683
#
# Velocity S-wave (km/s) = 3.77444 4.22570 4.00643
# Velocity P-wave (km/s) = 5.69353 6.95725 6.35687
#
# Compressibility (1/GPa) = 0.02990222
#
# Stress axis : x y z
#
# Youngs Moduli (GPa) = 100.14177 84.91051 61.56119
#
# Poissons Ratio (x) = 0.17564 0.13690
# Poissons Ratio (y) = 0.20714 -0.01477
# Poissons Ratio (z) = 0.22270 -0.02038
#
# Static dielectric constant tensor:
#      x y z
#    x 2.070600 0.046100 0.118590 
#    y 0.046100 2.111170 0.049310 
#    z 0.118590 0.049310 2.291550 
# 
# From -- ./inp_files/134357.got.cif
#   From: 2010.05.17/outbox.cif.g08.bks.cpg/sg2_68_cif.got.tgz:134357.got - 2010.06.03 11:33:40.
