data_PCOD9011215
_publ_section_title
;
Structure prediction by ZEFSAII (Michael W. Deem and Ramdas Pophale) SiO2 
 PCOD9011215
Probable space group: P -1
;
_chemical_formula_sum "Si O2"
_cell_formula_units_Z 16
_cell_length_a 9.381331
_cell_length_b 5.911796
_cell_length_c 17.667868
_cell_angle_alpha 104.740807
_cell_angle_beta 134.080824
_cell_angle_gamma 72.813721
_cell_volume 670.759737
_symmetry_space_group_name_H-M "P -1"
_symmetry_group_IT_number 2
_symmetry_cell_setting 'triclinic'
loop_
_space_group_symop_operation_xyz
x,y,z
-x,-y,-z
loop_
_atom_site_type_symbol
_atom_site_label
_atom_site_fract_x
_atom_site_fract_y
_atom_site_fract_z
Si Si1 0.483822 0.179027 0.787290
Si Si2 0.231127 0.934408 0.771730
Si Si3 0.421949 0.422630 0.044794
Si Si4 0.163205 0.993484 0.268447
Si Si5 0.011755 0.647087 0.092705
Si Si6 0.582126 0.691716 0.399471
Si Si7 0.988172 0.782910 0.538431
Si Si8 0.363536 0.308866 0.279537
O O1 0.611165 0.349048 0.891967
O O2 0.418682 0.286713 0.690860
O O3 0.307517 0.156693 0.779766
O O4 0.576651 0.910125 0.775060
O O5 0.409885 0.778062 0.871977
O O6 0.162211 0.792969 0.663488
O O7 0.028886 0.997125 0.750188
O O8 0.500000 0.500000 0.000000
O O9 0.209982 0.333441 0.951809
O O10 0.366353 0.829655 0.358391
O O11 0.083782 0.901136 0.150072
O O12 0.247661 0.230806 0.302184
O O13 0.193097 0.492320 0.191790
O O14 0.000000 0.500000 0.000000
O O15 0.767848 0.818058 0.500402
O O16 0.559873 0.420314 0.384288
O O17 0.000000 0.500000 0.500000
O O18 0.000000 0.000000 0.500000
#
# Coordination Sequence:
#
# PCOD9011215 Si02
#       8
#     2   2   2   2   2   2   2   2
#     4  11  21  40  68  92 134 179 236 293 356 421
#     4  12  26  44  68 102 141 187 240 299 367 433
#     4  12  26  40  61  98 142 184 235 293 355 434
#     4  10  24  42  65  96 142 183 229 293 363 435
#     4  11  22  39  61  95 133 180 241 285 351 424
#     4  10  22  44  70 103 135 177 235 297 358 434
#     4  12  26  48  80 115 144 189 248 310 373 443
#     4  10  21  40  65  94 132 182 229 293 352 432
#
# _framework density 23.853546000000001
#
# number of rings (size 3 to 8) (size 9 to 14) (size 15 to 20)
#    0.000    1.000    1.250    6.750    1.750    7.500 
#    0.000    0.625    0.000    0.000    0.000    0.000 
#    0.000    0.000    0.000    0.000    0.000    0.000 
#
# Total GULP energy -89278.504139 kJ/mol
# GULP energy per Si atom -5579.906509 kJ/mol
# Density = 2.379925 g / cm^3
# Si number density = 23.853546 Si / 1000 Ang^3
#
#
#
# Elastic Constant Matrix: (Units=GPa)
#
#
# Indices 1 2 3 4 5 6 
#
# 1 149.7667 33.4334 2.2505 -0.5973 30.5055 14.9030
# 2 33.4334 73.2242 14.8929 8.2724 15.7893 15.7330
# 3 2.2505 14.8929 53.4964 10.0233 22.9832 -5.4250
# 4 -0.5973 8.2724 10.0233 30.7257 10.2360 12.9724
# 5 30.5055 15.7893 22.9832 10.2360 43.9206 5.9098
# 6 14.9030 15.7330 -5.4250 12.9724 5.9098 26.7724
#
#
#
# Elastic Compliance Matrix: (Units=1/GPa)
#
#
# Indices 1 2 3 4 5 6 
#
# 1 0.009025 -0.002848 0.002350 0.003839 -0.006938 -0.003203
# 2 -0.002848 0.018592 -0.006527 0.002035 -0.000203 -0.011604
# 3 0.002350 -0.006527 0.030609 -0.010337 -0.015194 0.017092
# 4 0.003839 0.002035 -0.010337 0.049155 -0.005678 -0.027992
# 5 -0.006938 -0.000203 -0.015194 -0.005678 0.037558 -0.004637
# 6 -0.003203 -0.011604 0.017092 -0.027992 -0.004637 0.064004
#
#
# Mechanical properties :
#
#
# Convention : Reuss Voigt Hill
#
# Bulk Modulus (GPa) = 22.63744 41.96010 32.29877
# Shear Modulus (GPa) = 21.03346 35.34443 28.18894
#
# Velocity S-wave (km/s) = 2.97269 3.85350 3.44139
# Velocity P-wave (km/s) = 4.61447 6.11785 5.41855
#
# Compressibility (1/GPa) = 0.04417461
#
# Stress axis : x y z
#
# Youngs Moduli (GPa) = 110.80757 53.78756 32.67062
#
# Poissons Ratio (x) = 0.15319 -0.07677
# Poissons Ratio (y) = 0.31559 0.21323
# Poissons Ratio (z) = -0.26037 0.35106
#
# Static dielectric constant tensor:
#      x y z
#    x 2.019950 -0.036400 0.029870 
#    y -0.036400 2.041360 0.066650 
#    z 0.029870 0.066650 1.965940 
# 
# From -- ./inp_files/78035.got.cif
#   From: 2010.05.17/outbox.cif.g08.bks.cpg/sg2_40_cif.got.tgz:78035.got - 2010.06.03 11:33:40.
