data_PCOD9011561
_publ_section_title
;
Structure prediction by ZEFSAII (Michael W. Deem and Ramdas Pophale) SiO2 
 PCOD9011561
Probable space group: P -1
;
_chemical_formula_sum "Si O2"
_cell_formula_units_Z 12
_cell_length_a 19.041997
_cell_length_b 9.819658
_cell_length_c 7.974883
_cell_angle_alpha 49.131918
_cell_angle_beta 146.625969
_cell_angle_gamma 141.528477
_cell_volume 510.333666
_symmetry_space_group_name_H-M "P -1"
_symmetry_group_IT_number 2
_symmetry_cell_setting 'triclinic'
loop_
_space_group_symop_operation_xyz
x,y,z
-x,-y,-z
loop_
_atom_site_type_symbol
_atom_site_label
_atom_site_fract_x
_atom_site_fract_y
_atom_site_fract_z
Si Si1 0.644747 0.487034 0.768189
Si Si2 0.228640 0.354507 0.730006
Si Si3 0.401274 0.030222 0.645106
Si Si4 0.134672 0.897297 0.794644
Si Si5 0.343182 0.768225 0.430959
Si Si6 0.163779 0.084137 0.336116
O O1 0.500000 0.500000 0.500000
O O2 0.550129 0.250399 0.685482
O O3 0.754328 0.657430 0.710702
O O4 0.727141 0.550172 0.066059
O O5 0.333885 0.550807 0.647114
O O6 0.048474 0.253532 0.408770
O O7 0.226076 0.131399 0.891105
O O8 0.274170 0.051449 0.465405
O O9 0.314250 0.834088 0.503549
O O10 0.500000 0.000000 0.000000
O O11 0.148873 0.978693 0.568055
O O12 0.207439 0.757283 0.065048
O O13 0.500000 0.000000 0.500000
O O14 0.000000 0.000000 0.000000
#
# Coordination Sequence:
#
# PCOD9011561 Si02
#       6
#     2   2   2   2   2   2
#     4  10  21  40  66  95 132 177 225 276 338 404
#     4  11  24  46  69  98 140 180 222 286 345 402
#     4  11  23  44  68  97 140 174 228 289 336 406
#     4  11  25  44  69  99 140 178 226 280 348 412
#     4  12  27  45  69 102 137 180 232 282 345 410
#     4  11  23  43  70 100 132 181 233 276 344 413
#
# _framework density 23.514026999999999
#
# number of rings (size 3 to 8) (size 9 to 14) (size 15 to 20)
#    0.000    1.000    3.333    3.500    7.000    0.667 
#    0.000    1.667    0.000    0.000    0.000    0.000 
#    0.000    0.000    0.000    0.000    0.000    0.000 
#
# Total GULP energy -66845.851614 kJ/mol
# GULP energy per Si atom -5570.487634 kJ/mol
# Density = 2.346051 g / cm^3
# Si number density = 23.514027 Si / 1000 Ang^3
#
#
#
# Elastic Constant Matrix: (Units=GPa)
#
#
# Indices 1 2 3 4 5 6 
#
# 1 55.7742 5.4440 9.2612 7.6777 -11.2353 -7.1450
# 2 5.4440 105.7644 13.8361 -1.2676 -3.8721 17.1534
# 3 9.2612 13.8361 106.6575 0.1439 -3.7076 5.0190
# 4 7.6777 -1.2676 0.1439 33.7729 5.4702 -5.3614
# 5 -11.2353 -3.8721 -3.7076 5.4702 45.4853 3.4306
# 6 -7.1450 17.1534 5.0190 -5.3614 3.4306 41.6132
#
#
#
# Elastic Compliance Matrix: (Units=1/GPa)
#
#
# Indices 1 2 3 4 5 6 
#
# 1 0.020449 -0.001224 -0.001577 -0.005031 0.005187 0.003130
# 2 -0.001224 0.010404 -0.001003 -0.000176 0.000860 -0.004471
# 3 -0.001577 -0.001003 0.009706 0.000049 0.000390 -0.001054
# 4 -0.005031 -0.000176 0.000049 0.032227 -0.005416 0.003801
# 5 0.005187 0.000860 0.000390 -0.005416 0.024189 -0.002203
# 6 0.003130 -0.004471 -0.001054 0.003801 -0.002203 0.027210
#
#
# Mechanical properties :
#
#
# Convention : Reuss Voigt Hill
#
# Bulk Modulus (GPa) = 30.34829 36.14205 33.24517
# Shear Modulus (GPa) = 35.01967 40.15127 37.58547
#
# Velocity S-wave (km/s) = 3.86334 4.13673 4.00237
# Velocity P-wave (km/s) = 5.73019 6.18227 5.96052
#
# Compressibility (1/GPa) = 0.03295079
#
# Stress axis : x y z
#
# Youngs Moduli (GPa) = 48.90128 96.11923 103.03014
#
# Poissons Ratio (x) = 0.11768 0.16248
# Poissons Ratio (y) = 0.05987 0.10332
# Poissons Ratio (z) = 0.07712 0.09639
#
# Static dielectric constant tensor:
#      x y z
#    x 1.990600 -0.200510 -0.017870 
#    y -0.200510 1.884390 -0.093520 
#    z -0.017870 -0.093520 1.866330 
# 
# From -- ./inp_files/298159.got.cif
#   From: 2010.05.17/outbox.cif.g08.bks.cpg/sg2_150_cif.got.tgz:298159.got - 2010.06.03 11:33:40.
