data_PCOD9011311
_publ_section_title
;
Structure prediction by ZEFSAII (Michael W. Deem and Ramdas Pophale) SiO2 
 PCOD9011311
Probable space group: P -1
;
_chemical_formula_sum "Si O2"
_cell_formula_units_Z 14
_cell_length_a 6.512716
_cell_length_b 14.232101
_cell_length_c 11.666138
_cell_angle_alpha 49.317705
_cell_angle_beta 53.651644
_cell_angle_gamma 62.880286
_cell_volume 656.171207
_symmetry_space_group_name_H-M "P -1"
_symmetry_group_IT_number 2
_symmetry_cell_setting 'triclinic'
loop_
_space_group_symop_operation_xyz
x,y,z
-x,-y,-z
loop_
_atom_site_type_symbol
_atom_site_label
_atom_site_fract_x
_atom_site_fract_y
_atom_site_fract_z
Si Si1 0.396438 0.284651 0.242702
Si Si2 0.622427 0.513476 0.571041
Si Si3 0.022406 0.788935 0.887818
Si Si4 0.095771 0.304926 0.551988
Si Si5 0.752738 0.586326 0.054895
Si Si6 0.150057 0.020611 0.817144
Si Si7 0.739006 0.941888 0.659017
O O1 0.692617 0.272094 0.193261
O O2 0.205197 0.335773 0.365763
O O3 0.325891 0.144590 0.356089
O O4 0.365241 0.350839 0.075265
O O5 0.500000 0.500000 0.500000
O O6 0.707401 0.650591 0.454726
O O7 0.444875 0.489685 0.755606
O O8 0.847933 0.399264 0.587515
O O9 0.840218 0.855904 0.798603
O O10 0.082161 0.900371 0.862922
O O11 0.856601 0.673821 0.051874
O O12 0.059675 0.159388 0.689337
O O13 0.000000 0.500000 0.000000
O O14 0.462399 0.015228 0.723966
O O15 0.000000 0.000000 0.000000
O O16 0.000000 0.000000 0.500000
#
# Coordination Sequence:
#
# PCOD9011311 Si02
#       7
#     2   2   2   2   2   2   2
#     4  10  22  42  67  98 132 174 227 281 341 399
#     4  11  27  44  66  98 134 178 226 281 338 411
#     4  10  23  40  66  97 133 173 226 279 330 405
#     4  11  25  44  67  96 138 177 224 281 345 400
#     4  11  24  42  70  99 132 177 231 280 340 406
#     4  11  26  42  67 100 141 185 225 281 351 405
#     4  10  21  40  65  97 132 174 230 274 331 408
#
# _framework density 21.335894
#
# number of rings (size 3 to 8) (size 9 to 14) (size 15 to 20)
#    0.000    1.429    0.000    3.429    8.000   10.857 
#    0.000    0.000    0.000    0.000    0.000    0.000 
#    0.000    0.000    0.000    0.000    0.000    0.000 
#
# Total GULP energy -77979.853068 kJ/mol
# GULP energy per Si atom -5569.989505 kJ/mol
# Density = 2.128733 g / cm^3
# Si number density = 21.335894 Si / 1000 Ang^3
#
#
#
# Elastic Constant Matrix: (Units=GPa)
#
#
# Indices 1 2 3 4 5 6 
#
# 1 70.6455 25.9676 13.3076 0.8882 -9.5801 8.5017
# 2 25.9676 90.2084 35.2529 10.3549 -5.5783 -0.8186
# 3 13.3076 35.2529 74.2972 9.3469 1.9571 10.5694
# 4 0.8882 10.3549 9.3469 35.5308 6.0381 -3.7087
# 5 -9.5801 -5.5783 1.9571 6.0381 28.5979 -1.6424
# 6 8.5017 -0.8186 10.5694 -3.7087 -1.6424 35.4483
#
#
#
# Elastic Compliance Matrix: (Units=1/GPa)
#
#
# Indices 1 2 3 4 5 6 
#
# 1 0.016969 -0.004411 -0.000500 -0.000202 0.004681 -0.003827
# 2 -0.004411 0.015518 -0.006764 -0.002764 0.002784 0.003273
# 3 -0.000500 -0.006764 0.018024 -0.002953 -0.002432 -0.005832
# 4 -0.000202 -0.002764 -0.002953 0.031285 -0.006791 0.003824
# 5 0.004681 0.002784 -0.002432 -0.006791 0.038722 0.000750
# 6 -0.003827 0.003273 -0.005832 0.003824 0.000750 0.031377
#
#
# Mechanical properties :
#
#
# Convention : Reuss Voigt Hill
#
# Bulk Modulus (GPa) = 36.81902 42.68971 39.75436
# Shear Modulus (GPa) = 27.12999 30.62359 28.87679
#
# Velocity S-wave (km/s) = 3.56977 3.79266 3.68290
# Velocity P-wave (km/s) = 5.85537 6.26345 6.06284
#
# Compressibility (1/GPa) = 0.02715988
#
# Stress axis : x y z
#
# Youngs Moduli (GPa) = 58.93198 64.44212 55.48287
#
# Poissons Ratio (x) = 0.28429 0.02772
# Poissons Ratio (y) = 0.25998 0.37529
# Poissons Ratio (z) = 0.02944 0.43589
#
# Static dielectric constant tensor:
#      x y z
#    x 1.796790 0.063280 -0.113700 
#    y 0.063280 1.871250 -0.044380 
#    z -0.113700 -0.044380 1.652090 
# 
# From -- ./inp_files/26978.got.cif
#   From: 2010.05.17/outbox.cif.g08.bks.cpg/sg2_14_cif.got.tgz:26978.got - 2010.06.03 11:33:40.
