data_PCOD9011027
_publ_section_title
;
Structure prediction by ZEFSAII (Michael W. Deem and Ramdas Pophale) SiO2 
 PCOD9011027
Probable space group: P -1
;
_chemical_formula_sum "Si O2"
_cell_formula_units_Z 12
_cell_length_a 6.878330
_cell_length_b 13.829619
_cell_length_c 7.157749
_cell_angle_alpha 127.935505
_cell_angle_beta 66.705853
_cell_angle_gamma 129.787004
_cell_volume 412.652476
_symmetry_space_group_name_H-M "P -1"
_symmetry_group_IT_number 2
_symmetry_cell_setting 'triclinic'
loop_
_space_group_symop_operation_xyz
x,y,z
-x,-y,-z
loop_
_atom_site_type_symbol
_atom_site_label
_atom_site_fract_x
_atom_site_fract_y
_atom_site_fract_z
Si Si1 0.880934 0.053820 0.753786
Si Si2 0.737226 0.410958 0.799446
Si Si3 0.070172 0.838541 0.755199
Si Si4 0.454753 0.845127 0.159006
Si Si5 0.262138 0.438941 0.659515
Si Si6 0.590789 0.260423 0.329100
O O1 0.782964 0.144287 0.795034
O O2 0.632107 0.905198 0.739595
O O3 0.030355 0.124308 0.975513
O O4 0.000000 0.000000 0.500000
O O5 0.596323 0.245266 0.741403
O O6 0.618762 0.381977 0.604036
O O7 0.032327 0.466130 0.736148
O O8 0.697822 0.508391 0.076353
O O9 0.170265 0.747902 0.713864
O O10 0.882657 0.735362 0.542642
O O11 0.302995 0.989065 0.756247
O O12 0.447683 0.739592 0.875730
O O13 0.500000 0.500000 0.500000
#
# Coordination Sequence:
#
# PCOD9011027 Si02
#       6
#     2   2   2   2   2   2
#     4   9  17  30  55  88 121 148 185 248 305 337
#     4  10  21  40  65  85 115 166 192 237 306 344
#     4   8  17  35  56  81 113 155 186 242 292 341
#     4   9  18  38  63  88 114 147 205 245 287 355
#     4  10  22  39  57  84 128 156 193 242 293 356
#     4   8  17  34  58  82 115 151 187 241 298 342
#
# _framework density 29.080161
#
# number of rings (size 3 to 8) (size 9 to 14) (size 15 to 20)
#    0.000    3.000    0.000    2.000    2.333    6.000 
#    6.000   14.167    0.000   13.000    0.000    0.000 
#    0.000    0.000    0.000    0.000    0.000    0.000 
#
# Total GULP energy -67177.908795 kJ/mol
# GULP energy per Si atom -5598.159066 kJ/mol
# Density = 2.901397 g / cm^3
# Si number density = 29.080161 Si / 1000 Ang^3
#
#
#
# Elastic Constant Matrix: (Units=GPa)
#
#
# Indices 1 2 3 4 5 6 
#
# 1 104.7827 20.1285 76.0961 2.8667 6.7889 -9.7681
# 2 20.1285 150.5039 67.9648 2.5578 22.1989 16.7210
# 3 76.0961 67.9648 304.0472 9.6188 18.3739 27.6758
# 4 2.8667 2.5578 9.6188 49.5974 8.3039 7.9729
# 5 6.7889 22.1989 18.3739 8.3039 78.5495 3.0737
# 6 -9.7681 16.7210 27.6758 7.9729 3.0737 33.5258
#
#
#
# Elastic Compliance Matrix: (Units=1/GPa)
#
#
# Indices 1 2 3 4 5 6 
#
# 1 0.013203 -0.000874 -0.003760 -0.001193 -0.000189 0.007688
# 2 -0.000874 0.007905 -0.001165 0.000695 -0.001833 -0.003233
# 3 -0.003760 -0.001165 0.004923 0.000113 -0.000330 -0.004575
# 4 -0.001193 0.000695 0.000113 0.021451 -0.002165 -0.005691
# 5 -0.000189 -0.001833 -0.000330 -0.002165 0.013556 0.000404
# 6 0.007688 -0.003233 -0.004575 -0.005691 0.000404 0.038773
#
#
# Mechanical properties :
#
#
# Convention : Reuss Voigt Hill
#
# Bulk Modulus (GPa) = 69.28134 98.63476 83.95805
# Shear Modulus (GPa) = 43.02174 58.67750 50.84962
#
# Velocity S-wave (km/s) = 3.85049 4.49685 4.18616
# Velocity P-wave (km/s) = 6.60639 7.80731 7.23182
#
# Compressibility (1/GPa) = 0.01443390
#
# Stress axis : x y z
#
# Youngs Moduli (GPa) = 75.73786 126.49986 203.11756
#
# Poissons Ratio (x) = 0.11055 0.76367
# Poissons Ratio (y) = 0.06619 0.23670
# Poissons Ratio (z) = 0.28476 0.14741
#
# Static dielectric constant tensor:
#      x y z
#    x 2.313980 0.081200 -0.087700 
#    y 0.081200 2.297100 -0.026220 
#    z -0.087700 -0.026220 2.329610 
# 
# From -- ./inp_files/222545.got.cif
#   From: 2010.05.17/outbox.cif.g08.bks.cpg/sg2_112_cif.got.tgz:222545.got - 2010.06.03 11:33:40.
