data_PCOD9011424
_publ_section_title
;
Structure prediction by ZEFSAII (Michael W. Deem and Ramdas Pophale) SiO2 
 PCOD9011424
Probable space group: P -1
;
_chemical_formula_sum "Si O2"
_cell_formula_units_Z 16
_cell_length_a 10.367588
_cell_length_b 12.651821
_cell_length_c 8.835698
_cell_angle_alpha 131.409972
_cell_angle_beta 121.919370
_cell_angle_gamma 70.695854
_cell_volume 737.455776
_symmetry_space_group_name_H-M "P -1"
_symmetry_group_IT_number 2
_symmetry_cell_setting 'triclinic'
loop_
_space_group_symop_operation_xyz
x,y,z
-x,-y,-z
loop_
_atom_site_type_symbol
_atom_site_label
_atom_site_fract_x
_atom_site_fract_y
_atom_site_fract_z
Si Si1 0.625516 0.431740 0.907921
Si Si2 0.867023 0.229338 0.883333
Si Si3 0.968554 0.663427 0.655479
Si Si4 0.663812 0.235167 0.502916
Si Si5 0.467188 0.052359 0.697487
Si Si6 0.225063 0.284681 0.686176
Si Si7 0.006617 0.044047 0.374099
Si Si8 0.247627 0.835839 0.831005
O O1 0.571386 0.355733 0.647634
O O2 0.357959 0.183809 0.726684
O O3 0.500000 0.500000 0.000000
O O4 0.744427 0.561440 0.081209
O O5 0.828695 0.255473 0.707760
O O6 0.717986 0.307024 0.927545
O O7 0.884282 0.061694 0.748209
O O8 0.014180 0.297006 0.119706
O O9 0.814744 0.698341 0.502141
O O10 0.000000 0.500000 0.500000
O O11 0.113048 0.751320 0.756130
O O12 0.680476 0.245575 0.344320
O O13 0.604125 0.080144 0.375394
O O14 0.500000 0.000000 0.500000
O O15 0.618952 0.104156 0.925578
O O16 0.075195 0.200844 0.565753
O O17 0.843998 0.040004 0.190172
O O18 0.000000 0.000000 0.500000
#
# Coordination Sequence:
#
# PCOD9011424 Si02
#       8
#     2   2   2   2   2   2   2   2
#     4  10  21  40  66  90 127 168 211 262 320 372
#     4  10  21  40  67  92 129 163 218 264 315 388
#     4  11  23  43  61  96 128 167 216 271 316 382
#     4  10  21  45  64  95 132 167 213 267 322 384
#     4  12  24  40  65  99 127 171 213 265 320 382
#     4  11  23  37  67  88 127 166 213 256 321 376
#     4  11  21  43  65  97 129 166 206 270 325 379
#     4  11  25  39  70  92 135 170 213 266 323 382
#
# _framework density 21.696216
#
# number of rings (size 3 to 8) (size 9 to 14) (size 15 to 20)
#    0.750    0.500    3.750    1.875    3.500    1.000 
#    2.250    3.125    0.000    0.000    0.000    0.000 
#    0.000    0.000    0.000    0.000    0.000    0.000 
#
# Total GULP energy -89105.578677 kJ/mol
# GULP energy per Si atom -5569.098667 kJ/mol
# Density = 2.164683 g / cm^3
# Si number density = 21.696216 Si / 1000 Ang^3
#
#
#
# Elastic Constant Matrix: (Units=GPa)
#
#
# Indices 1 2 3 4 5 6 
#
# 1 77.4187 25.4472 39.6917 -1.0474 -9.9361 -25.9579
# 2 25.4472 65.1922 58.0103 -10.2293 8.9999 -15.0407
# 3 39.6917 58.0103 150.8045 -6.3603 10.6100 -10.8372
# 4 -1.0474 -10.2293 -6.3603 44.0112 -10.1308 4.2901
# 5 -9.9361 8.9999 10.6100 -10.1308 33.4482 -3.2364
# 6 -25.9579 -15.0407 -10.8372 4.2901 -3.2364 24.9370
#
#
#
# Elastic Compliance Matrix: (Units=1/GPa)
#
#
# Indices 1 2 3 4 5 6 
#
# 1 0.026465 -0.001109 -0.005541 -0.000117 0.012408 0.026102
# 2 -0.001109 0.027126 -0.009066 0.003329 -0.002744 0.010338
# 3 -0.005541 -0.009066 0.011324 -0.000802 -0.003686 -0.006655
# 4 -0.000117 0.003329 -0.000802 0.025115 0.006746 -0.001908
# 5 0.012408 -0.002744 -0.003686 0.006746 0.038844 0.013540
# 6 0.026102 0.010338 -0.006655 -0.001908 0.013540 0.072699
#
#
# Mechanical properties :
#
#
# Convention : Reuss Voigt Hill
#
# Bulk Modulus (GPa) = 29.86670 59.96820 44.91745
# Shear Modulus (GPa) = 20.47783 31.83037 26.15410
#
# Velocity S-wave (km/s) = 3.07554 3.83442 3.47575
# Velocity P-wave (km/s) = 5.13884 6.87776 6.07088
#
# Compressibility (1/GPa) = 0.03348211
#
# Stress axis : x y z
#
# Youngs Moduli (GPa) = 37.78626 36.86529 88.30566
#
# Poissons Ratio (x) = 0.04088 0.48931
# Poissons Ratio (y) = 0.04190 0.80061
# Poissons Ratio (z) = 0.20938 0.33423
#
# Static dielectric constant tensor:
#      x y z
#    x 1.890450 -0.009240 -0.026040 
#    y -0.009240 1.848640 -0.030390 
#    z -0.026040 -0.030390 1.848890 
# 
# From -- ./inp_files/274722.got.cif
#   From: 2010.05.17/outbox.cif.g08.bks.cpg/sg2_138_cif.got.tgz:274722.got - 2010.06.03 11:33:40.
