data_PCOD9011038
_publ_section_title
;
Structure prediction by ZEFSAII (Michael W. Deem and Ramdas Pophale) SiO2 
 PCOD9011038
Probable space group: P -1
;
_chemical_formula_sum "Si O2"
_cell_formula_units_Z 14
_cell_length_a 12.542329
_cell_length_b 11.832539
_cell_length_c 12.347373
_cell_angle_alpha 35.276872
_cell_angle_beta 47.258598
_cell_angle_gamma 34.946015
_cell_volume 605.941000
_symmetry_space_group_name_H-M "P -1"
_symmetry_group_IT_number 2
_symmetry_cell_setting 'triclinic'
loop_
_space_group_symop_operation_xyz
x,y,z
-x,-y,-z
loop_
_atom_site_type_symbol
_atom_site_label
_atom_site_fract_x
_atom_site_fract_y
_atom_site_fract_z
Si Si1 0.369443 0.210599 0.521036
Si Si2 0.327293 0.987597 0.347024
Si Si3 0.484681 0.775760 0.182106
Si Si4 0.407111 0.616139 0.147172
Si Si5 0.848723 0.966069 0.167710
Si Si6 0.146569 0.504122 0.957445
Si Si7 0.831060 0.130030 0.276915
O O1 0.501546 0.126166 0.600494
O O2 0.317538 0.475566 0.316685
O O3 0.500000 0.000000 0.500000
O O4 0.192704 0.229756 0.663809
O O5 0.392593 0.815206 0.330261
O O6 0.180130 0.984408 0.517303
O O7 0.250702 0.265831 0.151217
O O8 0.380210 0.765437 0.159776
O O9 0.700418 0.539283 0.197921
O O10 0.500000 0.000000 0.000000
O O11 0.627319 0.384354 0.181293
O O12 0.336564 0.792738 0.953534
O O13 0.877870 0.952409 0.286233
O O14 0.000000 0.000000 0.000000
O O15 0.054133 0.768177 0.871130
O O16 0.000000 0.500000 0.000000
#
# Coordination Sequence:
#
# PCOD9011038 Si02
#       7
#     2   2   2   2   2   2   2
#     4  11  22  40  68  93 119 173 222 255 313 379
#     4  10  21  40  65  87 123 157 217 261 293 382
#     4   9  19  39  65  91 121 161 217 256 310 372
#     4  10  22  40  68  90 123 175 219 257 314 386
#     4  12  25  40  61  96 134 162 210 276 324 373
#     4  10  22  37  60  92 124 162 197 258 326 370
#     4  10  22  39  62  88 115 173 213 247 314 377
#
# _framework density 23.104558999999998
#
# number of rings (size 3 to 8) (size 9 to 14) (size 15 to 20)
#    0.000    1.714    2.857    3.000    2.000    9.714 
#    0.000    2.857    0.000    0.000    0.000    0.000 
#    0.000    0.000    0.000    0.000    0.000    0.000 
#
# Total GULP energy -78020.667942 kJ/mol
# GULP energy per Si atom -5572.904853 kJ/mol
# Density = 2.305197 g / cm^3
# Si number density = 23.104559 Si / 1000 Ang^3
#
#
#
# Elastic Constant Matrix: (Units=GPa)
#
#
# Indices 1 2 3 4 5 6 
#
# 1 87.1762 12.4326 28.0224 0.0408 -17.7482 29.3688
# 2 12.4326 33.4275 7.3826 1.6038 5.3309 7.4222
# 3 28.0224 7.3826 117.8348 -0.8782 -10.6790 13.7690
# 4 0.0408 1.6038 -0.8782 23.5493 13.4042 -6.0480
# 5 -17.7482 5.3309 -10.6790 13.4042 49.1426 4.8172
# 6 29.3688 7.4222 13.7690 -6.0480 4.8172 33.9411
#
#
#
# Elastic Compliance Matrix: (Units=1/GPa)
#
#
# Indices 1 2 3 4 5 6 
#
# 1 0.023534 -0.004965 -0.001302 -0.014270 0.014943 -0.023413
# 2 -0.004965 0.033262 -0.001226 0.000506 -0.005650 -0.001588
# 3 -0.001302 -0.001226 0.009451 -0.001791 0.002510 -0.003115
# 4 -0.014270 0.000506 -0.001791 0.064351 -0.025905 0.028107
# 5 0.014943 -0.005650 0.002510 -0.025905 0.036172 -0.022462
# 6 -0.023413 -0.001588 -0.003115 0.028107 -0.022462 0.059529
#
#
# Mechanical properties :
#
#
# Convention : Reuss Voigt Hill
#
# Bulk Modulus (GPa) = 19.50778 37.12375 28.31577
# Shear Modulus (GPa) = 19.35188 34.03334 26.69261
#
# Velocity S-wave (km/s) = 2.89723 3.84215 3.40265
# Velocity P-wave (km/s) = 4.43323 5.98209 5.26493
#
# Compressibility (1/GPa) = 0.05126159
#
# Stress axis : x y z
#
# Youngs Moduli (GPa) = 42.49135 30.06403 105.80908
#
# Poissons Ratio (x) = 0.14927 0.13775
# Poissons Ratio (y) = 0.21098 0.12971
# Poissons Ratio (z) = 0.05532 0.03685
#
# Static dielectric constant tensor:
#      x y z
#    x 1.942730 0.021940 -0.092330 
#    y 0.021940 2.064850 0.005930 
#    z -0.092330 0.005930 1.988200 
# 
# From -- ./inp_files/424882.got.cif
#   From: 2010.05.17/outbox.cif.g08.bks.cpg/sg2_213_cif.got.tgz:424882.got - 2010.06.03 11:33:40.
