data_PCOD9011799
_publ_section_title
;
Structure prediction by ZEFSAII (Michael W. Deem and Ramdas Pophale) SiO2 
 PCOD9011799
Probable space group: P -1
;
_chemical_formula_sum "Si O2"
_cell_formula_units_Z 16
_cell_length_a 18.830242
_cell_length_b 9.781023
_cell_length_c 11.416987
_cell_angle_alpha 100.444783
_cell_angle_beta 136.267578
_cell_angle_gamma 45.898754
_cell_volume 795.245760
_symmetry_space_group_name_H-M "P -1"
_symmetry_group_IT_number 2
_symmetry_cell_setting 'triclinic'
loop_
_space_group_symop_operation_xyz
x,y,z
-x,-y,-z
loop_
_atom_site_type_symbol
_atom_site_label
_atom_site_fract_x
_atom_site_fract_y
_atom_site_fract_z
Si Si1 0.082597 0.193506 0.605211
Si Si2 0.148310 0.499812 0.947101
Si Si3 0.858601 0.011421 0.105825
Si Si4 0.290449 0.253288 0.836554
Si Si5 0.971733 0.446069 0.840243
Si Si6 0.126229 0.966861 0.392018
Si Si7 0.368868 0.276691 0.414431
Si Si8 0.486296 0.460880 0.610800
O O1 0.132435 0.062808 0.765448
O O2 0.199212 0.203151 0.728502
O O3 0.863688 0.481618 0.377531
O O4 0.138636 0.026277 0.541931
O O5 0.282766 0.328775 0.969722
O O6 0.036927 0.479168 0.823933
O O7 0.251035 0.421067 0.177026
O O8 0.000881 0.784733 0.793180
O O9 0.900664 0.831742 0.046957
O O10 0.017815 0.944999 0.272853
O O11 0.667562 0.288815 0.876480
O O12 0.500000 0.000000 0.000000
O O13 0.764211 0.622204 0.622307
O O14 0.000000 0.500000 0.000000
O O15 0.314474 0.725072 0.511765
O O16 0.457972 0.325194 0.554025
O O17 0.500000 0.000000 0.500000
O O18 0.500000 0.500000 0.500000
#
# Coordination Sequence:
#
# PCOD9011799 Si02
#       8
#     2   2   2   2   2   2   2   2
#     4  10  24  44  68  99 133 176 225 274 338 392
#     4  10  22  43  66  93 135 174 214 281 340 391
#     4  12  24  46  68  95 136 174 226 275 331 396
#     4  10  22  42  70 103 132 169 223 281 332 394
#     4  10  21  40  67  93 131 172 213 285 331 389
#     4  11  26  45  66  96 135 180 219 272 341 395
#     4  11  24  40  65 102 128 171 229 267 337 402
#     4  12  28  42  66 100 134 178 224 270 331 407
#
# _framework density 20.119567
#
# number of rings (size 3 to 8) (size 9 to 14) (size 15 to 20)
#    0.000    1.250    2.500    2.625    5.250    6.500 
#    0.000    0.000    0.000    0.000    0.000    0.000 
#    0.000    0.000    0.000    0.000    0.000    0.000 
#
# Total GULP energy -89368.869573 kJ/mol
# GULP energy per Si atom -5585.554348 kJ/mol
# Density = 2.007377 g / cm^3
# Si number density = 20.119567 Si / 1000 Ang^3
#
#
#
# Elastic Constant Matrix: (Units=GPa)
#
#
# Indices 1 2 3 4 5 6 
#
# 1 93.6504 38.3160 49.6871 -22.9597 3.3703 -12.7343
# 2 38.3160 134.7053 32.9470 -20.4479 1.6385 -17.6834
# 3 49.6871 32.9470 77.1842 -16.9887 -8.4307 -25.8984
# 4 -22.9597 -20.4479 -16.9887 38.8336 -6.0390 8.6474
# 5 3.3703 1.6385 -8.4307 -6.0390 25.7785 -1.6602
# 6 -12.7343 -17.6834 -25.8984 8.6474 -1.6602 36.0373
#
#
#
# Elastic Compliance Matrix: (Units=1/GPa)
#
#
# Indices 1 2 3 4 5 6 
#
# 1 0.018837 -0.002163 -0.012317 0.004787 -0.005532 -0.004661
# 2 -0.002163 0.008985 -0.001145 0.002463 0.000058 0.002233
# 3 -0.012317 -0.001145 0.028687 0.003200 0.012815 0.015524
# 4 0.004787 0.002463 0.003200 0.033025 0.007849 -0.002363
# 5 -0.005532 0.000058 0.012815 0.007849 0.046026 0.007520
# 6 -0.004661 0.002233 0.015524 -0.002363 0.007520 0.039268
#
#
# Mechanical properties :
#
#
# Convention : Reuss Voigt Hill
#
# Bulk Modulus (GPa) = 39.59087 60.82670 50.20879
# Shear Modulus (GPa) = 23.31005 32.43584 27.87294
#
# Velocity S-wave (km/s) = 3.40748 4.01952 3.72609
# Velocity P-wave (km/s) = 5.93310 7.20002 6.59705
#
# Compressibility (1/GPa) = 0.02525835
#
# Stress axis : x y z
#
# Youngs Moduli (GPa) = 53.08642 111.29196 34.85856
#
# Poissons Ratio (x) = 0.24076 0.42937
# Poissons Ratio (y) = 0.11484 0.03991
# Poissons Ratio (z) = 0.65389 0.12743
#
# Static dielectric constant tensor:
#      x y z
#    x 1.812220 -0.067710 -0.064190 
#    y -0.067710 1.781180 0.055830 
#    z -0.064190 0.055830 1.792210 
# 
# From -- ./inp_files/462248.got.cif
#   From: 2010.05.17/outbox.cif.g08.bks.cpg/sg2_232_cif.got.tgz:462248.got - 2010.06.03 11:33:40.
