data_PCOD9011830
_publ_section_title
;
Structure prediction by ZEFSAII (Michael W. Deem and Ramdas Pophale) SiO2 
 PCOD9011830
Probable space group: P -1
;
_chemical_formula_sum "Si O2"
_cell_formula_units_Z 14
_cell_length_a 7.013808
_cell_length_b 31.150791
_cell_length_c 20.046798
_cell_angle_alpha 164.040499
_cell_angle_beta 147.459019
_cell_angle_gamma 29.671127
_cell_volume 595.218846
_symmetry_space_group_name_H-M "P -1"
_symmetry_group_IT_number 2
_symmetry_cell_setting 'triclinic'
loop_
_space_group_symop_operation_xyz
x,y,z
-x,-y,-z
loop_
_atom_site_type_symbol
_atom_site_label
_atom_site_fract_x
_atom_site_fract_y
_atom_site_fract_z
Si Si1 0.210617 0.912058 0.080284
Si Si2 0.068232 0.698478 0.960100
Si Si3 0.367075 0.416905 0.938613
Si Si4 0.111125 0.137233 0.276693
Si Si5 0.933613 0.371836 0.450569
Si Si6 0.634103 0.273395 0.674279
Si Si7 0.495622 0.859233 0.234985
O O1 0.321074 0.922169 0.204656
O O2 0.010969 0.093187 0.255708
O O3 0.981189 0.791193 0.816025
O O4 0.620940 0.811506 0.012101
O O5 0.305277 0.720432 0.126362
O O6 0.147548 0.497598 0.684830
O O7 0.262264 0.752439 0.036077
O O8 0.459726 0.574942 0.178084
O O9 0.325960 0.334280 0.733928
O O10 0.000000 0.500000 0.000000
O O11 0.557321 0.121012 0.389654
O O12 0.944032 0.302765 0.426627
O O13 0.000000 0.000000 0.000000
O O14 0.500000 0.500000 0.500000
O O15 0.041583 0.246599 0.787482
O O16 0.500000 0.000000 0.500000
#
# Coordination Sequence:
#
# PCOD9011830 Si02
#       7
#     2   2   2   2   2   2   2
#     4  10  23  42  65  93 137 175 216 270 330 382
#     4  11  21  41  65  95 130 168 225 269 324 386
#     4  11  22  38  65  97 127 168 212 280 325 382
#     4  10  21  40  67  95 126 175 217 261 332 394
#     4   9  20  40  71  94 125 173 223 273 324 386
#     4  11  23  39  66  95 132 167 218 268 336 378
#     4  12  26  39  65 100 136 177 219 264 327 398
#
# _framework density 23.520761
#
# number of rings (size 3 to 8) (size 9 to 14) (size 15 to 20)
#    0.000    1.429    4.286    0.857    2.000    1.714 
#    0.000    0.000    6.286   16.286    0.000    0.000 
#    0.000    0.000    0.000    0.000    0.000    0.000 
#
# Total GULP energy -77966.420444 kJ/mol
# GULP energy per Si atom -5569.030032 kJ/mol
# Density = 2.346723 g / cm^3
# Si number density = 23.520761 Si / 1000 Ang^3
#
#
#
# Elastic Constant Matrix: (Units=GPa)
#
#
# Indices 1 2 3 4 5 6 
#
# 1 114.7310 55.4584 55.8724 -5.4212 11.6952 26.5508
# 2 55.4584 100.3989 22.8122 0.9597 12.5673 44.8162
# 3 55.8724 22.8122 147.2086 0.4219 27.6138 24.4189
# 4 -5.4212 0.9597 0.4219 30.1348 3.6278 3.4015
# 5 11.6952 12.5673 27.6138 3.6278 23.6567 8.4184
# 6 26.5508 44.8162 24.4189 3.4015 8.4184 50.5719
#
#
#
# Elastic Compliance Matrix: (Units=1/GPa)
#
#
# Indices 1 2 3 4 5 6 
#
# 1 0.014424 -0.007556 -0.004800 0.002583 0.001742 0.000977
# 2 -0.007556 0.020891 0.003231 0.000339 -0.005789 -0.015166
# 3 -0.004800 0.003231 0.010733 0.000589 -0.010610 -0.003799
# 4 0.002583 0.000339 0.000589 0.034756 -0.006327 -0.003225
# 5 0.001742 -0.005789 -0.010610 -0.006327 0.057789 0.000145
# 6 0.000977 -0.015166 -0.003799 -0.003225 0.000145 0.034728
#
#
# Mechanical properties :
#
#
# Convention : Reuss Voigt Hill
#
# Bulk Modulus (GPa) = 35.97312 70.06938 53.02125
# Shear Modulus (GPa) = 24.89579 36.08570 30.49075
#
# Velocity S-wave (km/s) = 3.25693 3.92114 3.60437
# Velocity P-wave (km/s) = 5.42871 7.09617 6.31769
#
# Compressibility (1/GPa) = 0.02779853
#
# Stress axis : x y z
#
# Youngs Moduli (GPa) = 69.32730 47.86759 93.17007
#
# Poissons Ratio (x) = 0.36169 0.44722
# Poissons Ratio (y) = 0.52384 -0.30105
# Poissons Ratio (z) = 0.33278 -0.15467
#
# Static dielectric constant tensor:
#      x y z
#    x 1.928470 -0.049100 -0.005050 
#    y -0.049100 1.943830 -0.008350 
#    z -0.005050 -0.008350 1.976650 
# 
# From -- ./inp_files/70619.got.cif
#   From: 2010.05.17/outbox.cif.g08.bks.cpg/sg2_36_cif.got.tgz:70619.got - 2010.06.03 11:33:40.
