data_PCOD9011017
_publ_section_title
;
Structure prediction by ZEFSAII (Michael W. Deem and Ramdas Pophale) SiO2 
 PCOD9011017
Probable space group: P -1
;
_chemical_formula_sum "Si O2"
_cell_formula_units_Z 10
_cell_length_a 10.824329
_cell_length_b 7.901757
_cell_length_c 10.996516
_cell_angle_alpha 57.408149
_cell_angle_beta 153.102541
_cell_angle_gamma 123.074466
_cell_volume 353.186117
_symmetry_space_group_name_H-M "P -1"
_symmetry_group_IT_number 2
_symmetry_cell_setting 'triclinic'
loop_
_space_group_symop_operation_xyz
x,y,z
-x,-y,-z
loop_
_atom_site_type_symbol
_atom_site_label
_atom_site_fract_x
_atom_site_fract_y
_atom_site_fract_z
Si Si1 0.947682 0.336940 0.129728
Si Si2 0.002093 0.733948 0.139590
Si Si3 0.621795 0.858439 0.545742
Si Si4 0.942891 0.728231 0.369894
Si Si5 0.519803 0.062693 0.158345
O O1 0.229670 0.243897 0.395395
O O2 0.906259 0.490565 0.140457
O O3 0.000000 0.500000 0.000000
O O4 0.690685 0.149342 0.972017
O O5 0.324090 0.755799 0.374586
O O6 0.973249 0.801152 0.226518
O O7 0.829797 0.840108 0.847506
O O8 0.534985 0.051104 0.323935
O O9 0.151015 0.859566 0.597451
O O10 0.000000 0.500000 0.500000
O O11 0.634280 0.769096 0.104456
#
# Coordination Sequence:
#
# PCOD9011017 Si02
#       5
#     2   2   2   2   2
#     4  10  21  40  65 103 135 158 194 265 339 398
#     4  11  24  38  68  96 135 165 206 261 325 384
#     4  11  20  39  65 103 129 155 200 262 342 379
#     4  12  28  48  61  88 131 182 225 261 295 366
#     4  12  23  43  70  92 133 168 207 266 328 379
#
# _framework density 28.313683000000001
#
# number of rings (size 3 to 8) (size 9 to 14) (size 15 to 20)
#    0.000    0.800    6.000    2.400    2.800    4.800 
#    0.000    2.000    0.000    0.000    0.000    0.000 
#    0.000    0.000    0.000    0.000    0.000    0.000 
#
# Total GULP energy -55764.407323 kJ/mol
# GULP energy per Si atom -5576.440732 kJ/mol
# Density = 2.824924 g / cm^3
# Si number density = 28.313683 Si / 1000 Ang^3
#
#
#
# Elastic Constant Matrix: (Units=GPa)
#
#
# Indices 1 2 3 4 5 6 
#
# 1 86.1138 19.1663 42.0353 7.6799 -0.6800 -3.7898
# 2 19.1663 102.7135 72.4757 -9.6155 -1.2939 5.4156
# 3 42.0353 72.4757 279.6350 11.2338 11.7424 6.2269
# 4 7.6799 -9.6155 11.2338 54.7194 2.2696 -14.8255
# 5 -0.6800 -1.2939 11.7424 2.2696 31.6843 -5.7512
# 6 -3.7898 5.4156 6.2269 -14.8255 -5.7512 41.0941
#
#
#
# Elastic Compliance Matrix: (Units=1/GPa)
#
#
# Indices 1 2 3 4 5 6 
#
# 1 0.012905 -0.001488 -0.001571 -0.001456 0.001131 0.001257
# 2 -0.001488 0.012588 -0.003221 0.003017 0.001457 -0.000016
# 3 -0.001571 -0.003221 0.004829 -0.001609 -0.002080 -0.001324
# 4 -0.001456 0.003017 -0.001609 0.021347 0.000518 0.007486
# 5 0.001131 0.001457 -0.002080 0.000518 0.033300 0.005075
# 6 0.001257 -0.000016 -0.001324 0.007486 0.005075 0.028064
#
#
# Mechanical properties :
#
#
# Convention : Reuss Voigt Hill
#
# Bulk Modulus (GPa) = 56.30206 81.75743 69.02974
# Shear Modulus (GPa) = 38.01945 47.81855 42.91900
#
# Velocity S-wave (km/s) = 3.66839 4.11406 3.89760
# Velocity P-wave (km/s) = 6.15395 7.17674 6.68493
#
# Compressibility (1/GPa) = 0.01776134
#
# Stress axis : x y z
#
# Youngs Moduli (GPa) = 77.49064 79.44216 207.10218
#
# Poissons Ratio (x) = 0.11819 0.32542
# Poissons Ratio (y) = 0.11528 0.66706
# Poissons Ratio (z) = 0.12176 0.25588
#
# Static dielectric constant tensor:
#      x y z
#    x 2.329390 -0.010800 0.048110 
#    y -0.010800 2.423710 -0.018170 
#    z 0.048110 -0.018170 2.313960 
# 
# From -- ./inp_files/360297.got.cif
#   From: 2010.05.17/outbox.cif.g08.bks.cpg/sg2_181_cif.got.tgz:360297.got - 2010.06.03 11:33:40.
