data_PCOD9011238
_publ_section_title
;
Structure prediction by ZEFSAII (Michael W. Deem and Ramdas Pophale) SiO2 
 PCOD9011238
Probable space group: P -1
;
_chemical_formula_sum "Si O2"
_cell_formula_units_Z 14
_cell_length_a 14.923595
_cell_length_b 10.939913
_cell_length_c 15.945035
_cell_angle_alpha 142.390406
_cell_angle_beta 144.816959
_cell_angle_gamma 26.695818
_cell_volume 654.250588
_symmetry_space_group_name_H-M "P -1"
_symmetry_group_IT_number 2
_symmetry_cell_setting 'triclinic'
loop_
_space_group_symop_operation_xyz
x,y,z
-x,-y,-z
loop_
_atom_site_type_symbol
_atom_site_label
_atom_site_fract_x
_atom_site_fract_y
_atom_site_fract_z
Si Si1 0.543289 0.220338 0.376265
Si Si2 0.267106 0.748138 0.998954
Si Si3 0.991424 0.974244 0.579334
Si Si4 0.837972 0.460776 0.849955
Si Si5 0.395682 0.047509 0.309253
Si Si6 0.809089 0.191852 0.835854
Si Si7 0.631423 0.630162 0.399482
O O1 0.500000 0.500000 0.500000
O O2 0.409017 0.265757 0.217985
O O3 0.454987 0.166096 0.354490
O O4 0.801977 0.979586 0.446099
O O5 0.250821 0.005267 0.134780
O O6 0.253365 0.684096 0.049626
O O7 0.500000 0.500000 0.000000
O O8 0.048841 0.877657 0.855119
O O9 0.208325 0.695252 0.636383
O O10 0.000000 0.000000 0.500000
O O11 0.925711 0.232974 0.720170
O O12 0.825226 0.350133 0.866031
O O13 0.000000 0.500000 0.000000
O O14 0.595895 0.744685 0.340753
O O15 0.292921 0.255992 0.422319
O O16 0.610430 0.223934 0.677818
#
# Coordination Sequence:
#
# PCOD9011238 Si02
#       7
#     2   2   2   2   2   2   2
#     4  10  21  41  62  90 131 176 216 273 341 390
#     4  10  23  44  66  95 135 176 215 272 343 409
#     4  11  23  41  66  94 135 181 227 274 335 408
#     4  11  23  41  68  95 137 179 226 281 334 400
#     4  10  21  41  63  92 131 166 220 279 331 391
#     4  10  22  42  67  92 135 174 211 281 337 381
#     4  10  21  40  65  95 126 169 226 276 330 394
#
# _framework density 21.398529
#
# number of rings (size 3 to 8) (size 9 to 14) (size 15 to 20)
#    0.000    1.714    0.000    5.143    4.000    0.571 
#   12.857    1.429    0.000    0.000    0.000    0.000 
#    0.000    0.000    0.000    0.000    0.000    0.000 
#
# Total GULP energy -78092.241388 kJ/mol
# GULP energy per Si atom -5578.017242 kJ/mol
# Density = 2.134982 g / cm^3
# Si number density = 21.398529 Si / 1000 Ang^3
#
#
#
# Elastic Constant Matrix: (Units=GPa)
#
#
# Indices 1 2 3 4 5 6 
#
# 1 155.3467 29.5448 27.1686 -0.0838 10.6825 28.0328
# 2 29.5448 81.4241 35.1415 -18.5230 0.5465 -1.3822
# 3 27.1686 35.1415 116.3752 -9.3689 16.8314 -1.6049
# 4 -0.0838 -18.5230 -9.3689 30.1119 2.8435 2.9043
# 5 10.6825 0.5465 16.8314 2.8435 32.6691 0.3718
# 6 28.0328 -1.3822 -1.6049 2.9043 0.3718 38.7067
#
#
#
# Elastic Compliance Matrix: (Units=1/GPa)
#
#
# Indices 1 2 3 4 5 6 
#
# 1 0.008428 -0.003050 -0.000948 -0.001365 -0.002028 -0.006130
# 2 -0.003050 0.017172 -0.004013 0.008929 0.001978 0.001967
# 3 -0.000948 -0.004013 0.010925 0.001345 -0.005380 0.000947
# 4 -0.001365 0.008929 0.001345 0.039630 -0.003827 -0.001574
# 5 -0.002028 0.001978 -0.005380 -0.003827 0.034330 0.001274
# 6 -0.006130 0.001967 0.000947 -0.001574 0.001274 0.030490
#
#
# Mechanical properties :
#
#
# Convention : Reuss Voigt Hill
#
# Bulk Modulus (GPa) = 48.77357 59.65063 54.21210
# Shear Modulus (GPa) = 30.51908 37.71692 34.11800
#
# Velocity S-wave (km/s) = 3.78063 4.20288 3.99734
# Velocity P-wave (km/s) = 6.47302 7.17557 6.83333
#
# Compressibility (1/GPa) = 0.02050291
#
# Stress axis : x y z
#
# Youngs Moduli (GPa) = 118.65283 58.23570 91.52986
#
# Poissons Ratio (x) = 0.17762 0.08674
# Poissons Ratio (y) = 0.36189 0.36734
# Poissons Ratio (z) = 0.11244 0.23372
#
# Static dielectric constant tensor:
#      x y z
#    x 1.795880 -0.008380 -0.028220 
#    y -0.008380 1.837160 -0.024540 
#    z -0.028220 -0.024540 1.793960 
# 
# From -- ./inp_files/573266.got.cif
#   From: 2010.05.17/outbox.cif.g08.bks.cpg/sg2_287_cif.got.tgz:573266.got - 2010.06.03 11:33:40.
