data_PCOD9011877
_publ_section_title
;
Structure prediction by ZEFSAII (Michael W. Deem and Ramdas Pophale) SiO2 
 PCOD9011877
Probable space group: P -1
;
_chemical_formula_sum "Si O2"
_cell_formula_units_Z 12
_cell_length_a 8.926037
_cell_length_b 10.090618
_cell_length_c 9.174217
_cell_angle_alpha 120.958555
_cell_angle_beta 107.577633
_cell_angle_gamma 54.229237
_cell_volume 574.928284
_symmetry_space_group_name_H-M "P -1"
_symmetry_group_IT_number 2
_symmetry_cell_setting 'triclinic'
loop_
_space_group_symop_operation_xyz
x,y,z
-x,-y,-z
loop_
_atom_site_type_symbol
_atom_site_label
_atom_site_fract_x
_atom_site_fract_y
_atom_site_fract_z
Si Si1 0.862293 0.201810 0.503471
Si Si2 0.705581 0.825046 0.970221
Si Si3 0.300806 0.406851 0.896798
Si Si4 0.348720 0.711743 0.238429
Si Si5 0.047796 0.489461 0.336365
Si Si6 0.963008 0.987721 0.148943
O O1 0.679137 0.284242 0.594335
O O2 0.936888 0.338118 0.608212
O O3 0.843529 0.170426 0.310400
O O4 0.000000 0.000000 0.500000
O O5 0.770497 0.694538 0.772823
O O6 0.713202 0.713653 0.051244
O O7 0.500000 0.000000 0.000000
O O8 0.853506 0.884766 0.071131
O O9 0.470952 0.298891 0.774932
O O10 0.117234 0.500691 0.799990
O O11 0.336494 0.547367 0.072823
O O12 0.166032 0.885801 0.220163
O O13 0.000000 0.500000 0.500000
O O14 0.000000 0.000000 0.000000
#
# Coordination Sequence:
#
# PCOD9011877 Si02
#       6
#     2   2   2   2   2   2
#     4  10  22  41  66  97 132 176 222 278 340 402
#     4  12  25  44  69 101 135 182 229 280 344 411
#     4  11  22  42  70  94 134 176 225 279 336 406
#     4  10  21  40  67  97 126 177 222 271 344 396
#     4  12  25  45  70 103 136 181 233 284 340 407
#     4  11  22  41  65  97 138 173 217 279 343 409
#
# _framework density 20.872169
#
# number of rings (size 3 to 8) (size 9 to 14) (size 15 to 20)
#    0.000    1.000    3.333    4.500    0.000    2.667 
#    0.000    6.667    0.000    0.000    0.000    0.000 
#    0.000    0.000    0.000    0.000    0.000    0.000 
#
# Total GULP energy -67013.472220 kJ/mol
# GULP energy per Si atom -5584.456018 kJ/mol
# Density = 2.082466 g / cm^3
# Si number density = 20.872169 Si / 1000 Ang^3
#
#
#
# Elastic Constant Matrix: (Units=GPa)
#
#
# Indices 1 2 3 4 5 6 
#
# 1 108.5772 25.3230 61.7986 5.1685 -38.8241 6.0472
# 2 25.3230 55.1656 33.9585 2.3235 -17.5689 -11.1641
# 3 61.7986 33.9585 141.8760 10.3356 -45.8118 -5.8347
# 4 5.1685 2.3235 10.3356 33.2822 7.0114 -2.3937
# 5 -38.8241 -17.5689 -45.8118 7.0114 47.6941 4.7518
# 6 6.0472 -11.1641 -5.8347 -2.3937 4.7518 27.4306
#
#
#
# Elastic Compliance Matrix: (Units=1/GPa)
#
#
# Indices 1 2 3 4 5 6 
#
# 1 0.015983 -0.003751 -0.002730 -0.004122 0.010389 -0.007790
# 2 -0.003751 0.024385 -0.003225 0.000199 0.001829 0.009766
# 3 -0.002730 -0.003225 0.012359 -0.005143 0.009230 -0.000130
# 4 -0.004122 0.000199 -0.005143 0.035608 -0.013997 0.005428
# 5 0.010389 0.001829 0.009230 -0.013997 0.041824 -0.008049
# 6 -0.007790 0.009766 -0.000130 0.005428 -0.008049 0.043988
#
#
# Mechanical properties :
#
#
# Convention : Reuss Voigt Hill
#
# Bulk Modulus (GPa) = 30.01526 60.86432 45.43979
# Shear Modulus (GPa) = 24.43029 33.98397 29.20713
#
# Velocity S-wave (km/s) = 3.42493 4.03947 3.74483
# Velocity P-wave (km/s) = 5.48196 7.14004 6.36522
#
# Compressibility (1/GPa) = 0.03331639
#
# Stress axis : x y z
#
# Youngs Moduli (GPa) = 62.56453 41.00914 80.91193
#
# Poissons Ratio (x) = 0.15382 0.22087
# Poissons Ratio (y) = 0.23467 0.26093
# Poissons Ratio (z) = 0.17079 0.13225
#
# Static dielectric constant tensor:
#      x y z
#    x 1.758600 -0.048650 -0.066330 
#    y -0.048650 1.815670 0.063880 
#    z -0.066330 0.063880 1.840600 
# 
# From -- ./inp_files/146300.got.cif
#   From: 2010.05.17/outbox.cif.g08.bks.cpg/sg2_74_cif.got.tgz:146300.got - 2010.06.03 11:33:40.
