data_PCOD9011730
_publ_section_title
;
Structure prediction by ZEFSAII (Michael W. Deem and Ramdas Pophale) SiO2 
 PCOD9011730
Probable space group: P -1
;
_chemical_formula_sum "Si O2"
_cell_formula_units_Z 16
_cell_length_a 15.246635
_cell_length_b 8.862569
_cell_length_c 14.844193
_cell_angle_alpha 56.997813
_cell_angle_beta 150.933688
_cell_angle_gamma 116.300655
_cell_volume 814.552468
_symmetry_space_group_name_H-M "P -1"
_symmetry_group_IT_number 2
_symmetry_cell_setting 'triclinic'
loop_
_space_group_symop_operation_xyz
x,y,z
-x,-y,-z
loop_
_atom_site_type_symbol
_atom_site_label
_atom_site_fract_x
_atom_site_fract_y
_atom_site_fract_z
Si Si1 0.088167 0.802246 0.159937
Si Si2 0.415059 0.344498 0.030766
Si Si3 0.612255 0.332550 0.397127
Si Si4 0.577862 0.064778 0.142334
Si Si5 0.234506 0.310986 0.515998
Si Si6 0.716345 0.479106 0.690136
Si Si7 0.172873 0.640128 0.804745
Si Si8 0.760984 0.569336 0.901069
O O1 0.214554 0.781754 0.368610
O O2 0.215823 0.718732 0.221228
O O3 0.921708 0.676005 0.051004
O O4 0.000000 0.000000 0.000000
O O5 0.546588 0.296771 0.249435
O O6 0.423848 0.172055 0.030191
O O7 0.500000 0.500000 0.000000
O O8 0.230045 0.448718 0.867999
O O9 0.661280 0.539802 0.384718
O O10 0.432515 0.316867 0.300991
O O11 0.727520 0.204736 0.206525
O O12 0.666736 0.887074 0.328397
O O13 0.500000 0.000000 0.000000
O O14 0.227189 0.387969 0.382207
O O15 0.038865 0.312032 0.386840
O O16 0.500000 0.500000 0.500000
O O17 0.795618 0.519447 0.845356
O O18 0.249607 0.602777 0.987041
#
# Coordination Sequence:
#
# PCOD9011730 Si02
#       8
#     2   2   2   2   2   2   2   2
#     4  11  24  40  62  95 128 167 221 269 314 380
#     4   9  20  40  64  88 123 170 207 254 329 385
#     4  10  21  42  65  88 132 173 210 260 330 385
#     4  11  23  41  64  98 126 163 214 269 319 382
#     4  11  21  40  64  95 127 165 222 264 311 381
#     4  11  22  42  67  93 130 178 213 261 331 381
#     4  10  21  40  67  88 131 171 210 259 324 380
#     4  11  20  42  67  91 129 176 212 262 324 390
#
# _framework density 19.642689000000001
#
# number of rings (size 3 to 8) (size 9 to 14) (size 15 to 20)
#    0.000    1.500    5.000    3.000    0.000    1.500 
#    4.500    6.875    0.000    0.000    0.000    0.000 
#    0.000    0.000    0.000    0.000    0.000    0.000 
#
# Total GULP energy -89235.609231 kJ/mol
# GULP energy per Si atom -5577.225577 kJ/mol
# Density = 1.959798 g / cm^3
# Si number density = 19.642689 Si / 1000 Ang^3
#
#
#
# Elastic Constant Matrix: (Units=GPa)
#
#
# Indices 1 2 3 4 5 6 
#
# 1 99.3190 30.8762 20.8909 -12.5497 5.1875 -20.4540
# 2 30.8762 60.4538 35.2366 -31.1794 1.7453 -17.3124
# 3 20.8909 35.2366 90.0698 -22.9093 13.5123 -7.8382
# 4 -12.5497 -31.1794 -22.9093 40.0300 0.0597 2.6275
# 5 5.1875 1.7453 13.5123 0.0597 42.7397 7.4274
# 6 -20.4540 -17.3124 -7.8382 2.6275 7.4274 32.4547
#
#
#
# Elastic Compliance Matrix: (Units=1/GPa)
#
#
# Indices 1 2 3 4 5 6 
#
# 1 0.012961 -0.004698 -0.000330 -0.000184 -0.002343 0.006134
# 2 -0.004698 0.040085 -0.006689 0.024929 -0.001621 0.015159
# 3 -0.000330 -0.006689 0.015455 0.003489 -0.004708 0.000752
# 4 -0.000184 0.024929 0.003489 0.045603 -0.004122 0.011276
# 5 -0.002343 -0.001621 -0.004708 -0.004122 0.026857 -0.009291
# 6 0.006134 0.015159 0.000752 0.011276 -0.009291 0.044159
#
#
# Mechanical properties :
#
#
# Convention : Reuss Voigt Hill
#
# Bulk Modulus (GPa) = 22.18928 47.09445 34.64186
# Shear Modulus (GPa) = 22.36371 33.90080 28.13225
#
# Velocity S-wave (km/s) = 3.37787 4.15887 3.78855
# Velocity P-wave (km/s) = 5.15114 6.86216 6.06727
#
# Compressibility (1/GPa) = 0.04506681
#
# Stress axis : x y z
#
# Youngs Moduli (GPa) = 77.15598 24.94699 64.70357
#
# Poissons Ratio (x) = 0.11720 0.02133
# Poissons Ratio (y) = 0.36249 0.43281
# Poissons Ratio (z) = 0.02544 0.16687
#
# Static dielectric constant tensor:
#      x y z
#    x 1.714070 0.003410 0.001310 
#    y 0.003410 1.701720 -0.004600 
#    z 0.001310 -0.004600 1.725460 
# 
# From -- ./inp_files/528342.got.cif
#   From: 2010.05.17/outbox.cif.g08.bks.cpg/sg2_265_cif.got.tgz:528342.got - 2010.06.03 11:33:40.
