data_PCOD9011666
_publ_section_title
;
Structure prediction by ZEFSAII (Michael W. Deem and Ramdas Pophale) SiO2 
 PCOD9011666
Probable space group: P -1
;
_chemical_formula_sum "Si O2"
_cell_formula_units_Z 15
_cell_length_a 5.554356
_cell_length_b 4.947675
_cell_length_c 20.269574
_cell_angle_alpha 105.609688
_cell_angle_beta 79.814617
_cell_angle_gamma 87.763570
_cell_volume 525.823232
_symmetry_space_group_name_H-M "P -1"
_symmetry_group_IT_number 2
_symmetry_cell_setting 'triclinic'
loop_
_space_group_symop_operation_xyz
x,y,z
-x,-y,-z
loop_
_atom_site_type_symbol
_atom_site_label
_atom_site_fract_x
_atom_site_fract_y
_atom_site_fract_z
Si Si1 0.000000 0.500000 0.500000
Si Si2 0.273152 0.101490 0.562798
Si Si3 0.556568 0.728360 0.815824
Si Si4 0.374926 0.528266 0.370941
Si Si5 0.047163 0.834693 0.054982
Si Si6 0.927844 0.215287 0.216144
Si Si7 0.093041 0.021899 0.333457
Si Si8 0.534557 0.653667 0.090426
O O1 0.092133 0.263616 0.532499
O O2 0.276207 0.486207 0.447246
O O3 0.370848 0.327436 0.624075
O O4 0.500000 0.000000 0.500000
O O5 0.119621 0.872972 0.594305
O O6 0.835900 0.609225 0.782541
O O7 0.506980 0.623339 0.885020
O O8 0.339955 0.631538 0.774234
O O9 0.524069 0.070344 0.840585
O O10 0.314869 0.220223 0.327795
O O11 0.212106 0.746213 0.345977
O O12 0.328119 0.716602 0.048450
O O13 0.821952 0.640310 0.058750
O O14 0.984500 0.036993 0.134792
O O15 0.000000 0.000000 0.000000
O O16 0.954941 0.038278 0.271002
#
# Coordination Sequence:
#
# PCOD9011666 Si02
#       8
#     1   2   2   2   2   2   2   2
#     4  10  22  44  68 108 138 184 238 304 360 456
#     4  11  24  46  77 105 151 191 248 308 382 444
#     4  10  22  42  69  94 136 184 230 294 358 429
#     4  11  24  44  71 102 142 187 239 294 376 431
#     4  10  21  42  71 103 141 188 241 303 367 436
#     4  10  24  46  67 103 144 188 246 302 370 441
#     4  11  27  44  68 106 142 191 247 303 366 456
#     4  10  21  40  66  99 134 176 233 290 361 428
#
# _framework density 28.526702
#
# number of rings (size 3 to 8) (size 9 to 14) (size 15 to 20)
#    0.000    1.600    0.000    3.200    1.867    9.600 
#    2.400   18.000    0.000    0.000    0.000    0.000 
#    0.000    0.000    0.000    0.000    0.000    0.000 
#
# Total GULP energy -83791.672345 kJ/mol
# GULP energy per Si atom -5586.111490 kJ/mol
# Density = 2.846177 g / cm^3
# Si number density = 28.526702 Si / 1000 Ang^3
#
#
#
# Elastic Constant Matrix: (Units=GPa)
#
#
# Indices 1 2 3 4 5 6 
#
# 1 234.0800 29.5781 57.6164 -23.9921 9.6069 2.0360
# 2 29.5781 96.3327 27.2687 -24.5503 9.0756 3.0511
# 3 57.6164 27.2687 172.8656 -36.5269 28.4343 -5.5014
# 4 -23.9921 -24.5503 -36.5269 62.7608 5.5759 5.5452
# 5 9.6069 9.0756 28.4343 5.5759 56.0972 -11.8317
# 6 2.0360 3.0511 -5.5014 5.5452 -11.8317 49.3627
#
#
#
# Elastic Compliance Matrix: (Units=1/GPa)
#
#
# Indices 1 2 3 4 5 6 
#
# 1 0.004789 -0.000873 -0.001268 0.000808 -0.000206 -0.000425
# 2 -0.000873 0.012220 -0.000292 0.004669 -0.002541 -0.001885
# 3 -0.001268 -0.000292 0.007873 0.004415 -0.004287 -0.000576
# 4 0.000808 0.004669 0.004415 0.021502 -0.006048 -0.003695
# 5 -0.000206 -0.002541 -0.004287 -0.006048 0.022249 0.005700
# 6 -0.000425 -0.001885 -0.000576 -0.003695 0.005700 0.022109
#
#
# Mechanical properties :
#
#
# Convention : Reuss Voigt Hill
#
# Bulk Modulus (GPa) = 49.95674 81.35609 65.65642
# Shear Modulus (GPa) = 48.88504 59.56514 54.22509
#
# Velocity S-wave (km/s) = 4.14413 4.57447 4.36461
# Velocity P-wave (km/s) = 6.35993 7.51547 6.96172
#
# Compressibility (1/GPa) = 0.02001732
#
# Stress axis : x y z
#
# Youngs Moduli (GPa) = 208.79983 81.83020 127.01531
#
# Poissons Ratio (x) = 0.07144 0.16099
# Poissons Ratio (y) = 0.18228 0.03712
# Poissons Ratio (z) = 0.26465 0.02391
#
# Static dielectric constant tensor:
#      x y z
#    x 2.055080 -0.011410 -0.091640 
#    y -0.011410 2.185260 0.200760 
#    z -0.091640 0.200760 2.312370 
# 
# From -- ./inp_files/581028.got.cif
#   From: 2010.05.17/outbox.cif.g08.bks.cpg/sg2_291_cif.got.tgz:581028.got - 2010.06.03 11:33:40.
