data_PCOD9011292
_publ_section_title
;
Structure prediction by ZEFSAII (Michael W. Deem and Ramdas Pophale) SiO2 
 PCOD9011292
Probable space group: P -1
;
_chemical_formula_sum "Si O2"
_cell_formula_units_Z 16
_cell_length_a 8.513150
_cell_length_b 12.100954
_cell_length_c 17.147318
_cell_angle_alpha 148.193585
_cell_angle_beta 51.414095
_cell_angle_gamma 116.509544
_cell_volume 712.582002
_symmetry_space_group_name_H-M "P -1"
_symmetry_group_IT_number 2
_symmetry_cell_setting 'triclinic'
loop_
_space_group_symop_operation_xyz
x,y,z
-x,-y,-z
loop_
_atom_site_type_symbol
_atom_site_label
_atom_site_fract_x
_atom_site_fract_y
_atom_site_fract_z
Si Si1 0.624947 0.555684 0.373433
Si Si2 0.197032 0.080910 0.954504
Si Si3 0.044879 0.005057 0.296430
Si Si4 0.001287 0.311091 0.009949
Si Si5 0.778324 0.301752 0.820889
Si Si6 0.620619 0.527024 0.855485
Si Si7 0.385990 0.261619 0.346687
Si Si8 0.572122 0.193865 0.550932
O O1 0.812241 0.407487 0.182375
O O2 0.442022 0.429039 0.368239
O O3 0.685698 0.619594 0.478710
O O4 0.542165 0.759209 0.467372
O O5 0.400160 0.902844 0.800257
O O6 0.237882 0.306031 0.111733
O O7 0.153536 0.136450 0.910225
O O8 0.000000 0.000000 0.000000
O O9 0.091275 0.917510 0.317550
O O10 0.213894 0.137438 0.299335
O O11 0.065892 0.799192 0.111048
O O12 0.816751 0.135875 0.434780
O O13 0.114021 0.503510 0.071171
O O14 0.740420 0.340929 0.764215
O O15 0.559482 0.338360 0.954254
O O16 0.525759 0.412070 0.746602
O O17 0.500000 0.000000 0.500000
#
# Coordination Sequence:
#
# PCOD9011292 Si02
#       8
#     2   2   2   2   2   2   2   2
#     4  11  26  46  67  97 142 174 230 274 342 399
#     4  11  22  43  70  97 131 175 225 272 339 402
#     4  12  25  40  69  99 135 175 228 272 337 395
#     4  11  23  41  69  99 131 180 217 281 334 403
#     4  10  21  40  65  96 136 172 220 273 335 403
#     4  10  23  40  67 101 133 176 225 279 332 403
#     4  11  26  45  69 100 133 180 222 285 331 405
#     4  12  27  44  68  99 140 181 225 281 337 395
#
# _framework density 22.453555000000001
#
# number of rings (size 3 to 8) (size 9 to 14) (size 15 to 20)
#    0.000    1.000    2.500    3.375    5.250    2.500 
#    0.000    0.000    0.000    0.000    0.000    0.000 
#    0.000    0.000    0.000    0.000    0.000    0.000 
#
# Total GULP energy -89557.333495 kJ/mol
# GULP energy per Si atom -5597.333343 kJ/mol
# Density = 2.240245 g / cm^3
# Si number density = 22.453555 Si / 1000 Ang^3
#
#
#
# Elastic Constant Matrix: (Units=GPa)
#
#
# Indices 1 2 3 4 5 6 
#
# 1 50.2766 19.7885 0.6320 -6.1005 -3.1808 16.2917
# 2 19.7885 119.1026 3.1978 14.2735 4.2718 18.4496
# 3 0.6320 3.1978 44.6301 -14.4367 -12.9037 -2.2050
# 4 -6.1005 14.2735 -14.4367 26.7933 4.5660 -2.8318
# 5 -3.1808 4.2718 -12.9037 4.5660 32.7130 11.8520
# 6 16.2917 18.4496 -2.2050 -2.8318 11.8520 41.7066
#
#
#
# Elastic Compliance Matrix: (Units=1/GPa)
#
#
# Indices 1 2 3 4 5 6 
#
# 1 0.026010 -0.004189 0.004136 0.008179 0.007018 -0.009528
# 2 -0.004189 0.010937 -0.004144 -0.009283 -0.000788 -0.003828
# 3 0.004136 -0.004144 0.031746 0.018407 0.010877 0.000055
# 4 0.008179 -0.009283 0.018407 0.054730 -0.000446 0.005728
# 5 0.007018 -0.000788 0.010877 -0.000446 0.040551 -0.013372
# 6 -0.009528 -0.003828 0.000055 0.005728 -0.013372 0.033584
#
#
# Mechanical properties :
#
#
# Convention : Reuss Voigt Hill
#
# Bulk Modulus (GPa) = 16.58372 29.02733 22.80552
# Shear Modulus (GPa) = 22.11873 32.93531 27.52702
#
# Velocity S-wave (km/s) = 3.14202 3.83406 3.50516
# Velocity P-wave (km/s) = 4.53485 5.70577 5.15367
#
# Compressibility (1/GPa) = 0.06030011
#
# Stress axis : x y z
#
# Youngs Moduli (GPa) = 38.44611 91.43259 31.49959
#
# Poissons Ratio (x) = 0.38298 -0.13028
# Poissons Ratio (y) = 0.16104 0.13054
# Poissons Ratio (z) = -0.15901 0.37891
#
# Static dielectric constant tensor:
#      x y z
#    x 1.838270 -0.015740 -0.018390 
#    y -0.015740 1.821830 -0.000200 
#    z -0.018390 -0.000200 1.838110 
# 
# From -- ./inp_files/188783.got.cif
#   From: 2010.05.17/outbox.cif.g08.bks.cpg/sg2_95_cif.got.tgz:188783.got - 2010.06.03 11:33:40.
