data_PCOD9011551
_publ_section_title
;
Structure prediction by ZEFSAII (Michael W. Deem and Ramdas Pophale) SiO2 
 PCOD9011551
Probable space group: P -1
;
_chemical_formula_sum "Si O2"
_cell_formula_units_Z 12
_cell_length_a 12.056306
_cell_length_b 9.793960
_cell_length_c 8.955274
_cell_angle_alpha 56.869648
_cell_angle_beta 56.924131
_cell_angle_gamma 93.129798
_cell_volume 641.376264
_symmetry_space_group_name_H-M "P -1"
_symmetry_group_IT_number 2
_symmetry_cell_setting 'triclinic'
loop_
_space_group_symop_operation_xyz
x,y,z
-x,-y,-z
loop_
_atom_site_type_symbol
_atom_site_label
_atom_site_fract_x
_atom_site_fract_y
_atom_site_fract_z
Si Si1 0.845911 0.366957 0.778556
Si Si2 0.991755 0.168759 0.984390
Si Si3 0.194070 0.338933 0.168272
Si Si4 0.656499 0.178055 0.734095
Si Si5 0.666778 0.518555 0.345039
Si Si6 0.149159 0.958220 0.512561
O O1 0.897059 0.245691 0.915564
O O2 0.798527 0.497948 0.829342
O O3 0.732751 0.259106 0.790473
O O4 0.000000 0.500000 0.500000
O O5 0.171328 0.322814 0.792249
O O6 0.896518 0.092859 0.252145
O O7 0.000000 0.000000 0.000000
O O8 0.016217 0.184033 0.357106
O O9 0.234394 0.186077 0.296373
O O10 0.286826 0.438270 0.889867
O O11 0.642895 0.328983 0.551823
O O12 0.747358 0.108691 0.605311
O O13 0.500000 0.000000 0.000000
O O14 0.500000 0.500000 0.500000
#
# Coordination Sequence:
#
# PCOD9011551 Si02
#       6
#     2   2   2   2   2   2
#     4  12  22  42  68  96 127 164 225 262 312 382
#     4  11  24  40  69  98 126 168 218 264 311 382
#     4  10  21  40  68  95 125 171 211 265 314 384
#     4  12  26  43  65  96 133 172 208 268 326 375
#     4  11  24  43  65  94 135 169 208 264 327 375
#     4  10  21  40  66  95 130 164 215 259 323 380
#
# _framework density 18.709765000000001
#
# number of rings (size 3 to 8) (size 9 to 14) (size 15 to 20)
#    0.000    1.000    3.333    3.000    7.000    2.667 
#    3.000    3.333    0.000    0.000    0.000    0.000 
#    0.000    0.000    0.000    0.000    0.000    0.000 
#
# Total GULP energy -66816.391087 kJ/mol
# GULP energy per Si atom -5568.032591 kJ/mol
# Density = 1.866718 g / cm^3
# Si number density = 18.709765 Si / 1000 Ang^3
#
#
#
# Elastic Constant Matrix: (Units=GPa)
#
#
# Indices 1 2 3 4 5 6 
#
# 1 109.2324 86.1507 75.1301 -3.3496 16.9741 -18.8578
# 2 86.1507 186.1477 99.3076 9.7634 19.0109 -22.2973
# 3 75.1301 99.3076 167.8709 -3.3835 -2.3291 -6.4524
# 4 -3.3496 9.7634 -3.3835 33.0058 -9.5297 -2.9957
# 5 16.9741 19.0109 -2.3291 -9.5297 30.2654 -7.0041
# 6 -18.8578 -22.2973 -6.4524 -2.9957 -7.0041 27.0182
#
#
#
# Elastic Compliance Matrix: (Units=1/GPa)
#
#
# Indices 1 2 3 4 5 6 
#
# 1 0.018455 -0.004221 -0.005566 0.001373 -0.006162 0.006623
# 2 -0.004221 0.011165 -0.004806 -0.005738 -0.006154 0.002888
# 3 -0.005566 -0.004806 0.011373 0.003983 0.007642 -0.002712
# 4 0.001373 -0.005738 0.003983 0.037764 0.016326 0.005593
# 5 -0.006162 -0.006154 0.007642 0.016326 0.047618 0.006600
# 6 0.006623 0.002888 -0.002712 0.005593 0.006600 0.045702
#
#
# Mechanical properties :
#
#
# Convention : Reuss Voigt Hill
#
# Bulk Modulus (GPa) = 84.69029 109.38086 97.03557
# Shear Modulus (GPa) = 24.36659 31.56872 27.96766
#
# Velocity S-wave (km/s) = 3.61272 4.11211 3.87048
# Velocity P-wave (km/s) = 7.92249 9.00749 8.48235
#
# Compressibility (1/GPa) = 0.01180773
#
# Stress axis : x y z
#
# Youngs Moduli (GPa) = 54.18509 89.56579 87.92993
#
# Poissons Ratio (x) = 0.37810 0.48938
# Poissons Ratio (y) = 0.22874 0.42255
# Poissons Ratio (z) = 0.30157 0.43042
#
# Static dielectric constant tensor:
#      x y z
#    x 1.688830 -0.024740 0.000940 
#    y -0.024740 1.623750 -0.018200 
#    z 0.000940 -0.018200 1.597080 
# 
# From -- ./inp_files/145098.got.cif
#   From: 2010.05.17/outbox.cif.g08.bks.cpg/sg2_73_cif.got.tgz:145098.got - 2010.06.03 11:33:40.
