data_PCOD9011386
_publ_section_title
;
Structure prediction by ZEFSAII (Michael W. Deem and Ramdas Pophale) SiO2 
 PCOD9011386
Probable space group: P -1
;
_chemical_formula_sum "Si O2"
_cell_formula_units_Z 16
_cell_length_a 22.291618
_cell_length_b 8.752051
_cell_length_c 7.052860
_cell_angle_alpha 127.576430
_cell_angle_beta 122.298906
_cell_angle_gamma 38.060073
_cell_volume 668.151622
_symmetry_space_group_name_H-M "P -1"
_symmetry_group_IT_number 2
_symmetry_cell_setting 'triclinic'
loop_
_space_group_symop_operation_xyz
x,y,z
-x,-y,-z
loop_
_atom_site_type_symbol
_atom_site_label
_atom_site_fract_x
_atom_site_fract_y
_atom_site_fract_z
Si Si1 0.506029 0.423344 0.735748
Si Si2 0.083150 0.199140 0.671680
Si Si3 0.219201 0.270291 0.875781
Si Si4 0.151015 0.792389 0.203492
Si Si5 0.712198 0.844743 0.651399
Si Si6 0.432457 0.963096 0.945655
Si Si7 0.356409 0.356480 0.426136
Si Si8 0.883630 0.796635 0.824978
O O1 0.422381 0.419890 0.581856
O O2 0.612586 0.141572 0.661969
O O3 0.500000 0.500000 0.000000
O O4 0.483056 0.664396 0.772201
O O5 0.983526 0.503793 0.713931
O O6 0.084990 0.987753 0.415855
O O7 0.167634 0.163366 0.678945
O O8 0.107556 0.157504 0.904240
O O9 0.140177 0.590328 0.971162
O O10 0.254263 0.194190 0.099070
O O11 0.318101 0.142499 0.834059
O O12 0.262835 0.580618 0.308351
O O13 0.135799 0.972912 0.148774
O O14 0.686361 0.663427 0.470105
O O15 0.800133 0.789017 0.654331
O O16 0.422280 0.064593 0.220268
O O17 0.500000 0.000000 0.000000
#
# Coordination Sequence:
#
# PCOD9011386 Si02
#       8
#     2   2   2   2   2   2   2   2
#     4  12  21  37  65  83 119 174 206 244 323 368
#     4  10  21  43  67  87 129 163 202 263 323 359
#     4   9  20  40  58  90 127 161 209 260 304 378
#     4  10  21  40  66  86 128 164 205 255 321 367
#     4   9  20  38  59  87 126 155 211 263 293 371
#     4  10  22  38  56  87 126 157 209 262 299 368
#     4  10  23  40  58  90 125 167 206 259 310 372
#     4  10  22  40  66  97 119 162 215 259 306 383
#
# _framework density 23.946660000000001
#
# number of rings (size 3 to 8) (size 9 to 14) (size 15 to 20)
#    0.000    2.250    2.500    1.500    5.250    1.000 
#    2.250   13.750    0.000    0.000    0.000    0.000 
#    0.000    0.000    0.000    0.000    0.000    0.000 
#
# Total GULP energy -89373.268465 kJ/mol
# GULP energy per Si atom -5585.829279 kJ/mol
# Density = 2.389216 g / cm^3
# Si number density = 23.946660 Si / 1000 Ang^3
#
#
#
# Elastic Constant Matrix: (Units=GPa)
#
#
# Indices 1 2 3 4 5 6 
#
# 1 71.3758 30.0445 13.7826 0.5922 -7.6806 -2.6182
# 2 30.0445 141.2542 26.3107 21.5582 -0.1556 16.2334
# 3 13.7826 26.3107 60.3585 15.8353 4.5318 13.8873
# 4 0.5922 21.5582 15.8353 29.7586 2.2942 6.4921
# 5 -7.6806 -0.1556 4.5318 2.2942 31.0081 2.2939
# 6 -2.6182 16.2334 13.8873 6.4921 2.2939 27.1244
#
#
#
# Elastic Compliance Matrix: (Units=1/GPa)
#
#
# Indices 1 2 3 4 5 6 
#
# 1 0.017176 -0.003913 -0.004649 0.003508 0.004271 0.005179
# 2 -0.003913 0.009368 -0.000794 -0.005343 -0.000093 -0.004291
# 3 -0.004649 -0.000794 0.022724 -0.009189 -0.003120 -0.009145
# 4 0.003508 -0.005343 -0.009189 0.042779 -0.000838 -0.001927
# 5 0.004271 -0.000093 -0.003120 -0.000838 0.033869 -0.000598
# 6 0.005179 -0.004291 -0.009145 -0.001927 -0.000598 0.045129
#
#
# Mechanical properties :
#
#
# Convention : Reuss Voigt Hill
#
# Bulk Modulus (GPa) = 32.72652 45.91825 39.32238
# Shear Modulus (GPa) = 25.00705 31.10160 28.05433
#
# Velocity S-wave (km/s) = 3.23504 3.60778 3.42648
# Velocity P-wave (km/s) = 5.25833 6.04745 5.66664
#
# Compressibility (1/GPa) = 0.03055626
#
# Stress axis : x y z
#
# Youngs Moduli (GPa) = 58.22161 106.74487 44.00553
#
# Poissons Ratio (x) = 0.41771 0.20457
# Poissons Ratio (y) = 0.22783 0.03494
# Poissons Ratio (z) = 0.27066 0.08476
#
# Static dielectric constant tensor:
#      x y z
#    x 1.976700 0.047950 -0.034350 
#    y 0.047950 1.916160 -0.048740 
#    z -0.034350 -0.048740 1.995870 
# 
# From -- ./inp_files/351901.got.cif
#   From: 2010.05.17/outbox.cif.g08.bks.cpg/sg2_176_cif.got.tgz:351901.got - 2010.06.03 11:33:40.
