data_PCOD9011880
_publ_section_title
;
Structure prediction by ZEFSAII (Michael W. Deem and Ramdas Pophale) SiO2 
 PCOD9011880
Probable space group: P -1
;
_chemical_formula_sum "Si O2"
_cell_formula_units_Z 16
_cell_length_a 11.693179
_cell_length_b 17.704386
_cell_length_c 8.076891
_cell_angle_alpha 46.789609
_cell_angle_beta 139.969287
_cell_angle_gamma 133.621113
_cell_volume 733.304716
_symmetry_space_group_name_H-M "P -1"
_symmetry_group_IT_number 2
_symmetry_cell_setting 'triclinic'
loop_
_space_group_symop_operation_xyz
x,y,z
-x,-y,-z
loop_
_atom_site_type_symbol
_atom_site_label
_atom_site_fract_x
_atom_site_fract_y
_atom_site_fract_z
Si Si1 0.507242 0.618077 0.769017
Si Si2 0.401537 0.787915 0.888329
Si Si3 0.752684 0.264525 0.578131
Si Si4 0.999916 0.228940 0.424828
Si Si5 0.506988 0.023707 0.776799
Si Si6 0.918270 0.992223 0.734308
Si Si7 0.899754 0.764339 0.085679
Si Si8 0.391796 0.373827 0.512996
O O1 0.320742 0.647250 0.549080
O O2 0.571869 0.631445 0.632191
O O3 0.500000 0.500000 0.000000
O O4 0.675965 0.707356 0.921460
O O5 0.327254 0.758533 0.663528
O O6 0.212378 0.767272 0.823910
O O7 0.524841 0.918079 0.857487
O O8 0.516794 0.709411 0.178642
O O9 0.663993 0.143284 0.742638
O O10 0.979527 0.300194 0.771234
O O11 0.039977 0.228018 0.667498
O O12 0.168502 0.327139 0.380621
O O13 0.002575 0.108111 0.557101
O O14 0.306384 0.029482 0.482539
O O15 0.500000 0.000000 0.000000
O O16 0.948556 0.882206 0.872062
O O17 0.000000 0.000000 0.000000
O O18 0.500000 0.500000 0.500000
#
# Coordination Sequence:
#
# PCOD9011880 Si02
#       8
#     2   2   2   2   2   2   2   2
#     4  12  26  45  66  93 133 174 222 276 328 398
#     4  10  23  40  66  97 130 172 216 268 332 394
#     4  11  23  42  67  95 133 176 218 268 335 404
#     4   9  21  41  64  96 129 166 218 269 323 393
#     4  11  22  38  63  99 142 175 221 279 332 396
#     4   9  19  37  64  96 134 178 217 267 331 398
#     4  10  21  40  67  97 128 171 218 269 330 392
#     4  12  26  43  68  94 124 174 221 274 330 388
#
# _framework density 21.819035
#
# number of rings (size 3 to 8) (size 9 to 14) (size 15 to 20)
#    0.000    1.500    1.250    4.125    3.500    4.000 
#    0.000    1.250    0.000    0.000    0.000    0.000 
#    0.000    0.000    0.000    0.000    0.000    0.000 
#
# Total GULP energy -89398.270178 kJ/mol
# GULP energy per Si atom -5587.391886 kJ/mol
# Density = 2.176937 g / cm^3
# Si number density = 21.819035 Si / 1000 Ang^3
#
#
#
# Elastic Constant Matrix: (Units=GPa)
#
#
# Indices 1 2 3 4 5 6 
#
# 1 78.3050 9.1323 23.5984 -18.3812 16.2759 11.9804
# 2 9.1323 44.9452 -3.2210 -25.8817 12.0503 -2.4081
# 3 23.5984 -3.2210 68.9465 -11.7589 9.6758 -4.9398
# 4 -18.3812 -25.8817 -11.7589 36.4948 -6.0487 -1.7843
# 5 16.2759 12.0503 9.6758 -6.0487 39.1693 -3.9962
# 6 11.9804 -2.4081 -4.9398 -1.7843 -3.9962 21.1465
#
#
#
# Elastic Compliance Matrix: (Units=1/GPa)
#
#
# Indices 1 2 3 4 5 6 
#
# 1 0.019359 0.000858 -0.005332 0.006807 -0.007257 -0.012913
# 2 0.000858 0.046330 0.009951 0.035093 -0.010830 0.008029
# 3 -0.005332 0.009951 0.019699 0.010640 -0.003145 0.009059
# 4 0.006807 0.035093 0.010640 0.058360 -0.006598 0.006303
# 5 -0.007257 -0.010830 -0.003145 -0.006598 0.032423 0.007714
# 6 -0.012913 0.008029 0.009059 0.006303 0.007714 0.059625
#
#
# Mechanical properties :
#
#
# Convention : Reuss Voigt Hill
#
# Bulk Modulus (GPa) = 10.37966 27.91290 19.14628
# Shear Modulus (GPa) = 19.45868 30.20791 24.83330
#
# Velocity S-wave (km/s) = 2.98958 3.72489 3.37731
# Velocity P-wave (km/s) = 4.08464 5.59647 4.89922
#
# Compressibility (1/GPa) = 0.09634230
#
# Stress axis : x y z
#
# Youngs Moduli (GPa) = 51.65483 21.58443 50.76438
#
# Poissons Ratio (x) = -0.01852 0.27066
# Poissons Ratio (y) = -0.04433 -0.50514
# Poissons Ratio (z) = 0.27541 -0.21478
#
# Static dielectric constant tensor:
#      x y z
#    x 1.824660 0.004520 -0.010920 
#    y 0.004520 1.893770 0.027350 
#    z -0.010920 0.027350 1.785940 
# 
# From -- ./inp_files/278880.got.cif
#   From: 2010.05.17/outbox.cif.g08.bks.cpg/sg2_140_cif.got.tgz:278880.got - 2010.06.03 11:33:40.
