data_PCOD9011946
_publ_section_title
;
Structure prediction by ZEFSAII (Michael W. Deem and Ramdas Pophale) SiO2 
 PCOD9011946
Probable space group: P -1
;
_chemical_formula_sum "Si O2"
_cell_formula_units_Z 16
_cell_length_a 8.346119
_cell_length_b 12.442076
_cell_length_c 14.817062
_cell_angle_alpha 55.787956
_cell_angle_beta 128.095842
_cell_angle_gamma 143.681039
_cell_volume 710.145652
_symmetry_space_group_name_H-M "P -1"
_symmetry_group_IT_number 2
_symmetry_cell_setting 'triclinic'
loop_
_space_group_symop_operation_xyz
x,y,z
-x,-y,-z
loop_
_atom_site_type_symbol
_atom_site_label
_atom_site_fract_x
_atom_site_fract_y
_atom_site_fract_z
Si Si1 0.410358 0.717714 0.748562
Si Si2 0.254072 0.713283 0.506135
Si Si3 0.967447 0.114249 0.714493
Si Si4 0.338734 0.374565 0.877956
Si Si5 0.891762 0.464016 0.091907
Si Si6 0.171892 0.839424 0.056060
Si Si7 0.905469 0.934271 0.600182
Si Si8 0.826483 0.166693 0.145340
O O1 0.275807 0.736824 0.610144
O O2 0.392068 0.553582 0.800653
O O3 0.228598 0.659097 0.801663
O O4 0.735551 0.914056 0.774119
O O5 0.188845 0.817534 0.384539
O O6 0.000000 0.500000 0.500000
O O7 0.562514 0.794924 0.548725
O O8 0.026086 0.087558 0.646671
O O9 0.234829 0.261225 0.803037
O O10 0.082273 0.240371 0.925619
O O11 0.623464 0.434835 0.985125
O O12 0.945038 0.366568 0.091675
O O13 0.149196 0.673011 0.113361
O O14 0.485473 0.017962 0.115158
O O15 0.143637 0.876335 0.925660
O O16 0.000000 0.000000 0.500000
O O17 0.008042 0.843686 0.719461
#
# Coordination Sequence:
#
# PCOD9011946 Si02
#       8
#     2   2   2   2   2   2   2   2
#     4  10  21  40  68 100 135 174 229 288 332 402
#     4  11  24  47  76 102 132 180 242 292 339 410
#     4  11  25  44  73  98 139 179 233 283 350 406
#     4  11  24  40  73 104 133 173 244 282 335 410
#     4  11  25  40  71  98 141 181 228 281 347 407
#     4  10  24  44  64 100 140 179 226 281 338 419
#     4  11  28  46  72 101 143 181 231 287 352 417
#     4  11  26  44  66  96 145 183 221 278 358 413
#
# _framework density 22.530591000000001
#
# number of rings (size 3 to 8) (size 9 to 14) (size 15 to 20)
#    0.000    1.250    1.250    4.125   15.750    1.000 
#    2.250    0.625    0.000    0.000    0.000    0.000 
#    0.000    0.000    0.000    0.000    0.000    0.000 
#
# Total GULP energy -89541.694966 kJ/mol
# GULP energy per Si atom -5596.355935 kJ/mol
# Density = 2.247931 g / cm^3
# Si number density = 22.530591 Si / 1000 Ang^3
#
#
#
# Elastic Constant Matrix: (Units=GPa)
#
#
# Indices 1 2 3 4 5 6 
#
# 1 78.1125 20.6685 16.4049 -1.2465 -12.1838 5.1988
# 2 20.6685 126.7705 19.7202 -1.7467 -0.8106 -5.4170
# 3 16.4049 19.7202 81.1349 -5.5586 1.3837 14.3346
# 4 -1.2465 -1.7467 -5.5586 30.3334 -5.3510 -4.9226
# 5 -12.1838 -0.8106 1.3837 -5.3510 37.5757 -3.7635
# 6 5.1988 -5.4170 14.3346 -4.9226 -3.7635 29.2211
#
#
#
# Elastic Compliance Matrix: (Units=1/GPa)
#
#
# Indices 1 2 3 4 5 6 
#
# 1 0.014657 -0.002039 -0.002303 0.000726 0.004785 -0.001118
# 2 -0.002039 0.008709 -0.002227 0.000522 -0.000001 0.003157
# 3 -0.002303 -0.002227 0.014722 0.000947 -0.001935 -0.007315
# 4 0.000726 0.000522 0.000947 0.035237 0.005850 0.006193
# 5 0.004785 -0.000001 -0.001935 0.005850 0.029558 0.004890
# 6 -0.001118 0.003157 -0.007315 0.006193 0.004890 0.040267
#
#
# Mechanical properties :
#
#
# Convention : Reuss Voigt Hill
#
# Bulk Modulus (GPa) = 40.07561 44.40057 42.23809
# Shear Modulus (GPa) = 30.37575 34.70768 32.54171
#
# Velocity S-wave (km/s) = 3.67577 3.92914 3.80456
# Velocity P-wave (km/s) = 5.98672 6.35089 6.17149
#
# Compressibility (1/GPa) = 0.02495284
#
# Stress axis : x y z
#
# Youngs Moduli (GPa) = 68.22525 114.82197 67.92513
#
# Poissons Ratio (x) = 0.23409 0.15640
# Poissons Ratio (y) = 0.13909 0.15124
# Poissons Ratio (z) = 0.15709 0.25567
#
# Static dielectric constant tensor:
#      x y z
#    x 1.869200 -0.041690 -0.043160 
#    y -0.041690 1.869830 -0.015390 
#    z -0.043160 -0.015390 1.833030 
# 
# From -- ./inp_files/500093.got.cif
#   From: 2010.05.17/outbox.cif.g08.bks.cpg/sg2_251_cif.got.tgz:500093.got - 2010.06.03 11:33:40.
