data_PCOD9011170
_publ_section_title
;
Structure prediction by ZEFSAII (Michael W. Deem and Ramdas Pophale) SiO2 
 PCOD9011170
Probable space group: P -1
;
_chemical_formula_sum "Si O2"
_cell_formula_units_Z 14
_cell_length_a 11.259507
_cell_length_b 8.973743
_cell_length_c 11.802232
_cell_angle_alpha 53.176707
_cell_angle_beta 66.693293
_cell_angle_gamma 40.258173
_cell_volume 612.471754
_symmetry_space_group_name_H-M "P -1"
_symmetry_group_IT_number 2
_symmetry_cell_setting 'triclinic'
loop_
_space_group_symop_operation_xyz
x,y,z
-x,-y,-z
loop_
_atom_site_type_symbol
_atom_site_label
_atom_site_fract_x
_atom_site_fract_y
_atom_site_fract_z
Si Si1 0.501955 0.534995 0.117214
Si Si2 0.329735 0.076823 0.964094
Si Si3 0.170565 0.335348 0.264111
Si Si4 0.865294 0.415307 0.062466
Si Si5 0.587773 0.759219 0.331503
Si Si6 0.632068 0.685727 0.602041
Si Si7 0.925110 0.247838 0.345419
O O1 0.688281 0.459706 0.101731
O O2 0.472255 0.378101 0.270147
O O3 0.500000 0.500000 0.000000
O O4 0.340495 0.846288 0.072153
O O5 0.172753 0.350060 0.963580
O O6 0.348793 0.112086 0.809094
O O7 0.500000 0.000000 0.000000
O O8 0.206098 0.412431 0.330791
O O9 0.017120 0.335167 0.326971
O O10 0.365388 0.024070 0.301399
O O11 0.113039 0.542775 0.094390
O O12 0.984189 0.187736 0.218069
O O13 0.666606 0.617905 0.487683
O O14 0.699860 0.500773 0.325074
O O15 0.500000 0.000000 0.500000
O O16 0.000000 0.000000 0.500000
#
# Coordination Sequence:
#
# PCOD9011170 Si02
#       7
#     2   2   2   2   2   2   2
#     4  11  18  34  64  99 126 160 225 262 313 395
#     4   9  17  35  59  92 119 162 211 256 312 370
#     4  11  21  43  66  91 128 170 217 262 327 381
#     4  10  21  40  65  93 129 168 213 276 315 377
#     4  10  21  42  64  93 129 169 204 271 324 372
#     4  10  22  36  62 101 128 171 210 262 333 385
#     4  11  27  41  61  98 128 170 219 263 325 387
#
# _framework density 22.858196
#
# number of rings (size 3 to 8) (size 9 to 14) (size 15 to 20)
#    0.000    1.714    4.286    1.286    4.000    2.286 
#    0.000    0.000    0.000    4.286    0.000    0.000 
#    0.000    0.000    0.000    0.000    0.000    0.000 
#
# Total GULP energy -77981.796865 kJ/mol
# GULP energy per Si atom -5570.128348 kJ/mol
# Density = 2.280617 g / cm^3
# Si number density = 22.858196 Si / 1000 Ang^3
#
#
#
# Elastic Constant Matrix: (Units=GPa)
#
#
# Indices 1 2 3 4 5 6 
#
# 1 94.3890 19.5398 50.6388 5.7641 1.4950 10.7417
# 2 19.5398 55.4577 25.8563 5.4431 -8.4636 -4.1494
# 3 50.6388 25.8563 218.2025 4.0311 -3.6017 20.9135
# 4 5.7641 5.4431 4.0311 42.7772 11.3101 3.9129
# 5 1.4950 -8.4636 -3.6017 11.3101 41.7964 -0.4697
# 6 10.7417 -4.1494 20.9135 3.9129 -0.4697 35.2069
#
#
#
# Elastic Compliance Matrix: (Units=1/GPa)
#
#
# Indices 1 2 3 4 5 6 
#
# 1 0.013025 -0.003928 -0.002280 -0.000395 -0.001385 -0.003057
# 2 -0.003928 0.022046 -0.002065 -0.004067 0.005590 0.005550
# 3 -0.002280 -0.002065 0.005632 0.000298 0.000035 -0.002926
# 4 -0.000395 -0.004067 0.000298 0.026349 -0.007954 -0.003570
# 5 -0.001385 0.005590 0.000035 -0.007954 0.027288 0.002309
# 6 -0.003057 0.005550 -0.002926 -0.003570 0.002309 0.032156
#
#
# Mechanical properties :
#
#
# Convention : Reuss Voigt Hill
#
# Bulk Modulus (GPa) = 41.39543 62.23545 51.81544
# Shear Modulus (GPa) = 33.09190 42.09038 37.59114
#
# Velocity S-wave (km/s) = 3.80900 4.29577 4.05969
# Velocity P-wave (km/s) = 6.12320 7.20352 6.68522
#
# Compressibility (1/GPa) = 0.02415725
#
# Stress axis : x y z
#
# Youngs Moduli (GPa) = 76.77808 45.35966 177.54835
#
# Poissons Ratio (x) = 0.17815 0.40478
# Poissons Ratio (y) = 0.30155 0.36672
# Poissons Ratio (z) = 0.17504 0.09369
#
# Static dielectric constant tensor:
#      x y z
#    x 1.919580 -0.060380 0.050070 
#    y -0.060380 1.987170 0.048430 
#    z 0.050070 0.048430 1.926220 
# 
# From -- ./inp_files/243493.got.cif
#   From: 2010.05.17/outbox.cif.g08.bks.cpg/sg2_122_cif.got.tgz:243493.got - 2010.06.03 11:33:40.
