data_PCOD9011063
_publ_section_title
;
Structure prediction by ZEFSAII (Michael W. Deem and Ramdas Pophale) SiO2 
 PCOD9011063
Probable space group: P -1
;
_chemical_formula_sum "Si O2"
_cell_formula_units_Z 14
_cell_length_a 14.854925
_cell_length_b 8.389340
_cell_length_c 20.988319
_cell_angle_alpha 143.794379
_cell_angle_beta 29.894504
_cell_angle_gamma 151.491587
_cell_volume 610.938477
_symmetry_space_group_name_H-M "P -1"
_symmetry_group_IT_number 2
_symmetry_cell_setting 'triclinic'
loop_
_space_group_symop_operation_xyz
x,y,z
-x,-y,-z
loop_
_atom_site_type_symbol
_atom_site_label
_atom_site_fract_x
_atom_site_fract_y
_atom_site_fract_z
Si Si1 0.131914 0.180905 0.298116
Si Si2 0.403598 0.705903 0.776192
Si Si3 0.337626 0.788533 0.627677
Si Si4 0.415487 0.663463 0.905142
Si Si5 0.155271 0.044242 0.477719
Si Si6 0.788973 0.072628 0.381284
Si Si7 0.938801 0.391391 0.139355
O O1 0.401420 0.401212 0.212699
O O2 0.030960 0.249745 0.322636
O O3 0.009754 0.185291 0.437645
O O4 0.042675 0.788414 0.216606
O O5 0.430634 0.749909 0.849153
O O6 0.644337 0.958070 0.673743
O O7 0.215833 0.727197 0.866945
O O8 0.315620 0.319716 0.694020
O O9 0.286846 0.424817 0.547002
O O10 0.214503 0.780658 0.636587
O O11 0.223663 0.813991 0.767397
O O12 0.605755 0.050541 0.533020
O O13 0.152669 0.391254 0.997627
O O14 0.500000 0.000000 0.000000
O O15 0.000000 0.000000 0.500000
#
# Coordination Sequence:
#
# PCOD9011063 Si02
#       7
#     2   2   2   2   2   2   2
#     4   9  17  31  50  75 101 129 159 200 249 285
#     4  10  18  31  53  75  97 128 166 202 243 289
#     4   9  18  33  52  74 101 129 161 201 244 288
#     4  10  19  31  49  74 103 127 161 208 245 283
#     4  10  17  29  52  78 102 122 158 207 245 286
#     4   9  18  33  54  72  99 132 162 197 246 296
#     4   9  18  31  51  74  95 129 169 203 234 286
#
# _framework density 22.915565999999998
#
# number of rings (size 3 to 8) (size 9 to 14) (size 15 to 20)
#    0.000    2.571    1.429    1.286    0.000    3.429 
#    0.000    2.143    3.143    0.000    0.000    0.000 
#    0.000    0.000    0.000    0.000    0.000    0.000 
#
# Total GULP energy -78244.661580 kJ/mol
# GULP energy per Si atom -5588.904399 kJ/mol
# Density = 2.286341 g / cm^3
# Si number density = 22.915566 Si / 1000 Ang^3
#
#
#
# Elastic Constant Matrix: (Units=GPa)
#
#
# Indices 1 2 3 4 5 6 
#
# 1 146.9394 30.4441 97.2587 -40.0550 -15.0518 24.9716
# 2 30.4441 74.5132 39.6356 -8.7891 -6.0276 3.1518
# 3 97.2587 39.6356 136.5051 -27.9054 1.7463 16.1886
# 4 -40.0550 -8.7891 -27.9054 34.3400 7.5504 -6.4280
# 5 -15.0518 -6.0276 1.7463 7.5504 24.6969 -5.7924
# 6 24.9716 3.1518 16.1886 -6.4280 -5.7924 26.5725
#
#
#
# Elastic Compliance Matrix: (Units=1/GPa)
#
#
# Indices 1 2 3 4 5 6 
#
# 1 0.018189 0.000041 -0.010179 0.010100 0.007108 -0.006904
# 2 0.000041 0.016450 -0.005285 -0.000764 0.005156 0.002169
# 3 -0.010179 -0.005285 0.016922 0.002367 -0.009808 -0.001682
# 4 0.010100 -0.000764 0.002367 0.044049 -0.008124 -0.001958
# 5 0.007108 0.005156 -0.009808 -0.008124 0.051102 0.007858
# 6 -0.006904 0.002169 -0.001682 -0.001958 0.007858 0.046128
#
#
# Mechanical properties :
#
#
# Convention : Reuss Voigt Hill
#
# Bulk Modulus (GPa) = 48.27467 76.95938 62.61702
# Shear Modulus (GPa) = 21.68350 29.82982 25.75666
#
# Velocity S-wave (km/s) = 3.07943 3.61186 3.35622
# Velocity P-wave (km/s) = 5.80998 7.14499 6.51179
#
# Compressibility (1/GPa) = 0.02071480
#
# Stress axis : x y z
#
# Youngs Moduli (GPa) = 54.97810 60.78964 59.09607
#
# Poissons Ratio (x) = -0.00251 0.60154
# Poissons Ratio (y) = -0.00227 0.31234
# Poissons Ratio (z) = 0.55962 0.32129
#
# Static dielectric constant tensor:
#      x y z
#    x 1.811600 0.006710 -0.016970 
#    y 0.006710 1.890600 0.015610 
#    z -0.016970 0.015610 1.846930 
# 
# From -- ./inp_files/161555.got.cif
#   From: 2010.05.17/outbox.cif.g08.bks.cpg/sg2_81_cif.got.tgz:161555.got - 2010.06.03 11:33:40.
