data_PCOD9011362
_publ_section_title
;
Structure prediction by ZEFSAII (Michael W. Deem and Ramdas Pophale) SiO2 
 PCOD9011362
Probable space group: P -1
;
_chemical_formula_sum "Si O2"
_cell_formula_units_Z 13
_cell_length_a 8.566826
_cell_length_b 9.234014
_cell_length_c 14.725982
_cell_angle_alpha 30.420982
_cell_angle_beta 96.838053
_cell_angle_gamma 97.616330
_cell_volume 584.624675
_symmetry_space_group_name_H-M "P -1"
_symmetry_group_IT_number 2
_symmetry_cell_setting 'triclinic'
loop_
_space_group_symop_operation_xyz
x,y,z
-x,-y,-z
loop_
_atom_site_type_symbol
_atom_site_label
_atom_site_fract_x
_atom_site_fract_y
_atom_site_fract_z
Si Si1 0.000000 0.500000 0.000000
Si Si2 0.579903 0.905499 0.856801
Si Si3 0.380960 0.190718 0.442398
Si Si4 0.148221 0.204362 0.930607
Si Si5 0.091902 0.826080 0.674233
Si Si6 0.428160 0.244265 0.797385
Si Si7 0.665075 0.612595 0.855012
O O1 0.806756 0.467564 0.993103
O O2 0.004559 0.795718 0.780172
O O3 0.623899 0.884703 0.765980
O O4 0.455784 0.125611 0.763108
O O5 0.739243 0.939898 0.909413
O O6 0.493054 0.597409 0.042698
O O7 0.473229 0.456513 0.351351
O O8 0.289966 0.330555 0.276348
O O9 0.500000 0.000000 0.500000
O O10 0.263172 0.988518 0.601822
O O11 0.099723 0.495632 0.818897
O O12 0.256284 0.273493 0.812181
O O13 0.000000 0.000000 0.000000
O O14 0.000000 0.000000 0.500000
O O15 0.500000 0.000000 0.000000
#
# Coordination Sequence:
#
# PCOD9011362 Si02
#       7
#     1   2   2   2   2   2   2
#     4  12  26  42  66 106 142 186 228 298 362 416
#     4  10  22  39  67 100 136 190 233 284 356 424
#     4  12  23  44  71 101 141 186 246 290 348 433
#     4  11  23  40  67 103 141 185 239 291 361 429
#     4  12  26  43  70 105 137 189 239 297 354 427
#     4  10  21  40  66 101 136 185 238 285 354 425
#     4  11  22  42  69  98 146 181 238 288 352 427
#
# _framework density 22.236488000000001
#
# number of rings (size 3 to 8) (size 9 to 14) (size 15 to 20)
#    0.000    0.923    7.692    0.000    8.615    0.000 
#    0.000    0.769    3.385    2.769    0.000    0.000 
#    0.000    0.000    0.000    0.000    0.000    0.000 
#
# Total GULP energy -72367.504024 kJ/mol
# GULP energy per Si atom -5566.731079 kJ/mol
# Density = 2.218588 g / cm^3
# Si number density = 22.236488 Si / 1000 Ang^3
#
#
#
# Elastic Constant Matrix: (Units=GPa)
#
#
# Indices 1 2 3 4 5 6 
#
# 1 85.3665 16.8287 8.5807 -7.1701 -28.9430 32.5766
# 2 16.8287 96.1154 3.9591 -23.1044 -18.6240 10.5311
# 3 8.5807 3.9591 68.3770 -3.8657 -29.6423 14.1156
# 4 -7.1701 -23.1044 -3.8657 40.4844 1.1749 -2.2877
# 5 -28.9430 -18.6240 -29.6423 1.1749 51.7697 -5.8612
# 6 32.5766 10.5311 14.1156 -2.2877 -5.8612 31.1102
#
#
#
# Elastic Compliance Matrix: (Units=1/GPa)
#
#
# Indices 1 2 3 4 5 6 
#
# 1 0.031041 0.003618 0.013015 0.006187 0.022001 -0.035034
# 2 0.003618 0.014229 0.004721 0.008480 0.008691 -0.008486
# 3 0.013015 0.004721 0.027273 0.005666 0.021851 -0.023068
# 4 0.006187 0.008480 0.005666 0.030481 0.008140 -0.008145
# 5 0.022001 0.008691 0.021851 0.008140 0.044012 -0.027004
# 6 -0.035034 -0.008486 -0.023068 -0.008145 -0.027004 0.076482
#
#
# Mechanical properties :
#
#
# Convention : Reuss Voigt Hill
#
# Bulk Modulus (GPa) = 8.67671 34.28842 21.48257
# Shear Modulus (GPa) = 22.80743 39.37222 31.08982
#
# Velocity S-wave (km/s) = 3.20609 4.21243 3.74323
# Velocity P-wave (km/s) = 4.19712 6.25402 5.32582
#
# Compressibility (1/GPa) = 0.11525104
#
# Stress axis : x y z
#
# Youngs Moduli (GPa) = 32.21531 70.28109 36.66622
#
# Poissons Ratio (x) = -0.25427 -0.47721
# Poissons Ratio (y) = -0.11655 -0.17311
# Poissons Ratio (z) = -0.41928 -0.33181
#
# Static dielectric constant tensor:
#      x y z
#    x 1.861430 -0.019630 0.009590 
#    y -0.019630 1.971280 0.120260 
#    z 0.009590 0.120260 1.874230 
# 
# From -- ./inp_files/149958.got.cif
#   From: 2010.05.17/outbox.cif.g08.bks.cpg/sg2_75_cif.got.tgz:149958.got - 2010.06.03 11:33:40.
