data_PCOD9011359
_publ_section_title
;
Structure prediction by ZEFSAII (Michael W. Deem and Ramdas Pophale) SiO2 
 PCOD9011359
Probable space group: P -1
;
_chemical_formula_sum "Si O2"
_cell_formula_units_Z 16
_cell_length_a 10.691353
_cell_length_b 13.452596
_cell_length_c 11.821299
_cell_angle_alpha 54.685816
_cell_angle_beta 143.282113
_cell_angle_gamma 139.859819
_cell_volume 652.641886
_symmetry_space_group_name_H-M "P -1"
_symmetry_group_IT_number 2
_symmetry_cell_setting 'triclinic'
loop_
_space_group_symop_operation_xyz
x,y,z
-x,-y,-z
loop_
_atom_site_type_symbol
_atom_site_label
_atom_site_fract_x
_atom_site_fract_y
_atom_site_fract_z
Si Si1 0.799505 0.427790 0.547074
Si Si2 0.260666 0.719629 0.794635
Si Si3 0.747718 0.565361 0.219506
Si Si4 0.814213 0.537663 0.921579
Si Si5 0.986957 0.155822 0.021991
Si Si6 0.844688 0.856256 0.099586
Si Si7 0.593295 0.327240 0.712668
Si Si8 0.426841 0.018811 0.809986
O O1 0.632639 0.359038 0.586223
O O2 0.385400 0.546178 0.274905
O O3 0.022913 0.610068 0.610886
O O4 0.985025 0.377215 0.691881
O O5 0.228216 0.842453 0.740940
O O6 0.245048 0.598245 0.949269
O O7 0.553225 0.808224 0.897501
O O8 0.679508 0.428744 0.341997
O O9 0.800281 0.712095 0.223743
O O10 0.500000 0.500000 0.000000
O O11 0.824554 0.673742 0.898753
O O12 0.130058 0.633542 0.064697
O O13 0.035090 0.143041 0.933602
O O14 0.000206 0.020708 0.167763
O O15 0.688760 0.096313 0.870064
O O16 0.372949 0.144010 0.692125
O O17 0.500000 0.000000 0.000000
#
# Coordination Sequence:
#
# PCOD9011359 Si02
#       8
#     2   2   2   2   2   2   2   2
#     4  10  22  36  60  93 118 157 209 248 302 373
#     4  10  18  31  57  91 115 158 208 245 298 370
#     4  11  21  38  64  88 120 159 200 253 309 372
#     4   9  16  28  51  85 115 159 203 241 302 356
#     4   9  20  30  50  84 118 159 201 247 304 363
#     4  10  19  35  55  82 120 156 199 248 308 362
#     4   9  17  31  51  84 125 155 198 256 298 359
#     4  10  17  29  52  88 123 160 210 245 301 366
#
# _framework density 24.515740999999998
#
# number of rings (size 3 to 8) (size 9 to 14) (size 15 to 20)
#    0.000    2.250    2.500    2.250    1.750    0.000 
#    0.000    0.000    5.500    6.750    0.000    0.000 
#    0.000    0.000    0.000    0.000    0.000    0.125 
#
# Total GULP energy -89156.911375 kJ/mol
# GULP energy per Si atom -5572.306961 kJ/mol
# Density = 2.445994 g / cm^3
# Si number density = 24.515741 Si / 1000 Ang^3
#
#
#
# Elastic Constant Matrix: (Units=GPa)
#
#
# Indices 1 2 3 4 5 6 
#
# 1 81.1543 25.3496 23.3774 -11.8561 -12.3266 -6.8929
# 2 25.3496 138.7269 29.2956 -51.2403 5.1869 -33.1732
# 3 23.3774 29.2956 71.4504 -22.1645 -14.3509 -7.2668
# 4 -11.8561 -51.2403 -22.1645 36.9775 1.0753 19.4332
# 5 -12.3266 5.1869 -14.3509 1.0753 28.8751 -7.8148
# 6 -6.8929 -33.1732 -7.2668 19.4332 -7.8148 42.6215
#
#
#
# Elastic Compliance Matrix: (Units=1/GPa)
#
#
# Indices 1 2 3 4 5 6 
#
# 1 0.014737 -0.002413 -0.002949 -0.001464 0.005782 0.001730
# 2 -0.002413 0.015664 -0.000053 0.020012 -0.004097 0.001916
# 3 -0.002949 -0.000053 0.019971 0.011075 0.008079 -0.000681
# 4 -0.001464 0.020012 0.011075 0.069137 -0.005429 -0.015291
# 5 0.005782 -0.004097 0.008079 -0.005429 0.044705 0.009796
# 6 0.001730 0.001916 -0.000681 -0.015291 0.009796 0.033886
#
#
# Mechanical properties :
#
#
# Convention : Reuss Voigt Hill
#
# Bulk Modulus (GPa) = 25.29012 49.70856 37.49934
# Shear Modulus (GPa) = 22.51130 35.91542 29.21336
#
# Velocity S-wave (km/s) = 3.03353 3.83168 3.45572
# Velocity P-wave (km/s) = 4.75479 6.31632 5.59034
#
# Compressibility (1/GPa) = 0.03954114
#
# Stress axis : x y z
#
# Youngs Moduli (GPa) = 67.85746 63.84226 50.07154
#
# Poissons Ratio (x) = 0.15408 0.14767
# Poissons Ratio (y) = 0.16377 0.00264
# Poissons Ratio (z) = 0.20012 0.00337
#
# Static dielectric constant tensor:
#      x y z
#    x 2.089500 -0.028100 0.045790 
#    y -0.028100 2.107190 -0.048710 
#    z 0.045790 -0.048710 2.035700 
# 
# From -- ./inp_files/595369.got.cif
#   From: 2010.05.17/outbox.cif.g08.bks.cpg/sg2_298_cif.got.tgz:595369.got - 2010.06.03 11:33:40.
