data_PCOD9011301
_publ_section_title
;
Structure prediction by ZEFSAII (Michael W. Deem and Ramdas Pophale) SiO2 
 PCOD9011301
Probable space group: P -1
;
_chemical_formula_sum "Si O2"
_cell_formula_units_Z 15
_cell_length_a 4.951143
_cell_length_b 17.159324
_cell_length_c 20.469062
_cell_angle_alpha 23.584641
_cell_angle_beta 110.997289
_cell_angle_gamma 108.761992
_cell_volume 649.477921
_symmetry_space_group_name_H-M "P -1"
_symmetry_group_IT_number 2
_symmetry_cell_setting 'triclinic'
loop_
_space_group_symop_operation_xyz
x,y,z
-x,-y,-z
loop_
_atom_site_type_symbol
_atom_site_label
_atom_site_fract_x
_atom_site_fract_y
_atom_site_fract_z
Si Si1 0.650557 0.713416 0.281065
Si Si2 0.683730 0.194552 0.362129
Si Si3 0.285173 0.636693 0.112222
Si Si4 0.625258 0.004419 0.865845
Si Si5 0.882134 0.398372 0.344737
Si Si6 0.185014 0.692617 0.442515
Si Si7 0.000000 0.000000 0.000000
Si Si8 0.099257 0.422713 0.137835
O O1 0.380742 0.833828 0.197722
O O2 0.625943 0.494806 0.421253
O O3 0.886683 0.695567 0.373138
O O4 0.774617 0.840840 0.136100
O O5 0.850304 0.228605 0.418557
O O6 0.430752 0.356793 0.208922
O O7 0.909798 0.242214 0.287400
O O8 0.500000 0.000000 0.500000
O O9 0.595642 0.531902 0.211085
O O10 0.095468 0.581781 0.074209
O O11 0.144632 0.528432 0.244135
O O12 0.360758 0.862188 0.951883
O O13 0.652767 0.117332 0.714313
O O14 0.924318 0.910361 0.988066
O O15 0.888446 0.321190 0.477859
O O16 0.000000 0.500000 0.000000
#
# Coordination Sequence:
#
# PCOD9011301 Si02
#       8
#     2   2   2   2   2   2   1   2
#     4  10  22  39  58  84 119 154 210 259 316 367
#     4  10  21  40  65  97 130 167 212 256 310 390
#     4  10  24  41  65  89 129 163 213 256 307 384
#     4  11  23  39  61  88 118 162 212 261 317 368
#     4  10  23  43  63  91 126 169 205 255 318 368
#     4  10  23  39  58  86 120 156 205 262 317 363
#     4  10  22  38  58  86 110 156 210 248 314 370
#     4  10  21  41  64  97 130 170 207 261 318 371
#
# _framework density 23.095475
#
# number of rings (size 3 to 8) (size 9 to 14) (size 15 to 20)
#    0.000    1.867    0.000    2.400    7.467    1.067 
#    4.800    0.000    0.000    0.000    0.000    0.000 
#    0.000    0.000    0.000    0.000    0.000    0.000 
#
# Total GULP energy -83644.047886 kJ/mol
# GULP energy per Si atom -5576.269859 kJ/mol
# Density = 2.304291 g / cm^3
# Si number density = 23.095475 Si / 1000 Ang^3
#
#
#
# Elastic Constant Matrix: (Units=GPa)
#
#
# Indices 1 2 3 4 5 6 
#
# 1 84.6304 10.9507 17.9442 -4.5914 -31.2235 -0.8281
# 2 10.9507 108.8884 82.2788 22.0063 -28.6249 2.4839
# 3 17.9442 82.2788 88.5570 16.2206 -46.3775 1.6048
# 4 -4.5914 22.0063 16.2206 39.9447 -1.2670 -10.5868
# 5 -31.2235 -28.6249 -46.3775 -1.2670 48.9228 -0.2349
# 6 -0.8281 2.4839 1.6048 -10.5868 -0.2349 29.7180
#
#
#
# Elastic Compliance Matrix: (Units=1/GPa)
#
#
# Indices 1 2 3 4 5 6 
#
# 1 0.016859 -0.005181 0.010301 0.001429 0.017536 0.000994
# 2 -0.005181 0.043864 -0.054007 -0.004468 -0.028968 -0.002715
# 3 0.010301 -0.054007 0.093850 -0.005617 0.063788 -0.001764
# 4 0.001429 -0.004468 -0.005617 0.033044 -0.006111 0.012440
# 5 0.017536 -0.028968 0.063788 -0.006111 0.074984 -0.002119
# 6 0.000994 -0.002715 -0.001764 0.012440 -0.002119 0.038414
#
#
# Mechanical properties :
#
#
# Convention : Reuss Voigt Hill
#
# Bulk Modulus (GPa) = 17.60598 56.04703 36.82650
# Shear Modulus (GPa) = 11.96966 35.11057 23.54011
#
# Velocity S-wave (km/s) = 2.27902 3.90325 3.19604
# Velocity P-wave (km/s) = 3.81640 6.68087 5.44054
#
# Compressibility (1/GPa) = 0.05679888
#
# Stress axis : x y z
#
# Youngs Moduli (GPa) = 59.31509 22.79784 10.65528
#
# Poissons Ratio (x) = 0.11812 -0.10976
# Poissons Ratio (y) = 0.30731 0.57546
# Poissons Ratio (z) = -0.61102 1.23125
#
# Static dielectric constant tensor:
#      x y z
#    x 1.656250 -0.090230 -0.136660 
#    y -0.090230 1.881880 -0.135780 
#    z -0.136660 -0.135780 1.758220 
# 
# From -- ./inp_files/56667.got.cif
#   From: 2010.05.17/outbox.cif.g08.bks.cpg/sg2_29_cif.got.tgz:56667.got - 2010.06.03 11:33:40.
