data_PCOD9011710
_publ_section_title
;
Structure prediction by ZEFSAII (Michael W. Deem and Ramdas Pophale) SiO2 
 PCOD9011710
Probable space group: P -1
;
_chemical_formula_sum "Si O2"
_cell_formula_units_Z 16
_cell_length_a 18.167792
_cell_length_b 7.538607
_cell_length_c 7.836715
_cell_angle_alpha 143.848000
_cell_angle_beta 99.793105
_cell_angle_gamma 81.791902
_cell_volume 623.926588
_symmetry_space_group_name_H-M "P -1"
_symmetry_group_IT_number 2
_symmetry_cell_setting 'triclinic'
loop_
_space_group_symop_operation_xyz
x,y,z
-x,-y,-z
loop_
_atom_site_type_symbol
_atom_site_label
_atom_site_fract_x
_atom_site_fract_y
_atom_site_fract_z
Si Si1 0.715019 0.626948 0.704757
Si Si2 0.093333 0.460300 0.140742
Si Si3 0.811918 0.117911 0.319281
Si Si4 0.965537 0.320258 0.194536
Si Si5 0.717919 0.796509 0.452389
Si Si6 0.561674 0.900153 0.811658
Si Si7 0.817171 0.345843 0.977599
Si Si8 0.563576 0.551420 0.203933
O O1 0.722625 0.612851 0.490554
O O2 0.628736 0.704032 0.765096
O O3 0.743183 0.302567 0.531791
O O4 0.762131 0.908412 0.011741
O O5 0.130246 0.680017 0.187205
O O6 0.006816 0.454699 0.148472
O O7 0.136110 0.579346 0.420926
O O8 0.120958 0.132967 0.832928
O O9 0.000000 0.500000 0.500000
O O10 0.877202 0.305260 0.120641
O O11 0.000000 0.000000 0.000000
O O12 0.632980 0.754618 0.328714
O O13 0.750746 0.113633 0.764095
O O14 0.775526 0.662999 0.233136
O O15 0.534016 0.713518 0.490934
O O16 0.500000 0.000000 0.000000
O O17 0.593226 0.217007 0.001413
O O18 0.500000 0.500000 0.000000
#
# Coordination Sequence:
#
# PCOD9011710 Si02
#       8
#     2   2   2   2   2   2   2   2
#     4  10  21  40  67 102 137 179 230 297 344 404
#     4  11  25  46  66 101 145 179 229 287 366 406
#     4  10  22  38  70  93 138 176 229 285 348 396
#     4  12  28  44  72 105 135 186 242 288 351 424
#     4  11  24  41  74 100 139 187 240 274 366 416
#     4  11  23  44  72 107 140 189 243 288 371 431
#     4  12  26  46  70 102 145 182 231 296 354 424
#     4  11  24  47  72 106 149 191 238 300 353 441
#
# _framework density 25.644043
#
# number of rings (size 3 to 8) (size 9 to 14) (size 15 to 20)
#    0.000    1.000    0.000    7.125   10.500    0.000 
#    9.000    3.750    0.000    0.000    0.000    0.000 
#    0.000    0.000    0.000    0.000    0.000    0.000 
#
# Total GULP energy -89265.351375 kJ/mol
# GULP energy per Si atom -5579.084461 kJ/mol
# Density = 2.558568 g / cm^3
# Si number density = 25.644043 Si / 1000 Ang^3
#
#
#
# Elastic Constant Matrix: (Units=GPa)
#
#
# Indices 1 2 3 4 5 6 
#
# 1 172.9621 15.3642 63.0004 -13.1615 19.7006 -3.2057
# 2 15.3642 38.7492 22.0569 -10.6455 10.3457 1.6885
# 3 63.0004 22.0569 200.1553 11.8179 13.0668 -6.5793
# 4 -13.1615 -10.6455 11.8179 44.6745 0.6648 -5.5547
# 5 19.7006 10.3457 13.0668 0.6648 35.7171 -6.8441
# 6 -3.2057 1.6885 -6.5793 -5.5547 -6.8441 32.3877
#
#
#
# Elastic Compliance Matrix: (Units=1/GPa)
#
#
# Indices 1 2 3 4 5 6 
#
# 1 0.007157 0.000024 -0.002208 0.002753 -0.003187 0.000057
# 2 0.000024 0.032699 -0.003630 0.008537 -0.008861 -0.002848
# 3 -0.002208 -0.003630 0.006287 -0.003087 0.000171 0.000755
# 4 0.002753 0.008537 -0.003087 0.026480 -0.002749 0.003161
# 5 -0.003187 -0.008861 0.000171 -0.002749 0.033617 0.006814
# 6 0.000057 -0.002848 0.000755 0.003161 0.006814 0.033165
#
#
# Mechanical properties :
#
#
# Convention : Reuss Voigt Hill
#
# Bulk Modulus (GPa) = 28.97306 68.07884 48.52595
# Shear Modulus (GPa) = 30.76180 43.31887 37.04033
#
# Velocity S-wave (km/s) = 3.46724 4.11449 3.80465
# Velocity P-wave (km/s) = 5.22988 7.01265 6.18583
#
# Compressibility (1/GPa) = 0.03451482
#
# Stress axis : x y z
#
# Youngs Moduli (GPa) = 139.71692 30.58176 159.05717
#
# Poissons Ratio (x) = -0.00072 0.35120
# Poissons Ratio (y) = -0.00331 0.57739
# Poissons Ratio (z) = 0.30850 0.11101
#
# Static dielectric constant tensor:
#      x y z
#    x 2.044850 -0.005350 -0.004460 
#    y -0.005350 2.193120 -0.039490 
#    z -0.004460 -0.039490 1.881630 
# 
# From -- ./inp_files/329734.got.cif
#   From: 2010.05.17/outbox.cif.g08.bks.cpg/sg2_165_cif.got.tgz:329734.got - 2010.06.03 11:33:40.
