data_PCOD9011949
_publ_section_title
;
Structure prediction by ZEFSAII (Michael W. Deem and Ramdas Pophale) SiO2 
 PCOD9011949
Probable space group: P -1
;
_chemical_formula_sum "Si O2"
_cell_formula_units_Z 16
_cell_length_a 9.032613
_cell_length_b 12.968341
_cell_length_c 8.346991
_cell_angle_alpha 62.002155
_cell_angle_beta 105.157811
_cell_angle_gamma 119.949467
_cell_volume 747.566686
_symmetry_space_group_name_H-M "P -1"
_symmetry_group_IT_number 2
_symmetry_cell_setting 'triclinic'
loop_
_space_group_symop_operation_xyz
x,y,z
-x,-y,-z
loop_
_atom_site_type_symbol
_atom_site_label
_atom_site_fract_x
_atom_site_fract_y
_atom_site_fract_z
Si Si1 0.804647 0.468089 0.980085
Si Si2 0.452244 0.217931 0.496248
Si Si3 0.262328 0.772420 0.649498
Si Si4 0.341738 0.355961 0.087342
Si Si5 0.942541 0.860314 0.005120
Si Si6 0.135948 0.962084 0.657354
Si Si7 0.743276 0.432176 0.626917
Si Si8 0.001209 0.341225 0.626484
O O1 0.801764 0.593467 0.968532
O O2 0.724390 0.454130 0.791090
O O3 0.717407 0.332856 0.151215
O O4 0.000000 0.500000 0.000000
O O5 0.567063 0.169914 0.452849
O O6 0.379801 0.292645 0.301754
O O7 0.301116 0.098993 0.626664
O O8 0.579126 0.318645 0.585704
O O9 0.108198 0.692819 0.542104
O O10 0.205476 0.871779 0.648049
O O11 0.256962 0.237086 0.022802
O O12 0.500000 0.500000 0.000000
O O13 0.044310 0.890423 0.844809
O O14 0.003221 0.783727 0.201841
O O15 0.000000 0.000000 0.000000
O O16 0.000000 0.000000 0.500000
O O17 0.806724 0.559495 0.440111
O O18 0.904766 0.398758 0.674277
#
# Coordination Sequence:
#
# PCOD9011949 Si02
#       8
#     2   2   2   2   2   2   2   2
#     4  12  23  40  72 105 137 182 234 289 350 420
#     4  11  25  45  68 101 146 186 232 291 354 414
#     4  11  23  44  72 101 140 184 234 287 351 425
#     4  12  25  45  71 103 142 182 231 291 356 419
#     4  12  27  45  71 100 142 187 238 288 355 424
#     4  12  25  46  71  99 138 189 244 281 349 430
#     4  10  22  40  67 106 138 174 230 292 345 415
#     4  10  21  40  68 100 138 176 227 286 351 411
#
# _framework density 21.402773
#
# number of rings (size 3 to 8) (size 9 to 14) (size 15 to 20)
#    0.000    0.750    3.750    4.125    1.750    2.500 
#    0.000    3.125    0.000    0.000    0.000    0.000 
#    0.000    0.000    0.000    0.000    0.000    0.000 
#
# Total GULP energy -89385.886657 kJ/mol
# GULP energy per Si atom -5586.617916 kJ/mol
# Density = 2.135406 g / cm^3
# Si number density = 21.402773 Si / 1000 Ang^3
#
#
#
# Elastic Constant Matrix: (Units=GPa)
#
#
# Indices 1 2 3 4 5 6 
#
# 1 57.0079 32.8633 10.8623 -9.9953 2.3436 14.7170
# 2 32.8633 132.5407 52.3818 -15.2741 -0.0933 14.2256
# 3 10.8623 52.3818 95.6072 -21.5208 0.9746 -2.5176
# 4 -9.9953 -15.2741 -21.5208 34.9066 3.5699 0.5913
# 5 2.3436 -0.0933 0.9746 3.5699 28.7584 -12.2439
# 6 14.7170 14.2256 -2.5176 0.5913 -12.2439 38.7856
#
#
#
# Elastic Compliance Matrix: (Units=1/GPa)
#
#
# Indices 1 2 3 4 5 6 
#
# 1 0.023837 -0.004570 0.001038 0.006328 -0.006848 -0.009560
# 2 -0.004570 0.011268 -0.005670 0.000249 -0.000704 -0.002993
# 3 0.001038 -0.005670 0.015126 0.007150 -0.000478 0.002408
# 4 0.006328 0.000249 0.007150 0.035803 -0.007275 -0.004871
# 5 -0.006848 -0.000704 -0.000478 -0.007275 0.043320 0.016612
# 6 -0.009560 -0.002993 0.002408 -0.004871 0.016612 0.035982
#
#
# Mechanical properties :
#
#
# Convention : Reuss Voigt Hill
#
# Bulk Modulus (GPa) = 31.41985 53.04120 42.23052
# Shear Modulus (GPa) = 25.72673 33.09334 29.41003
#
# Velocity S-wave (km/s) = 3.47079 3.93646 3.71094
# Velocity P-wave (km/s) = 5.54743 6.74516 6.17540
#
# Compressibility (1/GPa) = 0.03182702
#
# Stress axis : x y z
#
# Youngs Moduli (GPa) = 41.95140 88.74400 66.11247
#
# Poissons Ratio (x) = 0.40558 -0.06864
# Poissons Ratio (y) = 0.19173 0.37487
# Poissons Ratio (z) = -0.04356 0.50319
#
# Static dielectric constant tensor:
#      x y z
#    x 1.824750 0.018830 -0.031820 
#    y 0.018830 1.865280 -0.041860 
#    z -0.031820 -0.041860 1.773860 
# 
# From -- ./inp_files/185262.got.cif
#   From: 2010.05.17/outbox.cif.g08.bks.cpg/sg2_93_cif.got.tgz:185262.got - 2010.06.03 11:33:40.
