data_PCOD9011782
_publ_section_title
;
Structure prediction by ZEFSAII (Michael W. Deem and Ramdas Pophale) SiO2 
 PCOD9011782
Probable space group: P -1
;
_chemical_formula_sum "Si O2"
_cell_formula_units_Z 16
_cell_length_a 16.318556
_cell_length_b 5.396736
_cell_length_c 10.489816
_cell_angle_alpha 86.369856
_cell_angle_beta 62.502496
_cell_angle_gamma 60.477211
_cell_volume 696.725975
_symmetry_space_group_name_H-M "P -1"
_symmetry_group_IT_number 2
_symmetry_cell_setting 'triclinic'
loop_
_space_group_symop_operation_xyz
x,y,z
-x,-y,-z
loop_
_atom_site_type_symbol
_atom_site_label
_atom_site_fract_x
_atom_site_fract_y
_atom_site_fract_z
Si Si1 0.623824 0.770063 0.884341
Si Si2 0.082951 0.179254 0.004436
Si Si3 0.084475 0.890294 0.748810
Si Si4 0.324103 0.921150 0.800352
Si Si5 0.938408 0.840470 0.503072
Si Si6 0.292058 0.849533 0.205474
Si Si7 0.679313 0.557446 0.363769
Si Si8 0.437481 0.393765 0.300849
O O1 0.674006 0.432399 0.898126
O O2 0.619463 0.743264 0.735239
O O3 0.696007 0.896760 0.869620
O O4 0.500000 0.000000 0.000000
O O5 0.093787 0.980482 0.882419
O O6 0.204686 0.100614 0.943650
O O7 0.000000 0.500000 0.000000
O O8 0.021282 0.135870 0.167534
O O9 0.200961 0.601053 0.652754
O O10 0.072980 0.114044 0.642702
O O11 0.326783 0.660505 0.725998
O O12 0.434603 0.771920 0.805987
O O13 0.335111 0.153942 0.698527
O O14 0.000000 0.500000 0.500000
O O15 0.823284 0.012459 0.650455
O O16 0.000000 0.000000 0.500000
O O17 0.381284 0.704431 0.260604
O O18 0.592965 0.606394 0.532055
#
# Coordination Sequence:
#
# PCOD9011782 Si02
#       8
#     2   2   2   2   2   2   2   2
#     4  10  22  41  67  89 125 176 221 262 333 402
#     4  10  21  40  67  92 136 179 216 263 336 408
#     4  10  22  43  66  95 131 180 217 274 341 401
#     4  11  24  37  60 102 129 168 218 261 325 399
#     4  12  27  46  70 104 132 172 236 292 338 397
#     4  10  23  43  67  91 129 173 219 273 344 390
#     4  11  22  38  65  92 133 166 212 268 327 397
#     4  10  24  38  67  92 133 165 218 265 330 391
#
# _framework density 22.964549999999999
#
# number of rings (size 3 to 8) (size 9 to 14) (size 15 to 20)
#    0.750    0.750    2.500    1.875    5.250    0.000 
#    2.250    2.500    0.000    0.000    0.000    0.000 
#    0.000    0.000    0.000    0.000    0.000    0.000 
#
# Total GULP energy -89316.836043 kJ/mol
# GULP energy per Si atom -5582.302253 kJ/mol
# Density = 2.291228 g / cm^3
# Si number density = 22.964550 Si / 1000 Ang^3
#
#
#
# Elastic Constant Matrix: (Units=GPa)
#
#
# Indices 1 2 3 4 5 6 
#
# 1 78.0918 28.9089 24.3836 -0.2311 -10.2503 -5.1934
# 2 28.9089 110.3215 26.6220 10.5227 -7.3940 5.5507
# 3 24.3836 26.6220 90.9613 7.8618 -20.4341 0.0748
# 4 -0.2311 10.5227 7.8618 24.8720 -6.1173 -8.8408
# 5 -10.2503 -7.3940 -20.4341 -6.1173 26.2475 5.2748
# 6 -5.1934 5.5507 0.0748 -8.8408 5.2748 44.7506
#
#
#
# Elastic Compliance Matrix: (Units=1/GPa)
#
#
# Indices 1 2 3 4 5 6 
#
# 1 0.015705 -0.003793 -0.002715 0.004437 0.003428 0.002770
# 2 -0.003793 0.011125 -0.001891 -0.005257 -0.000482 -0.002799
# 3 -0.002715 -0.001891 0.014620 -0.002062 0.009640 -0.001649
# 4 0.004437 -0.005257 -0.002062 0.048582 0.007995 0.009826
# 5 0.003428 -0.000482 0.009640 0.007995 0.049434 -0.003806
# 6 0.002770 -0.002799 -0.001649 0.009826 -0.003806 0.025407
#
#
# Mechanical properties :
#
#
# Convention : Reuss Voigt Hill
#
# Bulk Modulus (GPa) = 40.56610 48.80037 44.68324
# Shear Modulus (GPa) = 26.33133 32.47137 29.40135
#
# Velocity S-wave (km/s) = 3.38983 3.76437 3.58200
# Velocity P-wave (km/s) = 5.74668 6.33959 6.05040
#
# Compressibility (1/GPa) = 0.02465112
#
# Stress axis : x y z
#
# Youngs Moduli (GPa) = 63.67527 89.89155 68.39927
#
# Poissons Ratio (x) = 0.34094 0.18574
# Poissons Ratio (y) = 0.24151 0.12933
# Poissons Ratio (z) = 0.17291 0.16996
#
# Static dielectric constant tensor:
#      x y z
#    x 1.877060 -0.007470 -0.016440 
#    y -0.007470 1.819100 -0.043500 
#    z -0.016440 -0.043500 1.799590 
# 
# From -- ./inp_files/459122.got.cif
#   From: 2010.05.17/outbox.cif.g08.bks.cpg/sg2_230_cif.got.tgz:459122.got - 2010.06.03 11:33:40.
