data_PCOD9011456
_publ_section_title
;
Structure prediction by ZEFSAII (Michael W. Deem and Ramdas Pophale) SiO2 
 PCOD9011456
Probable space group: P -1
;
_chemical_formula_sum "Si O2"
_cell_formula_units_Z 16
_cell_length_a 7.763526
_cell_length_b 12.263279
_cell_length_c 20.259663
_cell_angle_alpha 149.066168
_cell_angle_beta 52.455091
_cell_angle_gamma 117.142681
_cell_volume 775.618281
_symmetry_space_group_name_H-M "P -1"
_symmetry_group_IT_number 2
_symmetry_cell_setting 'triclinic'
loop_
_space_group_symop_operation_xyz
x,y,z
-x,-y,-z
loop_
_atom_site_type_symbol
_atom_site_label
_atom_site_fract_x
_atom_site_fract_y
_atom_site_fract_z
Si Si1 0.797401 0.600084 0.441993
Si Si2 0.564707 0.598528 0.936399
Si Si3 0.930802 0.250670 0.660366
Si Si4 0.654922 0.097702 0.965516
Si Si5 0.099177 0.226674 0.955285
Si Si6 0.286699 0.753846 0.625203
Si Si7 0.054129 0.125124 0.331495
Si Si8 0.087260 0.669831 0.143485
O O1 0.543629 0.666983 0.515419
O O2 0.812164 0.372836 0.358076
O O3 0.854740 0.767918 0.571025
O O4 0.950666 0.618813 0.353209
O O5 0.671034 0.350777 0.770936
O O6 0.759799 0.699190 0.978943
O O7 0.351802 0.642096 0.055964
O O8 0.483310 0.711740 0.945984
O O9 0.991887 0.283924 0.739056
O O10 0.000000 0.000000 0.500000
O O11 0.765938 0.926777 0.795700
O O12 0.857283 0.172012 0.996174
O O13 0.500000 0.000000 0.000000
O O14 0.240855 0.007479 0.781992
O O15 0.051980 0.423430 0.015750
O O16 0.154740 0.726518 0.574842
O O17 0.998524 0.889847 0.240690
#
# Coordination Sequence:
#
# PCOD9011456 Si02
#       8
#     2   2   2   2   2   2   2   2
#     4  11  23  42  60  90 129 166 213 249 313 379
#     4  10  23  41  68  91 126 169 202 267 321 366
#     4  11  22  38  66  93 127 163 212 259 305 383
#     4  10  23  40  61  95 122 162 217 261 312 373
#     4  10  21  40  66  92 123 159 214 262 310 377
#     4  10  23  39  63  91 119 175 207 253 311 376
#     4  10  21  42  67  85 127 165 206 264 316 373
#     4  10  21  43  66 100 122 165 214 259 328 371
#
# _framework density 20.628705
#
# number of rings (size 3 to 8) (size 9 to 14) (size 15 to 20)
#    0.000    1.750    1.250    3.375    5.250    5.000 
#   11.250    0.625    0.000    0.000    0.000    0.000 
#    0.000    0.000    0.000    0.000    0.000    0.000 
#
# Total GULP energy -89247.780422 kJ/mol
# GULP energy per Si atom -5577.986276 kJ/mol
# Density = 2.058175 g / cm^3
# Si number density = 20.628705 Si / 1000 Ang^3
#
#
#
# Elastic Constant Matrix: (Units=GPa)
#
#
# Indices 1 2 3 4 5 6 
#
# 1 84.1227 29.3470 11.3295 -2.6457 -17.5438 1.4745
# 2 29.3470 127.4338 31.7116 -14.4443 -0.1291 -2.0408
# 3 11.3295 31.7116 79.3775 6.4040 0.4310 -6.5994
# 4 -2.6457 -14.4443 6.4040 25.4932 -7.6652 -2.4788
# 5 -17.5438 -0.1291 0.4310 -7.6652 28.0137 9.3191
# 6 1.4745 -2.0408 -6.5994 -2.4788 9.3191 27.7673
#
#
#
# Elastic Compliance Matrix: (Units=1/GPa)
#
#
# Indices 1 2 3 4 5 6 
#
# 1 0.016083 -0.002831 -0.002016 0.003945 0.013019 -0.005558
# 2 -0.002831 0.010308 -0.004209 0.006651 -0.000009 0.000504
# 3 -0.002016 -0.004209 0.015586 -0.007605 -0.005112 0.004539
# 4 0.003945 0.006651 -0.007605 0.050243 0.017316 -0.002854
# 5 0.013019 -0.000009 -0.005112 0.017316 0.054918 -0.018792
# 6 -0.005558 0.000504 0.004539 -0.002854 -0.018792 0.043477
#
#
# Mechanical properties :
#
#
# Convention : Reuss Voigt Hill
#
# Bulk Modulus (GPa) = 41.89957 48.41224 45.15591
# Shear Modulus (GPa) = 23.07542 30.82458 26.95000
#
# Velocity S-wave (km/s) = 3.34819 3.86975 3.61838
# Velocity P-wave (km/s) = 5.94159 6.59439 6.27649
#
# Compressibility (1/GPa) = 0.02386659
#
# Stress axis : x y z
#
# Youngs Moduli (GPa) = 62.17768 97.00861 64.16097
#
# Poissons Ratio (x) = 0.27461 0.12933
# Poissons Ratio (y) = 0.17601 0.27004
# Poissons Ratio (z) = 0.12533 0.40829
#
# Static dielectric constant tensor:
#      x y z
#    x 1.767280 -0.010020 0.016610 
#    y -0.010020 1.745580 0.036340 
#    z 0.016610 0.036340 1.750690 
# 
# From -- ./inp_files/589186.got.cif
#   From: 2010.05.17/outbox.cif.g08.bks.cpg/sg2_295_cif.got.tgz:589186.got - 2010.06.03 11:33:40.
