data_PCOD9011230
_publ_section_title
;
Structure prediction by ZEFSAII (Michael W. Deem and Ramdas Pophale) SiO2 
 PCOD9011230
Probable space group: P -1
;
_chemical_formula_sum "Si O2"
_cell_formula_units_Z 16
_cell_length_a 15.547047
_cell_length_b 10.970005
_cell_length_c 9.967921
_cell_angle_alpha 106.808813
_cell_angle_beta 112.761981
_cell_angle_gamma 130.694390
_cell_volume 751.953709
_symmetry_space_group_name_H-M "P -1"
_symmetry_group_IT_number 2
_symmetry_cell_setting 'triclinic'
loop_
_space_group_symop_operation_xyz
x,y,z
-x,-y,-z
loop_
_atom_site_type_symbol
_atom_site_label
_atom_site_fract_x
_atom_site_fract_y
_atom_site_fract_z
Si Si1 0.192918 0.951050 0.024670
Si Si2 0.048614 0.562571 0.390577
Si Si3 0.882436 0.625204 0.937863
Si Si4 0.486597 0.281293 0.523583
Si Si5 0.290636 0.361375 0.774802
Si Si6 0.005126 0.804881 0.367813
Si Si7 0.312721 0.841033 0.403643
Si Si8 0.401361 0.368871 0.114167
O O1 0.392255 0.169208 0.285879
O O2 0.219300 0.080479 0.960820
O O3 0.104325 0.713111 0.852595
O O4 0.054158 0.850039 0.015434
O O5 0.243498 0.750978 0.489766
O O6 0.000000 0.500000 0.500000
O O7 0.031042 0.689098 0.380924
O O8 0.693938 0.467256 0.717940
O O9 0.842764 0.426067 0.851129
O O10 0.932294 0.729147 0.148200
O O11 0.505582 0.442723 0.649865
O O12 0.346147 0.027379 0.446174
O O13 0.150977 0.313166 0.671718
O O14 0.462730 0.575426 0.848376
O O15 0.361714 0.421268 0.987647
O O16 0.184531 0.105658 0.590288
O O17 0.500000 0.000000 0.500000
#
# Coordination Sequence:
#
# PCOD9011230 Si02
#       8
#     2   2   2   2   2   2   2   2
#     4  11  24  40  62  97 129 166 205 269 326 381
#     4  11  23  42  67  96 131 171 208 268 334 379
#     4  10  21  40  65  95 124 165 216 265 319 379
#     4  11  21  39  65  95 123 170 215 263 319 380
#     4  10  23  40  64  89 124 170 214 263 312 384
#     4  11  21  42  65  93 122 168 219 259 317 385
#     4   9  20  39  65  93 124 163 214 261 309 386
#     4  11  22  42  60  90 130 167 212 260 322 378
#
# _framework density 21.277905000000001
#
# number of rings (size 3 to 8) (size 9 to 14) (size 15 to 20)
#    0.000    1.500    1.250    4.125    0.000    3.500 
#   11.250    0.625    0.000    0.000    0.000    0.000 
#    0.000    0.000    0.000    0.000    0.000    0.000 
#
# Total GULP energy -89247.494785 kJ/mol
# GULP energy per Si atom -5577.968424 kJ/mol
# Density = 2.122948 g / cm^3
# Si number density = 21.277905 Si / 1000 Ang^3
#
#
#
# Elastic Constant Matrix: (Units=GPa)
#
#
# Indices 1 2 3 4 5 6 
#
# 1 96.1476 53.1283 25.2407 -0.7539 -8.6203 19.3174
# 2 53.1283 97.4647 10.8133 7.4355 -3.8466 24.5291
# 3 25.2407 10.8133 79.3606 -8.6681 -8.6017 14.4899
# 4 -0.7539 7.4355 -8.6681 23.4128 -1.6248 -4.1124
# 5 -8.6203 -3.8466 -8.6017 -1.6248 31.9865 7.0712
# 6 19.3174 24.5291 14.4899 -4.1124 7.0712 21.9781
#
#
#
# Elastic Compliance Matrix: (Units=1/GPa)
#
#
# Indices 1 2 3 4 5 6 
#
# 1 0.016678 -0.007170 -0.002623 0.001068 0.004335 -0.006122
# 2 -0.007170 0.020232 0.003165 -0.008930 0.005736 -0.021881
# 3 -0.002623 0.003165 0.016720 0.003148 0.007437 -0.014054
# 4 0.001068 -0.008930 0.003148 0.049584 -0.001086 0.016579
# 5 0.004335 0.005736 0.007437 -0.001086 0.041396 -0.028636
# 6 -0.006122 -0.021881 -0.014054 0.016579 -0.028636 0.096883
#
#
# Mechanical properties :
#
#
# Convention : Reuss Voigt Hill
#
# Bulk Modulus (GPa) = 24.76864 50.14859 37.45861
# Shear Modulus (GPa) = 18.64233 27.72819 23.18526
#
# Velocity S-wave (km/s) = 2.96317 3.61383 3.30455
# Velocity P-wave (km/s) = 4.83456 6.40566 5.67475
#
# Compressibility (1/GPa) = 0.04037364
#
# Stress axis : x y z
#
# Youngs Moduli (GPa) = 59.95808 49.42712 59.81015
#
# Poissons Ratio (x) = 0.35439 0.15690
# Poissons Ratio (y) = 0.42990 -0.18931
# Poissons Ratio (z) = 0.15729 -0.15645
#
# Static dielectric constant tensor:
#      x y z
#    x 1.819080 0.009890 0.026950 
#    y 0.009890 1.788350 -0.013430 
#    z 0.026950 -0.013430 1.765820 
# 
# From -- ./inp_files/332193.got.cif
#   From: 2010.05.17/outbox.cif.g08.bks.cpg/sg2_167_cif.got.tgz:332193.got - 2010.06.03 11:33:40.
