data_PCOD9011836
_publ_section_title
;
Structure prediction by ZEFSAII (Michael W. Deem and Ramdas Pophale) SiO2 
 PCOD9011836
Probable space group: P -1
;
_chemical_formula_sum "Si O2"
_cell_formula_units_Z 14
_cell_length_a 9.031548
_cell_length_b 18.517422
_cell_length_c 24.826710
_cell_angle_alpha 162.444467
_cell_angle_beta 152.406160
_cell_angle_gamma 29.663693
_cell_volume 571.503324
_symmetry_space_group_name_H-M "P -1"
_symmetry_group_IT_number 2
_symmetry_cell_setting 'triclinic'
loop_
_space_group_symop_operation_xyz
x,y,z
-x,-y,-z
loop_
_atom_site_type_symbol
_atom_site_label
_atom_site_fract_x
_atom_site_fract_y
_atom_site_fract_z
Si Si1 0.888122 0.011494 0.713857
Si Si2 0.460985 0.305015 0.092944
Si Si3 0.939773 0.219543 0.278337
Si Si4 0.034752 0.269957 0.759789
Si Si5 0.156441 0.257750 0.671267
Si Si6 0.769771 0.332110 0.502194
Si Si7 0.393888 0.908707 0.116868
O O1 0.527937 0.161925 0.707863
O O2 0.007249 0.889624 0.722777
O O3 0.940759 0.798554 0.535155
O O4 0.142827 0.181416 0.898961
O O5 0.603980 0.249990 0.159177
O O6 0.320547 0.586521 0.240094
O O7 0.706025 0.204367 0.052006
O O8 0.000000 0.500000 0.500000
O O9 0.162919 0.025293 0.173228
O O10 0.128331 0.358029 0.793830
O O11 0.321307 0.292047 0.908957
O O12 0.004149 0.986652 0.549088
O O13 0.943955 0.422722 0.675192
O O14 0.500000 0.500000 0.500000
O O15 0.562078 0.133116 0.313200
#
# Coordination Sequence:
#
# PCOD9011836 Si02
#       7
#     2   2   2   2   2   2   2
#     4  11  23  42  60  95 135 169 212 269 330 383
#     4  11  25  40  65  97 134 168 211 276 333 374
#     4  12  24  42  70  93 129 177 223 260 321 391
#     4  10  21  40  69  94 125 173 223 262 317 391
#     4  10  21  40  67  95 129 170 221 267 314 390
#     4  10  22  38  64  98 132 166 213 270 323 381
#     4  10  22  44  63  95 132 167 218 267 320 391
#
# _framework density 24.496794999999999
#
# number of rings (size 3 to 8) (size 9 to 14) (size 15 to 20)
#    0.000    1.429    1.429    3.429    6.000    0.571 
#    0.000    2.857    0.000    0.000    0.000    0.000 
#    0.000    0.000    0.000    0.000    0.000    0.000 
#
# Total GULP energy -78239.450265 kJ/mol
# GULP energy per Si atom -5588.532162 kJ/mol
# Density = 2.444104 g / cm^3
# Si number density = 24.496795 Si / 1000 Ang^3
#
#
#
# Elastic Constant Matrix: (Units=GPa)
#
#
# Indices 1 2 3 4 5 6 
#
# 1 70.7377 5.8616 9.2960 5.4331 -10.9251 9.9740
# 2 5.8616 126.2158 11.0649 -2.5090 1.6274 20.9542
# 3 9.2960 11.0649 22.7798 -6.2259 -6.5005 11.3777
# 4 5.4331 -2.5090 -6.2259 32.7047 -1.1921 -6.0704
# 5 -10.9251 1.6274 -6.5005 -1.1921 17.4173 -6.1848
# 6 9.9740 20.9542 11.3777 -6.0704 -6.1848 48.3979
#
#
#
# Elastic Compliance Matrix: (Units=1/GPa)
#
#
# Indices 1 2 3 4 5 6 
#
# 1 0.016478 -0.000264 -0.004521 -0.003644 0.007829 -0.001675
# 2 -0.000264 0.008871 -0.003720 -0.000763 -0.003670 -0.003476
# 3 -0.004521 -0.003720 0.059504 0.010989 0.017700 -0.007806
# 4 -0.003644 -0.000763 0.010989 0.034057 0.005449 0.003466
# 5 0.007829 -0.003670 0.017700 0.005449 0.071654 0.005655
# 6 -0.001675 -0.003476 -0.007806 0.003466 0.005655 0.025505
#
#
# Mechanical properties :
#
#
# Convention : Reuss Voigt Hill
#
# Bulk Modulus (GPa) = 14.74040 30.24204 22.49122
# Shear Modulus (GPa) = 19.55462 32.60470 26.07966
#
# Velocity S-wave (km/s) = 2.82840 3.65222 3.26638
# Velocity P-wave (km/s) = 4.08617 5.49154 4.84014
#
# Compressibility (1/GPa) = 0.06784078
#
# Stress axis : x y z
#
# Youngs Moduli (GPa) = 60.68692 112.73163 16.80567
#
# Poissons Ratio (x) = 0.02978 0.07598
# Poissons Ratio (y) = 0.01603 0.06252
# Poissons Ratio (z) = 0.27438 0.41941
#
# Static dielectric constant tensor:
#      x y z
#    x 1.963910 0.005180 -0.040380 
#    y 0.005180 1.986830 0.017670 
#    z -0.040380 0.017670 1.999820 
# 
# From -- ./inp_files/156576.got.cif
#   From: 2010.05.17/outbox.cif.g08.bks.cpg/sg2_79_cif.got.tgz:156576.got - 2010.06.03 11:33:40.
