data_PCOD9011926
_publ_section_title
;
Structure prediction by ZEFSAII (Michael W. Deem and Ramdas Pophale) SiO2 
 PCOD9011926
Probable space group: P -1
;
_chemical_formula_sum "Si O2"
_cell_formula_units_Z 16
_cell_length_a 6.992958
_cell_length_b 7.633828
_cell_length_c 13.969845
_cell_angle_alpha 76.401570
_cell_angle_beta 111.633114
_cell_angle_gamma 105.734689
_cell_volume 659.592970
_symmetry_space_group_name_H-M "P -1"
_symmetry_group_IT_number 2
_symmetry_cell_setting 'triclinic'
loop_
_space_group_symop_operation_xyz
x,y,z
-x,-y,-z
loop_
_atom_site_type_symbol
_atom_site_label
_atom_site_fract_x
_atom_site_fract_y
_atom_site_fract_z
Si Si1 0.321521 0.711457 0.993033
Si Si2 0.081326 0.222954 0.157634
Si Si3 0.565856 0.816286 0.331746
Si Si4 0.351871 0.028407 0.113927
Si Si5 0.013273 0.048914 0.360297
Si Si6 0.105258 0.591401 0.641562
Si Si7 0.754563 0.264170 0.555264
Si Si8 0.499446 0.489195 0.207709
O O1 0.424978 0.562107 0.084796
O O2 0.300367 0.857880 0.054246
O O3 0.087470 0.655441 0.915350
O O4 0.476823 0.821654 0.928958
O O5 0.981444 0.075748 0.237708
O O6 0.157765 0.117507 0.096531
O O7 0.296491 0.343070 0.223673
O O8 0.449974 0.745738 0.417321
O O9 0.552804 0.652719 0.273733
O O10 0.445311 0.958617 0.237575
O O11 0.804323 0.917390 0.378740
O O12 0.022097 0.249686 0.380141
O O13 0.199654 0.940277 0.420567
O O14 0.229089 0.644110 0.557720
O O15 0.289006 0.587979 0.751465
O O16 0.947623 0.395766 0.629699
#
# Coordination Sequence:
#
# PCOD9011926 Si02
#       8
#     2   2   2   2   2   2   2   2
#     4  10  23  42  66  96 136 183 225 281 340 406
#     4  12  23  42  68 100 135 182 229 278 342 411
#     4  11  22  45  70 101 137 185 227 284 348 404
#     4  10  21  40  67  99 133 176 234 281 334 407
#     4  12  24  45  73 102 141 178 234 283 341 413
#     4  11  26  48  70 106 139 180 231 288 340 415
#     4  11  25  48  75  99 139 183 229 284 354 403
#     4  11  25  44  66 101 143 179 229 285 342 403
#
# _framework density 24.257384999999999
#
# number of rings (size 3 to 8) (size 9 to 14) (size 15 to 20)
#    0.000    1.000    3.750    2.625    0.000    1.500 
#    9.000    0.000    0.000    0.000    0.000    0.000 
#    0.000    0.000    0.000    0.000    0.000    0.000 
#
# Total GULP energy -89640.853880 kJ/mol
# GULP energy per Si atom -5602.553367 kJ/mol
# Density = 2.420217 g / cm^3
# Si number density = 24.257385 Si / 1000 Ang^3
#
#
#
# Elastic Constant Matrix: (Units=GPa)
#
#
# Indices 1 2 3 4 5 6 
#
# 1 62.6562 7.8899 30.2482 -6.2091 -9.0723 0.1408
# 2 7.8899 87.2446 4.3045 1.6269 3.2943 -10.9254
# 3 30.2482 4.3045 54.6866 -8.0456 -3.2809 -10.2939
# 4 -6.2091 1.6269 -8.0456 32.0477 -2.8205 -1.5595
# 5 -9.0723 3.2943 -3.2809 -2.8205 52.1359 -5.5180
# 6 0.1408 -10.9254 -10.2939 -1.5595 -5.5180 18.4251
#
#
#
# Elastic Compliance Matrix: (Units=1/GPa)
#
#
# Indices 1 2 3 4 5 6 
#
# 1 0.023654 -0.002662 -0.014265 0.000923 0.002494 -0.008903
# 2 -0.002662 0.012692 0.002039 -0.000251 -0.000241 0.008592
# 3 -0.014265 0.002039 0.030650 0.005923 0.001697 0.019452
# 4 0.000923 -0.000251 0.005923 0.033491 0.003093 0.006914
# 5 0.002494 -0.000241 0.001697 0.003093 0.020670 0.007238
# 6 -0.008903 0.008592 0.019452 0.006914 0.007238 0.073057
#
#
# Mechanical properties :
#
#
# Convention : Reuss Voigt Hill
#
# Bulk Modulus (GPa) = 26.86572 32.16360 29.51466
# Shear Modulus (GPa) = 21.15093 31.33140 26.24116
#
# Velocity S-wave (km/s) = 2.95606 3.59781 3.29261
# Velocity P-wave (km/s) = 4.76974 5.52694 5.16224
#
# Compressibility (1/GPa) = 0.03722216
#
# Stress axis : x y z
#
# Youngs Moduli (GPa) = 42.27548 78.79063 32.62606
#
# Poissons Ratio (x) = 0.20972 0.46540
# Poissons Ratio (y) = 0.11253 -0.06653
# Poissons Ratio (z) = 0.60304 -0.16066
#
# Static dielectric constant tensor:
#      x y z
#    x 1.882410 -0.027270 0.011310 
#    y -0.027270 1.917360 0.015420 
#    z 0.011310 0.015420 1.931450 
# 
# From -- ./inp_files/480357.got.cif
#   From: 2010.05.17/outbox.cif.g08.bks.cpg/sg2_241_cif.got.tgz:480357.got - 2010.06.03 11:33:40.
