data_PCOD9011685
_publ_section_title
;
Structure prediction by ZEFSAII (Michael W. Deem and Ramdas Pophale) SiO2 
 PCOD9011685
Probable space group: P -1
;
_chemical_formula_sum "Si O2"
_cell_formula_units_Z 16
_cell_length_a 8.649186
_cell_length_b 16.824631
_cell_length_c 19.325242
_cell_angle_alpha 30.362278
_cell_angle_beta 139.274387
_cell_angle_gamma 146.427480
_cell_volume 778.399800
_symmetry_space_group_name_H-M "P -1"
_symmetry_group_IT_number 2
_symmetry_cell_setting 'triclinic'
loop_
_space_group_symop_operation_xyz
x,y,z
-x,-y,-z
loop_
_atom_site_type_symbol
_atom_site_label
_atom_site_fract_x
_atom_site_fract_y
_atom_site_fract_z
Si Si1 0.150272 0.144544 0.381065
Si Si2 0.972255 0.997177 0.829136
Si Si3 0.144977 0.211572 0.920230
Si Si4 0.215414 0.531688 0.109793
Si Si5 0.267704 0.764445 0.449955
Si Si6 0.785122 0.376801 0.616960
Si Si7 0.465244 0.855257 0.036326
Si Si8 0.744290 0.950385 0.260265
O O1 0.167747 0.334757 0.260594
O O2 0.465571 0.189614 0.448886
O O3 0.956006 0.049179 0.320404
O O4 0.000000 0.000000 0.500000
O O5 0.266336 0.155772 0.846405
O O6 0.751938 0.058467 0.705998
O O7 0.063991 0.994017 0.784671
O O8 0.876697 0.821171 0.979150
O O9 0.468926 0.338700 0.911647
O O10 0.982905 0.307607 0.765968
O O11 0.000000 0.000000 0.000000
O O12 0.212182 0.644820 0.091124
O O13 0.000000 0.500000 0.000000
O O14 0.288439 0.688966 0.438588
O O15 0.979183 0.601466 0.510829
O O16 0.491060 0.267468 0.641369
O O17 0.444520 0.961057 0.883118
O O18 0.500000 0.000000 0.000000
#
# Coordination Sequence:
#
# PCOD9011685 Si02
#       8
#     2   2   2   2   2   2   2   2
#     4  12  26  43  67  98 141 181 224 279 342 409
#     4  11  24  39  71  94 131 176 228 272 352 394
#     4  12  21  39  69  99 127 175 230 286 331 403
#     4  12  24  41  70 106 133 179 236 282 340 407
#     4  11  24  40  63  98 131 177 226 282 326 409
#     4  11  21  39  65  95 131 167 232 282 329 391
#     4  10  21  40  67 100 134 170 219 286 338 395
#     4  11  23  43  65  97 136 178 217 285 344 401
#
# _framework density 20.55499
#
# number of rings (size 3 to 8) (size 9 to 14) (size 15 to 20)
#    0.000    0.750    7.500    0.000    3.500    1.000 
#    0.000    1.875    5.500    0.000    0.000    0.000 
#    0.000    0.000    0.000    0.000    0.000    0.000 
#
# Total GULP energy -89202.163684 kJ/mol
# GULP energy per Si atom -5575.135230 kJ/mol
# Density = 2.050821 g / cm^3
# Si number density = 20.554990 Si / 1000 Ang^3
#
#
#
# Elastic Constant Matrix: (Units=GPa)
#
#
# Indices 1 2 3 4 5 6 
#
# 1 59.2118 34.1244 16.8135 1.5419 -20.3146 -3.2383
# 2 34.1244 124.1069 53.3940 13.4121 -6.8301 -4.7076
# 3 16.8135 53.3940 113.0040 11.1897 -10.3653 -7.3737
# 4 1.5419 13.4121 11.1897 42.7786 10.4568 -8.6224
# 5 -20.3146 -6.8301 -10.3653 10.4568 36.6600 3.6077
# 6 -3.2383 -4.7076 -7.3737 -8.6224 3.6077 22.0507
#
#
#
# Elastic Compliance Matrix: (Units=1/GPa)
#
#
# Indices 1 2 3 4 5 6 
#
# 1 0.024969 -0.006135 0.000656 -0.002637 0.013699 -0.000696
# 2 -0.006135 0.011848 -0.004704 -0.001854 -0.001959 -0.000349
# 3 0.000656 -0.004704 0.011573 -0.002018 0.003172 0.001654
# 4 -0.002637 -0.001854 -0.002018 0.030023 -0.012148 0.012269
# 5 0.013699 -0.001959 0.003172 -0.012148 0.039712 -0.008593
# 6 -0.000696 -0.000349 0.001654 0.012269 -0.008593 0.051930
#
#
# Mechanical properties :
#
#
# Convention : Reuss Voigt Hill
#
# Bulk Modulus (GPa) = 35.68493 56.10962 45.89728
# Shear Modulus (GPa) = 25.02993 33.09722 29.06358
#
# Velocity S-wave (km/s) = 3.49335 4.01706 3.76432
# Velocity P-wave (km/s) = 5.80256 6.99087 6.42425
#
# Compressibility (1/GPa) = 0.02802303
#
# Stress axis : x y z
#
# Youngs Moduli (GPa) = 40.05044 84.40527 86.40827
#
# Poissons Ratio (x) = 0.51784 -0.05669
# Poissons Ratio (y) = 0.24571 0.40646
# Poissons Ratio (z) = -0.02628 0.39704
#
# Static dielectric constant tensor:
#      x y z
#    x 1.869580 0.014710 0.012510 
#    y 0.014710 1.751970 -0.001220 
#    z 0.012510 -0.001220 1.759620 
# 
# From -- ./inp_files/403653.got.cif
#   From: 2010.05.17/outbox.cif.g08.bks.cpg/sg2_202_cif.got.tgz:403653.got - 2010.06.03 11:33:40.
