data_PCOD9011981
_publ_section_title
;
Structure prediction by ZEFSAII (Michael W. Deem and Ramdas Pophale) SiO2 
 PCOD9011981
Probable space group: P -1
;
_chemical_formula_sum "Si O2"
_cell_formula_units_Z 14
_cell_length_a 7.848064
_cell_length_b 11.026521
_cell_length_c 9.703891
_cell_angle_alpha 53.273868
_cell_angle_beta 68.874685
_cell_angle_gamma 67.585892
_cell_volume 612.195831
_symmetry_space_group_name_H-M "P -1"
_symmetry_group_IT_number 2
_symmetry_cell_setting 'triclinic'
loop_
_space_group_symop_operation_xyz
x,y,z
-x,-y,-z
loop_
_atom_site_type_symbol
_atom_site_label
_atom_site_fract_x
_atom_site_fract_y
_atom_site_fract_z
Si Si1 0.449476 0.123930 0.806753
Si Si2 0.543841 0.329742 0.043281
Si Si3 0.665063 0.016092 0.339897
Si Si4 0.896199 0.408472 0.788503
Si Si5 0.768269 0.613593 0.107766
Si Si6 0.344163 0.632917 0.527239
Si Si7 0.940795 0.713052 0.457176
O O1 0.363229 0.035977 0.773143
O O2 0.328045 0.268238 0.826252
O O3 0.591093 0.205611 0.621028
O O4 0.500000 0.000000 0.000000
O O5 0.639928 0.199130 0.211423
O O6 0.500000 0.500000 0.000000
O O7 0.716764 0.332523 0.888131
O O8 0.346801 0.312518 0.044540
O O9 0.850930 0.887984 0.409657
O O10 0.500000 0.000000 0.500000
O O11 0.833366 0.588555 0.637639
O O12 0.011420 0.404079 0.903416
O O13 0.036195 0.321312 0.688703
O O14 0.706620 0.449898 0.262086
O O15 0.500000 0.500000 0.500000
O O16 0.149631 0.658782 0.486934
#
# Coordination Sequence:
#
# PCOD9011981 Si02
#       7
#     2   2   2   2   2   2   2
#     4  11  21  40  66  99 132 173 231 282 332 406
#     4  12  27  44  68  96 141 186 230 282 352 409
#     4  12  27  44  65  98 144 184 222 287 354 403
#     4  10  21  40  70 100 130 173 232 289 329 418
#     4  10  21  41  68 102 123 179 229 275 339 404
#     4   9  20  36  67  99 131 168 216 282 340 396
#     4  10  21  40  68 102 135 172 231 281 345 408
#
# _framework density 22.868497999999999
#
# number of rings (size 3 to 8) (size 9 to 14) (size 15 to 20)
#    0.000    1.429    2.857    2.571    6.000    2.286 
#    0.000    0.714    0.000    0.000    0.000    0.000 
#    0.000    0.000    0.000    0.000    0.000    0.000 
#
# Total GULP energy -77965.681706 kJ/mol
# GULP energy per Si atom -5568.977265 kJ/mol
# Density = 2.281645 g / cm^3
# Si number density = 22.868498 Si / 1000 Ang^3
#
#
#
# Elastic Constant Matrix: (Units=GPa)
#
#
# Indices 1 2 3 4 5 6 
#
# 1 59.4861 15.6231 14.4528 -11.4785 14.7721 -16.1466
# 2 15.6231 105.2016 29.2221 -24.0496 8.5125 -11.6140
# 3 14.4528 29.2221 79.7432 -29.0890 -3.0961 -21.1549
# 4 -11.4785 -24.0496 -29.0890 39.8781 8.1376 4.9839
# 5 14.7721 8.5125 -3.0961 8.1376 30.2432 -5.1933
# 6 -16.1466 -11.6140 -21.1549 4.9839 -5.1933 28.2582
#
#
#
# Elastic Compliance Matrix: (Units=1/GPa)
#
#
# Indices 1 2 3 4 5 6 
#
# 1 0.024294 0.000395 0.001324 0.009350 -0.012452 0.011097
# 2 0.000395 0.012169 -0.001695 0.007106 -0.005410 0.001711
# 3 0.001324 -0.001695 0.021423 0.013056 0.000908 0.013962
# 4 0.009350 0.007106 0.013056 0.043868 -0.015763 0.007403
# 5 -0.012452 -0.005410 0.000908 -0.015763 0.045429 0.002471
# 6 0.011097 0.001711 0.013962 0.007403 0.002471 0.052033
#
#
# Mechanical properties :
#
#
# Convention : Reuss Voigt Hill
#
# Bulk Modulus (GPa) = 17.26135 40.33631 28.79883
# Shear Modulus (GPa) = 22.88543 32.01810 27.45176
#
# Velocity S-wave (km/s) = 3.16688 3.74585 3.46846
# Velocity P-wave (km/s) = 4.57566 6.03201 5.35359
#
# Compressibility (1/GPa) = 0.05793290
#
# Stress axis : x y z
#
# Youngs Moduli (GPa) = 41.16237 82.17725 46.67846
#
# Poissons Ratio (x) = -0.03244 -0.06178
# Poissons Ratio (y) = -0.01625 0.07911
# Poissons Ratio (z) = -0.05448 0.13928
#
# Static dielectric constant tensor:
#      x y z
#    x 1.956800 -0.025170 -0.079130 
#    y -0.025170 1.857390 -0.111360 
#    z -0.079130 -0.111360 2.058960 
# 
# From -- ./inp_files/184009.got.cif
#   From: 2010.05.17/outbox.cif.g08.bks.cpg/sg2_93_cif.got.tgz:184009.got - 2010.06.03 11:33:40.
