data_PCOD9011403
_publ_section_title
;
Structure prediction by ZEFSAII (Michael W. Deem and Ramdas Pophale) SiO2 
 PCOD9011403
Probable space group: P -1
;
_chemical_formula_sum "Si O2"
_cell_formula_units_Z 14
_cell_length_a 22.159682
_cell_length_b 9.023539
_cell_length_c 15.967068
_cell_angle_alpha 39.219078
_cell_angle_beta 30.468142
_cell_angle_gamma 25.619574
_cell_volume 699.965892
_symmetry_space_group_name_H-M "P -1"
_symmetry_group_IT_number 2
_symmetry_cell_setting 'triclinic'
loop_
_space_group_symop_operation_xyz
x,y,z
-x,-y,-z
loop_
_atom_site_type_symbol
_atom_site_label
_atom_site_fract_x
_atom_site_fract_y
_atom_site_fract_z
Si Si1 0.339017 0.688300 0.357302
Si Si2 0.645364 0.494545 0.823130
Si Si3 0.829315 0.368589 0.006352
Si Si4 0.899257 0.803936 0.724336
Si Si5 0.527215 0.473157 0.381340
Si Si6 0.690636 0.740451 0.507204
Si Si7 0.372544 0.388652 0.015816
O O1 0.357557 0.735008 0.410998
O O2 0.329343 0.426028 0.467624
O O3 0.181689 0.023792 0.345390
O O4 0.515110 0.538829 0.169381
O O5 0.606685 0.746917 0.688769
O O6 0.663512 0.573482 0.859395
O O7 0.815632 0.115306 0.750318
O O8 0.500000 0.500000 0.000000
O O9 0.659943 0.490503 0.194776
O O10 0.838017 0.632090 0.897260
O O11 0.798222 0.375126 0.941217
O O12 0.000000 0.000000 0.000000
O O13 0.105640 0.519060 0.603626
O O14 0.500000 0.500000 0.500000
O O15 0.613284 0.100635 0.417598
O O16 0.500000 0.000000 0.000000
#
# Coordination Sequence:
#
# PCOD9011403 Si02
#       7
#     2   2   2   2   2   2   2
#     4  10  21  40  66  89 123 162 208 254 309 360
#     4  11  21  38  68  97 117 163 216 256 302 373
#     4  11  23  44  61  88 132 165 200 255 323 357
#     4  11  22  43  66  91 128 166 204 261 308 372
#     4  11  26  39  65  93 124 168 209 255 306 374
#     4  11  23  42  63  93 132 160 203 262 316 360
#     4  11  21  38  67  94 119 161 208 259 303 366
#
# _framework density 20.000975
#
# number of rings (size 3 to 8) (size 9 to 14) (size 15 to 20)
#    0.000    1.143    5.714    2.143    6.000    0.000 
#    5.143    2.143    0.000    0.000    0.000    0.000 
#    0.000    0.000    0.000    0.000    0.000    0.000 
#
# Total GULP energy -78213.738648 kJ/mol
# GULP energy per Si atom -5586.695618 kJ/mol
# Density = 1.995545 g / cm^3
# Si number density = 20.000975 Si / 1000 Ang^3
#
#
#
# Elastic Constant Matrix: (Units=GPa)
#
#
# Indices 1 2 3 4 5 6 
#
# 1 153.6055 33.6899 32.8682 3.9510 11.2388 -14.7650
# 2 33.6899 77.3343 6.2219 -16.4765 -9.9841 -12.1715
# 3 32.8682 6.2219 91.4627 -18.5481 -11.7490 7.0701
# 4 3.9510 -16.4765 -18.5481 25.1420 6.2703 -12.5660
# 5 11.2388 -9.9841 -11.7490 6.2703 41.5825 -3.4859
# 6 -14.7650 -12.1715 7.0701 -12.5660 -3.4859 26.0461
#
#
#
# Elastic Compliance Matrix: (Units=1/GPa)
#
#
# Indices 1 2 3 4 5 6 
#
# 1 0.009471 -0.006348 -0.005267 -0.009003 -0.004306 -0.001087
# 2 -0.006348 0.027319 0.006349 0.034302 0.006986 0.024928
# 3 -0.005267 0.006349 0.016388 0.018302 0.005243 0.005065
# 4 -0.009003 0.034302 0.018302 0.104444 0.004870 0.056998
# 5 -0.004306 0.006986 0.005243 0.004870 0.028099 0.005511
# 6 -0.001087 0.024928 0.005065 0.056998 0.005511 0.076288
#
#
# Mechanical properties :
#
#
# Convention : Reuss Voigt Hill
#
# Bulk Modulus (GPa) = 23.44782 51.99584 37.72183
# Shear Modulus (GPa) = 17.43651 35.19560 26.31606
#
# Velocity S-wave (km/s) = 2.95580 4.19942 3.63125
# Velocity P-wave (km/s) = 4.83713 7.04036 6.04005
#
# Compressibility (1/GPa) = 0.04264788
#
# Stress axis : x y z
#
# Youngs Moduli (GPa) = 105.58041 36.60481 61.02115
#
# Poissons Ratio (x) = 0.23236 0.32138
# Poissons Ratio (y) = 0.67019 -0.38744
# Poissons Ratio (z) = 0.55607 -0.23242
#
# Static dielectric constant tensor:
#      x y z
#    x 1.738910 0.004250 0.008300 
#    y 0.004250 1.706560 -0.019890 
#    z 0.008300 -0.019890 1.716540 
# 
# From -- ./inp_files/159767.got.cif
#   From: 2010.05.17/outbox.cif.g08.bks.cpg/sg2_80_cif.got.tgz:159767.got - 2010.06.03 11:33:40.
