data_PCOD9011081
_publ_section_title
;
Structure prediction by ZEFSAII (Michael W. Deem and Ramdas Pophale) SiO2 
 PCOD9011081
Probable space group: P -1
;
_chemical_formula_sum "Si O2"
_cell_formula_units_Z 16
_cell_length_a 10.748807
_cell_length_b 13.850254
_cell_length_c 7.204922
_cell_angle_alpha 99.030073
_cell_angle_beta 81.648726
_cell_angle_gamma 141.204048
_cell_volume 663.266261
_symmetry_space_group_name_H-M "P -1"
_symmetry_group_IT_number 2
_symmetry_cell_setting 'triclinic'
loop_
_space_group_symop_operation_xyz
x,y,z
-x,-y,-z
loop_
_atom_site_type_symbol
_atom_site_label
_atom_site_fract_x
_atom_site_fract_y
_atom_site_fract_z
Si Si1 0.806602 0.777735 0.814960
Si Si2 0.611205 0.762587 0.368399
Si Si3 0.453895 0.860698 0.440454
Si Si4 0.592644 0.414904 0.255564
Si Si5 0.089334 0.640540 0.645763
Si Si6 0.972708 0.750045 0.447190
Si Si7 0.011423 0.904239 0.172765
Si Si8 0.724480 0.386755 0.871012
O O1 0.571340 0.619440 0.828508
O O2 0.890698 0.782877 0.612183
O O3 0.933565 0.813467 0.969585
O O4 0.843603 0.917782 0.848100
O O5 0.530200 0.686386 0.563945
O O6 0.810582 0.830860 0.282146
O O7 0.422732 0.635783 0.233089
O O8 0.908761 0.126846 0.708994
O O9 0.321400 0.757000 0.619775
O O10 0.327016 0.750597 0.250634
O O11 0.500000 0.000000 0.500000
O O12 0.636540 0.895796 0.397606
O O13 0.785468 0.587861 0.334666
O O14 0.662959 0.372117 0.088402
O O15 0.063747 0.723228 0.554724
O O16 0.000000 0.500000 0.500000
O O17 0.951575 0.554185 0.830359
#
# Coordination Sequence:
#
# PCOD9011081 Si02
#       8
#     2   2   2   2   2   2   2   2
#     4  11  25  41  62  94 138 168 206 268 318 385
#     4  10  21  40  65  90 129 165 205 268 320 368
#     4   9  20  40  70  90 119 171 212 263 313 375
#     4  12  22  40  63  96 128 169 209 255 331 375
#     4  10  21  44  63  91 130 164 209 264 322 360
#     4  12  25  37  69  97 123 172 214 262 310 398
#     4  11  25  43  63  96 131 171 210 263 330 373
#     4   9  21  40  64  87 128 166 198 268 315 367
#
# _framework density 24.123044
#
# number of rings (size 3 to 8) (size 9 to 14) (size 15 to 20)
#    0.750    0.750    3.750    0.750    3.500    0.500 
#    0.000    6.250    0.000    0.000    0.000    0.000 
#    0.000    0.000    0.000    0.000    0.000    0.000 
#
# Total GULP energy -89331.079361 kJ/mol
# GULP energy per Si atom -5583.192460 kJ/mol
# Density = 2.406814 g / cm^3
# Si number density = 24.123044 Si / 1000 Ang^3
#
#
#
# Elastic Constant Matrix: (Units=GPa)
#
#
# Indices 1 2 3 4 5 6 
#
# 1 36.6762 6.9969 4.7952 0.1644 0.8785 -5.7845
# 2 6.9969 52.9233 27.1173 9.6989 -1.6297 3.0999
# 3 4.7952 27.1173 136.0223 9.3451 11.8557 1.8086
# 4 0.1644 9.6989 9.3451 35.2463 6.0380 -0.1829
# 5 0.8785 -1.6297 11.8557 6.0380 24.6843 -8.3915
# 6 -5.7845 3.0999 1.8086 -0.1829 -8.3915 40.6523
#
#
#
# Elastic Compliance Matrix: (Units=1/GPa)
#
#
# Indices 1 2 3 4 5 6 
#
# 1 0.028784 -0.004085 -0.000345 0.001084 0.000120 0.004452
# 2 -0.004085 0.023026 -0.004445 -0.005979 0.004868 -0.001161
# 3 -0.000345 -0.004445 0.008698 -0.000272 -0.004760 -0.001081
# 4 0.001084 -0.005979 -0.000272 0.031507 -0.008335 -0.000957
# 5 0.000120 0.004868 -0.004760 -0.008335 0.048495 0.009831
# 6 0.004452 -0.001161 -0.001081 -0.000957 0.009831 0.027394
#
#
# Mechanical properties :
#
#
# Convention : Reuss Voigt Hill
#
# Bulk Modulus (GPa) = 23.38585 33.71562 28.55074
# Shear Modulus (GPa) = 25.01176 32.56407 28.78792
#
# Velocity S-wave (km/s) = 3.22349 3.67811 3.45828
# Velocity P-wave (km/s) = 4.85489 5.66081 5.27327
#
# Compressibility (1/GPa) = 0.04276090
#
# Stress axis : x y z
#
# Youngs Moduli (GPa) = 34.74105 43.42861 114.97114
#
# Poissons Ratio (x) = 0.17739 0.03961
# Poissons Ratio (y) = 0.14191 0.51100
# Poissons Ratio (z) = 0.01197 0.19302
#
# Static dielectric constant tensor:
#      x y z
#    x 2.031140 0.029870 0.013430 
#    y 0.029870 1.944480 0.044520 
#    z 0.013430 0.044520 1.828780 
# 
# From -- ./inp_files/313671.got.cif
#   From: 2010.05.17/outbox.cif.g08.bks.cpg/sg2_157_cif.got.tgz:313671.got - 2010.06.03 11:33:40.
