data_PCOD9011610
_publ_section_title
;
Structure prediction by ZEFSAII (Michael W. Deem and Ramdas Pophale) SiO2 
 PCOD9011610
Probable space group: P -1
;
_chemical_formula_sum "Si O2"
_cell_formula_units_Z 16
_cell_length_a 12.950084
_cell_length_b 9.224496
_cell_length_c 8.905579
_cell_angle_alpha 137.250996
_cell_angle_beta 69.836156
_cell_angle_gamma 112.438634
_cell_volume 663.923602
_symmetry_space_group_name_H-M "P -1"
_symmetry_group_IT_number 2
_symmetry_cell_setting 'triclinic'
loop_
_space_group_symop_operation_xyz
x,y,z
-x,-y,-z
loop_
_atom_site_type_symbol
_atom_site_label
_atom_site_fract_x
_atom_site_fract_y
_atom_site_fract_z
Si Si1 0.909430 0.640881 0.857758
Si Si2 0.906400 0.935796 0.822141
Si Si3 0.498492 0.739382 0.120882
Si Si4 0.074547 0.363631 0.655846
Si Si5 0.774558 0.691843 0.214376
Si Si6 0.746825 0.223985 0.237850
Si Si7 0.683627 0.080484 0.473495
Si Si8 0.569799 0.384560 0.259864
O O1 0.913102 0.713947 0.739240
O O2 0.959411 0.431906 0.718725
O O3 0.789391 0.624262 0.983620
O O4 0.989972 0.865334 0.049660
O O5 0.906412 0.861118 0.595249
O O6 0.798935 0.020481 0.002291
O O7 0.596620 0.905169 0.283046
O O8 0.386102 0.814453 0.291012
O O9 0.500000 0.500000 0.000000
O O10 0.501936 0.732345 0.933077
O O11 0.112277 0.353516 0.800380
O O12 0.166471 0.563913 0.698565
O O13 0.764144 0.942245 0.406870
O O14 0.667683 0.558044 0.255938
O O15 0.632197 0.233996 0.216618
O O16 0.740772 0.234867 0.429140
O O17 0.500000 0.500000 0.500000
#
# Coordination Sequence:
#
# PCOD9011610 Si02
#       8
#     2   2   2   2   2   2   2   2
#     4  10  21  42  63  93 132 164 213 268 314 386
#     4  10  21  40  66  97 127 171 210 262 325 378
#     4  11  24  44  67  92 131 170 219 276 325 383
#     4  10  23  40  66  93 133 168 213 260 326 378
#     4  11  23  43  64  97 130 169 216 270 315 390
#     4  10  23  41  63  96 133 166 215 268 310 391
#     4  11  24  42  67  97 128 173 223 263 327 384
#     4  11  25  45  68  94 134 173 216 272 333 379
#
# _framework density 24.099160000000001
#
# number of rings (size 3 to 8) (size 9 to 14) (size 15 to 20)
#    0.000    1.500    2.500    1.500    3.500    5.000 
#    2.250    0.000    0.000    0.000    0.000    0.000 
#    0.000    0.000    0.000    0.000    0.000    0.000 
#
# Total GULP energy -89462.577261 kJ/mol
# GULP energy per Si atom -5591.411079 kJ/mol
# Density = 2.404431 g / cm^3
# Si number density = 24.099160 Si / 1000 Ang^3
#
#
#
# Elastic Constant Matrix: (Units=GPa)
#
#
# Indices 1 2 3 4 5 6 
#
# 1 74.6922 26.8475 32.1154 5.9205 -23.9511 -15.4427
# 2 26.8475 108.6733 14.5719 -12.1435 -5.0534 -7.8496
# 3 32.1154 14.5719 121.1855 -20.2402 -10.4961 -2.4243
# 4 5.9205 -12.1435 -20.2402 36.2484 4.1581 -7.6460
# 5 -23.9511 -5.0534 -10.4961 4.1581 40.1732 -2.6243
# 6 -15.4427 -7.8496 -2.4243 -7.6460 -2.6243 31.2470
#
#
#
# Elastic Compliance Matrix: (Units=1/GPa)
#
#
# Indices 1 2 3 4 5 6 
#
# 1 0.025077 -0.004991 -0.006075 -0.008746 0.014276 0.009727
# 2 -0.004991 0.010964 0.000787 0.005463 -0.001857 0.001529
# 3 -0.006075 0.000787 0.010878 0.007443 -0.001468 -0.000263
# 4 -0.008746 0.005463 0.007443 0.036994 -0.006008 0.006175
# 5 0.014276 -0.001857 -0.001468 -0.006008 0.033921 0.007854
# 6 0.009727 0.001529 -0.000263 0.006175 0.007854 0.039345
#
#
# Mechanical properties :
#
#
# Convention : Reuss Voigt Hill
#
# Bulk Modulus (GPa) = 37.93786 50.18006 44.05896
# Shear Modulus (GPa) = 26.80620 36.93480 31.87050
#
# Velocity S-wave (km/s) = 3.33878 3.91911 3.64053
# Velocity P-wave (km/s) = 5.53533 6.43015 5.99944
#
# Compressibility (1/GPa) = 0.02635889
#
# Stress axis : x y z
#
# Youngs Moduli (GPa) = 39.87777 91.20653 91.93043
#
# Poissons Ratio (x) = 0.45525 0.55848
# Poissons Ratio (y) = 0.19905 -0.07231
# Poissons Ratio (z) = 0.24226 -0.07174
#
# Static dielectric constant tensor:
#      x y z
#    x 1.970560 0.008690 0.019090 
#    y 0.008690 1.919430 0.018900 
#    z 0.019090 0.018900 1.889150 
# 
# From -- ./inp_files/39414.got.cif
#   From: 2010.05.17/outbox.cif.g08.bks.cpg/sg2_20_cif.got.tgz:39414.got - 2010.06.03 11:33:40.
