data_PCOD9011660
_publ_section_title
;
Structure prediction by ZEFSAII (Michael W. Deem and Ramdas Pophale) SiO2 
 PCOD9011660
Probable space group: P -1
;
_chemical_formula_sum "Si O2"
_cell_formula_units_Z 12
_cell_length_a 9.309496
_cell_length_b 14.819940
_cell_length_c 5.229749
_cell_angle_alpha 69.083796
_cell_angle_beta 92.098420
_cell_angle_gamma 130.542536
_cell_volume 492.379902
_symmetry_space_group_name_H-M "P -1"
_symmetry_group_IT_number 2
_symmetry_cell_setting 'triclinic'
loop_
_space_group_symop_operation_xyz
x,y,z
-x,-y,-z
loop_
_atom_site_type_symbol
_atom_site_label
_atom_site_fract_x
_atom_site_fract_y
_atom_site_fract_z
Si Si1 0.528478 0.314613 0.072925
Si Si2 0.413472 0.862429 0.507905
Si Si3 0.987843 0.255306 0.632141
Si Si4 0.353811 0.518046 0.574144
Si Si5 0.128387 0.168005 0.422875
Si Si6 0.803786 0.992529 0.185402
O O1 0.578355 0.226010 0.217069
O O2 0.594259 0.410583 0.222826
O O3 0.292189 0.220280 0.169093
O O4 0.620641 0.391316 0.738701
O O5 0.196620 0.775957 0.470539
O O6 0.500000 0.000000 0.500000
O O7 0.574096 0.909081 0.257175
O O8 0.128708 0.378470 0.702801
O O9 0.135451 0.280433 0.402964
O O10 0.900272 0.118141 0.891627
O O11 0.500000 0.500000 0.500000
O O12 0.911833 0.057856 0.400899
O O13 0.168412 0.110164 0.713824
#
# Coordination Sequence:
#
# PCOD9011660 Si02
#       6
#     2   2   2   2   2   2
#     4  11  27  47  71 105 139 183 232 285 343 407
#     4  11  25  46  68 102 139 179 228 288 351 412
#     4  12  24  39  70  95 136 184 228 276 349 409
#     4  12  26  46  74 102 141 183 236 284 335 411
#     4  10  21  40  66  99 131 176 229 292 336 403
#     4  10  22  40  64  98 135 172 232 285 349 397
#
# _framework density 24.371426
#
# number of rings (size 3 to 8) (size 9 to 14) (size 15 to 20)
#    0.000    1.000    3.333    2.500    2.333    5.333 
#    0.000    0.000    0.000    0.000    0.000    0.000 
#    0.000    0.000    0.000    0.000    0.000    0.000 
#
# Total GULP energy -67128.725004 kJ/mol
# GULP energy per Si atom -5594.060417 kJ/mol
# Density = 2.431596 g / cm^3
# Si number density = 24.371426 Si / 1000 Ang^3
#
#
#
# Elastic Constant Matrix: (Units=GPa)
#
#
# Indices 1 2 3 4 5 6 
#
# 1 128.7776 39.6874 23.4749 -8.3171 22.9589 18.6460
# 2 39.6874 125.0606 7.1129 15.9454 4.9600 12.5286
# 3 23.4749 7.1129 103.4169 -9.1181 5.7074 0.2866
# 4 -8.3171 15.9454 -9.1181 31.8310 -1.1748 0.0648
# 5 22.9589 4.9600 5.7074 -1.1748 15.2866 -8.8054
# 6 18.6460 12.5286 0.2866 0.0648 -8.8054 33.9319
#
#
#
# Elastic Compliance Matrix: (Units=1/GPa)
#
#
# Indices 1 2 3 4 5 6 
#
# 1 0.018450 -0.003064 -0.001509 0.004617 -0.036429 -0.018457
# 2 -0.003064 0.009954 -0.000504 -0.005929 -0.000039 -0.001986
# 3 -0.001509 -0.000504 0.010335 0.002788 -0.000804 0.000714
# 4 0.004617 -0.005929 0.002788 0.036241 -0.004138 -0.001514
# 5 -0.036429 -0.000039 -0.000804 -0.004138 0.154814 0.060222
# 6 -0.018457 -0.001986 0.000714 -0.001514 0.060222 0.055971
#
#
# Mechanical properties :
#
#
# Convention : Reuss Voigt Hill
#
# Bulk Modulus (GPa) = 34.98355 55.31172 45.14764
# Shear Modulus (GPa) = 16.36952 35.34189 25.85570
#
# Velocity S-wave (km/s) = 2.59447 3.81220 3.26068
# Velocity P-wave (km/s) = 4.83327 6.49012 5.72198
#
# Compressibility (1/GPa) = 0.02858486
#
# Stress axis : x y z
#
# Youngs Moduli (GPa) = 54.20093 100.46671 96.75967
#
# Poissons Ratio (x) = 0.30783 0.14597
# Poissons Ratio (y) = 0.16607 0.04878
# Poissons Ratio (z) = 0.08177 0.05065
#
# Static dielectric constant tensor:
#      x y z
#    x 1.943840 -0.045060 -0.025610 
#    y -0.045060 1.975200 -0.015730 
#    z -0.025610 -0.015730 1.984430 
# 
# From -- ./inp_files/22795.got.cif
#   From: 2010.05.17/outbox.cif.g08.bks.cpg/sg2_12_cif.got.tgz:22795.got - 2010.06.03 11:33:40.
