data_PCOD9011049
_publ_section_title
;
Structure prediction by ZEFSAII (Michael W. Deem and Ramdas Pophale) SiO2 
 PCOD9011049
Probable space group: P -1
;
_chemical_formula_sum "Si O2"
_cell_formula_units_Z 12
_cell_length_a 11.102248
_cell_length_b 7.292692
_cell_length_c 8.380740
_cell_angle_alpha 53.169644
_cell_angle_beta 91.189015
_cell_angle_gamma 58.349276
_cell_volume 402.480509
_symmetry_space_group_name_H-M "P -1"
_symmetry_group_IT_number 2
_symmetry_cell_setting 'triclinic'
loop_
_space_group_symop_operation_xyz
x,y,z
-x,-y,-z
loop_
_atom_site_type_symbol
_atom_site_label
_atom_site_fract_x
_atom_site_fract_y
_atom_site_fract_z
Si Si1 0.028124 0.884685 0.832748
Si Si2 0.538750 0.032839 0.668578
Si Si3 0.809563 0.586957 0.456747
Si Si4 0.759681 0.095545 0.972889
Si Si5 0.574480 0.543960 0.128352
Si Si6 0.837025 0.877819 0.604392
O O1 0.948068 0.231081 0.604031
O O2 0.003199 0.739835 0.764825
O O3 0.899500 0.951531 0.923051
O O4 0.195086 0.741782 0.996922
O O5 0.358632 0.335899 0.563833
O O6 0.701711 0.966951 0.681605
O O7 0.500000 0.000000 0.500000
O O8 0.579593 0.792208 0.931562
O O9 0.785084 0.825103 0.209371
O O10 0.846934 0.668520 0.581464
O O11 0.567169 0.328319 0.811900
O O12 0.744724 0.216698 0.351645
O O13 0.500000 0.500000 0.000000
#
# Coordination Sequence:
#
# PCOD9011049 Si02
#       6
#     2   2   2   2   2   2
#     4  11  25  42  63  93 131 166 204 259 312 377
#     4   9  18  33  60  93 123 156 204 256 307 360
#     4  10  21  40  65  88 127 167 205 259 311 364
#     4  10  23  43  63  89 132 168 204 256 320 367
#     4  11  19  38  68  94 121 168 208 260 312 363
#     4  11  23  39  66  99 120 163 217 254 310 373
#
# _framework density 29.815106
#
# number of rings (size 3 to 8) (size 9 to 14) (size 15 to 20)
#    0.000    1.667    5.000    1.500    2.333    4.667 
#    0.000    6.667    0.000    0.000    0.000    0.000 
#    0.000    0.000    0.000    0.000    0.000    0.000 
#
# Total GULP energy -67340.321430 kJ/mol
# GULP energy per Si atom -5611.693452 kJ/mol
# Density = 2.974725 g / cm^3
# Si number density = 29.815106 Si / 1000 Ang^3
#
#
#
# Elastic Constant Matrix: (Units=GPa)
#
#
# Indices 1 2 3 4 5 6 
#
# 1 211.6367 38.0557 55.3368 19.8683 14.2702 2.5784
# 2 38.0557 95.4513 19.5028 3.1200 16.6630 0.1171
# 3 55.3368 19.5028 99.6077 -13.3136 -16.3659 9.2520
# 4 19.8683 3.1200 -13.3136 50.7202 -7.3305 6.0656
# 5 14.2702 16.6630 -16.3659 -7.3305 72.0756 11.5752
# 6 2.5784 0.1171 9.2520 6.0656 11.5752 54.0249
#
#
#
# Elastic Compliance Matrix: (Units=1/GPa)
#
#
# Indices 1 2 3 4 5 6 
#
# 1 0.006753 -0.001075 -0.004756 -0.004436 -0.002878 0.001609
# 2 -0.001075 0.012158 -0.002752 -0.001751 -0.003637 0.001472
# 3 -0.004756 -0.002752 0.015801 0.007723 0.006719 -0.004780
# 4 -0.004436 -0.001751 0.007723 0.025156 0.006448 -0.005313
# 5 -0.002878 -0.003637 0.006719 0.006448 0.018376 -0.005667
# 6 0.001609 0.001472 -0.004780 -0.005313 -0.005667 0.021059
#
#
# Mechanical properties :
#
#
# Convention : Reuss Voigt Hill
#
# Bulk Modulus (GPa) = 56.99524 70.27624 63.63574
# Shear Modulus (GPa) = 40.87740 54.95085 47.91412
#
# Velocity S-wave (km/s) = 3.70676 4.29774 4.01314
# Velocity P-wave (km/s) = 6.12191 6.94617 6.54702
#
# Compressibility (1/GPa) = 0.01754533
#
# Stress axis : x y z
#
# Youngs Moduli (GPa) = 148.08310 82.25238 63.28892
#
# Poissons Ratio (x) = 0.08843 0.30103
# Poissons Ratio (y) = 0.15920 0.17414
# Poissons Ratio (z) = 0.70434 0.22632
#
# Static dielectric constant tensor:
#      x y z
#    x 2.262550 0.010710 -0.047560 
#    y 0.010710 2.463420 0.047900 
#    z -0.047560 0.047900 2.384570 
# 
# From -- ./inp_files/233239.got.cif
#   From: 2010.05.17/outbox.cif.g08.bks.cpg/sg2_117_cif.got.tgz:233239.got - 2010.06.03 11:33:40.
