data_PCOD9011957
_publ_section_title
;
Structure prediction by ZEFSAII (Michael W. Deem and Ramdas Pophale) SiO2 
 PCOD9011957
Probable space group: P -1
;
_chemical_formula_sum "Si O2"
_cell_formula_units_Z 14
_cell_length_a 6.846178
_cell_length_b 10.297785
_cell_length_c 11.534685
_cell_angle_alpha 128.015411
_cell_angle_beta 70.114213
_cell_angle_gamma 85.082979
_cell_volume 552.583048
_symmetry_space_group_name_H-M "P -1"
_symmetry_group_IT_number 2
_symmetry_cell_setting 'triclinic'
loop_
_space_group_symop_operation_xyz
x,y,z
-x,-y,-z
loop_
_atom_site_type_symbol
_atom_site_label
_atom_site_fract_x
_atom_site_fract_y
_atom_site_fract_z
Si Si1 0.508699 0.348025 0.820342
Si Si2 0.447888 0.664439 0.894368
Si Si3 0.211024 0.333214 0.690367
Si Si4 0.084551 0.852637 0.257979
Si Si5 0.679861 0.142755 0.372602
Si Si6 0.317967 0.088797 0.982041
Si Si7 0.812805 0.322329 0.259504
O O1 0.563751 0.448992 0.755609
O O2 0.274022 0.351461 0.823434
O O3 0.698135 0.160107 0.717261
O O4 0.500000 0.500000 0.000000
O O5 0.361327 0.717823 0.811958
O O6 0.614899 0.741811 0.960923
O O7 0.209574 0.748458 0.058962
O O8 0.019933 0.257842 0.702301
O O9 0.445660 0.192138 0.513559
O O10 0.160518 0.506465 0.712664
O O11 0.890886 0.034131 0.353190
O O12 0.713588 0.312800 0.400621
O O13 0.675533 0.015344 0.195212
O O14 0.063066 0.165289 0.122803
O O15 0.500000 0.000000 0.000000
#
# Coordination Sequence:
#
# PCOD9011957 Si02
#       7
#     2   2   2   2   2   2   2
#     4   9  22  40  66  95 129 173 224 259 321 393
#     4  10  21  40  68 101 127 168 230 273 315 397
#     4  11  26  46  66  97 140 176 214 273 332 398
#     4  11  23  42  66  98 136 172 217 268 335 389
#     4  12  25  44  67 101 137 171 219 278 335 382
#     4  12  23  41  70  98 133 171 225 274 328 390
#     4  11  23  47  70  95 129 179 225 271 331 386
#
# _framework density 25.335559
#
# number of rings (size 3 to 8) (size 9 to 14) (size 15 to 20)
#    0.000    1.143    2.857    3.000    4.000    5.714 
#    5.143    0.714    0.000    0.000    0.000    0.000 
#    0.000    0.000    0.000    0.000    0.000    0.000 
#
# Total GULP energy -78112.466640 kJ/mol
# GULP energy per Si atom -5579.461903 kJ/mol
# Density = 2.527789 g / cm^3
# Si number density = 25.335559 Si / 1000 Ang^3
#
#
#
# Elastic Constant Matrix: (Units=GPa)
#
#
# Indices 1 2 3 4 5 6 
#
# 1 84.5737 36.1483 13.9781 3.6820 -14.3217 -15.4894
# 2 36.1483 124.1443 9.5481 -3.4096 -7.4600 -20.3915
# 3 13.9781 9.5481 91.2852 -17.1031 -7.9026 -10.2818
# 4 3.6820 -3.4096 -17.1031 32.7439 -0.8593 -11.6635
# 5 -14.3217 -7.4600 -7.9026 -0.8593 28.3746 -1.2854
# 6 -15.4894 -20.3915 -10.2818 -11.6635 -1.2854 58.8850
#
#
#
# Elastic Compliance Matrix: (Units=1/GPa)
#
#
# Indices 1 2 3 4 5 6 
#
# 1 0.015182 -0.003608 -0.001502 -0.001902 0.006340 0.002243
# 2 -0.003608 0.009717 0.000505 0.002809 0.001099 0.003084
# 3 -0.001502 0.000505 0.013538 0.008799 0.003591 0.003965
# 4 -0.001902 0.002809 0.008799 0.039259 0.003865 0.009869
# 5 0.006340 0.001099 0.003591 0.003865 0.040044 0.004315
# 6 0.002243 0.003084 0.003965 0.009869 0.004315 0.021382
#
#
# Mechanical properties :
#
#
# Convention : Reuss Voigt Hill
#
# Bulk Modulus (GPa) = 34.21601 46.59469 40.40535
# Shear Modulus (GPa) = 31.63076 40.02261 35.82668
#
# Velocity S-wave (km/s) = 3.53721 3.97886 3.76451
# Velocity P-wave (km/s) = 5.49699 6.28803 5.90577
#
# Compressibility (1/GPa) = 0.02922608
#
# Stress axis : x y z
#
# Youngs Moduli (GPa) = 65.86922 102.91646 73.86622
#
# Poissons Ratio (x) = 0.37130 0.11096
# Poissons Ratio (y) = 0.23764 -0.03729
# Poissons Ratio (z) = 0.09894 -0.05196
#
# Static dielectric constant tensor:
#      x y z
#    x 2.012590 0.011060 0.054480 
#    y 0.011060 2.267340 -0.010720 
#    z 0.054480 -0.010720 2.037020 
# 
# From -- ./inp_files/337626.got.cif
#   From: 2010.05.17/outbox.cif.g08.bks.cpg/sg2_169_cif.got.tgz:337626.got - 2010.06.03 11:33:40.
