data_PCOD9011803
_publ_section_title
;
Structure prediction by ZEFSAII (Michael W. Deem and Ramdas Pophale) SiO2 
 PCOD9011803
Probable space group: P -1
;
_chemical_formula_sum "Si O2"
_cell_formula_units_Z 16
_cell_length_a 16.362908
_cell_length_b 8.216140
_cell_length_c 17.241306
_cell_angle_alpha 97.518618
_cell_angle_beta 163.611361
_cell_angle_gamma 83.307771
_cell_volume 648.045786
_symmetry_space_group_name_H-M "P -1"
_symmetry_group_IT_number 2
_symmetry_cell_setting 'triclinic'
loop_
_space_group_symop_operation_xyz
x,y,z
-x,-y,-z
loop_
_atom_site_type_symbol
_atom_site_label
_atom_site_fract_x
_atom_site_fract_y
_atom_site_fract_z
Si Si1 0.291056 0.842447 0.572115
Si Si2 0.670818 0.675464 0.731519
Si Si3 0.683955 0.949870 0.236968
Si Si4 0.222916 0.380590 0.949021
Si Si5 0.220192 0.163879 0.453737
Si Si6 0.784407 0.587265 0.665093
Si Si7 0.614145 0.300010 0.953856
Si Si8 0.192338 0.895005 0.231300
O O1 0.358933 0.950010 0.716511
O O2 0.972024 0.763130 0.275599
O O3 0.292537 0.973247 0.511329
O O4 0.512495 0.697163 0.769961
O O5 0.523932 0.511156 0.625220
O O6 0.384592 0.751176 0.437554
O O7 0.142400 0.376203 0.177086
O O8 0.881713 0.803771 0.976859
O O9 0.590370 0.766780 0.167870
O O10 0.000000 0.000000 0.500000
O O11 0.500000 0.000000 0.000000
O O12 0.014673 0.483547 0.821092
O O13 0.323250 0.506959 0.980995
O O14 0.221115 0.238502 0.374035
O O15 0.457048 0.260468 0.726664
O O16 0.912628 0.200891 0.216343
O O17 0.500000 0.000000 0.500000
O O18 0.000000 0.000000 0.000000
#
# Coordination Sequence:
#
# PCOD9011803 Si02
#       8
#     2   2   2   2   2   2   2   2
#     4  11  23  42  65  99 134 173 223 281 324 391
#     4  10  22  41  68  96 133 171 231 283 340 416
#     4  11  22  41  69  98 132 176 220 267 329 396
#     4  11  23  42  65  95 136 179 220 280 334 387
#     4  10  21  41  65  91 128 181 231 259 327 407
#     4  10  24  42  68 100 131 182 227 280 346 413
#     4  10  21  40  67  93 132 179 222 263 317 408
#     4   9  20  42  64  88 127 173 200 272 360 389
#
# _framework density 24.689613000000001
#
# number of rings (size 3 to 8) (size 9 to 14) (size 15 to 20)
#    0.000    1.750    0.000    5.250    0.000    8.000 
#    9.000    3.750    5.500    0.000    0.000    0.000 
#    0.000    0.000    0.000    0.000    0.000    0.000 
#
# Total GULP energy -89115.591119 kJ/mol
# GULP energy per Si atom -5569.724445 kJ/mol
# Density = 2.463342 g / cm^3
# Si number density = 24.689613 Si / 1000 Ang^3
#
#
#
# Elastic Constant Matrix: (Units=GPa)
#
#
# Indices 1 2 3 4 5 6 
#
# 1 51.4395 48.4242 -0.1504 -6.3048 2.8421 23.1167
# 2 48.4242 165.7211 51.0883 1.0191 19.7324 52.0726
# 3 -0.1504 51.0883 181.1162 -15.0938 16.6615 11.4906
# 4 -6.3048 1.0191 -15.0938 44.2602 0.1415 7.2388
# 5 2.8421 19.7324 16.6615 0.1415 35.8886 9.4979
# 6 23.1167 52.0726 11.4906 7.2388 9.4979 43.0750
#
#
#
# Elastic Compliance Matrix: (Units=1/GPa)
#
#
# Indices 1 2 3 4 5 6 
#
# 1 0.032057 -0.007182 0.003137 0.007638 0.002910 -0.011283
# 2 -0.007182 0.012279 -0.002692 -0.000640 -0.002379 -0.009639
# 3 0.003137 -0.002692 0.006707 0.002850 -0.001814 -0.000297
# 4 0.007638 -0.000640 0.002850 0.026073 0.000597 -0.008599
# 5 0.002910 -0.002379 -0.001814 0.000597 0.031150 -0.005170
# 6 -0.011283 -0.009639 -0.000297 -0.008599 -0.005170 0.043587
#
#
# Mechanical properties :
#
#
# Convention : Reuss Voigt Hill
#
# Bulk Modulus (GPa) = 26.61900 66.33346 46.47623
# Shear Modulus (GPa) = 28.11368 44.57242 36.34305
#
# Velocity S-wave (km/s) = 3.37810 4.25350 3.84082
# Velocity P-wave (km/s) = 5.10101 7.14481 6.20760
#
# Compressibility (1/GPa) = 0.03756715
#
# Stress axis : x y z
#
# Youngs Moduli (GPa) = 31.19475 81.44075 149.10502
#
# Poissons Ratio (x) = 0.58493 -0.46778
# Poissons Ratio (y) = 0.22405 0.40146
# Poissons Ratio (z) = -0.09786 0.21928
#
# Static dielectric constant tensor:
#      x y z
#    x 2.259430 0.040670 -0.026220 
#    y 0.040670 2.067820 0.034680 
#    z -0.026220 0.034680 1.953660 
# 
# From -- ./inp_files/222130.got.cif
#   From: 2010.05.17/outbox.cif.g08.bks.cpg/sg2_112_cif.got.tgz:222130.got - 2010.06.03 11:33:40.
