data_PCOD9011637
_publ_section_title
;
Structure prediction by ZEFSAII (Michael W. Deem and Ramdas Pophale) SiO2 
 PCOD9011637
Probable space group: P -1
;
_chemical_formula_sum "Si O2"
_cell_formula_units_Z 16
_cell_length_a 25.002283
_cell_length_b 12.311091
_cell_length_c 6.443727
_cell_angle_alpha 131.153436
_cell_angle_beta 131.879618
_cell_angle_gamma 28.029415
_cell_volume 680.407663
_symmetry_space_group_name_H-M "P -1"
_symmetry_group_IT_number 2
_symmetry_cell_setting 'triclinic'
loop_
_space_group_symop_operation_xyz
x,y,z
-x,-y,-z
loop_
_atom_site_type_symbol
_atom_site_label
_atom_site_fract_x
_atom_site_fract_y
_atom_site_fract_z
Si Si1 0.257044 0.641740 0.398363
Si Si2 0.797958 0.991582 0.803522
Si Si3 0.686250 0.914647 0.674402
Si Si4 0.588912 0.493152 0.733961
Si Si5 0.940615 0.810738 0.305216
Si Si6 0.849904 0.700974 0.200248
Si Si7 0.543750 0.767304 0.317964
Si Si8 0.164309 0.512988 0.760824
O O1 0.359185 0.547043 0.402413
O O2 0.326129 0.458877 0.538442
O O3 0.164098 0.914224 0.554230
O O4 0.193985 0.617194 0.071759
O O5 0.706046 0.263459 0.875172
O O6 0.738988 0.974900 0.789185
O O7 0.808214 0.893182 0.490058
O O8 0.920535 0.833730 0.034033
O O9 0.722603 0.733767 0.376341
O O10 0.551509 0.152565 0.675064
O O11 0.752076 0.789826 0.907083
O O12 0.500000 0.500000 0.500000
O O13 0.533190 0.711761 0.995060
O O14 0.929885 0.670602 0.213258
O O15 0.062864 0.680099 0.535279
O O16 0.879836 0.527947 0.225524
O O17 0.500000 0.000000 0.500000
#
# Coordination Sequence:
#
# PCOD9011637 Si02
#       8
#     2   2   2   2   2   2   2   2
#     4  12  26  45  68  98 138 175 226 279 337 398
#     4  10  21  40  66  98 130 166 226 276 325 397
#     4  10  23  41  66  98 134 171 223 272 338 400
#     4  12  25  42  72 100 132 180 227 280 340 401
#     4  11  23  43  69  99 134 177 227 275 327 401
#     4  10  21  42  69  98 133 173 222 276 332 402
#     4  12  26  44  68  98 138 178 222 283 345 406
#     4  11  25  43  67  99 137 180 221 275 337 401
#
# _framework density 23.515315999999999
#
# number of rings (size 3 to 8) (size 9 to 14) (size 15 to 20)
#    0.000    1.000    2.500    3.750    1.750   10.500 
#    0.000    0.625    0.000    0.000    0.000    0.000 
#    0.000    0.000    0.000    0.000    0.000    0.000 
#
# Total GULP energy -89460.965133 kJ/mol
# GULP energy per Si atom -5591.310321 kJ/mol
# Density = 2.346179 g / cm^3
# Si number density = 23.515316 Si / 1000 Ang^3
#
#
#
# Elastic Constant Matrix: (Units=GPa)
#
#
# Indices 1 2 3 4 5 6 
#
# 1 28.3525 7.4336 16.3524 9.0663 -4.2550 -8.6413
# 2 7.4336 92.9726 35.9948 1.1244 -5.6380 5.2684
# 3 16.3524 35.9948 109.4556 16.6144 2.3708 0.6408
# 4 9.0663 1.1244 16.6144 51.7814 -6.7920 -4.3890
# 5 -4.2550 -5.6380 2.3708 -6.7920 37.6351 2.6053
# 6 -8.6413 5.2684 0.6408 -4.3890 2.6053 32.4291
#
#
#
# Elastic Compliance Matrix: (Units=1/GPa)
#
#
# Indices 1 2 3 4 5 6 
#
# 1 0.044330 -0.001796 -0.005484 -0.004547 0.003484 0.011317
# 2 -0.001796 0.012796 -0.004204 0.001494 0.002419 -0.002466
# 3 -0.005484 -0.004204 0.011884 -0.003194 -0.002489 -0.001245
# 4 -0.004547 0.001494 -0.003194 0.021696 0.003740 0.001245
# 5 0.003484 0.002419 -0.002489 0.003740 0.028241 -0.001178
# 6 0.011317 -0.002466 -0.001245 0.001245 -0.001178 0.034541
#
#
# Mechanical properties :
#
#
# Convention : Reuss Voigt Hill
#
# Bulk Modulus (GPa) = 21.71968 38.92692 30.32330
# Shear Modulus (GPa) = 26.06845 35.76911 30.91878
#
# Velocity S-wave (km/s) = 3.33314 3.90436 3.63000
# Velocity P-wave (km/s) = 4.90607 6.07578 5.52199
#
# Compressibility (1/GPa) = 0.04604119
#
# Stress axis : x y z
#
# Youngs Moduli (GPa) = 22.55796 78.15221 84.14771
#
# Poissons Ratio (x) = 0.14040 0.46143
# Poissons Ratio (y) = 0.04052 0.35377
# Poissons Ratio (z) = 0.12370 0.32857
#
# Static dielectric constant tensor:
#      x y z
#    x 2.139960 0.023750 0.006100 
#    y 0.023750 1.916800 -0.045150 
#    z 0.006100 -0.045150 1.927670 
# 
# From -- ./inp_files/126960.got.cif
#   From: 2010.05.17/outbox.cif.g08.bks.cpg/sg2_64_cif.got.tgz:126960.got - 2010.06.03 11:33:40.
