data_PCOD9011639
_publ_section_title
;
Structure prediction by ZEFSAII (Michael W. Deem and Ramdas Pophale) SiO2 
 PCOD9011639
Probable space group: P -1
;
_chemical_formula_sum "Si O2"
_cell_formula_units_Z 16
_cell_length_a 6.455414
_cell_length_b 21.021493
_cell_length_c 9.634242
_cell_angle_alpha 57.057784
_cell_angle_beta 135.371710
_cell_angle_gamma 105.057450
_cell_volume 752.619693
_symmetry_space_group_name_H-M "P -1"
_symmetry_group_IT_number 2
_symmetry_cell_setting 'triclinic'
loop_
_space_group_symop_operation_xyz
x,y,z
-x,-y,-z
loop_
_atom_site_type_symbol
_atom_site_label
_atom_site_fract_x
_atom_site_fract_y
_atom_site_fract_z
Si Si1 0.294169 0.710732 0.967470
Si Si2 0.740195 0.829197 0.473250
Si Si3 0.795392 0.062144 0.427737
Si Si4 0.666777 0.415033 0.624585
Si Si5 0.654497 0.592176 0.079821
Si Si6 0.819239 0.075481 0.740254
Si Si7 0.666167 0.544913 0.829496
Si Si8 0.343706 0.164662 0.892315
O O1 0.939570 0.749598 0.725865
O O2 0.305463 0.645579 0.167058
O O3 0.441660 0.668681 0.948670
O O4 0.524885 0.764369 0.064940
O O5 0.495897 0.881885 0.393191
O O6 0.591796 0.830266 0.248391
O O7 0.015325 0.872081 0.541377
O O8 0.757721 0.044737 0.592820
O O9 0.512826 0.095438 0.155684
O O10 0.000000 0.000000 0.500000
O O11 0.500000 0.500000 0.500000
O O12 0.459247 0.397252 0.422396
O O13 0.993468 0.414107 0.716567
O O14 0.535196 0.519787 0.171971
O O15 0.645043 0.586331 0.916855
O O16 0.012533 0.143840 0.756070
O O17 0.000000 0.000000 0.000000
O O18 0.000000 0.500000 0.000000
#
# Coordination Sequence:
#
# PCOD9011639 Si02
#       8
#     2   2   2   2   2   2   2   2
#     4  11  26  44  65  93 135 182 220 277 344 403
#     4  10  24  44  62  93 139 173 221 271 330 408
#     4  10  21  40  66  98 131 169 218 269 325 392
#     4  12  24  43  68  97 128 168 230 282 334 403
#     4  11  24  42  68  93 131 170 222 281 345 395
#     4  11  23  41  72 103 133 175 225 273 328 390
#     4  11  23  42  67  98 129 164 221 293 333 399
#     4  10  24  43  63  92 136 175 217 269 335 398
#
# _framework density 21.259077000000001
#
# number of rings (size 3 to 8) (size 9 to 14) (size 15 to 20)
#    0.000    1.250    2.500    1.875    0.000   13.000 
#    0.000    0.000    0.000    0.000    0.000    0.000 
#    0.000    0.000    0.000    0.000    0.000    0.000 
#
# Total GULP energy -89166.069664 kJ/mol
# GULP energy per Si atom -5572.879354 kJ/mol
# Density = 2.121069 g / cm^3
# Si number density = 21.259077 Si / 1000 Ang^3
#
#
#
# Elastic Constant Matrix: (Units=GPa)
#
#
# Indices 1 2 3 4 5 6 
#
# 1 113.5815 23.3746 69.0977 -0.0147 -0.6000 -17.3475
# 2 23.3746 69.0254 37.3325 9.9615 -7.7687 -10.2383
# 3 69.0977 37.3325 169.1117 5.7478 -16.3537 -29.3573
# 4 -0.0147 9.9615 5.7478 36.2674 -3.2593 -4.4761
# 5 -0.6000 -7.7687 -16.3537 -3.2593 40.1559 11.4478
# 6 -17.3475 -10.2383 -29.3573 -4.4761 11.4478 47.3143
#
#
#
# Elastic Compliance Matrix: (Units=1/GPa)
#
#
# Indices 1 2 3 4 5 6 
#
# 1 0.012231 -0.001860 -0.004523 0.001256 -0.002486 0.001995
# 2 -0.001860 0.017450 -0.002675 -0.004136 0.001746 0.000620
# 3 -0.004523 -0.002675 0.009068 -0.000150 0.002292 0.002821
# 4 0.001256 -0.004136 -0.000150 0.029064 0.000948 0.001992
# 5 -0.002486 0.001746 0.002292 0.000948 0.027857 -0.005762
# 6 0.001995 0.000620 0.002821 0.001992 -0.005762 0.025334
#
#
# Mechanical properties :
#
#
# Convention : Reuss Voigt Hill
#
# Bulk Modulus (GPa) = 48.46972 67.92535 58.19753
# Shear Modulus (GPa) = 34.24709 39.54179 36.89444
#
# Velocity S-wave (km/s) = 4.01801 4.31745 4.17041
# Velocity P-wave (km/s) = 6.66145 7.54151 7.11510
#
# Compressibility (1/GPa) = 0.02063144
#
# Stress axis : x y z
#
# Youngs Moduli (GPa) = 81.76132 57.30806 110.27366
#
# Poissons Ratio (x) = 0.10661 0.49881
# Poissons Ratio (y) = 0.15211 0.29496
# Poissons Ratio (z) = 0.36984 0.15329
#
# Static dielectric constant tensor:
#      x y z
#    x 1.773060 0.049860 -0.073750 
#    y 0.049860 1.948380 -0.124410 
#    z -0.073750 -0.124410 1.992360 
# 
# From -- ./inp_files/141310.got.cif
#   From: 2010.05.17/outbox.cif.g08.bks.cpg/sg2_71_cif.got.tgz:141310.got - 2010.06.03 11:33:40.
