data_PCOD9011079
_publ_section_title
;
Structure prediction by ZEFSAII (Michael W. Deem and Ramdas Pophale) SiO2 
 PCOD9011079
Probable space group: P -1
;
_chemical_formula_sum "Si O2"
_cell_formula_units_Z 14
_cell_length_a 12.751361
_cell_length_b 21.540341
_cell_length_c 11.490005
_cell_angle_alpha 32.328958
_cell_angle_beta 132.674459
_cell_angle_gamma 156.988896
_cell_volume 579.504557
_symmetry_space_group_name_H-M "P -1"
_symmetry_group_IT_number 2
_symmetry_cell_setting 'triclinic'
loop_
_space_group_symop_operation_xyz
x,y,z
-x,-y,-z
loop_
_atom_site_type_symbol
_atom_site_label
_atom_site_fract_x
_atom_site_fract_y
_atom_site_fract_z
Si Si1 0.641324 0.757597 0.589455
Si Si2 0.321883 0.748774 0.277215
Si Si3 0.500395 0.031375 0.587670
Si Si4 0.510681 0.713712 0.796163
Si Si5 0.778802 0.785163 0.408368
Si Si6 0.188376 0.439015 0.221943
Si Si7 0.481398 0.794990 0.072471
O O1 0.564341 0.836421 0.380716
O O2 0.576958 0.646756 0.594805
O O3 0.000000 0.000000 0.500000
O O4 0.874790 0.971058 0.672995
O O5 0.000000 0.500000 0.500000
O O6 0.557226 0.405942 0.183581
O O7 0.500000 0.000000 0.000000
O O8 0.138540 0.776757 0.740070
O O9 0.500000 0.000000 0.500000
O O10 0.606211 0.237026 0.371478
O O11 0.634308 0.022976 0.777736
O O12 0.700807 0.309813 0.780800
O O13 0.404504 0.592635 0.031114
O O14 0.765167 0.653673 0.538357
O O15 0.707932 0.851153 0.180770
O O16 0.263567 0.591937 0.128124
#
# Coordination Sequence:
#
# PCOD9011079 Si02
#       7
#     2   2   2   2   2   2   2
#     4   9  20  44  67  95 133 181 231 279 345 411
#     4  11  26  48  71 105 141 184 232 289 354 413
#     4  11  23  40  61  92 129 169 219 273 335 407
#     4  10  21  40  65  90 127 168 219 274 330 402
#     4   9  22  43  58  95 127 168 220 270 340 396
#     4  11  23  39  62  94 126 167 221 269 338 399
#     4  11  23  43  67  94 132 169 221 279 337 408
#
# _framework density 24.158570000000001
#
# number of rings (size 3 to 8) (size 9 to 14) (size 15 to 20)
#    0.000    1.714    1.429    1.714    2.000    2.286 
#   18.000    0.000    0.000    0.000    0.000    0.000 
#    0.000    0.000    0.000    0.000    0.000    0.000 
#
# Total GULP energy -78119.573451 kJ/mol
# GULP energy per Si atom -5579.969532 kJ/mol
# Density = 2.410358 g / cm^3
# Si number density = 24.158570 Si / 1000 Ang^3
#
#
#
# Elastic Constant Matrix: (Units=GPa)
#
#
# Indices 1 2 3 4 5 6 
#
# 1 102.1538 11.4477 59.6634 6.2323 1.7386 15.7712
# 2 11.4477 50.3672 26.9613 23.0691 14.9639 21.5113
# 3 59.6634 26.9613 109.1544 23.2590 24.7402 13.2537
# 4 6.2323 23.0691 23.2590 32.7420 6.0259 -0.3354
# 5 1.7386 14.9639 24.7402 6.0259 57.4953 13.2628
# 6 15.7712 21.5113 13.2537 -0.3354 13.2628 22.8878
#
#
#
# Elastic Compliance Matrix: (Units=1/GPa)
#
#
# Indices 1 2 3 4 5 6 
#
# 1 0.017853 0.009784 -0.010347 -0.004287 0.006241 -0.019185
# 2 0.009784 0.080375 -0.004063 -0.057573 0.006003 -0.084252
# 3 -0.010347 -0.004063 0.018314 -0.006894 -0.006745 0.004151
# 4 -0.004287 -0.057573 -0.006894 0.078441 -0.005183 0.065209
# 5 0.006241 0.006003 -0.006745 -0.005183 0.023660 -0.019822
# 6 -0.019185 -0.084252 0.004151 0.065209 -0.019822 0.146134
#
#
# Mechanical properties :
#
#
# Convention : Reuss Voigt Hill
#
# Bulk Modulus (GPa) = 9.32055 50.86889 30.09472
# Shear Modulus (GPa) = 12.20132 33.53188 22.86660
#
# Velocity S-wave (km/s) = 2.24977 3.72962 3.07990
# Velocity P-wave (km/s) = 3.25808 6.29672 5.01317
#
# Compressibility (1/GPa) = 0.10728980
#
# Stress axis : x y z
#
# Youngs Moduli (GPa) = 56.01327 12.44174 54.60286
#
# Poissons Ratio (x) = -0.12173 0.56495
# Poissons Ratio (y) = -0.54802 0.22186
# Poissons Ratio (z) = 0.57954 0.05055
#
# Static dielectric constant tensor:
#      x y z
#    x 2.024210 -0.030730 -0.070420 
#    y -0.030730 1.977320 0.121060 
#    z -0.070420 0.121060 2.199070 
# 
# From -- ./inp_files/67414.got.cif
#   From: 2010.05.17/outbox.cif.g08.bks.cpg/sg2_34_cif.got.tgz:67414.got - 2010.06.03 11:33:40.
