data_PCOD9011968
_publ_section_title
;
Structure prediction by ZEFSAII (Michael W. Deem and Ramdas Pophale) SiO2 
 PCOD9011968
Probable space group: P -1
;
_chemical_formula_sum "Si O2"
_cell_formula_units_Z 16
_cell_length_a 12.688741
_cell_length_b 9.864082
_cell_length_c 13.785806
_cell_angle_alpha 68.521917
_cell_angle_beta 137.441967
_cell_angle_gamma 75.129081
_cell_volume 595.401592
_symmetry_space_group_name_H-M "P -1"
_symmetry_group_IT_number 2
_symmetry_cell_setting 'triclinic'
loop_
_space_group_symop_operation_xyz
x,y,z
-x,-y,-z
loop_
_atom_site_type_symbol
_atom_site_label
_atom_site_fract_x
_atom_site_fract_y
_atom_site_fract_z
Si Si1 0.170911 0.412093 0.526824
Si Si2 0.837265 0.043295 0.965968
Si Si3 0.201571 0.187287 0.297901
Si Si4 0.989082 0.865441 0.337875
Si Si5 0.482768 0.149919 0.047045
Si Si6 0.896397 0.450709 0.772538
Si Si7 0.683755 0.451847 0.789834
Si Si8 0.352713 0.839729 0.644640
O O1 0.163212 0.577514 0.528385
O O2 0.386897 0.114243 0.778386
O O3 0.207593 0.414185 0.436800
O O4 0.847034 0.607705 0.266020
O O5 0.963051 0.937710 0.189226
O O6 0.854743 0.860562 0.996720
O O7 0.000000 0.000000 0.000000
O O8 0.599721 0.351606 0.742699
O O9 0.026720 0.469769 0.132035
O O10 0.453123 0.380078 0.250610
O O11 0.240931 0.072416 0.455767
O O12 0.017681 0.222270 0.098250
O O13 0.121342 0.892856 0.482966
O O14 0.687011 0.064547 0.129116
O O15 0.508262 0.222181 0.144583
O O16 0.646319 0.569267 0.634290
O O17 0.500000 0.000000 0.500000
#
# Coordination Sequence:
#
# PCOD9011968 Si02
#       8
#     2   2   2   2   2   2   2   2
#     4  11  26  48  77 109 149 201 257 316 374 450
#     4   9  21  43  69  99 139 181 238 301 371 444
#     4  12  23  40  66  98 146 191 245 296 377 444
#     4  11  25  49  72 110 148 197 250 315 378 447
#     4  12  27  49  77 109 150 202 260 311 377 450
#     4  10  21  40  68 101 136 190 242 300 366 441
#     4  11  23  42  67  99 144 187 241 309 372 451
#     4  12  26  44  71 108 149 198 246 313 376 451
#
# _framework density 26.872619
#
# number of rings (size 3 to 8) (size 9 to 14) (size 15 to 20)
#    0.000    1.000    3.750    2.250    1.750    3.000 
#    0.000   14.375    0.000    0.000    0.000    0.000 
#    0.000    0.000    0.000    0.000    0.000    0.000 
#
# Total GULP energy -89607.281574 kJ/mol
# GULP energy per Si atom -5600.455098 kJ/mol
# Density = 2.681146 g / cm^3
# Si number density = 26.872619 Si / 1000 Ang^3
#
#
#
# Elastic Constant Matrix: (Units=GPa)
#
#
# Indices 1 2 3 4 5 6 
#
# 1 153.3983 53.1761 65.1677 -3.9075 2.2194 4.9096
# 2 53.1761 205.8288 28.9256 -0.8073 4.1210 8.6126
# 3 65.1677 28.9256 75.9132 -6.6120 14.8031 8.1402
# 4 -3.9075 -0.8073 -6.6120 41.2643 0.3394 0.8430
# 5 2.2194 4.1210 14.8031 0.3394 45.4578 3.7295
# 6 4.9096 8.6126 8.1402 0.8430 3.7295 51.7075
#
#
#
# Elastic Compliance Matrix: (Units=1/GPa)
#
#
# Indices 1 2 3 4 5 6 
#
# 1 0.011032 -0.001595 -0.009484 -0.000539 0.002655 0.000528
# 2 -0.001595 0.005383 -0.000593 -0.000126 -0.000164 -0.000638
# 3 -0.009484 -0.000593 0.023389 0.002941 -0.006939 -0.002230
# 4 -0.000539 -0.000126 0.002941 0.024675 -0.001045 -0.000718
# 5 0.002655 -0.000164 -0.006939 -0.001045 0.024222 -0.000862
# 6 0.000528 -0.000638 -0.002230 -0.000718 -0.000862 0.019821
#
#
# Mechanical properties :
#
#
# Convention : Reuss Voigt Hill
#
# Bulk Modulus (GPa) = 60.75107 81.07544 70.91326
# Shear Modulus (GPa) = 36.40321 46.87732 41.64026
#
# Velocity S-wave (km/s) = 3.68456 4.18116 3.94069
# Velocity P-wave (km/s) = 6.38416 7.31746 6.86669
#
# Compressibility (1/GPa) = 0.01646062
#
# Stress axis : x y z
#
# Youngs Moduli (GPa) = 90.64769 185.76343 42.75594
#
# Poissons Ratio (x) = 0.29623 0.40549
# Poissons Ratio (y) = 0.14455 0.02535
# Poissons Ratio (z) = 0.85969 0.11014
#
# Static dielectric constant tensor:
#      x y z
#    x 2.191150 0.006390 0.036530 
#    y 0.006390 2.061650 0.001690 
#    z 0.036530 0.001690 2.206960 
# 
# From -- ./inp_files/517807.got.cif
#   From: 2010.05.17/outbox.cif.g08.bks.cpg/sg2_259_cif.got.tgz:517807.got - 2010.06.03 11:33:40.
