data_PCOD9011271
_publ_section_title
;
Structure prediction by ZEFSAII (Michael W. Deem and Ramdas Pophale) SiO2 
 PCOD9011271
Probable space group: P -1
;
_chemical_formula_sum "Si O2"
_cell_formula_units_Z 15
_cell_length_a 7.408260
_cell_length_b 15.686136
_cell_length_c 10.465212
_cell_angle_alpha 56.122498
_cell_angle_beta 49.287734
_cell_angle_gamma 89.508176
_cell_volume 631.929450
_symmetry_space_group_name_H-M "P -1"
_symmetry_group_IT_number 2
_symmetry_cell_setting 'triclinic'
loop_
_space_group_symop_operation_xyz
x,y,z
-x,-y,-z
loop_
_atom_site_type_symbol
_atom_site_label
_atom_site_fract_x
_atom_site_fract_y
_atom_site_fract_z
Si Si1 0.081358 0.240767 0.644668
Si Si2 0.210542 0.077433 0.071785
Si Si3 0.275539 0.878780 0.324723
Si Si4 0.507933 0.359528 0.782426
Si Si5 0.664633 0.375308 0.133288
Si Si6 0.017121 0.592739 0.273551
Si Si7 0.051016 0.360224 0.157398
Si Si8 0.000000 0.000000 0.000000
O O1 0.328715 0.296746 0.376841
O O2 0.079900 0.140459 0.814256
O O3 0.800058 0.179475 0.734953
O O4 0.098271 0.341012 0.645820
O O5 0.224914 0.988424 0.242576
O O6 0.387229 0.074875 0.862714
O O7 0.341550 0.215641 0.941073
O O8 0.914783 0.010819 0.187690
O O9 0.084625 0.771984 0.602378
O O10 0.735431 0.398418 0.760317
O O11 0.731293 0.455356 0.492736
O O12 0.272640 0.380590 0.927695
O O13 0.794481 0.365216 0.213600
O O14 0.801998 0.337662 0.993479
O O15 0.778874 0.518166 0.933670
#
# Coordination Sequence:
#
# PCOD9011271 Si02
#       8
#     2   2   2   2   2   2   2   1
#     4  11  22  44  67 100 127 177 215 273 321 395
#     4  10  21  40  65  96 125 176 216 270 321 394
#     4  10  21  40  67  89 131 171 222 264 324 384
#     4  11  23  41  66  98 132 165 224 271 327 383
#     4  11  25  42  63  95 140 170 219 267 336 382
#     4  11  24  41  69 103 128 172 218 275 322 397
#     4  11  24  41  61  97 133 178 213 275 323 393
#     4  10  24  40  70  92 136 172 218 262 336 382
#
# _framework density 23.736827999999999
#
# number of rings (size 3 to 8) (size 9 to 14) (size 15 to 20)
#    0.000    1.333    2.667    2.400    3.733    3.200 
#    0.000    0.667    0.000    0.000    0.000    0.000 
#    0.000    0.000    0.000    0.000    0.000    0.000 
#
# Total GULP energy -83571.138585 kJ/mol
# GULP energy per Si atom -5571.409239 kJ/mol
# Density = 2.368280 g / cm^3
# Si number density = 23.736828 Si / 1000 Ang^3
#
#
#
# Elastic Constant Matrix: (Units=GPa)
#
#
# Indices 1 2 3 4 5 6 
#
# 1 52.8637 6.0243 8.8167 -4.6517 -0.0577 -6.7461
# 2 6.0243 92.7190 24.4277 -19.1318 -0.6025 -1.1714
# 3 8.8167 24.4277 109.0100 0.1369 7.0111 -13.7568
# 4 -4.6517 -19.1318 0.1369 34.0701 2.7133 -0.4680
# 5 -0.0577 -0.6025 7.0111 2.7133 18.0961 -0.6436
# 6 -6.7461 -1.1714 -13.7568 -0.4680 -0.6436 22.0068
#
#
#
# Elastic Compliance Matrix: (Units=1/GPa)
#
#
# Indices 1 2 3 4 5 6 
#
# 1 0.020055 -0.000495 -0.000810 0.002526 0.000184 0.005674
# 2 -0.000495 0.013117 -0.003095 0.007254 0.000503 -0.001219
# 3 -0.000810 -0.003095 0.010982 -0.001494 -0.003912 0.006306
# 4 0.002526 0.007254 -0.001494 0.034126 -0.004259 0.000828
# 5 0.000184 0.000503 -0.003912 -0.004259 0.057405 -0.000774
# 6 0.005674 -0.001219 0.006306 0.000828 -0.000774 0.051052
#
#
# Mechanical properties :
#
#
# Convention : Reuss Voigt Hill
#
# Bulk Modulus (GPa) = 28.28561 37.01444 32.65003
# Shear Modulus (GPa) = 24.11719 29.18954 26.65336
#
# Velocity S-wave (km/s) = 3.19097 3.51053 3.35456
# Velocity P-wave (km/s) = 5.05159 5.66210 5.36554
#
# Compressibility (1/GPa) = 0.03535366
#
# Stress axis : x y z
#
# Youngs Moduli (GPa) = 49.86357 76.23418 91.06065
#
# Poissons Ratio (x) = 0.03777 0.07376
# Poissons Ratio (y) = 0.02470 0.28181
# Poissons Ratio (z) = 0.04039 0.23592
#
# Static dielectric constant tensor:
#      x y z
#    x 0.534470 -0.101460 0.353560 
#    y -0.101460 1.962930 0.047200 
#    z 0.353560 0.047200 1.838500 
# 
# From -- ./inp_files/234822.got.cif
#   From: 2010.05.17/outbox.cif.g08.bks.cpg/sg2_118_cif.got.tgz:234822.got - 2010.06.03 11:33:40.
