data_PCOD9011419
_publ_section_title
;
Structure prediction by ZEFSAII (Michael W. Deem and Ramdas Pophale) SiO2 
 PCOD9011419
Probable space group: P -1
;
_chemical_formula_sum "Si O2"
_cell_formula_units_Z 16
_cell_length_a 11.338981
_cell_length_b 8.211096
_cell_length_c 9.229908
_cell_angle_alpha 129.580730
_cell_angle_beta 91.709676
_cell_angle_gamma 87.301628
_cell_volume 661.594084
_symmetry_space_group_name_H-M "P -1"
_symmetry_group_IT_number 2
_symmetry_cell_setting 'triclinic'
loop_
_space_group_symop_operation_xyz
x,y,z
-x,-y,-z
loop_
_atom_site_type_symbol
_atom_site_label
_atom_site_fract_x
_atom_site_fract_y
_atom_site_fract_z
Si Si1 0.788923 0.660451 0.467278
Si Si2 0.887559 0.946473 0.058127
Si Si3 0.406581 0.985922 0.272544
Si Si4 0.169593 0.157241 0.712191
Si Si5 0.131691 0.580915 0.072102
Si Si6 0.375967 0.804405 0.480391
Si Si7 0.811550 0.502955 0.673800
Si Si8 0.719747 0.261847 0.085753
O O1 0.707175 0.851461 0.634294
O O2 0.868664 0.758713 0.399576
O O3 0.851989 0.528831 0.524123
O O4 0.708504 0.493637 0.285439
O O5 0.842279 0.728471 0.868190
O O6 0.780890 0.114275 0.124989
O O7 0.917570 0.934190 0.223184
O O8 0.000000 0.000000 0.000000
O O9 0.517652 0.131527 0.377158
O O10 0.409644 0.834206 0.329169
O O11 0.392275 0.840882 0.049203
O O12 0.275456 0.988600 0.603277
O O13 0.210945 0.368688 0.916125
O O14 0.141025 0.646736 0.276695
O O15 0.182353 0.733054 0.039173
O O16 0.000000 0.500000 0.000000
O O17 0.321381 0.579263 0.385397
#
# Coordination Sequence:
#
# PCOD9011419 Si02
#       8
#     2   2   2   2   2   2   2   2
#     4  10  22  40  65  96 136 169 219 268 322 387
#     4  11  23  42  67  92 130 177 219 271 337 389
#     4  10  21  42  66  98 135 177 214 269 337 386
#     4   9  21  42  60  93 130 165 216 272 316 397
#     4  10  21  40  66  90 124 174 221 270 334 386
#     4  10  21  41  67  94 134 172 218 270 331 390
#     4  11  21  40  64  93 133 169 212 278 321 383
#     4  11  20  41  65  93 133 172 218 278 323 389
#
# _framework density 24.184014999999999
#
# number of rings (size 3 to 8) (size 9 to 14) (size 15 to 20)
#    0.000    1.750    2.500    2.250    0.000    0.500 
#    4.500   15.000    0.000    0.000    0.000    0.000 
#    0.000    0.000    0.000    0.000    0.000    0.000 
#
# Total GULP energy -89218.894842 kJ/mol
# GULP energy per Si atom -5576.180928 kJ/mol
# Density = 2.412897 g / cm^3
# Si number density = 24.184015 Si / 1000 Ang^3
#
#
#
# Elastic Constant Matrix: (Units=GPa)
#
#
# Indices 1 2 3 4 5 6 
#
# 1 29.6368 13.8140 16.8381 5.1576 13.9272 15.3643
# 2 13.8140 104.6931 42.1301 -26.3281 20.8505 21.4919
# 3 16.8381 42.1301 113.7743 -7.9555 18.7422 1.2268
# 4 5.1576 -26.3281 -7.9555 65.7163 -1.8939 1.9073
# 5 13.9272 20.8505 18.7422 -1.8939 24.9962 4.0363
# 6 15.3643 21.4919 1.2268 1.9073 4.0363 26.5720
#
#
#
# Elastic Compliance Matrix: (Units=1/GPa)
#
#
# Indices 1 2 3 4 5 6 
#
# 1 0.074627 0.008949 -0.008161 -0.003011 -0.035996 -0.044328
# 2 0.008949 0.018422 -0.005394 0.006185 -0.012883 -0.018312
# 3 -0.008161 -0.005394 0.012120 -0.000351 -0.001484 0.008772
# 4 -0.003011 0.006185 -0.000351 0.017982 -0.001152 -0.004362
# 5 -0.035996 -0.012883 -0.001484 -0.001152 0.068445 0.020987
# 6 -0.044328 -0.018312 0.008772 -0.004362 0.020987 0.074796
#
#
# Mechanical properties :
#
#
# Convention : Reuss Voigt Hill
#
# Bulk Modulus (GPa) = 10.42135 43.74096 27.08115
# Shear Modulus (GPa) = 16.25546 35.14505 25.70025
#
# Velocity S-wave (km/s) = 2.59541 3.81627 3.26344
# Velocity P-wave (km/s) = 3.64693 6.12736 5.04205
#
# Compressibility (1/GPa) = 0.09595687
#
# Stress axis : x y z
#
# Youngs Moduli (GPa) = 13.39993 54.28327 82.50945
#
# Poissons Ratio (x) = -0.48577 0.67337
# Poissons Ratio (y) = -0.11991 0.44504
# Poissons Ratio (z) = 0.10936 0.29279
#
# Static dielectric constant tensor:
#      x y z
#    x 1.922920 0.005310 0.004390 
#    y 0.005310 2.039960 -0.037560 
#    z 0.004390 -0.037560 1.950140 
# 
# From -- ./inp_files/246000.got.cif
#   From: 2010.05.17/outbox.cif.g08.bks.cpg/sg2_123_cif.got.tgz:246000.got - 2010.06.03 11:33:40.
