data_PCOD9011664
_publ_section_title
;
Structure prediction by ZEFSAII (Michael W. Deem and Ramdas Pophale) SiO2 
 PCOD9011664
Probable space group: P -1
;
_chemical_formula_sum "Si O2"
_cell_formula_units_Z 16
_cell_length_a 12.881281
_cell_length_b 11.777373
_cell_length_c 10.128320
_cell_angle_alpha 65.159037
_cell_angle_beta 79.703950
_cell_angle_gamma 133.938585
_cell_volume 697.203297
_symmetry_space_group_name_H-M "P -1"
_symmetry_group_IT_number 2
_symmetry_cell_setting 'triclinic'
loop_
_space_group_symop_operation_xyz
x,y,z
-x,-y,-z
loop_
_atom_site_type_symbol
_atom_site_label
_atom_site_fract_x
_atom_site_fract_y
_atom_site_fract_z
Si Si1 0.724404 0.107989 0.402789
Si Si2 0.236758 0.888191 0.310380
Si Si3 0.226694 0.597961 0.387229
Si Si4 0.591281 0.786544 0.126547
Si Si5 0.270833 0.609223 0.675103
Si Si6 0.351782 0.373128 0.218242
Si Si7 0.972107 0.126710 0.331089
Si Si8 0.969173 0.085540 0.061775
O O1 0.661244 0.022125 0.613365
O O2 0.775744 0.306902 0.282366
O O3 0.520432 0.860882 0.489504
O O4 0.912191 0.208214 0.277932
O O5 0.267354 0.787559 0.276463
O O6 0.991498 0.653139 0.509887
O O7 0.313232 0.071375 0.104236
O O8 0.416141 0.706552 0.246597
O O9 0.186447 0.532995 0.583112
O O10 0.482195 0.544001 0.233984
O O11 0.768526 0.952152 0.114472
O O12 0.164991 0.379572 0.871567
O O13 0.198395 0.102534 0.417565
O O14 0.500000 0.500000 0.000000
O O15 0.198411 0.330641 0.236274
O O16 0.945431 0.024753 0.249411
O O17 0.000000 0.000000 0.000000
#
# Coordination Sequence:
#
# PCOD9011664 Si02
#       8
#     2   2   2   2   2   2   2   2
#     4  10  22  43  71  98 132 178 225 277 338 391
#     4  10  21  40  66  99 133 169 215 277 333 391
#     4  10  21  41  66  94 136 173 214 271 333 400
#     4  12  24  40  67  98 129 178 220 271 330 404
#     4  10  23  44  68  97 138 175 220 283 331 395
#     4  11  26  46  69  99 135 172 227 280 331 397
#     4  11  26  46  70 102 130 180 227 272 337 403
#     4  12  28  44  67  99 139 180 225 278 333 401
#
# _framework density 22.948830999999998
#
# number of rings (size 3 to 8) (size 9 to 14) (size 15 to 20)
#    0.000    1.250    1.250    3.375    7.000    3.000 
#    2.250    0.000    0.000    0.000    0.000    0.000 
#    0.000    0.000    0.000    0.000    0.000    0.000 
#
# Total GULP energy -89538.871522 kJ/mol
# GULP energy per Si atom -5596.179470 kJ/mol
# Density = 2.289660 g / cm^3
# Si number density = 22.948831 Si / 1000 Ang^3
#
#
#
# Elastic Constant Matrix: (Units=GPa)
#
#
# Indices 1 2 3 4 5 6 
#
# 1 91.7335 4.7060 19.7954 -9.0482 -19.3215 -17.4174
# 2 4.7060 72.1634 14.6407 -4.9801 -5.9294 -0.7398
# 3 19.7954 14.6407 66.2680 0.2115 -3.1865 -15.9416
# 4 -9.0482 -4.9801 0.2115 27.0416 -1.7055 3.6271
# 5 -19.3215 -5.9294 -3.1865 -1.7055 27.5289 9.6454
# 6 -17.4174 -0.7398 -15.9416 3.6271 9.6454 34.4464
#
#
#
# Elastic Compliance Matrix: (Units=1/GPa)
#
#
# Indices 1 2 3 4 5 6 
#
# 1 0.014627 0.000936 -0.003519 0.005348 0.009492 0.002566
# 2 0.000936 0.015252 -0.004114 0.003828 0.004691 -0.002820
# 3 -0.003519 -0.004114 0.018887 -0.003492 -0.004350 0.008459
# 4 0.005348 0.003828 -0.003492 0.040791 0.008644 -0.005545
# 5 0.009492 0.004691 -0.004350 0.008644 0.048052 -0.011478
# 6 0.002566 -0.002820 0.008459 -0.005545 -0.011478 0.037980
#
#
# Mechanical properties :
#
#
# Convention : Reuss Voigt Hill
#
# Bulk Modulus (GPa) = 28.27245 34.27211 31.27228
# Shear Modulus (GPa) = 24.90360 30.53824 27.72092
#
# Velocity S-wave (km/s) = 3.29778 3.65185 3.47932
# Velocity P-wave (km/s) = 5.18141 5.72258 5.45870
#
# Compressibility (1/GPa) = 0.03537012
#
# Stress axis : x y z
#
# Youngs Moduli (GPa) = 68.36812 65.56606 52.94566
#
# Poissons Ratio (x) = -0.06134 0.18633
# Poissons Ratio (y) = -0.06396 0.21782
# Poissons Ratio (z) = 0.24061 0.26974
#
# Static dielectric constant tensor:
#      x y z
#    x 1.867630 -0.038530 0.019980 
#    y -0.038530 1.829660 -0.011220 
#    z 0.019980 -0.011220 1.852660 
# 
# From -- ./inp_files/427811.got.cif
#   From: 2010.05.17/outbox.cif.g08.bks.cpg/sg2_214_cif.got.tgz:427811.got - 2010.06.03 11:33:40.
