data_PCOD9011270
_publ_section_title
;
Structure prediction by ZEFSAII (Michael W. Deem and Ramdas Pophale) SiO2 
 PCOD9011270
Probable space group: P -1
;
_chemical_formula_sum "Si O2"
_cell_formula_units_Z 14
_cell_length_a 8.999718
_cell_length_b 11.998300
_cell_length_c 11.423857
_cell_angle_alpha 31.387334
_cell_angle_beta 80.808182
_cell_angle_gamma 81.287938
_cell_volume 633.941905
_symmetry_space_group_name_H-M "P -1"
_symmetry_group_IT_number 2
_symmetry_cell_setting 'triclinic'
loop_
_space_group_symop_operation_xyz
x,y,z
-x,-y,-z
loop_
_atom_site_type_symbol
_atom_site_label
_atom_site_fract_x
_atom_site_fract_y
_atom_site_fract_z
Si Si1 0.947755 0.951290 0.918087
Si Si2 0.266071 0.721117 0.473624
Si Si3 0.773184 0.119793 0.217683
Si Si4 0.676676 0.446749 0.136140
Si Si5 0.468026 0.971546 0.850358
Si Si6 0.341628 0.290673 0.758707
Si Si7 0.387762 0.206967 0.338880
O O1 0.874479 0.161157 0.675828
O O2 0.081521 0.867851 0.892519
O O3 0.815059 0.784971 0.099146
O O4 0.000000 0.000000 0.000000
O O5 0.247732 0.597811 0.708836
O O6 0.335938 0.545505 0.532532
O O7 0.386260 0.903517 0.321294
O O8 0.758299 0.293792 0.166372
O O9 0.628435 0.142955 0.131148
O O10 0.749869 0.883922 0.488491
O O11 0.500992 0.377109 0.227933
O O12 0.672395 0.684131 0.870196
O O13 0.363928 0.158856 0.754682
O O14 0.526296 0.803200 0.090284
O O15 0.500000 0.000000 0.500000
#
# Coordination Sequence:
#
# PCOD9011270 Si02
#       7
#     2   2   2   2   2   2   2
#     4  11  25  46  63  90 129 174 211 258 319 377
#     4  11  24  41  66  96 129 165 212 262 321 377
#     4  11  22  40  67  93 130 167 212 258 311 383
#     4  10  22  38  64  99 125 166 209 259 321 370
#     4  10  21  40  65  96 125 165 211 267 314 364
#     4  10  23  41  63  92 130 166 210 264 316 376
#     4   9  20  37  60  95 127 162 204 256 307 369
#
# _framework density 22.084040999999999
#
# number of rings (size 3 to 8) (size 9 to 14) (size 15 to 20)
#    0.000    1.714    2.857    0.429    6.000    3.429 
#    2.571    1.429    0.000    0.000    0.000    0.000 
#    0.000    0.000    0.000    0.000    0.000    0.000 
#
# Total GULP energy -78212.860962 kJ/mol
# GULP energy per Si atom -5586.632926 kJ/mol
# Density = 2.203378 g / cm^3
# Si number density = 22.084041 Si / 1000 Ang^3
#
#
#
# Elastic Constant Matrix: (Units=GPa)
#
#
# Indices 1 2 3 4 5 6 
#
# 1 75.6102 50.6467 33.9525 8.9955 10.6326 -7.6832
# 2 50.6467 126.4525 34.7071 4.5484 10.2966 -7.0066
# 3 33.9525 34.7071 103.4246 14.2607 15.4209 6.2876
# 4 8.9955 4.5484 14.2607 40.7534 0.6360 1.9334
# 5 10.6326 10.2966 15.4209 0.6360 32.4721 10.9526
# 6 -7.6832 -7.0066 6.2876 1.9334 10.9526 30.8073
#
#
#
# Elastic Compliance Matrix: (Units=1/GPa)
#
#
# Indices 1 2 3 4 5 6 
#
# 1 0.021069 -0.006457 -0.004007 -0.002761 -0.005120 0.006597
# 2 -0.006457 0.011102 -0.001622 0.000695 -0.001199 0.001628
# 3 -0.004007 -0.001622 0.012604 -0.003172 -0.003221 -0.002596
# 4 -0.002761 0.000695 -0.003172 0.026255 0.002490 -0.002416
# 5 -0.005120 -0.001199 -0.003221 0.002490 0.039413 -0.015060
# 6 0.006597 0.001628 -0.002596 -0.002416 -0.015060 0.040511
#
#
# Mechanical properties :
#
#
# Convention : Reuss Voigt Hill
#
# Bulk Modulus (GPa) = 48.53550 60.45553 54.49551
# Shear Modulus (GPa) = 27.47342 33.21864 30.34603
#
# Velocity S-wave (km/s) = 3.53092 3.88260 3.71093
# Velocity P-wave (km/s) = 6.21680 6.89450 6.56440
#
# Compressibility (1/GPa) = 0.02060348
#
# Stress axis : x y z
#
# Youngs Moduli (GPa) = 47.46329 90.07128 79.33961
#
# Poissons Ratio (x) = 0.58160 0.31789
# Poissons Ratio (y) = 0.30647 0.12870
# Poissons Ratio (z) = 0.19017 0.14610
#
# Static dielectric constant tensor:
#      x y z
#    x 1.804090 -0.017260 -0.025090 
#    y -0.017260 1.874520 0.017950 
#    z -0.025090 0.017950 1.838830 
# 
# From -- ./inp_files/391790.got.cif
#   From: 2010.05.17/outbox.cif.g08.bks.cpg/sg2_196_cif.got.tgz:391790.got - 2010.06.03 11:33:40.
