data_PCOD9011915
_publ_section_title
;
Structure prediction by ZEFSAII (Michael W. Deem and Ramdas Pophale) SiO2 
 PCOD9011915
Probable space group: P -1
;
_chemical_formula_sum "Si O2"
_cell_formula_units_Z 16
_cell_length_a 8.156842
_cell_length_b 19.812097
_cell_length_c 11.499600
_cell_angle_alpha 148.583822
_cell_angle_beta 140.482158
_cell_angle_gamma 45.631705
_cell_volume 611.679960
_symmetry_space_group_name_H-M "P -1"
_symmetry_group_IT_number 2
_symmetry_cell_setting 'triclinic'
loop_
_space_group_symop_operation_xyz
x,y,z
-x,-y,-z
loop_
_atom_site_type_symbol
_atom_site_label
_atom_site_fract_x
_atom_site_fract_y
_atom_site_fract_z
Si Si1 0.664225 0.970471 0.256014
Si Si2 0.534768 0.362332 0.963531
Si Si3 0.038344 0.165176 0.005287
Si Si4 0.792052 0.351301 0.439760
Si Si5 0.241683 0.378059 0.581418
Si Si6 0.912369 0.187367 0.612988
Si Si7 0.119142 0.910762 0.798485
Si Si8 0.753418 0.607361 0.915940
O O1 0.808626 0.900883 0.342917
O O2 0.729907 0.117345 0.495272
O O3 0.800695 0.897830 0.109805
O O4 0.366176 0.958521 0.065856
O O5 0.639248 0.502907 0.237154
O O6 0.333353 0.350639 0.940595
O O7 0.780802 0.254858 0.958261
O O8 0.400157 0.354426 0.753592
O O9 0.220319 0.255638 0.306331
O O10 0.963058 0.046030 0.869378
O O11 0.947928 0.208465 0.335264
O O12 0.791418 0.452277 0.693149
O O13 0.494762 0.343229 0.229096
O O14 0.943016 0.416290 0.515527
O O15 0.813779 0.165583 0.398261
O O16 0.987821 0.330526 0.886645
#
# Coordination Sequence:
#
# PCOD9011915 Si02
#       8
#     2   2   2   2   2   2   2   2
#     4  10  23  42  65 106 139 181 228 278 346 407
#     4  11  26  46  68 105 135 183 233 274 352 405
#     4  11  24  42  69  97 140 184 218 288 337 409
#     4  11  25  45  72 105 136 183 233 283 346 400
#     4  11  26  46  69 100 141 181 229 281 342 417
#     4  10  21  40  67  98 138 175 229 282 332 405
#     4  11  24  44  69 104 141 180 232 279 344 414
#     4  11  24  45  74 100 138 184 227 296 334 404
#
# _framework density 26.15747
#
# number of rings (size 3 to 8) (size 9 to 14) (size 15 to 20)
#    0.000    1.250    2.500    2.625    3.500    6.500 
#    2.250    3.125    0.000    0.000    0.000    0.000 
#    0.000    0.000    0.000    0.000    0.000    0.000 
#
# Total GULP energy -89619.666007 kJ/mol
# GULP energy per Si atom -5601.229125 kJ/mol
# Density = 2.609793 g / cm^3
# Si number density = 26.157470 Si / 1000 Ang^3
#
#
#
# Elastic Constant Matrix: (Units=GPa)
#
#
# Indices 1 2 3 4 5 6 
#
# 1 59.1719 16.3780 25.4359 16.2574 -5.8381 -0.2666
# 2 16.3780 127.8657 52.6788 6.0443 4.0158 9.5172
# 3 25.4359 52.6788 175.1523 12.8945 8.9513 7.0591
# 4 16.2574 6.0443 12.8945 42.8811 4.0733 2.4339
# 5 -5.8381 4.0158 8.9513 4.0733 50.5424 4.8567
# 6 -0.2666 9.5172 7.0591 2.4339 4.8567 25.2694
#
#
#
# Elastic Compliance Matrix: (Units=1/GPa)
#
#
# Indices 1 2 3 4 5 6 
#
# 1 0.020647 -0.001605 -0.002207 -0.007342 0.003351 0.001502
# 2 -0.001605 0.009235 -0.002436 0.000220 -0.000237 -0.002790
# 3 -0.002207 -0.002436 0.006906 -0.000745 -0.001153 -0.000742
# 4 -0.007342 0.000220 -0.000745 0.026666 -0.002690 -0.002004
# 5 0.003351 -0.000237 -0.001153 -0.002690 0.020931 -0.003317
# 6 0.001502 -0.002790 -0.000742 -0.002004 -0.003317 0.041678
#
#
# Mechanical properties :
#
#
# Convention : Reuss Voigt Hill
#
# Bulk Modulus (GPa) = 41.16649 61.24169 51.20409
# Shear Modulus (GPa) = 34.09323 41.58506 37.83914
#
# Velocity S-wave (km/s) = 3.61416 3.99155 3.80753
# Velocity P-wave (km/s) = 5.76093 6.68632 6.24080
#
# Compressibility (1/GPa) = 0.02429161
#
# Stress axis : x y z
#
# Youngs Moduli (GPa) = 48.43224 108.28840 144.79958
#
# Poissons Ratio (x) = 0.17385 0.31956
# Poissons Ratio (y) = 0.07776 0.35272
# Poissons Ratio (z) = 0.10688 0.26378
#
# Static dielectric constant tensor:
#      x y z
#    x 2.002780 -0.005280 -0.007970 
#    y -0.005280 2.081350 0.000480 
#    z -0.007970 0.000480 2.020800 
# 
# From -- ./inp_files/405753.got.cif
#   From: 2010.05.17/outbox.cif.g08.bks.cpg/sg2_203_cif.got.tgz:405753.got - 2010.06.03 11:33:40.
