data_PCOD9011965
_publ_section_title
;
Structure prediction by ZEFSAII (Michael W. Deem and Ramdas Pophale) SiO2 
 PCOD9011965
Probable space group: P -1
;
_chemical_formula_sum "Si O2"
_cell_formula_units_Z 15
_cell_length_a 16.872126
_cell_length_b 9.025451
_cell_length_c 11.434809
_cell_angle_alpha 138.935213
_cell_angle_beta 137.359355
_cell_angle_gamma 73.160731
_cell_volume 622.544621
_symmetry_space_group_name_H-M "P -1"
_symmetry_group_IT_number 2
_symmetry_cell_setting 'triclinic'
loop_
_space_group_symop_operation_xyz
x,y,z
-x,-y,-z
loop_
_atom_site_type_symbol
_atom_site_label
_atom_site_fract_x
_atom_site_fract_y
_atom_site_fract_z
Si Si1 0.155128 0.248878 0.907093
Si Si2 0.000000 0.500000 0.000000
Si Si3 0.647454 0.478304 0.929448
Si Si4 0.431184 0.133240 0.882457
Si Si5 0.944362 0.734118 0.860804
Si Si6 0.331622 0.582184 0.496960
Si Si7 0.899610 0.281214 0.363991
Si Si8 0.595689 0.048941 0.803291
O O1 0.065861 0.372517 0.910887
O O2 0.216778 0.309196 0.879367
O O3 0.305815 0.444785 0.263104
O O4 0.073863 0.934748 0.680660
O O5 0.973083 0.272966 0.941550
O O6 0.608582 0.659787 0.065928
O O7 0.666340 0.303609 0.939371
O O8 0.515361 0.235049 0.558979
O O9 0.520820 0.257584 0.175619
O O10 0.516203 0.098288 0.851165
O O11 0.297188 0.812187 0.575936
O O12 0.792283 0.654542 0.696921
O O13 0.910027 0.481240 0.593343
O O14 0.000000 0.000000 0.000000
O O15 0.000000 0.500000 0.500000
O O16 0.731961 0.076818 0.020159
#
# Coordination Sequence:
#
# PCOD9011965 Si02
#       8
#     2   1   2   2   2   2   2   2
#     4  11  24  47  70 104 140 189 241 309 363 441
#     4  10  26  48  70 102 144 190 244 302 374 428
#     4  11  25  43  72 108 142 188 238 303 371 429
#     4  11  21  42  70 101 139 187 235 297 365 435
#     4  11  24  48  70 105 142 193 244 300 368 437
#     4  10  21  40  68 101 134 182 240 287 363 431
#     4  12  26  46  72 103 142 192 250 295 372 444
#     4  11  25  47  67 107 149 182 244 301 361 445
#
# _framework density 24.094659
#
# number of rings (size 3 to 8) (size 9 to 14) (size 15 to 20)
#    0.000    1.067    2.667    3.600    3.733    1.600 
#   14.400    0.000    0.000    0.000    0.000    0.000 
#    0.000    0.000    0.000    0.000    0.000    0.000 
#
# Total GULP energy -83591.129439 kJ/mol
# GULP energy per Si atom -5572.741963 kJ/mol
# Density = 2.403982 g / cm^3
# Si number density = 24.094659 Si / 1000 Ang^3
#
#
#
# Elastic Constant Matrix: (Units=GPa)
#
#
# Indices 1 2 3 4 5 6 
#
# 1 111.4538 33.5214 11.5131 15.5095 2.4244 6.3348
# 2 33.5214 135.9110 62.7773 40.2762 5.2370 5.1826
# 3 11.5131 62.7773 75.9358 11.5152 -8.1788 -4.4636
# 4 15.5095 40.2762 11.5152 50.7656 11.5005 -4.0872
# 5 2.4244 5.2370 -8.1788 11.5005 28.3310 12.3079
# 6 6.3348 5.1826 -4.4636 -4.0872 12.3079 46.8537
#
#
#
# Elastic Compliance Matrix: (Units=1/GPa)
#
#
# Indices 1 2 3 4 5 6 
#
# 1 0.009873 -0.002160 0.000595 -0.001808 0.001106 -0.001488
# 2 -0.002160 0.016588 -0.012207 -0.009768 -0.001010 -0.003293
# 3 0.000595 -0.012207 0.023643 0.002678 0.007126 0.001884
# 4 -0.001808 -0.009768 0.002678 0.031015 -0.013228 0.007760
# 5 0.001106 -0.001010 0.007126 -0.013228 0.048583 -0.013275
# 6 -0.001488 -0.003293 0.001884 0.007760 -0.013275 0.026252
#
#
# Mechanical properties :
#
#
# Convention : Reuss Voigt Hill
#
# Bulk Modulus (GPa) = 44.32884 59.88048 52.10466
# Shear Modulus (GPa) = 26.17556 39.55596 32.86576
#
# Velocity S-wave (km/s) = 3.29958 4.05617 3.69728
# Velocity P-wave (km/s) = 5.74056 6.84418 6.31652
#
# Compressibility (1/GPa) = 0.02255868
#
# Stress axis : x y z
#
# Youngs Moduli (GPa) = 101.29086 60.28383 42.29581
#
# Poissons Ratio (x) = 0.13020 -0.02515
# Poissons Ratio (y) = 0.21876 0.51632
# Poissons Ratio (z) = -0.06022 0.73590
#
# Static dielectric constant tensor:
#      x y z
#    x 2.161990 0.076660 -0.103450 
#    y 0.076660 1.988690 -0.065380 
#    z -0.103450 -0.065380 2.080200 
# 
# From -- ./inp_files/450959.got.cif
#   From: 2010.05.17/outbox.cif.g08.bks.cpg/sg2_226_cif.got.tgz:450959.got - 2010.06.03 11:33:40.
