data_PCOD9011002
_publ_section_title
;
Structure prediction by ZEFSAII (Michael W. Deem and Ramdas Pophale) SiO2 
 PCOD9011002
Probable space group: P -1
;
_chemical_formula_sum "Si O2"
_cell_formula_units_Z 14
_cell_length_a 22.599179
_cell_length_b 14.747896
_cell_length_c 14.228529
_cell_angle_alpha 148.931438
_cell_angle_beta 157.443848
_cell_angle_gamma 18.793970
_cell_volume 579.988628
_symmetry_space_group_name_H-M "P -1"
_symmetry_group_IT_number 2
_symmetry_cell_setting 'triclinic'
loop_
_space_group_symop_operation_xyz
x,y,z
-x,-y,-z
loop_
_atom_site_type_symbol
_atom_site_label
_atom_site_fract_x
_atom_site_fract_y
_atom_site_fract_z
Si Si1 0.681759 0.488550 0.722939
Si Si2 0.413649 0.750108 0.292060
Si Si3 0.204142 0.310622 0.826366
Si Si4 0.418326 0.793457 0.939422
Si Si5 0.197049 0.898283 0.899340
Si Si6 0.919656 0.345651 0.589433
Si Si7 0.318657 0.075764 0.602513
O O1 0.500000 0.500000 0.500000
O O2 0.530487 0.761968 0.681104
O O3 0.784330 0.492126 0.970104
O O4 0.912785 0.214810 0.759600
O O5 0.257786 0.013938 0.367640
O O6 0.688238 0.592203 0.537547
O O7 0.463127 0.502701 0.175975
O O8 0.289754 0.847898 0.095058
O O9 0.033362 0.396425 0.737163
O O10 0.128841 0.285375 0.596166
O O11 0.500000 0.000000 0.000000
O O12 0.575570 0.825841 0.176282
O O13 0.359910 0.842472 0.008204
O O14 0.152215 0.054934 0.728921
O O15 0.186710 0.704386 0.682688
#
# Coordination Sequence:
#
# PCOD9011002 Si02
#       7
#     2   2   2   2   2   2   2
#     4  11  23  42  74  95 134 175 227 279 333 394
#     4  11  26  43  66  98 144 179 217 270 343 401
#     4  10  21  40  65 101 130 163 226 282 327 383
#     4  11  22  41  72 102 129 171 234 284 322 385
#     4  11  24  43  66 101 135 182 216 273 345 398
#     4  11  20  42  70  98 130 173 229 281 320 392
#     4  11  24  42  70 103 130 173 230 279 329 394
#
# _framework density 24.138404000000001
#
# number of rings (size 3 to 8) (size 9 to 14) (size 15 to 20)
#    0.000    1.143    2.857    6.857    4.000    1.714 
#    2.571    3.571    0.000    0.000    0.000    0.000 
#    0.000    0.000    0.000    0.000    0.000    0.000 
#
# Total GULP energy -78296.604273 kJ/mol
# GULP energy per Si atom -5592.614591 kJ/mol
# Density = 2.408346 g / cm^3
# Si number density = 24.138404 Si / 1000 Ang^3
#
#
#
# Elastic Constant Matrix: (Units=GPa)
#
#
# Indices 1 2 3 4 5 6 
#
# 1 97.1946 40.8953 44.8163 20.9748 -10.5607 17.7616
# 2 40.8953 70.2274 49.0701 13.3783 11.6971 -10.3834
# 3 44.8163 49.0701 56.9960 9.4723 -23.3627 30.0771
# 4 20.9748 13.3783 9.4723 35.6761 2.9039 -10.4822
# 5 -10.5607 11.6971 -23.3627 2.9039 57.5689 15.5686
# 6 17.7616 -10.3834 30.0771 -10.4822 15.5686 25.7803
#
#
#
# Elastic Compliance Matrix: (Units=1/GPa)
#
#
# Indices 1 2 3 4 5 6 
#
# 1 0.017748 -0.000667 -0.011902 -0.007288 -0.000771 -0.001109
# 2 -0.000667 0.005779 0.009817 -0.010211 0.007970 -0.017631
# 3 -0.011902 0.009817 0.000290 0.010777 -0.010738 0.022681
# 4 -0.007288 -0.010211 0.010777 0.032853 0.003581 -0.000470
# 5 -0.000771 0.007970 -0.010738 0.003581 0.007503 0.013194
# 6 -0.001109 -0.017631 0.022681 -0.000470 0.013194 -0.002168
#
#
# Mechanical properties :
#
#
# Convention : Reuss Voigt Hill
#
# Bulk Modulus (GPa) = 54.60002 54.88680 54.74341
# Shear Modulus (GPa) = 67.92221 29.78080 48.85151
#
# Velocity S-wave (km/s) = 5.31034 3.51629 4.50356
# Velocity P-wave (km/s) = 7.76327 6.26686 7.05485
#
# Compressibility (1/GPa) = 0.01831501
#
# Stress axis : x y z
#
# Youngs Moduli (GPa) = 56.34280 173.03805 3446.15360
#
# Poissons Ratio (x) = 0.11535 41.01458
# Poissons Ratio (y) = 0.03756 -33.83025
# Poissons Ratio (z) = 0.67057 -1.69868
#
# Static dielectric constant tensor:
#      x y z
#    x 1.988890 -0.005180 -0.050590 
#    y -0.005180 2.098030 -0.041340 
#    z -0.050590 -0.041340 1.963090 
# 
# From -- ./inp_files/543078.got.cif
#   From: 2010.05.17/outbox.cif.g08.bks.cpg/sg2_272_cif.got.tgz:543078.got - 2010.06.03 11:33:40.
