data_PCOD9011322
_publ_section_title
;
Structure prediction by ZEFSAII (Michael W. Deem and Ramdas Pophale) SiO2 
 PCOD9011322
Probable space group: P -1
;
_chemical_formula_sum "Si O2"
_cell_formula_units_Z 16
_cell_length_a 11.487503
_cell_length_b 12.290805
_cell_length_c 4.977236
_cell_angle_alpha 74.249893
_cell_angle_beta 72.118448
_cell_angle_gamma 60.677145
_cell_volume 576.862041
_symmetry_space_group_name_H-M "P -1"
_symmetry_group_IT_number 2
_symmetry_cell_setting 'triclinic'
loop_
_space_group_symop_operation_xyz
x,y,z
-x,-y,-z
loop_
_atom_site_type_symbol
_atom_site_label
_atom_site_fract_x
_atom_site_fract_y
_atom_site_fract_z
Si Si1 0.194827 0.790220 0.920143
Si Si2 0.785433 0.959162 0.469164
Si Si3 0.659247 0.152788 0.852661
Si Si4 0.424464 0.115662 0.178090
Si Si5 0.225003 0.479133 0.326870
Si Si6 0.819275 0.640952 0.059109
Si Si7 0.961642 0.278168 0.374762
Si Si8 0.523534 0.377798 0.395993
O O1 0.220306 0.805472 0.206005
O O2 0.090394 0.772576 0.810811
O O3 0.338975 0.669302 0.840408
O O4 0.200698 0.923235 0.752917
O O5 0.663856 0.919089 0.517610
O O6 0.930324 0.839223 0.449662
O O7 0.740929 0.014192 0.764449
O O8 0.546325 0.152398 0.145101
O O9 0.560597 0.257353 0.642678
O O10 0.310675 0.231437 0.017883
O O11 0.500000 0.000000 0.000000
O O12 0.195236 0.463637 0.050408
O O13 0.145190 0.617387 0.418283
O O14 0.386250 0.419482 0.298724
O O15 0.178403 0.393875 0.608600
O O16 0.948179 0.658365 0.860284
O O17 0.500000 0.500000 0.500000
#
# Coordination Sequence:
#
# PCOD9011322 Si02
#       8
#     2   2   2   2   2   2   2   2
#     4  11  23  42  66  98 138 183 229 294 355 420
#     4   9  22  42  62  95 135 179 238 283 357 409
#     4  10  21  40  65  97 137 175 233 291 353 416
#     4   9  18  41  66 100 138 177 232 290 349 410
#     4  12  25  48  73 103 143 184 239 293 353 417
#     4  11  25  47  71 105 140 187 237 296 347 419
#     4  11  24  46  65  98 139 184 236 285 348 429
#     4  11  23  41  66 100 136 180 226 287 353 420
#
# _framework density 27.736266000000001
#
# number of rings (size 3 to 8) (size 9 to 14) (size 15 to 20)
#    0.000    1.500    2.500    1.875    0.000    2.500 
#   20.250    0.000    0.000    0.000    0.000    0.000 
#    0.000    0.000    0.000    0.000    0.000    0.000 
#
# Total GULP energy -89575.453139 kJ/mol
# GULP energy per Si atom -5598.465821 kJ/mol
# Density = 2.767314 g / cm^3
# Si number density = 27.736266 Si / 1000 Ang^3
#
#
#
# Elastic Constant Matrix: (Units=GPa)
#
#
# Indices 1 2 3 4 5 6 
#
# 1 157.4393 31.3223 11.6674 5.7137 13.8253 4.3287
# 2 31.3223 166.6102 14.7484 -7.5770 6.1107 -22.9061
# 3 11.6674 14.7484 54.4264 2.1840 11.5648 -1.6803
# 4 5.7137 -7.5770 2.1840 32.9899 2.8619 4.3015
# 5 13.8253 6.1107 11.5648 2.8619 25.3613 1.6276
# 6 4.3287 -22.9061 -1.6803 4.3015 1.6276 53.4868
#
#
#
# Elastic Compliance Matrix: (Units=1/GPa)
#
#
# Indices 1 2 3 4 5 6 
#
# 1 0.006991 -0.001344 -0.000464 -0.001094 -0.003090 -0.000974
# 2 -0.001344 0.006874 -0.001412 0.001583 -0.000645 0.002901
# 3 -0.000464 -0.001412 0.020776 -0.000911 -0.008805 0.000427
# 4 -0.001094 0.001583 -0.000911 0.031391 -0.002803 -0.001702
# 5 -0.003090 -0.000645 -0.008805 -0.002803 0.045696 -0.001468
# 6 -0.000974 0.002901 0.000427 -0.001702 -0.001468 0.020212
#
#
# Mechanical properties :
#
#
# Convention : Reuss Voigt Hill
#
# Bulk Modulus (GPa) = 35.45777 54.88354 45.17065
# Shear Modulus (GPa) = 33.83422 43.75012 38.79217
#
# Velocity S-wave (km/s) = 3.49643 3.97591 3.74385
# Velocity P-wave (km/s) = 5.39553 6.39592 5.91690
#
# Compressibility (1/GPa) = 0.02820257
#
# Stress axis : x y z
#
# Youngs Moduli (GPa) = 143.03821 145.47633 48.13188
#
# Poissons Ratio (x) = 0.19545 0.02235
# Poissons Ratio (y) = 0.19217 0.06794
# Poissons Ratio (z) = 0.06641 0.20536
#
# Static dielectric constant tensor:
#      x y z
#    x 2.275580 0.109110 -0.003610 
#    y 0.109110 2.127380 -0.042810 
#    z -0.003610 -0.042810 2.394400 
# 
# From -- ./inp_files/69776.got.cif
#   From: 2010.05.17/outbox.cif.g08.bks.cpg/sg2_35_cif.got.tgz:69776.got - 2010.06.03 11:33:40.
