data_PCOD9011989
_publ_section_title
;
Structure prediction by ZEFSAII (Michael W. Deem and Ramdas Pophale) SiO2 
 PCOD9011989
Probable space group: P -1
;
_chemical_formula_sum "Si O2"
_cell_formula_units_Z 16
_cell_length_a 15.493896
_cell_length_b 9.964871
_cell_length_c 22.698139
_cell_angle_alpha 44.576840
_cell_angle_beta 17.161734
_cell_angle_gamma 44.297320
_cell_volume 715.255500
_symmetry_space_group_name_H-M "P -1"
_symmetry_group_IT_number 2
_symmetry_cell_setting 'triclinic'
loop_
_space_group_symop_operation_xyz
x,y,z
-x,-y,-z
loop_
_atom_site_type_symbol
_atom_site_label
_atom_site_fract_x
_atom_site_fract_y
_atom_site_fract_z
Si Si1 0.569503 0.815802 0.594882
Si Si2 0.871183 0.490320 0.005581
Si Si3 0.515852 0.772549 0.065916
Si Si4 0.956227 0.864925 0.211966
Si Si5 0.920456 0.711859 0.513093
Si Si6 0.724773 0.779793 0.107842
Si Si7 0.698535 0.533997 0.914742
Si Si8 0.952218 0.228780 0.462823
O O1 0.403045 0.627357 0.766152
O O2 0.816951 0.803930 0.384572
O O3 0.708247 0.829708 0.565529
O O4 0.317551 0.998367 0.684961
O O5 0.794398 0.627386 0.956623
O O6 0.921954 0.652493 0.969520
O O7 0.150459 0.317041 0.881672
O O8 0.237851 0.776253 0.288178
O O9 0.482414 0.656126 0.064659
O O10 0.500000 0.000000 0.000000
O O11 0.102458 0.676784 0.138196
O O12 0.207212 0.003606 0.011759
O O13 0.000000 0.500000 0.500000
O O14 0.858706 0.715052 0.621667
O O15 0.403815 0.729052 0.320696
O O16 0.923315 0.675057 0.704571
O O17 0.500000 0.500000 0.000000
O O18 0.000000 0.000000 0.500000
#
# Coordination Sequence:
#
# PCOD9011989 Si02
#       8
#     2   2   2   2   2   2   2   2
#     4  10  21  40  68 103 131 177 220 273 328 402
#     4  10  21  41  67  93 129 175 223 268 320 400
#     4  12  26  43  65  98 132 175 225 272 329 394
#     4  10  22  41  67 102 135 170 221 275 338 390
#     4  12  22  40  70  95 126 168 225 270 319 393
#     4  10  21  41  67  94 129 175 219 265 331 398
#     4  12  26  43  66  99 137 171 217 285 334 383
#     4  12  25  44  65  94 133 175 216 267 337 395
#
# _framework density 22.369627999999999
#
# number of rings (size 3 to 8) (size 9 to 14) (size 15 to 20)
#    0.000    1.000    2.500    4.500    3.500    1.000 
#    2.250    1.875    0.000    0.000    0.000    0.000 
#    0.000    0.000    0.000    0.000    0.000    0.000 
#
# Total GULP energy -89148.816529 kJ/mol
# GULP energy per Si atom -5571.801033 kJ/mol
# Density = 2.231871 g / cm^3
# Si number density = 22.369628 Si / 1000 Ang^3
#
#
#
# Elastic Constant Matrix: (Units=GPa)
#
#
# Indices 1 2 3 4 5 6 
#
# 1 97.3933 14.9975 11.4182 6.4519 -11.3239 -21.1525
# 2 14.9975 127.3087 13.0224 -9.7880 4.6816 -11.7868
# 3 11.4182 13.0224 62.3615 -6.2819 -2.6670 -12.6119
# 4 6.4519 -9.7880 -6.2819 31.5028 -4.0253 2.4039
# 5 -11.3239 4.6816 -2.6670 -4.0253 24.4734 2.8062
# 6 -21.1525 -11.7868 -12.6119 2.4039 2.8062 30.2989
#
#
#
# Elastic Compliance Matrix: (Units=1/GPa)
#
#
# Indices 1 2 3 4 5 6 
#
# 1 0.013063 -0.001132 -0.000606 -0.003172 0.004728 0.008241
# 2 -0.001132 0.008541 -0.001010 0.002247 -0.002142 0.002132
# 3 -0.000606 -0.001010 0.018015 0.003137 0.001672 0.006279
# 4 -0.003172 0.002247 0.003137 0.034534 0.004490 -0.003190
# 5 0.004728 -0.002142 0.001672 0.004490 0.044530 -0.001317
# 6 0.008241 0.002132 0.006279 -0.003190 -0.001317 0.042575
#
#
# Mechanical properties :
#
#
# Convention : Reuss Voigt Hill
#
# Bulk Modulus (GPa) = 29.30693 40.65996 34.98344
# Shear Modulus (GPa) = 28.06982 33.76339 30.91660
#
# Velocity S-wave (km/s) = 3.54618 3.88924 3.72167
# Velocity P-wave (km/s) = 5.46780 6.19549 5.84299
#
# Compressibility (1/GPa) = 0.03412162
#
# Stress axis : x y z
#
# Youngs Moduli (GPa) = 76.55445 117.08863 55.50985
#
# Poissons Ratio (x) = 0.13250 0.03365
# Poissons Ratio (y) = 0.08663 0.05608
# Poissons Ratio (z) = 0.04641 0.11829
#
# Static dielectric constant tensor:
#      x y z
#    x 1.702060 0.144380 -0.217470 
#    y 0.144380 1.715990 0.129080 
#    z -0.217470 0.129080 1.635360 
# 
# From -- ./inp_files/597320.got.cif
#   From: 2010.05.17/outbox.cif.g08.bks.cpg/sg2_299_cif.got.tgz:597320.got - 2010.06.03 11:33:40.
