data_PCOD9011752
_publ_section_title
;
Structure prediction by ZEFSAII (Michael W. Deem and Ramdas Pophale) SiO2 
 PCOD9011752
Probable space group: P -1
;
_chemical_formula_sum "Si O2"
_cell_formula_units_Z 16
_cell_length_a 20.465035
_cell_length_b 8.678047
_cell_length_c 17.708215
_cell_angle_alpha 30.819666
_cell_angle_beta 152.765308
_cell_angle_gamma 142.399867
_cell_volume 731.822408
_symmetry_space_group_name_H-M "P -1"
_symmetry_group_IT_number 2
_symmetry_cell_setting 'triclinic'
loop_
_space_group_symop_operation_xyz
x,y,z
-x,-y,-z
loop_
_atom_site_type_symbol
_atom_site_label
_atom_site_fract_x
_atom_site_fract_y
_atom_site_fract_z
Si Si1 0.324098 0.912809 0.810834
Si Si2 0.073175 0.512208 0.650382
Si Si3 0.118005 0.294456 0.500339
Si Si4 0.805796 0.521009 0.871786
Si Si5 0.585006 0.348167 0.843273
Si Si6 0.732369 0.004542 0.893369
Si Si7 0.541733 0.763768 0.495142
Si Si8 0.919560 0.238357 0.862712
O O1 0.190977 0.801563 0.667022
O O2 0.270085 0.161133 0.708569
O O3 0.460281 0.064792 0.840100
O O4 0.359377 0.642170 0.017093
O O5 0.000000 0.500000 0.500000
O O6 0.942645 0.517308 0.573539
O O7 0.171910 0.243689 0.874556
O O8 0.113761 0.496990 0.337080
O O9 0.000000 0.000000 0.500000
O O10 0.722869 0.335959 0.935065
O O11 0.783019 0.305879 0.867415
O O12 0.714614 0.808073 0.648438
O O13 0.967435 0.624338 0.016090
O O14 0.516776 0.615117 0.615989
O O15 0.558998 0.977655 0.731512
O O16 0.779312 0.070592 0.828077
O O17 0.500000 0.500000 0.500000
O O18 0.000000 0.000000 0.000000
#
# Coordination Sequence:
#
# PCOD9011752 Si02
#       8
#     2   2   2   2   2   2   2   2
#     4  10  21  40  67  91 125 171 226 255 324 395
#     4  11  25  40  60  97 133 168 212 281 323 380
#     4  10  22  40  65  89 129 176 210 259 323 388
#     4   9  21  39  63  89 122 170 204 262 322 382
#     4   9  19  39  69  89 117 170 226 259 310 398
#     4  11  22  40  63  94 130 166 214 265 330 380
#     4   8  18  37  62  87 118 157 210 256 319 376
#     4  12  23  40  63  97 130 160 219 271 315 382
#
# _framework density 21.863226000000001
#
# number of rings (size 3 to 8) (size 9 to 14) (size 15 to 20)
#    0.750    1.250    1.250    2.625    5.250    0.000 
#    4.500    5.625    0.000    0.000    0.000    0.000 
#    0.000    0.000    0.000    0.000    0.000    0.000 
#
# Total GULP energy -89118.688349 kJ/mol
# GULP energy per Si atom -5569.918022 kJ/mol
# Density = 2.181346 g / cm^3
# Si number density = 21.863226 Si / 1000 Ang^3
#
#
#
# Elastic Constant Matrix: (Units=GPa)
#
#
# Indices 1 2 3 4 5 6 
#
# 1 59.1397 12.4333 38.2340 1.8366 17.0198 4.8504
# 2 12.4333 38.6407 19.9242 11.6777 2.6839 4.4888
# 3 38.2340 19.9242 143.8459 -3.9207 4.3985 -9.7311
# 4 1.8366 11.6777 -3.9207 31.5761 -7.4534 -1.5194
# 5 17.0198 2.6839 4.3985 -7.4534 36.8833 2.4640
# 6 4.8504 4.4888 -9.7311 -1.5194 2.4640 27.1756
#
#
#
# Elastic Compliance Matrix: (Units=1/GPa)
#
#
# Indices 1 2 3 4 5 6 
#
# 1 0.025539 -0.001908 -0.006698 -0.004580 -0.011381 -0.005865
# 2 -0.001908 0.034649 -0.005104 -0.014523 -0.003452 -0.007709
# 3 -0.006698 -0.005104 0.009850 0.004431 0.002811 0.005558
# 4 -0.004580 -0.014523 0.004431 0.040616 0.010440 0.006127
# 5 -0.011381 -0.003452 0.002811 0.010440 0.034318 0.001080
# 6 -0.005865 -0.007709 0.005558 0.006127 0.001080 0.041353
#
#
# Mechanical properties :
#
#
# Convention : Reuss Voigt Hill
#
# Bulk Modulus (GPa) = 23.46370 42.53436 32.99903
# Shear Modulus (GPa) = 21.93455 30.52932 26.23193
#
# Velocity S-wave (km/s) = 3.17087 3.74087 3.46760
# Velocity P-wave (km/s) = 4.91540 6.17704 5.58198
#
# Compressibility (1/GPa) = 0.04261903
#
# Stress axis : x y z
#
# Youngs Moduli (GPa) = 39.15599 28.86046 101.52433
#
# Poissons Ratio (x) = 0.05507 0.67996
# Poissons Ratio (y) = 0.07471 0.51818
# Poissons Ratio (z) = 0.26225 0.14730
#
# Static dielectric constant tensor:
#      x y z
#    x 2.192950 0.088980 0.013310 
#    y 0.088980 1.879370 -0.005630 
#    z 0.013310 -0.005630 1.865980 
# 
# From -- ./inp_files/577525.got.cif
#   From: 2010.05.17/outbox.cif.g08.bks.cpg/sg2_289_cif.got.tgz:577525.got - 2010.06.03 11:33:40.
