data_PCOD9011184
_publ_section_title
;
Structure prediction by ZEFSAII (Michael W. Deem and Ramdas Pophale) SiO2 
 PCOD9011184
Probable space group: P -1
;
_chemical_formula_sum "Si O2"
_cell_formula_units_Z 14
_cell_length_a 30.817087
_cell_length_b 17.986061
_cell_length_c 12.624219
_cell_angle_alpha 21.908947
_cell_angle_beta 15.497455
_cell_angle_gamma 18.630947
_cell_volume 588.457447
_symmetry_space_group_name_H-M "P -1"
_symmetry_group_IT_number 2
_symmetry_cell_setting 'triclinic'
loop_
_space_group_symop_operation_xyz
x,y,z
-x,-y,-z
loop_
_atom_site_type_symbol
_atom_site_label
_atom_site_fract_x
_atom_site_fract_y
_atom_site_fract_z
Si Si1 0.263711 0.989133 0.148512
Si Si2 0.133864 0.156941 0.456857
Si Si3 0.019533 0.781292 0.681031
Si Si4 0.429164 0.329173 0.300986
Si Si5 0.827446 0.660007 0.478499
Si Si6 0.299764 0.007586 0.481765
Si Si7 0.497372 0.168845 0.573578
O O1 0.193096 0.000157 0.419061
O O2 0.090820 0.121422 0.297756
O O3 0.363281 0.140164 0.711734
O O4 0.417789 0.742332 0.057565
O O5 0.198302 0.011720 0.606901
O O6 0.917833 0.384394 0.652043
O O7 0.273737 0.263087 0.990447
O O8 0.232192 0.572257 0.433624
O O9 0.000000 0.000000 0.500000
O O10 0.930575 0.677158 0.108839
O O11 0.523353 0.279842 0.261014
O O12 0.852786 0.762229 0.395186
O O13 0.606489 0.879572 0.687236
O O14 0.389806 0.807088 0.625190
O O15 0.500000 0.000000 0.000000
#
# Coordination Sequence:
#
# PCOD9011184 Si02
#       7
#     2   2   2   2   2   2   2
#     4  10  20  33  54  79 109 137 172 224 271 312
#     4  10  17  29  52  80 107 133 164 216 275 313
#     4  12  24  36  52  78 109 149 184 209 257 325
#     4  10  19  35  56  77 106 139 175 227 270 302
#     4  10  18  31  51  74 110 138 172 214 264 304
#     4   8  16  29  48  79 109 128 169 218 271 313
#     4   8  16  28  48  73 105 127 168 210 267 301
#
# _framework density 23.791015000000002
#
# number of rings (size 3 to 8) (size 9 to 14) (size 15 to 20)
#    0.857    1.429    4.286    0.857    0.000    0.571 
#    0.000    0.000    0.000    0.857    0.000    2.000 
#    0.000    0.000    0.000    0.000    0.000    0.000 
#
# Total GULP energy -78004.399891 kJ/mol
# GULP energy per Si atom -5571.742849 kJ/mol
# Density = 2.373687 g / cm^3
# Si number density = 23.791015 Si / 1000 Ang^3
#
#
#
# Elastic Constant Matrix: (Units=GPa)
#
#
# Indices 1 2 3 4 5 6 
#
# 1 199.4890 53.3804 24.4926 18.8638 34.2964 -22.9686
# 2 53.3804 103.2983 34.8724 35.8979 20.2622 -30.3896
# 3 24.4926 34.8724 43.3980 16.3640 2.3922 5.7585
# 4 18.8638 35.8979 16.3640 38.2147 9.0048 -5.2298
# 5 34.2964 20.2622 2.3922 9.0048 15.6075 22.9077
# 6 -22.9686 -30.3896 5.7585 -5.2298 22.9077 8.9668
#
#
#
# Elastic Compliance Matrix: (Units=1/GPa)
#
#
# Indices 1 2 3 4 5 6 
#
# 1 0.005493 -0.004951 0.001217 0.000646 0.000592 -0.004628
# 2 -0.004951 0.012778 -0.002493 -0.012474 0.012638 -0.007337
# 3 0.001217 -0.002493 0.025848 -0.005060 -0.013109 0.008605
# 4 0.000646 -0.012474 -0.005060 0.040487 -0.004504 -0.002251
# 5 0.000592 0.012638 -0.013109 -0.004504 0.008228 0.029122
# 6 -0.004628 -0.007337 0.008605 -0.002251 0.029122 -0.006436
#
#
# Mechanical properties :
#
#
# Convention : Reuss Voigt Hill
#
# Bulk Modulus (GPa) = 31.58207 63.51960 47.55083
# Shear Modulus (GPa) = 45.70049 28.12046 36.91047
#
# Velocity S-wave (km/s) = 4.38758 3.44172 3.94311
# Velocity P-wave (km/s) = 6.24271 6.52310 6.38444
#
# Compressibility (1/GPa) = 0.03166353
#
# Stress axis : x y z
#
# Youngs Moduli (GPa) = 182.06390 78.25685 38.68738
#
# Poissons Ratio (x) = 0.38747 -0.04707
# Poissons Ratio (y) = 0.90144 0.09646
# Poissons Ratio (z) = -0.22150 0.19511
#
# Static dielectric constant tensor:
#      x y z
#    x 2.046690 0.042300 0.024390 
#    y 0.042300 1.932810 -0.019750 
#    z 0.024390 -0.019750 1.933530 
# 
# From -- ./inp_files/477714.got.cif
#   From: 2010.05.17/outbox.cif.g08.bks.cpg/sg2_239_cif.got.tgz:477714.got - 2010.06.03 11:33:40.
