data_PCOD9011295
_publ_section_title
;
Structure prediction by ZEFSAII (Michael W. Deem and Ramdas Pophale) SiO2 
 PCOD9011295
Probable space group: P -1
;
_chemical_formula_sum "Si O2"
_cell_formula_units_Z 14
_cell_length_a 5.085024
_cell_length_b 10.538611
_cell_length_c 11.683621
_cell_angle_alpha 66.118941
_cell_angle_beta 65.852889
_cell_angle_gamma 73.738732
_cell_volume 517.481591
_symmetry_space_group_name_H-M "P -1"
_symmetry_group_IT_number 2
_symmetry_cell_setting 'triclinic'
loop_
_space_group_symop_operation_xyz
x,y,z
-x,-y,-z
loop_
_atom_site_type_symbol
_atom_site_label
_atom_site_fract_x
_atom_site_fract_y
_atom_site_fract_z
Si Si1 0.667530 0.892364 0.787978
Si Si2 0.299933 0.920810 0.639626
Si Si3 0.300182 0.852116 0.167918
Si Si4 0.026651 0.272933 0.920293
Si Si5 0.822346 0.369854 0.550733
Si Si6 0.419542 0.658714 0.828871
Si Si7 0.759320 0.483447 0.290997
O O1 0.382316 0.957959 0.742682
O O2 0.650347 0.724329 0.845675
O O3 0.967780 0.922903 0.665759
O O4 0.684984 0.986936 0.861198
O O5 0.435057 0.758561 0.679551
O O6 0.500000 0.000000 0.500000
O O7 0.632257 0.779261 0.123437
O O8 0.132616 0.772395 0.328143
O O9 0.137456 0.830160 0.087818
O O10 0.981539 0.424239 0.808650
O O11 0.870758 0.298491 0.060291
O O12 0.855824 0.358809 0.410934
O O13 0.493401 0.425831 0.625410
O O14 0.000000 0.500000 0.500000
O O15 0.364359 0.526593 0.812947
#
# Coordination Sequence:
#
# PCOD9011295 Si02
#       7
#     2   2   2   2   2   2   2
#     4  10  24  42  65  97 125 174 213 270 323 376
#     4  10  23  43  60  96 130 168 217 258 328 381
#     4  11  24  42  69  92 137 165 227 267 317 389
#     4  11  24  44  64  98 128 180 213 270 320 383
#     4  10  21  40  65  97 122 171 215 266 330 370
#     4  10  26  40  68  94 135 171 218 262 331 388
#     4  10  22  43  64  96 132 167 218 271 321 391
#
# _framework density 27.054102
#
# number of rings (size 3 to 8) (size 9 to 14) (size 15 to 20)
#    0.857    0.857    1.429    1.714    4.000    3.429 
#    0.000    2.143    0.000    0.000    0.000    0.000 
#    0.000    0.000    0.000    0.000    0.000    0.000 
#
# Total GULP energy -78017.032551 kJ/mol
# GULP energy per Si atom -5572.645182 kJ/mol
# Density = 2.699253 g / cm^3
# Si number density = 27.054102 Si / 1000 Ang^3
#
#
#
# Elastic Constant Matrix: (Units=GPa)
#
#
# Indices 1 2 3 4 5 6 
#
# 1 165.9633 33.6060 51.4807 8.9808 0.0726 36.6182
# 2 33.6060 68.6690 35.2837 12.8860 18.6945 35.7281
# 3 51.4807 35.2837 97.4661 -14.0601 2.4237 20.4950
# 4 8.9808 12.8860 -14.0601 43.1278 13.8237 11.6110
# 5 0.0726 18.6945 2.4237 13.8237 43.4658 9.5528
# 6 36.6182 35.7281 20.4950 11.6110 9.5528 45.6151
#
#
#
# Elastic Compliance Matrix: (Units=1/GPa)
#
#
# Indices 1 2 3 4 5 6 
#
# 1 0.008413 0.000554 -0.003945 -0.002406 0.001874 -0.005195
# 2 0.000554 0.030800 -0.008119 -0.004730 -0.007293 -0.018190
# 3 -0.003945 -0.008119 0.016569 0.008735 -0.000181 -0.000104
# 4 -0.002406 -0.004730 0.008735 0.031625 -0.007457 -0.004777
# 5 0.001874 -0.007293 -0.000181 -0.007457 0.028473 0.000224
# 6 -0.005195 -0.018190 -0.000104 -0.004777 0.000224 0.041556
#
#
# Mechanical properties :
#
#
# Convention : Reuss Voigt Hill
#
# Bulk Modulus (GPa) = 30.52258 63.64880 47.08569
# Shear Modulus (GPa) = 26.12649 40.55695 33.34172
#
# Velocity S-wave (km/s) = 3.11096 3.87603 3.51438
# Velocity P-wave (km/s) = 4.92043 6.60371 5.82322
#
# Compressibility (1/GPa) = 0.03276263
#
# Stress axis : x y z
#
# Youngs Moduli (GPa) = 118.86905 32.46720 60.35215
#
# Poissons Ratio (x) = -0.01799 0.23811
# Poissons Ratio (y) = -0.06588 0.48998
# Poissons Ratio (z) = 0.46899 0.26359
#
# Static dielectric constant tensor:
#      x y z
#    x 1.223980 -0.507350 -0.480280 
#    y -0.507350 1.999240 -0.346830 
#    z -0.480280 -0.346830 1.864990 
# 
# From -- ./inp_files/362841.got.cif
#   From: 2010.05.17/outbox.cif.g08.bks.cpg/sg2_182_cif.got.tgz:362841.got - 2010.06.03 11:33:40.
