data_PCOD9011747
_publ_section_title
;
Structure prediction by ZEFSAII (Michael W. Deem and Ramdas Pophale) SiO2 
 PCOD9011747
Probable space group: P -1
;
_chemical_formula_sum "Si O2"
_cell_formula_units_Z 14
_cell_length_a 10.642724
_cell_length_b 12.118487
_cell_length_c 7.291390
_cell_angle_alpha 69.931853
_cell_angle_beta 123.960851
_cell_angle_gamma 136.443877
_cell_volume 534.318543
_symmetry_space_group_name_H-M "P -1"
_symmetry_group_IT_number 2
_symmetry_cell_setting 'triclinic'
loop_
_space_group_symop_operation_xyz
x,y,z
-x,-y,-z
loop_
_atom_site_type_symbol
_atom_site_label
_atom_site_fract_x
_atom_site_fract_y
_atom_site_fract_z
Si Si1 0.771207 0.927719 0.367909
Si Si2 0.686664 0.171432 0.457405
Si Si3 0.678110 0.721280 0.705016
Si Si4 0.919987 0.688778 0.144396
Si Si5 0.975153 0.248522 0.204556
Si Si6 0.377465 0.682081 0.991374
Si Si7 0.746263 0.418909 0.633994
O O1 0.706689 0.866097 0.559916
O O2 0.617415 0.783623 0.181097
O O3 0.000000 0.000000 0.500000
O O4 0.796665 0.074894 0.242812
O O5 0.908622 0.220537 0.610784
O O6 0.622079 0.201870 0.199119
O O7 0.742950 0.314255 0.547055
O O8 0.500000 0.000000 0.500000
O O9 0.804109 0.706041 0.672145
O O10 0.431919 0.583750 0.576134
O O11 0.787472 0.737526 0.971268
O O12 0.754625 0.493761 0.108530
O O13 0.062144 0.750945 0.040998
O O14 0.038766 0.398690 0.276235
O O15 0.297517 0.648410 0.156177
#
# Coordination Sequence:
#
# PCOD9011747 Si02
#       7
#     2   2   2   2   2   2   2
#     4   9  16  29  63  97 119 156 201 252 306 353
#     4  12  26  43  62  89 127 163 211 257 301 367
#     4   8  17  34  63  91 121 158 198 252 308 355
#     4   9  20  38  63  87 127 168 196 254 310 359
#     4   8  16  31  63  91 122 155 205 245 307 359
#     4  10  22  40  65  87 128 163 205 251 310 363
#     4  10  21  40  67  91 118 167 206 248 313 367
#
# _framework density 26.201599000000002
#
# number of rings (size 3 to 8) (size 9 to 14) (size 15 to 20)
#    0.857    1.714    0.000    1.714    4.000    2.857 
#    0.000    7.143    0.000    0.000    0.000    0.000 
#    0.000    0.000    0.000    0.000    0.000    0.000 
#
# Total GULP energy -78117.564184 kJ/mol
# GULP energy per Si atom -5579.826013 kJ/mol
# Density = 2.614196 g / cm^3
# Si number density = 26.201599 Si / 1000 Ang^3
#
#
#
# Elastic Constant Matrix: (Units=GPa)
#
#
# Indices 1 2 3 4 5 6 
#
# 1 36.6786 5.6008 26.4162 1.3734 -1.7272 -2.9126
# 2 5.6008 106.2315 54.8149 -12.4039 -13.5922 8.0637
# 3 26.4162 54.8149 216.5246 -16.5115 26.6917 26.1842
# 4 1.3734 -12.4039 -16.5115 46.3759 10.0136 -7.7675
# 5 -1.7272 -13.5922 26.6917 10.0136 45.5609 4.6818
# 6 -2.9126 8.0637 26.1842 -7.7675 4.6818 28.4354
#
#
#
# Elastic Compliance Matrix: (Units=1/GPa)
#
#
# Indices 1 2 3 4 5 6 
#
# 1 0.032160 0.001104 -0.005826 -0.002632 0.004838 0.006830
# 2 0.001104 0.012190 -0.003830 0.000484 0.005883 -0.000653
# 3 -0.005826 -0.003830 0.007828 0.002366 -0.005946 -0.005094
# 4 -0.002632 0.000484 0.002366 0.025140 -0.007432 0.005505
# 5 0.004838 0.005883 -0.005946 -0.007432 0.029266 -0.002546
# 6 0.006830 -0.000653 -0.005094 0.005505 -0.002546 0.042666
#
#
# Mechanical properties :
#
#
# Convention : Reuss Voigt Hill
#
# Bulk Modulus (GPa) = 28.51098 59.23317 43.87207
# Shear Modulus (GPa) = 28.08259 42.24796 35.16527
#
# Velocity S-wave (km/s) = 3.27737 4.01985 3.66745
# Velocity P-wave (km/s) = 5.02260 6.64841 5.89186
#
# Compressibility (1/GPa) = 0.03507421
#
# Stress axis : x y z
#
# Youngs Moduli (GPa) = 31.09438 82.03190 127.74235
#
# Poissons Ratio (x) = -0.09056 0.74425
# Poissons Ratio (y) = -0.03433 0.48926
# Poissons Ratio (z) = 0.18116 0.31419
#
# Static dielectric constant tensor:
#      x y z
#    x 2.113780 0.007910 0.070010 
#    y 0.007910 2.138050 -0.098310 
#    z 0.070010 -0.098310 2.103770 
# 
# From -- ./inp_files/311230.got.cif
#   From: 2010.05.17/outbox.cif.g08.bks.cpg/sg2_156_cif.got.tgz:311230.got - 2010.06.03 11:33:40.
