data_PCOD9011869
_publ_section_title
;
Structure prediction by ZEFSAII (Michael W. Deem and Ramdas Pophale) SiO2 
 PCOD9011869
Probable space group: P -1
;
_chemical_formula_sum "Si O2"
_cell_formula_units_Z 16
_cell_length_a 7.770214
_cell_length_b 23.133409
_cell_length_c 10.965527
_cell_angle_alpha 29.819119
_cell_angle_beta 136.288186
_cell_angle_gamma 121.968796
_cell_volume 649.375668
_symmetry_space_group_name_H-M "P -1"
_symmetry_group_IT_number 2
_symmetry_cell_setting 'triclinic'
loop_
_space_group_symop_operation_xyz
x,y,z
-x,-y,-z
loop_
_atom_site_type_symbol
_atom_site_label
_atom_site_fract_x
_atom_site_fract_y
_atom_site_fract_z
Si Si1 0.947527 0.232180 0.213286
Si Si2 0.280285 0.954710 0.663178
Si Si3 0.748266 0.783869 0.854096
Si Si4 0.752984 0.927748 0.135682
Si Si5 0.112309 0.456960 0.507899
Si Si6 0.675628 0.476976 0.774446
Si Si7 0.888395 0.416622 0.258870
Si Si8 0.216988 0.823513 0.373217
O O1 0.735643 0.157450 0.222794
O O2 0.047815 0.247792 0.098572
O O3 0.183121 0.145879 0.571476
O O4 0.835496 0.351081 0.021546
O O5 0.296835 0.077265 0.381183
O O6 0.497610 0.924645 0.935370
O O7 0.000000 0.000000 0.500000
O O8 0.480100 0.780835 0.661930
O O9 0.809379 0.688127 0.169029
O O10 0.987441 0.871228 0.265866
O O11 0.760826 0.066374 0.901845
O O12 0.374939 0.496581 0.554424
O O13 0.000000 0.500000 0.500000
O O14 0.867661 0.501338 0.210010
O O15 0.811195 0.582782 0.617081
O O16 0.725290 0.461810 0.972417
O O17 0.835651 0.293451 0.497329
#
# Coordination Sequence:
#
# PCOD9011869 Si02
#       8
#     2   2   2   2   2   2   2   2
#     4  11  22  42  70  98 136 177 214 277 324 393
#     4   9  22  39  61  96 135 175 211 262 324 385
#     4  10  22  44  63  99 142 169 221 273 327 388
#     4  10  21  40  67  96 135 171 227 257 334 393
#     4  12  26  46  67  97 132 174 221 276 329 393
#     4  11  25  47  68 100 131 168 228 273 328 395
#     4  11  24  45  70  91 130 176 216 271 336 382
#     4  10  21  43  64 100 131 173 217 277 319 395
#
# _framework density 24.639050999999998
#
# number of rings (size 3 to 8) (size 9 to 14) (size 15 to 20)
#    0.000    1.500    2.500    1.125    3.500    5.000 
#    9.000    2.500    0.000    0.000    0.000    0.000 
#    0.000    0.000    0.000    0.000    0.000    0.000 
#
# Total GULP energy -89408.834709 kJ/mol
# GULP energy per Si atom -5588.052169 kJ/mol
# Density = 2.458297 g / cm^3
# Si number density = 24.639051 Si / 1000 Ang^3
#
#
#
# Elastic Constant Matrix: (Units=GPa)
#
#
# Indices 1 2 3 4 5 6 
#
# 1 65.6308 18.0862 7.9579 4.4944 8.8235 7.5654
# 2 18.0862 152.6164 44.9894 8.8415 1.8359 18.9822
# 3 7.9579 44.9894 93.5457 14.6682 -14.6703 11.3430
# 4 4.4944 8.8415 14.6682 25.5933 -1.9820 -5.3012
# 5 8.8235 1.8359 -14.6703 -1.9820 30.0395 2.7167
# 6 7.5654 18.9822 11.3430 -5.3012 2.7167 41.0817
#
#
#
# Elastic Compliance Matrix: (Units=1/GPa)
#
#
# Indices 1 2 3 4 5 6 
#
# 1 0.016864 -0.001196 -0.000963 -0.002887 -0.005333 -0.002307
# 2 -0.001196 0.008169 -0.003593 -0.001228 -0.001748 -0.002605
# 3 -0.000963 -0.003593 0.015406 -0.007621 0.007878 -0.003921
# 4 -0.002887 -0.001228 -0.007621 0.046234 -0.000581 0.009208
# 5 -0.005333 -0.001748 0.007878 -0.000581 0.039047 -0.003043
# 6 -0.002307 -0.002605 -0.003921 0.009208 -0.003043 0.028442
#
#
# Mechanical properties :
#
#
# Convention : Reuss Voigt Hill
#
# Bulk Modulus (GPa) = 34.56105 50.42887 42.49496
# Shear Modulus (GPa) = 28.52074 35.39355 31.95714
#
# Velocity S-wave (km/s) = 3.40596 3.79421 3.60531
# Velocity P-wave (km/s) = 5.43367 6.30128 5.88349
#
# Compressibility (1/GPa) = 0.02893431
#
# Stress axis : x y z
#
# Youngs Moduli (GPa) = 59.29899 122.40659 64.91126
#
# Poissons Ratio (x) = 0.14643 0.06252
# Poissons Ratio (y) = 0.07094 0.23322
# Poissons Ratio (z) = 0.05711 0.43979
#
# Static dielectric constant tensor:
#      x y z
#    x 2.071780 -0.035820 -0.064750 
#    y -0.035820 1.993890 -0.072010 
#    z -0.064750 -0.072010 2.030100 
# 
# From -- ./inp_files/406588.got.cif
#   From: 2010.05.17/outbox.cif.g08.bks.cpg/sg2_204_cif.got.tgz:406588.got - 2010.06.03 11:33:40.
