data_PCOD9011006
_publ_section_title
;
Structure prediction by ZEFSAII (Michael W. Deem and Ramdas Pophale) SiO2 
 PCOD9011006
Probable space group: P -1
;
_chemical_formula_sum "Si O2"
_cell_formula_units_Z 14
_cell_length_a 14.257902
_cell_length_b 12.857636
_cell_length_c 20.766011
_cell_angle_alpha 160.961440
_cell_angle_beta 153.480605
_cell_angle_gamma 30.412519
_cell_volume 550.877101
_symmetry_space_group_name_H-M "P -1"
_symmetry_group_IT_number 2
_symmetry_cell_setting 'triclinic'
loop_
_space_group_symop_operation_xyz
x,y,z
-x,-y,-z
loop_
_atom_site_type_symbol
_atom_site_label
_atom_site_fract_x
_atom_site_fract_y
_atom_site_fract_z
Si Si1 0.897094 0.241677 0.830302
Si Si2 0.084997 0.341750 0.666740
Si Si3 0.597161 0.779893 0.314065
Si Si4 0.067741 0.314651 0.791947
Si Si5 0.579466 0.596341 0.675173
Si Si6 0.705694 0.251006 0.178013
Si Si7 0.281876 0.318052 0.433050
O O1 0.729821 0.061188 0.585179
O O2 0.064250 0.957270 0.794293
O O3 0.000000 0.500000 0.000000
O O4 0.790671 0.472880 0.955402
O O5 0.108384 0.343059 0.758377
O O6 0.947997 0.617581 0.703532
O O7 0.312857 0.286734 0.741244
O O8 0.942395 0.043119 0.397641
O O9 0.669458 0.483492 0.230990
O O10 0.357940 0.941773 0.268517
O O11 0.827442 0.472082 0.750310
O O12 0.500000 0.500000 0.500000
O O13 0.442685 0.422637 0.539567
O O14 0.563640 0.963546 0.905555
O O15 0.693642 0.469690 0.363474
#
# Coordination Sequence:
#
# PCOD9011006 Si02
#       7
#     2   2   2   2   2   2   2
#     4  11  20  41  69  97 129 175 226 270 323 398
#     4  11  22  40  70  96 135 175 219 279 333 384
#     4  12  24  44  66 100 141 172 221 280 329 403
#     4  10  21  40  65 102 127 171 230 272 328 387
#     4  11  22  43  69  98 131 171 228 282 320 405
#     4  11  25  42  67 100 135 178 219 278 346 382
#     4  12  23  42  69  97 133 180 225 267 332 402
#
# _framework density 25.414016
#
# number of rings (size 3 to 8) (size 9 to 14) (size 15 to 20)
#    0.000    0.857    5.714    2.143    0.000    1.143 
#    0.000    5.000    0.000    0.000    0.000    0.000 
#    0.000    0.000    0.000    0.000    0.000    0.000 
#
# Total GULP energy -78360.556085 kJ/mol
# GULP energy per Si atom -5597.182578 kJ/mol
# Density = 2.535617 g / cm^3
# Si number density = 25.414016 Si / 1000 Ang^3
#
#
#
# Elastic Constant Matrix: (Units=GPa)
#
#
# Indices 1 2 3 4 5 6 
#
# 1 105.9655 17.4801 3.6847 12.1060 -24.0981 19.5170
# 2 17.4801 130.2119 13.0979 32.1330 -9.4431 -1.9489
# 3 3.6847 13.0979 40.6339 9.0415 16.0370 -3.6791
# 4 12.1060 32.1330 9.0415 35.5003 2.5040 -0.1908
# 5 -24.0981 -9.4431 16.0370 2.5040 28.2799 6.2976
# 6 19.5170 -1.9489 -3.6791 -0.1908 6.2976 32.9318
#
#
#
# Elastic Compliance Matrix: (Units=1/GPa)
#
#
# Indices 1 2 3 4 5 6 
#
# 1 0.022857 0.003165 -0.017393 -0.008898 0.036143 -0.022265
# 2 0.003165 0.011363 -0.006857 -0.010508 0.012285 -0.004380
# 3 -0.017393 -0.006857 0.050385 0.003083 -0.051617 0.025420
# 4 -0.008898 -0.010508 0.003083 0.041278 -0.018446 0.008763
# 5 0.036143 0.012285 -0.051617 -0.018446 0.111845 -0.047955
# 6 -0.022265 -0.004380 0.025420 0.008763 -0.047955 0.055363
#
#
# Mechanical properties :
#
#
# Convention : Reuss Voigt Hill
#
# Bulk Modulus (GPa) = 23.56590 38.37071 30.96830
# Shear Modulus (GPa) = 14.31001 35.51231 24.91116
#
# Velocity S-wave (km/s) = 2.37550 3.74217 3.13423
# Velocity P-wave (km/s) = 4.10084 5.81402 5.03089
#
# Compressibility (1/GPa) = 0.04243420
#
# Stress axis : x y z
#
# Youngs Moduli (GPa) = 43.75098 88.00294 19.84724
#
# Poissons Ratio (x) = -0.27853 0.34521
# Poissons Ratio (y) = -0.13847 0.13609
# Poissons Ratio (z) = 0.76098 0.60342
#
# Static dielectric constant tensor:
#      x y z
#    x 1.991420 -0.038660 -0.041860 
#    y -0.038660 2.072320 -0.019800 
#    z -0.041860 -0.019800 2.064560 
# 
# From -- ./inp_files/357438.got.cif
#   From: 2010.05.17/outbox.cif.g08.bks.cpg/sg2_179_cif.got.tgz:357438.got - 2010.06.03 11:33:40.
