data_PCOD9011259
_publ_section_title
;
Structure prediction by ZEFSAII (Michael W. Deem and Ramdas Pophale) SiO2 
 PCOD9011259
Probable space group: P -1
;
_chemical_formula_sum "Si O2"
_cell_formula_units_Z 16
_cell_length_a 11.886749
_cell_length_b 5.184507
_cell_length_c 12.160344
_cell_angle_alpha 102.728099
_cell_angle_beta 109.014414
_cell_angle_gamma 107.806229
_cell_volume 630.521636
_symmetry_space_group_name_H-M "P -1"
_symmetry_group_IT_number 2
_symmetry_cell_setting 'triclinic'
loop_
_space_group_symop_operation_xyz
x,y,z
-x,-y,-z
loop_
_atom_site_type_symbol
_atom_site_label
_atom_site_fract_x
_atom_site_fract_y
_atom_site_fract_z
Si Si1 0.178977 0.734199 0.276133
Si Si2 0.109808 0.878134 0.042909
Si Si3 0.463905 0.733643 0.837008
Si Si4 0.653058 0.512913 0.808529
Si Si5 0.200596 0.192601 0.480018
Si Si6 0.012533 0.671487 0.634796
Si Si7 0.273751 0.835837 0.652287
Si Si8 0.701731 0.271393 0.033244
O O1 0.302815 0.664168 0.281725
O O2 0.081572 0.521766 0.317137
O O3 0.097207 0.695176 0.133203
O O4 0.236609 0.060512 0.371495
O O5 0.238623 0.162996 0.139210
O O6 0.160046 0.743393 0.945328
O O7 0.000000 0.000000 0.000000
O O8 0.514566 0.532223 0.764885
O O9 0.413928 0.921286 0.759293
O O10 0.590084 0.941332 0.965707
O O11 0.341619 0.582482 0.865617
O O12 0.677531 0.411166 0.926913
O O13 0.251712 0.531799 0.555655
O O14 0.045491 0.096924 0.396642
O O15 0.242495 0.041270 0.577971
O O16 0.166923 0.788495 0.710503
O O17 0.000000 0.500000 0.500000
#
# Coordination Sequence:
#
# PCOD9011259 Si02
#       8
#     2   2   2   2   2   2   2   2
#     4  11  22  40  69  90 139 182 217 270 355 392
#     4  10  23  40  64 102 136 170 227 271 335 414
#     4  10  22  42  64  97 125 177 228 285 332 396
#     4  10  22  42  64  91 131 180 218 280 336 407
#     4  11  22  43  62 100 133 181 213 280 333 401
#     4  10  21  40  65  95 133 177 218 276 336 400
#     4  11  25  38  69 100 138 166 234 276 329 405
#     4   9  21  42  67  89 132 175 225 274 350 395
#
# _framework density 25.375816
#
# number of rings (size 3 to 8) (size 9 to 14) (size 15 to 20)
#    0.000    1.750    2.500    1.500    3.500    5.000 
#    0.000    1.250    0.000    0.000    0.000    0.000 
#    0.000    0.000    0.000    0.000    0.000    0.000 
#
# Total GULP energy -89326.426391 kJ/mol
# GULP energy per Si atom -5582.901649 kJ/mol
# Density = 2.531806 g / cm^3
# Si number density = 25.375816 Si / 1000 Ang^3
#
#
#
# Elastic Constant Matrix: (Units=GPa)
#
#
# Indices 1 2 3 4 5 6 
#
# 1 229.3285 65.4672 71.0911 -10.6580 -21.7462 -46.3390
# 2 65.4672 87.6451 25.0783 -17.1512 -11.2355 -23.0607
# 3 71.0911 25.0783 97.1740 -24.0777 -22.3895 -7.6931
# 4 -10.6580 -17.1512 -24.0777 40.0100 4.2558 2.8119
# 5 -21.7462 -11.2355 -22.3895 4.2558 42.5891 -1.3381
# 6 -46.3390 -23.0607 -7.6931 2.8119 -1.3381 41.2751
#
#
#
# Elastic Compliance Matrix: (Units=1/GPa)
#
#
# Indices 1 2 3 4 5 6 
#
# 1 0.008198 -0.003352 -0.005061 -0.002885 0.001137 0.006621
# 2 -0.003352 0.016629 0.000663 0.005984 0.002593 0.005327
# 3 -0.005061 0.000663 0.017098 0.008806 0.005619 -0.002543
# 4 -0.002885 0.005984 0.008806 0.031954 0.001530 -0.000382
# 5 0.001137 0.002593 0.005619 0.001530 0.027690 0.004566
# 6 0.006621 0.005327 -0.002543 -0.000382 0.004566 0.034338
#
#
# Mechanical properties :
#
#
# Convention : Reuss Voigt Hill
#
# Bulk Modulus (GPa) = 37.84452 81.93566 59.89009
# Shear Modulus (GPa) = 31.20801 41.60891 36.40846
#
# Velocity S-wave (km/s) = 3.51070 4.05372 3.79194
# Velocity P-wave (km/s) = 5.60173 7.36676 6.54403
#
# Compressibility (1/GPa) = 0.02642391
#
# Stress axis : x y z
#
# Youngs Moduli (GPa) = 121.97950 60.13573 58.48689
#
# Poissons Ratio (x) = 0.20159 0.29601
# Poissons Ratio (y) = 0.40890 -0.03877
# Poissons Ratio (z) = 0.61736 -0.03986
#
# Static dielectric constant tensor:
#      x y z
#    x 2.079100 0.021350 0.019800 
#    y 0.021350 2.132620 0.026800 
#    z 0.019800 0.026800 2.090090 
# 
# From -- ./inp_files/409495.got.cif
#   From: 2010.05.17/outbox.cif.g08.bks.cpg/sg2_205_cif.got.tgz:409495.got - 2010.06.03 11:33:40.
