data_PCOD9011835
_publ_section_title
;
Structure prediction by ZEFSAII (Michael W. Deem and Ramdas Pophale) SiO2 
 PCOD9011835
Probable space group: P -1
;
_chemical_formula_sum "Si O2"
_cell_formula_units_Z 14
_cell_length_a 11.496607
_cell_length_b 8.704968
_cell_length_c 17.107161
_cell_angle_alpha 100.996664
_cell_angle_beta 40.333718
_cell_angle_gamma 130.603110
_cell_volume 659.165445
_symmetry_space_group_name_H-M "P -1"
_symmetry_group_IT_number 2
_symmetry_cell_setting 'triclinic'
loop_
_space_group_symop_operation_xyz
x,y,z
-x,-y,-z
loop_
_atom_site_type_symbol
_atom_site_label
_atom_site_fract_x
_atom_site_fract_y
_atom_site_fract_z
Si Si1 0.124274 0.426378 0.970038
Si Si2 0.873659 0.288437 0.603643
Si Si3 0.014765 0.105272 0.755265
Si Si4 0.652726 0.516732 0.504297
Si Si5 0.491807 0.549912 0.918120
Si Si6 0.681555 0.828927 0.614967
Si Si7 0.343677 0.103747 0.921649
O O1 0.236172 0.488278 0.008785
O O2 0.427512 0.608505 0.785034
O O3 0.000000 0.500000 0.000000
O O4 0.885171 0.126680 0.045655
O O5 0.635386 0.199467 0.775742
O O6 0.000000 0.500000 0.500000
O O7 0.157761 0.425557 0.518782
O O8 0.706791 0.033071 0.618321
O O9 0.316248 0.226028 0.639703
O O10 0.138578 0.336429 0.664390
O O11 0.802846 0.856067 0.783589
O O12 0.824461 0.019339 0.920590
O O13 0.620911 0.679917 0.557216
O O14 0.442010 0.350730 0.880454
O O15 0.500000 0.500000 0.000000
O O16 0.000000 0.000000 0.500000
#
# Coordination Sequence:
#
# PCOD9011835 Si02
#       7
#     2   2   2   2   2   2   2
#     4  12  23  43  70 101 129 172 237 276 322 401
#     4  11  25  39  63 103 135 164 222 281 334 387
#     4  10  22  44  70  90 130 179 228 262 335 404
#     4  10  22  42  68  95 127 179 220 273 331 399
#     4  10  24  43  64  96 138 180 213 274 342 394
#     4  10  21  40  67  95 128 176 219 274 329 393
#     4  11  24  42  67 101 132 179 219 281 333 398
#
# _framework density 21.238976999999998
#
# number of rings (size 3 to 8) (size 9 to 14) (size 15 to 20)
#    0.000    1.429    2.857    2.143    6.000    2.857 
#    2.571    0.714    0.000    0.000    0.000    0.000 
#    0.000    0.000    0.000    0.000    0.000    0.000 
#
# Total GULP energy -78029.498026 kJ/mol
# GULP energy per Si atom -5573.535573 kJ/mol
# Density = 2.119064 g / cm^3
# Si number density = 21.238977 Si / 1000 Ang^3
#
#
#
# Elastic Constant Matrix: (Units=GPa)
#
#
# Indices 1 2 3 4 5 6 
#
# 1 137.8276 52.4322 35.0528 -9.7655 -12.6541 10.9433
# 2 52.4322 103.6724 33.6936 -28.5205 -23.4899 7.1249
# 3 35.0528 33.6936 110.1984 -4.0438 -7.2489 2.7943
# 4 -9.7655 -28.5205 -4.0438 29.7000 6.5042 -11.4735
# 5 -12.6541 -23.4899 -7.2489 6.5042 32.7694 -7.7124
# 6 10.9433 7.1249 2.7943 -11.4735 -7.7124 29.2600
#
#
#
# Elastic Compliance Matrix: (Units=1/GPa)
#
#
# Indices 1 2 3 4 5 6 
#
# 1 0.009605 -0.005112 -0.001553 -0.003244 -0.000503 -0.003604
# 2 -0.005112 0.019820 -0.003333 0.017402 0.009635 0.006767
# 3 -0.001553 -0.003333 0.010492 -0.002466 -0.000335 -0.000665
# 4 -0.003244 0.017402 -0.002466 0.055851 0.004359 0.020261
# 5 -0.000503 0.009635 -0.000335 0.004359 0.038584 0.009754
# 6 -0.003604 0.006767 -0.000665 0.020261 0.009754 0.044455
#
#
# Mechanical properties :
#
#
# Convention : Reuss Voigt Hill
#
# Bulk Modulus (GPa) = 50.19909 66.00616 58.10262
# Shear Modulus (GPa) = 24.33750 33.71388 29.02569
#
# Velocity S-wave (km/s) = 3.38877 3.98849 3.70080
# Velocity P-wave (km/s) = 6.24487 7.23575 6.75849
#
# Compressibility (1/GPa) = 0.01992068
#
# Stress axis : x y z
#
# Youngs Moduli (GPa) = 104.11065 50.45495 95.31064
#
# Poissons Ratio (x) = 0.25792 0.14803
# Poissons Ratio (y) = 0.53219 0.31769
# Poissons Ratio (z) = 0.16169 0.16818
#
# Static dielectric constant tensor:
#      x y z
#    x 1.826280 0.008900 0.017450 
#    y 0.008900 1.819070 0.021280 
#    z 0.017450 0.021280 1.792350 
# 
# From -- ./inp_files/336642.got.cif
#   From: 2010.05.17/outbox.cif.g08.bks.cpg/sg2_169_cif.got.tgz:336642.got - 2010.06.03 11:33:40.
