data_PCOD9011432
_publ_section_title
;
Structure prediction by ZEFSAII (Michael W. Deem and Ramdas Pophale) SiO2 
 PCOD9011432
Probable space group: P -1
;
_chemical_formula_sum "Si O2"
_cell_formula_units_Z 14
_cell_length_a 7.843494
_cell_length_b 25.304248
_cell_length_c 15.651990
_cell_angle_alpha 18.135706
_cell_angle_beta 35.848061
_cell_angle_gamma 33.709493
_cell_volume 533.023334
_symmetry_space_group_name_H-M "P -1"
_symmetry_group_IT_number 2
_symmetry_cell_setting 'triclinic'
loop_
_space_group_symop_operation_xyz
x,y,z
-x,-y,-z
loop_
_atom_site_type_symbol
_atom_site_label
_atom_site_fract_x
_atom_site_fract_y
_atom_site_fract_z
Si Si1 0.543942 0.243514 0.442334
Si Si2 0.448030 0.891675 0.989457
Si Si3 0.285163 0.306370 0.187754
Si Si4 0.519489 0.415744 0.774603
Si Si5 0.118026 0.635571 0.442988
Si Si6 0.098942 0.783583 0.812516
Si Si7 0.738549 0.210739 0.602472
O O1 0.788224 0.295126 0.206879
O O2 0.678692 0.173035 0.587786
O O3 0.211926 0.385741 0.376242
O O4 0.441078 0.092349 0.667766
O O5 0.798644 0.771128 0.003815
O O6 0.211293 0.810767 0.163681
O O7 0.369111 0.890266 0.123808
O O8 0.589091 0.287467 0.148470
O O9 0.101820 0.187408 0.488032
O O10 0.417360 0.271728 0.090388
O O11 0.000000 0.500000 0.000000
O O12 0.321708 0.495800 0.646586
O O13 0.846515 0.359946 0.681243
O O14 0.455029 0.582392 0.609281
O O15 0.000000 0.000000 0.500000
#
# Coordination Sequence:
#
# PCOD9011432 Si02
#       7
#     2   2   2   2   2   2   2
#     4  11  22  39  64  94 126 169 218 263 325 384
#     4  10  22  41  62  91 128 169 218 266 320 383
#     4  10  21  43  65  90 133 172 214 263 327 387
#     4   9  21  41  61  93 125 170 213 263 326 378
#     4  10  21  40  66  90 131 168 218 261 327 386
#     4  10  23  42  65  93 132 169 221 266 319 387
#     4  10  22  40  65  95 129 165 216 271 321 384
#
# _framework density 26.265264999999999
#
# number of rings (size 3 to 8) (size 9 to 14) (size 15 to 20)
#    0.000    2.000    0.000    3.429    4.000    1.714 
#   12.857    6.429    0.000    0.000    0.000    0.000 
#    0.000    0.000    0.000    0.000    0.000    0.000 
#
# Total GULP energy -78078.686375 kJ/mol
# GULP energy per Si atom -5577.049027 kJ/mol
# Density = 2.620548 g / cm^3
# Si number density = 26.265265 Si / 1000 Ang^3
#
#
#
# Elastic Constant Matrix: (Units=GPa)
#
#
# Indices 1 2 3 4 5 6 
#
# 1 116.3231 48.1175 51.9983 23.6580 7.7839 -0.0027
# 2 48.1175 118.1294 49.8744 63.1243 15.2074 7.7711
# 3 51.9983 49.8744 129.3436 55.9591 14.8920 13.0078
# 4 23.6580 63.1243 55.9591 61.9701 13.5995 14.0656
# 5 7.7839 15.2074 14.8920 13.5995 44.7686 12.2313
# 6 -0.0027 7.7711 13.0078 14.0656 12.2313 40.9518
#
#
#
# Elastic Compliance Matrix: (Units=1/GPa)
#
#
# Indices 1 2 3 4 5 6 
#
# 1 0.012238 -0.006049 -0.005294 0.006172 -0.000415 0.000834
# 2 -0.006049 0.022295 0.004399 -0.024827 -0.001345 0.003300
# 3 -0.005294 0.004399 0.015169 -0.016005 -0.000779 0.000076
# 4 0.006172 -0.024827 -0.016005 0.055948 -0.001892 -0.008856
# 5 -0.000415 -0.001345 -0.000779 -0.001892 0.025463 -0.006453
# 6 0.000834 0.003300 0.000076 -0.008856 -0.006453 0.028737
#
#
# Mechanical properties :
#
#
# Convention : Reuss Voigt Hill
#
# Bulk Modulus (GPa) = 27.92146 73.75295 50.83721
# Shear Modulus (GPa) = 26.92869 43.79183 35.36026
#
# Velocity S-wave (km/s) = 3.20544 4.08768 3.67314
# Velocity P-wave (km/s) = 4.93492 7.10069 6.11446
#
# Compressibility (1/GPa) = 0.03581474
#
# Stress axis : x y z
#
# Youngs Moduli (GPa) = 81.71293 44.85340 65.92245
#
# Poissons Ratio (x) = 0.27134 0.34896
# Poissons Ratio (y) = 0.49432 -0.29001
# Poissons Ratio (z) = 0.43255 -0.19732
#
# Static dielectric constant tensor:
#      x y z
#    x 1.996340 -0.008170 -0.022650 
#    y -0.008170 2.419650 -0.024430 
#    z -0.022650 -0.024430 2.238680 
# 
# From -- ./inp_files/563454.got.cif
#   From: 2010.05.17/outbox.cif.g08.bks.cpg/sg2_282_cif.got.tgz:563454.got - 2010.06.03 11:33:40.
