data_PCOD9011633
_publ_section_title
;
Structure prediction by ZEFSAII (Michael W. Deem and Ramdas Pophale) SiO2 
 PCOD9011633
Probable space group: P -1
;
_chemical_formula_sum "Si O2"
_cell_formula_units_Z 14
_cell_length_a 6.920375
_cell_length_b 8.074987
_cell_length_c 15.424619
_cell_angle_alpha 122.177750
_cell_angle_beta 61.861377
_cell_angle_gamma 125.829262
_cell_volume 575.227314
_symmetry_space_group_name_H-M "P -1"
_symmetry_group_IT_number 2
_symmetry_cell_setting 'triclinic'
loop_
_space_group_symop_operation_xyz
x,y,z
-x,-y,-z
loop_
_atom_site_type_symbol
_atom_site_label
_atom_site_fract_x
_atom_site_fract_y
_atom_site_fract_z
Si Si1 0.430798 0.158526 0.137110
Si Si2 0.654815 0.496164 0.845268
Si Si3 0.098192 0.750086 0.519669
Si Si4 0.526796 0.919191 0.335193
Si Si5 0.625425 0.758729 0.644875
Si Si6 0.156986 0.664691 0.086616
Si Si7 0.848099 0.472795 0.245298
O O1 0.289912 0.195141 0.260303
O O2 0.700748 0.267940 0.154052
O O3 0.404312 0.305163 0.108039
O O4 0.315090 0.901245 0.078807
O O5 0.928423 0.553163 0.766292
O O6 0.689106 0.433861 0.918712
O O7 0.465133 0.278382 0.775598
O O8 0.241587 0.920071 0.613516
O O9 0.000000 0.500000 0.500000
O O10 0.854161 0.767716 0.547935
O O11 0.300100 0.810410 0.419216
O O12 0.456955 0.064982 0.324401
O O13 0.366857 0.537790 0.649570
O O14 0.981619 0.671181 0.204895
O O15 0.000000 0.500000 0.000000
#
# Coordination Sequence:
#
# PCOD9011633 Si02
#       7
#     2   2   2   2   2   2   2
#     4  10  21  40  66  98 125 183 214 264 336 385
#     4  10  21  44  67  93 134 174 219 268 329 393
#     4  11  26  42  63 100 131 172 226 270 323 392
#     4  11  24  43  62  95 134 174 221 273 325 382
#     4  10  21  42  66  90 132 176 212 270 327 387
#     4  10  22  44  67  99 137 167 221 278 323 396
#     4   8  22  41  61  99 126 169 218 272 315 397
#
# _framework density 24.338203
#
# number of rings (size 3 to 8) (size 9 to 14) (size 15 to 20)
#    1.714    0.286    1.429    1.286    4.000    4.000 
#    7.714    0.714    0.000    0.000    0.000    0.000 
#    0.000    0.000    0.000    0.000    0.000    0.000 
#
# Total GULP energy -78117.477074 kJ/mol
# GULP energy per Si atom -5579.819791 kJ/mol
# Density = 2.428281 g / cm^3
# Si number density = 24.338203 Si / 1000 Ang^3
#
#
#
# Elastic Constant Matrix: (Units=GPa)
#
#
# Indices 1 2 3 4 5 6 
#
# 1 122.7083 64.8400 48.0845 16.1870 9.1408 -7.6513
# 2 64.8400 179.5124 53.8667 1.6660 12.5213 -7.7099
# 3 48.0845 53.8667 79.9088 14.3807 32.5839 -3.1351
# 4 16.1870 1.6660 14.3807 45.6884 5.7238 0.8227
# 5 9.1408 12.5213 32.5839 5.7238 32.4007 -9.3823
# 6 -7.6513 -7.7099 -3.1351 0.8227 -9.3823 46.2575
#
#
#
# Elastic Compliance Matrix: (Units=1/GPa)
#
#
# Indices 1 2 3 4 5 6 
#
# 1 0.012650 -0.002472 -0.008114 -0.002732 0.006768 0.002552
# 2 -0.002472 0.007892 -0.005365 0.001876 0.003037 0.001126
# 3 -0.008114 -0.005365 0.034097 -0.003659 -0.031065 -0.006161
# 4 -0.002732 0.001876 -0.003659 0.024057 -0.000808 -0.000979
# 5 0.006768 0.003037 -0.031065 -0.000808 0.062713 0.012254
# 6 0.002552 0.001126 -0.006161 -0.000979 0.012254 0.024313
#
#
# Mechanical properties :
#
#
# Convention : Reuss Voigt Hill
#
# Bulk Modulus (GPa) = 43.97673 79.52354 61.75013
# Shear Modulus (GPa) = 24.36609 39.22521 31.79565
#
# Velocity S-wave (km/s) = 3.16752 4.01892 3.61835
# Velocity P-wave (km/s) = 5.61122 7.36756 6.54854
#
# Compressibility (1/GPa) = 0.02273930
#
# Stress axis : x y z
#
# Youngs Moduli (GPa) = 79.04951 126.70598 29.32794
#
# Poissons Ratio (x) = 0.31317 0.23797
# Poissons Ratio (y) = 0.19538 0.15733
# Poissons Ratio (z) = 0.64141 0.67973
#
# Static dielectric constant tensor:
#      x y z
#    x 1.932930 0.039410 -0.078220 
#    y 0.039410 1.953810 -0.037850 
#    z -0.078220 -0.037850 2.079310 
# 
# From -- ./inp_files/491404.got.cif
#   From: 2010.05.17/outbox.cif.g08.bks.cpg/sg2_246_cif.got.tgz:491404.got - 2010.06.03 11:33:40.
