data_PCOD9011661
_publ_section_title
;
Structure prediction by ZEFSAII (Michael W. Deem and Ramdas Pophale) SiO2 
 PCOD9011661
Probable space group: P -1
;
_chemical_formula_sum "Si O2"
_cell_formula_units_Z 16
_cell_length_a 14.754034
_cell_length_b 9.425807
_cell_length_c 12.186853
_cell_angle_alpha 35.178416
_cell_angle_beta 38.965814
_cell_angle_gamma 57.447842
_cell_volume 591.400352
_symmetry_space_group_name_H-M "P -1"
_symmetry_group_IT_number 2
_symmetry_cell_setting 'triclinic'
loop_
_space_group_symop_operation_xyz
x,y,z
-x,-y,-z
loop_
_atom_site_type_symbol
_atom_site_label
_atom_site_fract_x
_atom_site_fract_y
_atom_site_fract_z
Si Si1 0.934322 0.637057 0.692781
Si Si2 0.573179 0.994394 0.137554
Si Si3 0.607611 0.556248 0.672111
Si Si4 0.807201 0.901100 0.814445
Si Si5 0.831633 0.963501 0.323136
Si Si6 0.868102 0.682789 0.188807
Si Si7 0.676799 0.258471 0.104314
Si Si8 0.756960 0.227221 0.443343
O O1 0.036876 0.920588 0.399583
O O2 0.049544 0.470761 0.709421
O O3 0.840019 0.658128 0.878556
O O4 0.812479 0.511705 0.798336
O O5 0.561550 0.251561 0.921465
O O6 0.690290 0.882818 0.032201
O O7 0.622443 0.101391 0.144725
O O8 0.414142 0.791334 0.410943
O O9 0.701566 0.638809 0.420073
O O10 0.464107 0.662655 0.760059
O O11 0.730636 0.681914 0.569213
O O12 0.763152 0.063196 0.652059
O O13 0.754844 0.110301 0.211365
O O14 0.805831 0.083779 0.386525
O O15 0.013096 0.039433 0.094987
O O16 0.851911 0.514587 0.200163
#
# Coordination Sequence:
#
# PCOD9011661 Si02
#       8
#     2   2   2   2   2   2   2   2
#     4   9  20  41  64  94 133 170 213 276 328 383
#     4  12  24  40  69 107 130 171 221 279 337 388
#     4  12  23  43  68 102 135 175 221 271 336 396
#     4  10  21  40  66  99 132 171 219 274 337 385
#     4  11  25  46  67  94 138 181 223 266 330 399
#     4  10  23  45  68  98 131 179 225 272 325 399
#     4  11  25  42  67  98 138 174 220 275 331 395
#     4  11  22  41  70  95 137 168 226 273 329 392
#
# _framework density 27.054428999999999
#
# number of rings (size 3 to 8) (size 9 to 14) (size 15 to 20)
#    0.000    1.250    3.750    2.625    3.500    0.500 
#    0.000    6.875    0.000    0.000    0.000    0.000 
#    0.000    0.000    0.000    0.000    0.000    0.000 
#
# Total GULP energy -89670.679977 kJ/mol
# GULP energy per Si atom -5604.417499 kJ/mol
# Density = 2.699285 g / cm^3
# Si number density = 27.054429 Si / 1000 Ang^3
#
#
#
# Elastic Constant Matrix: (Units=GPa)
#
#
# Indices 1 2 3 4 5 6 
#
# 1 121.7934 31.7770 40.2367 12.9765 -12.1129 23.1912
# 2 31.7770 98.8264 17.3846 18.3632 -8.4213 0.1200
# 3 40.2367 17.3846 72.7224 -0.5752 -44.3727 10.9543
# 4 12.9765 18.3632 -0.5752 59.7214 10.8112 -6.8679
# 5 -12.1129 -8.4213 -44.3727 10.8112 52.1756 -9.6221
# 6 23.1912 0.1200 10.9543 -6.8679 -9.6221 44.0380
#
#
#
# Elastic Compliance Matrix: (Units=1/GPa)
#
#
# Indices 1 2 3 4 5 6 
#
# 1 0.012632 -0.002661 -0.009166 -0.001602 -0.006055 -0.005938
# 2 -0.002661 0.011811 -0.000490 -0.003224 0.001795 0.001380
# 3 -0.009166 -0.000490 0.037112 -0.002774 0.030257 0.001775
# 4 -0.001602 -0.003224 -0.002774 0.019638 -0.006743 0.003132
# 5 -0.006055 0.001795 0.030257 -0.006743 0.046039 0.004666
# 6 -0.005938 0.001380 0.001775 0.003132 0.004666 0.026897
#
#
# Mechanical properties :
#
#
# Convention : Reuss Voigt Hill
#
# Bulk Modulus (GPa) = 27.08404 52.45987 39.77195
# Shear Modulus (GPa) = 26.16855 44.78326 35.47590
#
# Velocity S-wave (km/s) = 3.11345 4.07295 3.62509
# Velocity P-wave (km/s) = 4.79139 6.44602 5.67929
#
# Compressibility (1/GPa) = 0.03692211
#
# Stress axis : x y z
#
# Youngs Moduli (GPa) = 79.16362 84.66852 26.94555
#
# Poissons Ratio (x) = 0.22526 0.24699
# Poissons Ratio (y) = 0.21062 0.01319
# Poissons Ratio (z) = 0.72563 0.04145
#
# Static dielectric constant tensor:
#      x y z
#    x 2.104600 -0.031730 0.080610 
#    y -0.031730 2.101530 -0.031930 
#    z 0.080610 -0.031930 2.192210 
# 
# From -- ./inp_files/272376.got.cif
#   From: 2010.05.17/outbox.cif.g08.bks.cpg/sg2_137_cif.got.tgz:272376.got - 2010.06.03 11:33:40.
