data_PCOD9011086
_publ_section_title
;
Structure prediction by ZEFSAII (Michael W. Deem and Ramdas Pophale) SiO2 
 PCOD9011086
Probable space group: P -1
;
_chemical_formula_sum "Si O2"
_cell_formula_units_Z 16
_cell_length_a 9.474079
_cell_length_b 12.705687
_cell_length_c 8.575106
_cell_angle_alpha 131.253668
_cell_angle_beta 89.703533
_cell_angle_gamma 101.396227
_cell_volume 749.681753
_symmetry_space_group_name_H-M "P -1"
_symmetry_group_IT_number 2
_symmetry_cell_setting 'triclinic'
loop_
_space_group_symop_operation_xyz
x,y,z
-x,-y,-z
loop_
_atom_site_type_symbol
_atom_site_label
_atom_site_fract_x
_atom_site_fract_y
_atom_site_fract_z
Si Si1 0.062392 0.039054 0.710510
Si Si2 0.400906 0.040431 0.757288
Si Si3 0.569835 0.237339 0.670214
Si Si4 0.594595 0.595815 0.363868
Si Si5 0.889121 0.407069 0.785763
Si Si6 0.865111 0.671312 0.840270
Si Si7 0.460473 0.301882 0.205489
Si Si8 0.071949 0.246223 0.424644
O O1 0.229261 0.027544 0.716082
O O2 0.063134 0.201631 0.915756
O O3 0.000000 0.000000 0.500000
O O4 0.963857 0.926014 0.721753
O O5 0.490876 0.143810 0.723322
O O6 0.429122 0.883276 0.581962
O O7 0.453529 0.136129 0.004902
O O8 0.481450 0.351837 0.730792
O O9 0.736781 0.322724 0.780222
O O10 0.570479 0.424434 0.222102
O O11 0.519982 0.650394 0.568888
O O12 0.764177 0.677610 0.447680
O O13 0.861486 0.517935 0.763456
O O14 0.962859 0.296811 0.589973
O O15 0.000000 0.500000 0.000000
O O16 0.699757 0.680746 0.822248
O O17 0.941782 0.704688 0.704505
#
# Coordination Sequence:
#
# PCOD9011086 Si02
#       8
#     2   2   2   2   2   2   2   2
#     4  11  21  40  64  95 127 163 206 255 306 367
#     4  10  23  40  61  88 125 163 204 252 302 365
#     4  11  23  42  63  87 126 162 205 250 309 364
#     4  10  21  40  65  91 118 161 204 252 302 369
#     4  12  25  42  62  95 126 163 205 261 311 368
#     4  10  22  41  65  91 123 166 205 255 312 368
#     4   9  20  40  64  90 121 155 208 252 302 365
#     4  11  23  41  64  92 128 161 207 255 312 367
#
# _framework density 21.342390999999999
#
# number of rings (size 3 to 8) (size 9 to 14) (size 15 to 20)
#    0.000    1.500    2.500    2.250    1.750    2.000 
#    0.000    0.000    0.000    0.000    0.000    0.000 
#    0.000    0.000    0.000    0.000    0.000    0.000 
#
# Total GULP energy -89439.209060 kJ/mol
# GULP energy per Si atom -5589.950566 kJ/mol
# Density = 2.129381 g / cm^3
# Si number density = 21.342391 Si / 1000 Ang^3
#
#
#
# Elastic Constant Matrix: (Units=GPa)
#
#
# Indices 1 2 3 4 5 6 
#
# 1 57.8961 25.8550 10.7897 3.5727 12.7901 23.4352
# 2 25.8550 73.6257 -6.4258 11.5455 15.2112 17.7723
# 3 10.7897 -6.4258 77.7211 12.3926 14.0789 7.3522
# 4 3.5727 11.5455 12.3926 33.5647 2.8618 3.0568
# 5 12.7901 15.2112 14.0789 2.8618 23.4154 11.4056
# 6 23.4352 17.7723 7.3522 3.0568 11.4056 31.8582
#
#
#
# Elastic Compliance Matrix: (Units=1/GPa)
#
#
# Indices 1 2 3 4 5 6 
#
# 1 0.026946 -0.005825 -0.002667 0.001696 -0.002043 -0.015388
# 2 -0.005825 0.020526 0.006041 -0.007378 -0.010971 -0.003924
# 3 -0.002667 0.006041 0.017005 -0.007038 -0.011583 -0.000510
# 4 0.001696 -0.007378 -0.007038 0.034430 0.004011 -0.000247
# 5 -0.002043 -0.010971 -0.011583 0.004011 0.063706 -0.012896
# 6 -0.015388 -0.003924 -0.000510 -0.000247 -0.012896 0.049656
#
#
# Mechanical properties :
#
#
# Convention : Reuss Voigt Hill
#
# Bulk Modulus (GPa) = 16.78567 29.96453 23.37510
# Shear Modulus (GPa) = 21.09443 29.70257 25.39850
#
# Velocity S-wave (km/s) = 3.14726 3.73462 3.45345
# Velocity P-wave (km/s) = 4.59228 5.71550 5.18440
#
# Compressibility (1/GPa) = 0.05957464
#
# Stress axis : x y z
#
# Youngs Moduli (GPa) = 37.11111 48.71931 58.80634
#
# Poissons Ratio (x) = 0.28378 0.15684
# Poissons Ratio (y) = 0.21616 -0.35523
# Poissons Ratio (z) = 0.09898 -0.29430
#
# Static dielectric constant tensor:
#      x y z
#    x 1.728270 0.011640 -0.012720 
#    y 0.011640 1.755080 0.004100 
#    z -0.012720 0.004100 1.806890 
# 
# From -- ./inp_files/175159.got.cif
#   From: 2010.05.17/outbox.cif.g08.bks.cpg/sg2_88_cif.got.tgz:175159.got - 2010.06.03 11:33:40.
