data_PCOD9011819
_publ_section_title
;
Structure prediction by ZEFSAII (Michael W. Deem and Ramdas Pophale) SiO2 
 PCOD9011819
Probable space group: P -1
;
_chemical_formula_sum "Si O2"
_cell_formula_units_Z 16
_cell_length_a 14.655058
_cell_length_b 23.154457
_cell_length_c 5.531649
_cell_angle_alpha 75.024466
_cell_angle_beta 57.067405
_cell_angle_gamma 28.877469
_cell_volume 641.851735
_symmetry_space_group_name_H-M "P -1"
_symmetry_group_IT_number 2
_symmetry_cell_setting 'triclinic'
loop_
_space_group_symop_operation_xyz
x,y,z
-x,-y,-z
loop_
_atom_site_type_symbol
_atom_site_label
_atom_site_fract_x
_atom_site_fract_y
_atom_site_fract_z
Si Si1 0.669655 0.761331 0.771638
Si Si2 0.738666 0.944526 0.444196
Si Si3 0.805614 0.247932 0.702674
Si Si4 0.207000 0.194618 0.789680
Si Si5 0.765587 0.656948 0.243207
Si Si6 0.604879 0.516254 0.298770
Si Si7 0.647094 0.239163 0.339446
Si Si8 0.871341 0.980956 0.891534
O O1 0.691118 0.817637 0.575952
O O2 0.802504 0.661583 0.458950
O O3 0.759016 0.706708 0.974501
O O4 0.378353 0.881044 0.052235
O O5 0.791496 0.873725 0.225315
O O6 0.988991 0.811483 0.396325
O O7 0.434712 0.086223 0.779558
O O8 0.755910 0.004626 0.266605
O O9 0.519227 0.411612 0.866948
O O10 0.963728 0.150704 0.345505
O O11 0.758447 0.212630 0.965548
O O12 0.910871 0.361209 0.073495
O O13 0.527615 0.729990 0.496836
O O14 0.000000 0.500000 0.000000
O O15 0.500000 0.500000 0.500000
O O16 0.499035 0.629163 0.471883
O O17 0.897722 0.091677 0.286910
#
# Coordination Sequence:
#
# PCOD9011819 Si02
#       8
#     2   2   2   2   2   2   2   2
#     4  11  27  45  72 101 133 182 238 288 331 418
#     4   9  20  41  63  98 136 176 219 281 346 413
#     4  10  21  40  67  94 137 172 219 282 342 415
#     4  10  21  42  65  96 139 176 229 276 351 404
#     4  12  28  48  69  97 139 181 235 290 344 398
#     4  11  23  41  65 102 135 173 224 280 340 427
#     4  10  24  41  67  93 133 179 217 285 350 401
#     4   9  21  42  67 100 132 170 224 282 346 405
#
# _framework density 24.927876999999999
#
# number of rings (size 3 to 8) (size 9 to 14) (size 15 to 20)
#    0.000    1.750    0.000    3.375   10.500    3.000 
#    4.500    3.750    0.000    0.000    0.000    0.000 
#    0.000    0.000    0.000    0.000    0.000    0.000 
#
# Total GULP energy -89141.569903 kJ/mol
# GULP energy per Si atom -5571.348119 kJ/mol
# Density = 2.487114 g / cm^3
# Si number density = 24.927877 Si / 1000 Ang^3
#
#
#
# Elastic Constant Matrix: (Units=GPa)
#
#
# Indices 1 2 3 4 5 6 
#
# 1 86.8822 -0.1647 34.4218 1.4817 -8.1223 11.8810
# 2 -0.1647 75.9546 26.8953 11.5344 3.2350 0.7392
# 3 34.4218 26.8953 85.6476 13.4752 -14.0676 0.4507
# 4 1.4817 11.5344 13.4752 42.7724 7.1930 -7.7179
# 5 -8.1223 3.2350 -14.0676 7.1930 33.0006 11.9612
# 6 11.8810 0.7392 0.4507 -7.7179 11.9612 35.4001
#
#
#
# Elastic Compliance Matrix: (Units=1/GPa)
#
#
# Indices 1 2 3 4 5 6 
#
# 1 0.015120 0.002225 -0.006016 -0.000975 0.003483 -0.006434
# 2 0.002225 0.015731 -0.006001 -0.002011 -0.002955 -0.000439
# 3 -0.006016 -0.006001 0.018438 -0.005974 0.009173 -0.002492
# 4 -0.000975 -0.002011 -0.005974 0.030162 -0.013343 0.011530
# 5 0.003483 -0.002955 0.009173 -0.013343 0.045316 -0.019445
# 6 -0.006434 -0.000439 -0.002492 0.011530 -0.019445 0.039533
#
#
# Mechanical properties :
#
#
# Convention : Reuss Voigt Hill
#
# Bulk Modulus (GPa) = 33.66406 41.19880 37.43143
# Shear Modulus (GPa) = 25.80196 34.72341 30.26268
#
# Velocity S-wave (km/s) = 3.22073 3.73628 3.48804
# Velocity P-wave (km/s) = 5.23113 5.93095 5.59200
#
# Compressibility (1/GPa) = 0.02970527
#
# Stress axis : x y z
#
# Youngs Moduli (GPa) = 66.13919 63.56866 54.23664
#
# Poissons Ratio (x) = -0.14147 0.32629
# Poissons Ratio (y) = -0.14719 0.32547
# Poissons Ratio (z) = 0.39789 0.38147
#
# Static dielectric constant tensor:
#      x y z
#    x 2.029480 -0.022230 0.035240 
#    y -0.022230 1.910230 -0.068740 
#    z 0.035240 -0.068740 1.923530 
# 
# From -- ./inp_files/98261.got.cif
#   From: 2010.05.17/outbox.cif.g08.bks.cpg/sg2_50_cif.got.tgz:98261.got - 2010.06.03 11:33:40.
