data_PCOD9011465
_publ_section_title
;
Structure prediction by ZEFSAII (Michael W. Deem and Ramdas Pophale) SiO2 
 PCOD9011465
Probable space group: P -1
;
_chemical_formula_sum "Si O2"
_cell_formula_units_Z 16
_cell_length_a 9.156202
_cell_length_b 15.424158
_cell_length_c 15.161674
_cell_angle_alpha 39.716792
_cell_angle_beta 137.842969
_cell_angle_gamma 142.377793
_cell_volume 785.925628
_symmetry_space_group_name_H-M "P -1"
_symmetry_group_IT_number 2
_symmetry_cell_setting 'triclinic'
loop_
_space_group_symop_operation_xyz
x,y,z
-x,-y,-z
loop_
_atom_site_type_symbol
_atom_site_label
_atom_site_fract_x
_atom_site_fract_y
_atom_site_fract_z
Si Si1 0.253355 0.561830 0.119005
Si Si2 0.535753 0.276007 0.194605
Si Si3 0.895415 0.622037 0.624228
Si Si4 0.481372 0.686680 0.395599
Si Si5 0.933029 0.035757 0.843753
Si Si6 0.532422 0.500871 0.146829
Si Si7 0.576187 0.873843 0.110222
Si Si8 0.940700 0.346708 0.651450
O O1 0.163071 0.488324 0.231479
O O2 0.423611 0.504018 0.191317
O O3 0.413265 0.750257 0.056364
O O4 0.000000 0.500000 0.000000
O O5 0.446944 0.331887 0.197485
O O6 0.805319 0.292506 0.323480
O O7 0.337704 0.106605 0.198315
O O8 0.554052 0.403344 0.030208
O O9 0.760431 0.718740 0.514208
O O10 0.722467 0.502921 0.561704
O O11 0.520277 0.774832 0.252023
O O12 0.336702 0.729097 0.369497
O O13 0.951813 0.205144 0.719061
O O14 0.138013 0.044809 0.859624
O O15 0.000000 0.000000 0.000000
O O16 0.838260 0.591687 0.222915
O O17 0.500000 0.000000 0.000000
O O18 0.000000 0.500000 0.500000
#
# Coordination Sequence:
#
# PCOD9011465 Si02
#       8
#     2   2   2   2   2   2   2   2
#     4  11  21  37  63  95 127 164 218 271 320 393
#     4  11  23  39  67  95 132 170 220 278 331 386
#     4  10  21  40  66  92 126 171 215 273 328 384
#     4  10  23  42  67  92 130 170 223 268 327 401
#     4  12  25  44  67 100 139 172 224 277 336 401
#     4  11  22  39  64  99 128 173 225 270 328 399
#     4  11  25  40  65  98 131 175 217 273 340 389
#     4  12  24  43  70  98 134 181 225 270 334 404
#
# _framework density 20.358160999999999
#
# number of rings (size 3 to 8) (size 9 to 14) (size 15 to 20)
#    0.000    1.000    5.000    1.500    5.250    0.000 
#    0.000    3.125    0.000    0.000    0.000    0.000 
#    0.000    0.000    0.000    0.000    0.000    0.000 
#
# Total GULP energy -89306.883388 kJ/mol
# GULP energy per Si atom -5581.680212 kJ/mol
# Density = 2.031182 g / cm^3
# Si number density = 20.358161 Si / 1000 Ang^3
#
#
#
# Elastic Constant Matrix: (Units=GPa)
#
#
# Indices 1 2 3 4 5 6 
#
# 1 118.2113 26.1657 24.0248 -4.7723 25.3408 4.5162
# 2 26.1657 101.0090 34.2584 6.7794 17.1052 -4.2654
# 3 24.0248 34.2584 81.4860 2.5230 28.3401 9.2111
# 4 -4.7723 6.7794 2.5230 23.6983 5.7883 3.3234
# 5 25.3408 17.1052 28.3401 5.7883 34.7107 1.2887
# 6 4.5162 -4.2654 9.2111 3.3234 1.2887 28.1603
#
#
#
# Elastic Compliance Matrix: (Units=1/GPa)
#
#
# Indices 1 2 3 4 5 6 
#
# 1 0.010839 -0.002089 0.000646 0.005054 -0.008162 -0.002489
# 2 -0.002089 0.012620 -0.005037 -0.004094 -0.000061 0.004380
# 3 0.000646 -0.005037 0.020016 0.004052 -0.014740 -0.007217
# 4 0.005054 -0.004094 0.004052 0.048164 -0.012721 -0.007858
# 5 -0.008162 -0.000061 -0.014740 -0.012721 0.048754 0.005391
# 6 -0.002489 0.004380 -0.007217 -0.007858 0.005391 0.039615
#
#
# Mechanical properties :
#
#
# Convention : Reuss Voigt Hill
#
# Bulk Modulus (GPa) = 32.77065 52.17822 42.47443
# Shear Modulus (GPa) = 24.61372 31.73100 28.17236
#
# Velocity S-wave (km/s) = 3.48089 3.95224 3.72403
# Velocity P-wave (km/s) = 5.68221 6.82002 6.27695
#
# Compressibility (1/GPa) = 0.03051511
#
# Stress axis : x y z
#
# Youngs Moduli (GPa) = 92.25676 79.24162 49.96061
#
# Poissons Ratio (x) = 0.16555 -0.03227
# Poissons Ratio (y) = 0.19274 0.25163
# Poissons Ratio (z) = -0.05959 0.39911
#
# Static dielectric constant tensor:
#      x y z
#    x 1.792180 0.011190 0.033540 
#    y 0.011190 1.773820 0.052690 
#    z 0.033540 0.052690 1.731750 
# 
# From -- ./inp_files/271164.got.cif
#   From: 2010.05.17/outbox.cif.g08.bks.cpg/sg2_136_cif.got.tgz:271164.got - 2010.06.03 11:33:40.
