data_PCOD9011790
_publ_section_title
;
Structure prediction by ZEFSAII (Michael W. Deem and Ramdas Pophale) SiO2 
 PCOD9011790
Probable space group: P -1
;
_chemical_formula_sum "Si O2"
_cell_formula_units_Z 16
_cell_length_a 9.447671
_cell_length_b 16.380419
_cell_length_c 5.072973
_cell_angle_alpha 100.120899
_cell_angle_beta 106.627187
_cell_angle_gamma 75.636170
_cell_volume 724.081103
_symmetry_space_group_name_H-M "P -1"
_symmetry_group_IT_number 2
_symmetry_cell_setting 'triclinic'
loop_
_space_group_symop_operation_xyz
x,y,z
-x,-y,-z
loop_
_atom_site_type_symbol
_atom_site_label
_atom_site_fract_x
_atom_site_fract_y
_atom_site_fract_z
Si Si1 0.853406 0.023764 0.624302
Si Si2 0.024004 0.692198 0.988367
Si Si3 0.619804 0.316149 0.789258
Si Si4 0.595416 0.422597 0.337655
Si Si5 0.948472 0.417675 0.539641
Si Si6 0.532964 0.145135 0.495844
Si Si7 0.603703 0.912696 0.096982
Si Si8 0.908665 0.888498 0.008111
O O1 0.694546 0.082315 0.489001
O O2 0.841524 0.942554 0.747614
O O3 0.000000 0.000000 0.500000
O O4 0.926126 0.089268 0.882028
O O5 0.200554 0.697440 0.077181
O O6 0.010138 0.624038 0.173246
O O7 0.984208 0.655619 0.670625
O O8 0.932833 0.787999 0.005158
O O9 0.595917 0.345754 0.492569
O O10 0.561537 0.229688 0.702778
O O11 0.550932 0.390061 0.008668
O O12 0.500000 0.500000 0.500000
O O13 0.766518 0.436408 0.425220
O O14 0.000000 0.500000 0.500000
O O15 0.436730 0.153841 0.178976
O O16 0.443898 0.105103 0.647146
O O17 0.776609 0.920991 0.168077
O O18 0.500000 0.000000 0.000000
#
# Coordination Sequence:
#
# PCOD9011790 Si02
#       8
#     2   2   2   2   2   2   2   2
#     4  11  25  40  72  95 129 181 231 282 312 404
#     4  10  22  40  69  93 128 170 211 280 314 390
#     4  10  21  41  66  94 125 166 219 263 326 386
#     4  10  21  40  67  93 125 164 205 270 323 395
#     4  10  22  42  65  94 128 166 209 260 341 391
#     4  12  25  45  66  94 135 179 223 273 336 394
#     4  12  26  44  65  92 139 183 213 277 342 385
#     4  11  25  43  63 102 131 171 236 269 334 387
#
# _framework density 22.096975
#
# number of rings (size 3 to 8) (size 9 to 14) (size 15 to 20)
#    0.000    1.250    2.500    2.625    5.250    1.000 
#    6.750    0.000    0.000    0.000    0.000    0.000 
#    0.000    0.000    0.000    0.000    0.000    0.000 
#
# Total GULP energy -89200.404925 kJ/mol
# GULP energy per Si atom -5575.025308 kJ/mol
# Density = 2.204668 g / cm^3
# Si number density = 22.096975 Si / 1000 Ang^3
#
#
#
# Elastic Constant Matrix: (Units=GPa)
#
#
# Indices 1 2 3 4 5 6 
#
# 1 103.1447 37.3424 33.1679 -10.8397 -11.0451 14.9227
# 2 37.3424 77.6290 -11.6242 5.1375 -7.6348 14.3684
# 3 33.1679 -11.6242 83.8678 9.0668 -11.2196 6.2867
# 4 -10.8397 5.1375 9.0668 14.8628 -1.9813 -5.0797
# 5 -11.0451 -7.6348 -11.2196 -1.9813 34.1770 -2.9532
# 6 14.9227 14.3684 6.2867 -5.0797 -2.9532 26.0717
#
#
#
# Elastic Compliance Matrix: (Units=1/GPa)
#
#
# Indices 1 2 3 4 5 6 
#
# 1 0.024343 -0.017762 -0.016395 0.036471 0.001241 0.007056
# 2 -0.017762 0.030267 0.017250 -0.039750 0.002816 -0.018099
# 3 -0.016395 0.017250 0.026451 -0.038154 0.003860 -0.013498
# 4 0.036471 -0.039750 -0.038154 0.144365 0.002086 0.038595
# 5 0.001241 0.002816 0.003860 0.002086 0.031748 0.000810
# 6 0.007056 -0.018099 -0.013498 0.038595 0.000810 0.055158
#
#
# Mechanical properties :
#
#
# Convention : Reuss Voigt Hill
#
# Bulk Modulus (GPa) = 21.16523 42.49040 31.82781
# Shear Modulus (GPa) = 13.81626 28.73935 21.27780
#
# Velocity S-wave (km/s) = 2.50322 3.61030 3.10648
# Velocity P-wave (km/s) = 4.23721 6.05391 5.22512
#
# Compressibility (1/GPa) = 0.04724731
#
# Stress axis : x y z
#
# Youngs Moduli (GPa) = 41.08030 33.03974 37.80557
#
# Poissons Ratio (x) = 0.58686 0.61980
# Poissons Ratio (y) = 0.72967 -0.65215
# Poissons Ratio (z) = 0.67349 -0.56994
#
# Static dielectric constant tensor:
#      x y z
#    x 1.721190 0.006690 0.095370 
#    y 0.006690 1.851070 0.115360 
#    z 0.095370 0.115360 1.969180 
# 
# From -- ./inp_files/39421.got.cif
#   From: 2010.05.17/outbox.cif.g08.bks.cpg/sg2_20_cif.got.tgz:39421.got - 2010.06.03 11:33:40.
