data_PCOD9011638
_publ_section_title
;
Structure prediction by ZEFSAII (Michael W. Deem and Ramdas Pophale) SiO2 
 PCOD9011638
Probable space group: P -1
;
_chemical_formula_sum "Si O2"
_cell_formula_units_Z 14
_cell_length_a 7.541228
_cell_length_b 8.821956
_cell_length_c 16.016729
_cell_angle_alpha 115.781850
_cell_angle_beta 101.942167
_cell_angle_gamma 130.081522
_cell_volume 519.323774
_symmetry_space_group_name_H-M "P -1"
_symmetry_group_IT_number 2
_symmetry_cell_setting 'triclinic'
loop_
_space_group_symop_operation_xyz
x,y,z
-x,-y,-z
loop_
_atom_site_type_symbol
_atom_site_label
_atom_site_fract_x
_atom_site_fract_y
_atom_site_fract_z
Si Si1 0.303080 0.436465 0.389044
Si Si2 0.672091 0.822832 0.349157
Si Si3 0.713209 0.910993 0.774453
Si Si4 0.258538 0.531129 0.078584
Si Si5 0.414433 0.864773 0.574547
Si Si6 0.675649 0.285933 0.036360
Si Si7 0.884309 0.648345 0.296047
O O1 0.500000 0.500000 0.500000
O O2 0.462727 0.617297 0.360248
O O3 0.133154 0.134567 0.266010
O O4 0.206093 0.545316 0.442554
O O5 0.465912 0.626854 0.198383
O O6 0.754676 0.084095 0.421769
O O7 0.945483 0.891324 0.381947
O O8 0.395423 0.625573 0.732440
O O9 0.561447 0.911894 0.688015
O O10 0.999472 0.207518 0.931219
O O11 0.026673 0.487767 0.090533
O O12 0.468951 0.774083 0.081693
O O13 0.753630 0.151557 0.623029
O O14 0.728600 0.479902 0.151018
O O15 0.500000 0.000000 0.000000
#
# Coordination Sequence:
#
# PCOD9011638 Si02
#       7
#     2   2   2   2   2   2   2
#     4   9  22  42  67  92 128 175 216 269 324 375
#     4  11  24  39  66 102 124 170 223 265 317 395
#     4  10  21  40  66  98 130 172 216 260 322 392
#     4  11  21  39  64  96 136 163 210 267 319 384
#     4  11  21  46  67  89 136 171 214 272 319 369
#     4  11  21  39  64  94 135 177 204 258 329 386
#     4  11  23  39  65  97 128 175 211 262 330 375
#
# _framework density 26.958138000000002
#
# number of rings (size 3 to 8) (size 9 to 14) (size 15 to 20)
#    0.000    1.429    4.286    1.286    0.000    5.143 
#    0.000    5.714    0.000    9.429    0.000    0.000 
#    0.000    0.000    0.000    0.000    0.000    0.000 
#
# Total GULP energy -78283.991469 kJ/mol
# GULP energy per Si atom -5591.713676 kJ/mol
# Density = 2.689678 g / cm^3
# Si number density = 26.958138 Si / 1000 Ang^3
#
#
#
# Elastic Constant Matrix: (Units=GPa)
#
#
# Indices 1 2 3 4 5 6 
#
# 1 131.1905 46.7835 45.1654 8.8542 -37.1834 -28.4492
# 2 46.7835 192.9500 56.7312 -23.3259 -12.2374 6.4761
# 3 45.1654 56.7312 155.5238 -14.7290 -47.6349 -9.2590
# 4 8.8542 -23.3259 -14.7290 38.0992 -17.1646 -6.9165
# 5 -37.1834 -12.2374 -47.6349 -17.1646 58.5652 13.5292
# 6 -28.4492 6.4761 -9.2590 -6.9165 13.5292 43.0732
#
#
#
# Elastic Compliance Matrix: (Units=1/GPa)
#
#
# Indices 1 2 3 4 5 6 
#
# 1 0.011519 -0.002684 -0.000908 -0.001701 0.004068 0.006265
# 2 -0.002684 0.006827 -0.001379 0.003964 0.000356 -0.002571
# 3 -0.000908 -0.001379 0.011365 0.008682 0.010920 0.000015
# 4 -0.001701 0.003964 0.008682 0.040973 0.018616 0.000879
# 5 0.004068 0.000356 0.010920 0.018616 0.034750 -0.002945
# 6 0.006265 -0.002571 0.000015 0.000879 -0.002945 0.028810
#
#
# Mechanical properties :
#
#
# Convention : Reuss Voigt Hill
#
# Bulk Modulus (GPa) = 50.58882 86.33607 68.46244
# Shear Modulus (GPa) = 33.16178 50.01313 41.58746
#
# Velocity S-wave (km/s) = 3.51111 4.31189 3.93194
# Velocity P-wave (km/s) = 5.93664 7.54224 6.78709
#
# Compressibility (1/GPa) = 0.01976721
#
# Stress axis : x y z
#
# Youngs Moduli (GPa) = 86.81559 146.47495 87.99190
#
# Poissons Ratio (x) = 0.39310 0.07993
# Poissons Ratio (y) = 0.23299 0.12138
# Poissons Ratio (z) = 0.07886 0.20206
#
# Static dielectric constant tensor:
#      x y z
#    x 2.128890 -0.034260 0.011140 
#    y -0.034260 2.171310 -0.008630 
#    z 0.011140 -0.008630 2.114530 
# 
# From -- ./inp_files/493436.got.cif
#   From: 2010.05.17/outbox.cif.g08.bks.cpg/sg2_247_cif.got.tgz:493436.got - 2010.06.03 11:33:40.
