data_PCOD9011430
_publ_section_title
;
Structure prediction by ZEFSAII (Michael W. Deem and Ramdas Pophale) SiO2 
 PCOD9011430
Probable space group: P -1
;
_chemical_formula_sum "Si O2"
_cell_formula_units_Z 14
_cell_length_a 8.934689
_cell_length_b 9.463871
_cell_length_c 9.228667
_cell_angle_alpha 89.212870
_cell_angle_beta 108.769349
_cell_angle_gamma 67.188860
_cell_volume 672.433571
_symmetry_space_group_name_H-M "P -1"
_symmetry_group_IT_number 2
_symmetry_cell_setting 'triclinic'
loop_
_space_group_symop_operation_xyz
x,y,z
-x,-y,-z
loop_
_atom_site_type_symbol
_atom_site_label
_atom_site_fract_x
_atom_site_fract_y
_atom_site_fract_z
Si Si1 0.962937 0.220388 0.772055
Si Si2 0.365753 0.132172 0.855092
Si Si3 0.927308 0.381351 0.038662
Si Si4 0.020187 0.109227 0.272947
Si Si5 0.613398 0.549633 0.146759
Si Si6 0.369262 0.964739 0.560426
Si Si7 0.269607 0.702108 0.587525
O O1 0.856448 0.285814 0.588205
O O2 0.160887 0.206679 0.834810
O O3 0.983377 0.044243 0.795282
O O4 0.861545 0.323314 0.875979
O O5 0.430808 0.269357 0.857165
O O6 0.371282 0.042006 0.711416
O O7 0.500000 0.000000 0.000000
O O8 0.796497 0.473890 0.122367
O O9 0.045005 0.221771 0.159710
O O10 0.000000 0.500000 0.000000
O O11 0.850038 0.196010 0.317961
O O12 0.178878 0.051277 0.433116
O O13 0.630840 0.466845 0.308650
O O14 0.500000 0.500000 0.000000
O O15 0.394622 0.786451 0.583957
O O16 0.500000 0.000000 0.500000
#
# Coordination Sequence:
#
# PCOD9011430 Si02
#       7
#     2   2   2   2   2   2   2
#     4  11  21  42  68  96 125 169 223 258 311 387
#     4  12  25  41  67  95 131 170 212 266 325 381
#     4  11  24  39  63  98 126 169 215 263 310 372
#     4  10  21  40  66  90 130 170 211 262 313 380
#     4  11  26  44  65  92 135 171 207 265 330 377
#     4  11  23  40  65  98 127 162 217 266 318 377
#     4  10  21  44  67  91 126 173 210 259 323 380
#
# _framework density 20.819901999999999
#
# number of rings (size 3 to 8) (size 9 to 14) (size 15 to 20)
#    0.000    1.143    4.286    2.143    4.000    5.143 
#    0.000    1.429    0.000    0.000    0.000    0.000 
#    0.000    0.000    0.000    0.000    0.000    0.000 
#
# Total GULP energy -78150.552032 kJ/mol
# GULP energy per Si atom -5582.182288 kJ/mol
# Density = 2.077251 g / cm^3
# Si number density = 20.819902 Si / 1000 Ang^3
#
#
#
# Elastic Constant Matrix: (Units=GPa)
#
#
# Indices 1 2 3 4 5 6 
#
# 1 54.6752 18.5268 12.6295 -17.2747 -0.4652 31.8053
# 2 18.5268 133.9385 73.8288 -22.7185 7.9720 44.4522
# 3 12.6295 73.8288 118.4843 -11.1398 -3.9046 30.1902
# 4 -17.2747 -22.7185 -11.1398 42.5889 6.4732 -12.4449
# 5 -0.4652 7.9720 -3.9046 6.4732 30.3127 3.6147
# 6 31.8053 44.4522 30.1902 -12.4449 3.6147 35.7111
#
#
#
# Elastic Compliance Matrix: (Units=1/GPa)
#
#
# Indices 1 2 3 4 5 6 
#
# 1 0.053595 0.013767 0.003145 0.010728 0.002959 -0.064090
# 2 0.013767 0.019895 -0.005879 0.006639 -0.003694 -0.029369
# 3 0.003145 -0.005879 0.013870 -0.001314 0.004632 -0.008136
# 4 0.010728 0.006639 -0.001314 0.030663 -0.007673 -0.005246
# 5 0.002959 -0.003694 0.004632 -0.007673 0.037243 -0.008396
# 6 -0.064090 -0.029369 -0.008136 -0.005246 -0.008396 0.127540
#
#
# Mechanical properties :
#
#
# Convention : Reuss Voigt Hill
#
# Bulk Modulus (GPa) = 9.13850 57.45201 33.29525
# Shear Modulus (GPa) = 16.82286 35.19673 26.00979
#
# Velocity S-wave (km/s) = 2.84565 4.11607 3.53834
# Velocity P-wave (km/s) = 3.89818 7.08830 5.72013
#
# Compressibility (1/GPa) = 0.10942718
#
# Stress axis : x y z
#
# Youngs Moduli (GPa) = 18.65849 50.26324 72.09844
#
# Poissons Ratio (x) = -0.69196 -0.22678
# Poissons Ratio (y) = -0.25687 0.42384
# Poissons Ratio (z) = -0.05869 0.29548
#
# Static dielectric constant tensor:
#      x y z
#    x 1.577220 -0.014720 -0.262870 
#    y -0.014720 1.769970 -0.015210 
#    z -0.262870 -0.015210 1.472310 
# 
# From -- ./inp_files/153870.got.cif
#   From: 2010.05.17/outbox.cif.g08.bks.cpg/sg2_77_cif.got.tgz:153870.got - 2010.06.03 11:33:40.
