data_PCOD9011025
_publ_section_title
;
Structure prediction by ZEFSAII (Michael W. Deem and Ramdas Pophale) SiO2 
 PCOD9011025
Probable space group: P -1
;
_chemical_formula_sum "Si O2"
_cell_formula_units_Z 10
_cell_length_a 9.726442
_cell_length_b 10.100637
_cell_length_c 16.084708
_cell_angle_alpha 35.116572
_cell_angle_beta 57.814362
_cell_angle_gamma 38.291156
_cell_volume 536.113925
_symmetry_space_group_name_H-M "P -1"
_symmetry_group_IT_number 2
_symmetry_cell_setting 'triclinic'
loop_
_space_group_symop_operation_xyz
x,y,z
-x,-y,-z
loop_
_atom_site_type_symbol
_atom_site_label
_atom_site_fract_x
_atom_site_fract_y
_atom_site_fract_z
Si Si1 0.768364 0.314518 0.867546
Si Si2 0.948374 0.783349 0.625223
Si Si3 0.396262 0.022922 0.934213
Si Si4 0.007434 0.458407 0.616025
Si Si5 0.445941 0.115895 0.225289
O O1 0.635939 0.588776 0.841934
O O2 0.851068 0.401643 0.723848
O O3 0.655171 0.197194 0.931035
O O4 0.000000 0.000000 0.000000
O O5 0.162256 0.410592 0.786452
O O6 0.918860 0.750222 0.554609
O O7 0.711816 0.937769 0.666369
O O8 0.000000 0.000000 0.500000
O O9 0.568672 0.862000 0.881473
O O10 0.500000 0.000000 0.000000
O O11 0.000000 0.500000 0.500000
O O12 0.278852 0.166336 0.701901
#
# Coordination Sequence:
#
# PCOD9011025 Si02
#       5
#     2   2   2   2   2
#     4  11  20  41  64  89 120 159 209 249 300 367
#     4  10  23  41  57  86 128 163 201 249 311 367
#     4  11  24  38  61  97 120 159 211 254 303 364
#     4  10  23  38  62  93 117 159 211 247 302 370
#     4  10  21  40  65  81 124 165 199 255 307 351
#
# _framework density 18.652752
#
# number of rings (size 3 to 8) (size 9 to 14) (size 15 to 20)
#    0.000    1.600    6.000    0.600    0.000   12.000 
#    0.000    0.000    0.000    0.000    0.000    0.000 
#    0.000    0.000    0.000    0.000    0.000    0.000 
#
# Total GULP energy -55705.674497 kJ/mol
# GULP energy per Si atom -5570.567450 kJ/mol
# Density = 1.861030 g / cm^3
# Si number density = 18.652752 Si / 1000 Ang^3
#
#
#
# Elastic Constant Matrix: (Units=GPa)
#
#
# Indices 1 2 3 4 5 6 
#
# 1 148.4182 71.9513 63.9891 32.0044 -31.6457 29.8623
# 2 71.9513 135.8741 59.8531 40.7952 -16.6449 9.2511
# 3 63.9891 59.8531 81.6753 27.8097 -26.1519 27.1012
# 4 32.0044 40.7952 27.8097 31.5488 6.3396 16.0306
# 5 -31.6457 -16.6449 -26.1519 6.3396 51.3572 5.8488
# 6 29.8623 9.2511 27.1012 16.0306 5.8488 28.4635
#
#
#
# Elastic Compliance Matrix: (Units=1/GPa)
#
#
# Indices 1 2 3 4 5 6 
#
# 1 0.014636 -0.005008 0.002757 -0.005010 0.011222 -0.015837
# 2 -0.005008 0.019398 -0.011332 -0.020620 -0.002515 0.021870
# 3 0.002757 -0.011332 0.044456 -0.012337 0.026752 -0.040087
# 4 -0.005010 -0.020620 -0.012337 0.090579 -0.024701 -0.022233
# 5 0.011222 -0.002515 0.026752 -0.024701 0.045880 -0.031943
# 6 -0.015837 0.021870 -0.040087 -0.022233 -0.031943 0.101894
#
#
# Mechanical properties :
#
#
# Convention : Reuss Voigt Hill
#
# Bulk Modulus (GPa) = 19.48429 84.17271 51.82850
# Shear Modulus (GPa) = 13.84590 33.61883 23.73237
#
# Velocity S-wave (km/s) = 2.72747 4.25002 3.57084
# Velocity P-wave (km/s) = 4.51523 8.32512 6.69683
#
# Compressibility (1/GPa) = 0.05132339
#
# Stress axis : x y z
#
# Youngs Moduli (GPa) = 68.32288 51.55280 22.49409
#
# Poissons Ratio (x) = 0.25817 -0.06201
# Poissons Ratio (y) = 0.34215 0.25491
# Poissons Ratio (z) = -0.18836 0.58422
#
# Static dielectric constant tensor:
#      x y z
#    x 1.622970 0.082120 0.002060 
#    y 0.082120 1.792430 -0.089900 
#    z 0.002060 -0.089900 1.686060 
# 
# From -- ./inp_files/15297.got.cif
#   From: 2010.05.17/outbox.cif.g08.bks.cpg/sg2_8_cif.got.tgz:15297.got - 2010.06.03 11:33:40.
