data_PCOD9011995
_publ_section_title
;
Structure prediction by ZEFSAII (Michael W. Deem and Ramdas Pophale) SiO2 
 PCOD9011995
Probable space group: P -1
;
_chemical_formula_sum "Si O2"
_cell_formula_units_Z 16
_cell_length_a 13.387375
_cell_length_b 9.686259
_cell_length_c 8.842867
_cell_angle_alpha 99.159670
_cell_angle_beta 129.389748
_cell_angle_gamma 50.646680
_cell_volume 625.948217
_symmetry_space_group_name_H-M "P -1"
_symmetry_group_IT_number 2
_symmetry_cell_setting 'triclinic'
loop_
_space_group_symop_operation_xyz
x,y,z
-x,-y,-z
loop_
_atom_site_type_symbol
_atom_site_label
_atom_site_fract_x
_atom_site_fract_y
_atom_site_fract_z
Si Si1 0.794104 0.100758 0.811696
Si Si2 0.736159 0.587946 0.454166
Si Si3 0.354704 0.078386 0.726454
Si Si4 0.232391 0.750652 0.514992
Si Si5 0.183329 0.869347 0.819833
Si Si6 0.721856 0.734495 0.006599
Si Si7 0.948589 0.347365 0.333979
Si Si8 0.719081 0.837006 0.707223
O O1 0.720805 0.225648 0.604622
O O2 0.782018 0.944720 0.750530
O O3 0.725204 0.172214 0.934409
O O4 0.000000 0.000000 0.000000
O O5 0.603154 0.795144 0.272189
O O6 0.688094 0.466191 0.428567
O O7 0.898240 0.451622 0.466028
O O8 0.782893 0.648119 0.651341
O O9 0.512030 0.853955 0.795190
O O10 0.161193 0.186941 0.494568
O O11 0.313822 0.127775 0.871066
O O12 0.270986 0.807129 0.721747
O O13 0.011191 0.905217 0.332820
O O14 0.128902 0.748036 0.758286
O O15 0.786214 0.762674 0.927455
O O16 0.842710 0.517385 0.138938
O O17 0.500000 0.000000 0.500000
#
# Coordination Sequence:
#
# PCOD9011995 Si02
#       8
#     2   2   2   2   2   2   2   2
#     4  10  24  43  66 103 141 191 248 302 370 451
#     4  10  21  40  68 103 140 187 250 298 366 445
#     4  10  21  41  66 105 146 183 250 310 363 443
#     4   9  20  40  67  96 140 193 230 306 378 424
#     4   9  20  40  67  99 142 184 246 301 366 450
#     4  10  22  40  68 100 146 195 236 306 381 429
#     4  10  22  41  73 110 141 190 252 313 365 449
#     4  12  26  46  70 102 153 198 241 315 377 440
#
# _framework density 25.561219000000001
#
# number of rings (size 3 to 8) (size 9 to 14) (size 15 to 20)
#    0.000    2.000    1.250    1.500    5.250    7.000 
#    4.500    5.625    2.750    1.500    0.000    0.000 
#    0.000    0.000    0.000    0.000    0.000    0.000 
#
# Total GULP energy -89298.868471 kJ/mol
# GULP energy per Si atom -5581.179279 kJ/mol
# Density = 2.550304 g / cm^3
# Si number density = 25.561219 Si / 1000 Ang^3
#
#
#
# Elastic Constant Matrix: (Units=GPa)
#
#
# Indices 1 2 3 4 5 6 
#
# 1 74.1635 52.5159 66.2658 -7.2863 -18.9118 15.0177
# 2 52.5159 124.8822 76.2882 5.6370 -8.7089 7.8072
# 3 66.2658 76.2882 151.4517 -4.3634 -55.5688 0.4010
# 4 -7.2863 5.6370 -4.3634 60.4285 -11.7981 -6.1848
# 5 -18.9118 -8.7089 -55.5688 -11.7981 63.2176 -9.9025
# 6 15.0177 7.8072 0.4010 -6.1848 -9.9025 25.7931
#
#
#
# Elastic Compliance Matrix: (Units=1/GPa)
#
#
# Indices 1 2 3 4 5 6 
#
# 1 0.030759 -0.003592 -0.014073 -0.000255 -0.006726 -0.019246
# 2 -0.003592 0.015780 -0.010215 -0.005401 -0.010094 -0.007696
# 3 -0.014073 -0.010215 0.026203 0.007648 0.022167 0.021223
# 4 -0.000255 -0.005401 0.007648 0.020970 0.011560 0.011131
# 5 -0.006726 -0.010094 0.022167 0.011560 0.037804 0.023912
# 6 -0.019246 -0.007696 0.021223 0.011131 0.023912 0.063825
#
#
# Mechanical properties :
#
#
# Convention : Reuss Voigt Hill
#
# Bulk Modulus (GPa) = 58.88967 82.29301 70.59134
# Shear Modulus (GPa) = 19.47338 40.24966 29.86152
#
# Velocity S-wave (km/s) = 2.76313 3.97248 3.42165
# Velocity P-wave (km/s) = 5.76789 7.30104 6.57927
#
# Compressibility (1/GPa) = 0.01698091
#
# Stress axis : x y z
#
# Youngs Moduli (GPa) = 32.51121 63.37309 38.16338
#
# Poissons Ratio (x) = 0.22766 0.53706
# Poissons Ratio (y) = 0.11679 0.38985
# Poissons Ratio (z) = 0.45752 0.64737
#
# Static dielectric constant tensor:
#      x y z
#    x 2.125250 -0.067660 -0.048200 
#    y -0.067660 1.992350 0.008930 
#    z -0.048200 0.008930 2.150910 
# 
# From -- ./inp_files/298589.got.cif
#   From: 2010.05.17/outbox.cif.g08.bks.cpg/sg2_150_cif.got.tgz:298589.got - 2010.06.03 11:33:40.
