data_PCOD9011434
_publ_section_title
;
Structure prediction by ZEFSAII (Michael W. Deem and Ramdas Pophale) SiO2 
 PCOD9011434
Probable space group: P -1
;
_chemical_formula_sum "Si O2"
_cell_formula_units_Z 16
_cell_length_a 9.858106
_cell_length_b 8.356512
_cell_length_c 17.815949
_cell_angle_alpha 78.688347
_cell_angle_beta 132.796676
_cell_angle_gamma 135.553834
_cell_volume 623.630802
_symmetry_space_group_name_H-M "P -1"
_symmetry_group_IT_number 2
_symmetry_cell_setting 'triclinic'
loop_
_space_group_symop_operation_xyz
x,y,z
-x,-y,-z
loop_
_atom_site_type_symbol
_atom_site_label
_atom_site_fract_x
_atom_site_fract_y
_atom_site_fract_z
Si Si1 0.887013 0.346292 0.655070
Si Si2 0.786027 0.285793 0.039184
Si Si3 0.831236 0.654135 0.376281
Si Si4 0.374780 0.942782 0.778503
Si Si5 0.582631 0.820482 0.614009
Si Si6 0.842452 0.823210 0.592096
Si Si7 0.845424 0.747329 0.873345
Si Si8 0.896405 0.153584 0.874073
O O1 0.607727 0.254995 0.524833
O O2 0.025185 0.362144 0.630239
O O3 0.165219 0.651359 0.764707
O O4 0.743822 0.103313 0.675839
O O5 0.044168 0.324420 0.130444
O O6 0.887718 0.533964 0.085571
O O7 0.500000 0.000000 0.000000
O O8 0.643344 0.205846 0.908723
O O9 0.674220 0.449949 0.406135
O O10 0.528526 0.523297 0.236918
O O11 0.091148 0.978104 0.456979
O O12 0.112732 0.888931 0.668577
O O13 0.548511 0.981326 0.770558
O O14 0.858186 0.905316 0.675555
O O15 0.500000 0.500000 0.500000
O O16 0.913074 0.987460 0.854854
O O17 0.011741 0.835000 0.006865
#
# Coordination Sequence:
#
# PCOD9011434 Si02
#       8
#     2   2   2   2   2   2   2   2
#     4  10  21  42  63  88 125 165 209 255 320 371
#     4  11  25  40  60  95 129 159 210 269 315 380
#     4  11  22  40  65  92 124 164 213 259 313 377
#     4  11  21  43  62  83 125 168 202 259 321 374
#     4  10  23  40  62  91 126 164 210 264 306 379
#     4  11  23  40  62  90 128 168 208 257 318 374
#     4  10  21  40  66  91 118 166 213 255 320 380
#     4  10  21  42  66  86 122 168 210 257 318 383
#
# _framework density 25.656205
#
# number of rings (size 3 to 8) (size 9 to 14) (size 15 to 20)
#    0.000    1.500    2.500    3.375    1.750    2.000 
#    0.000    0.000    0.000    0.000    0.000    0.000 
#    0.000    0.000    0.000    0.000    0.000    0.000 
#
# Total GULP energy -89354.918643 kJ/mol
# GULP energy per Si atom -5584.682415 kJ/mol
# Density = 2.559781 g / cm^3
# Si number density = 25.656205 Si / 1000 Ang^3
#
#
#
# Elastic Constant Matrix: (Units=GPa)
#
#
# Indices 1 2 3 4 5 6 
#
# 1 101.3159 56.4899 28.1755 -5.7848 21.5859 -6.8396
# 2 56.4899 240.9543 25.0230 31.6601 5.0775 -15.2500
# 3 28.1755 25.0230 66.6171 24.2202 20.1804 -12.8001
# 4 -5.7848 31.6601 24.2202 45.6147 -11.4632 -4.2304
# 5 21.5859 5.0775 20.1804 -11.4632 47.0412 6.4733
# 6 -6.8396 -15.2500 -12.8001 -4.2304 6.4733 47.6439
#
#
#
# Elastic Compliance Matrix: (Units=1/GPa)
#
#
# Indices 1 2 3 4 5 6 
#
# 1 0.014720 -0.003731 -0.007471 0.008118 -0.001139 -0.000213
# 2 -0.003731 0.005694 0.002403 -0.005955 -0.001608 0.001622
# 3 -0.007471 0.002403 0.033205 -0.023977 -0.018151 0.008955
# 4 0.008118 -0.005955 -0.023977 0.043982 0.018723 -0.005821
# 5 -0.001139 -0.001608 -0.018151 0.018723 0.035503 -0.008716
# 6 -0.000213 0.001622 0.008955 -0.005821 -0.008716 0.024551
#
#
# Mechanical properties :
#
#
# Convention : Reuss Voigt Hill
#
# Bulk Modulus (GPa) = 27.76202 69.80714 48.78458
# Shear Modulus (GPa) = 26.70069 48.00654 37.35362
#
# Velocity S-wave (km/s) = 3.22950 4.33037 3.81980
# Velocity P-wave (km/s) = 4.97499 7.22984 6.20569
#
# Compressibility (1/GPa) = 0.03602043
#
# Stress axis : x y z
#
# Youngs Moduli (GPa) = 67.93443 175.61198 30.11588
#
# Poissons Ratio (x) = 0.65524 0.22501
# Poissons Ratio (y) = 0.25348 -0.07237
# Poissons Ratio (z) = 0.50756 -0.42199
#
# Static dielectric constant tensor:
#      x y z
#    x 2.080610 -0.057070 -0.083080 
#    y -0.057070 2.110120 -0.038580 
#    z -0.083080 -0.038580 2.084470 
# 
# From -- ./inp_files/609824.got.cif
#   From: 2010.05.17/outbox.cif.g08.bks.cpg/sg2_305_cif.got.tgz:609824.got - 2010.06.03 11:33:40.
