data_PCOD9011952
_publ_section_title
;
Structure prediction by ZEFSAII (Michael W. Deem and Ramdas Pophale) SiO2 
 PCOD9011952
Probable space group: P -1
;
_chemical_formula_sum "Si O2"
_cell_formula_units_Z 8
_cell_length_a 5.258664
_cell_length_b 10.910530
_cell_length_c 9.554260
_cell_angle_alpha 132.705240
_cell_angle_beta 99.508261
_cell_angle_gamma 106.551533
_cell_volume 332.417704
_symmetry_space_group_name_H-M "P -1"
_symmetry_group_IT_number 2
_symmetry_cell_setting 'triclinic'
loop_
_space_group_symop_operation_xyz
x,y,z
-x,-y,-z
loop_
_atom_site_type_symbol
_atom_site_label
_atom_site_fract_x
_atom_site_fract_y
_atom_site_fract_z
Si Si1 0.006351 0.552949 0.700422
Si Si2 0.059709 0.917487 0.082810
Si Si3 0.516033 0.512511 0.808566
Si Si4 0.673448 0.889677 0.461245
O O1 0.173914 0.463002 0.727539
O O2 0.000000 0.500000 0.500000
O O3 0.664368 0.483356 0.659479
O O4 0.191643 0.787353 0.937929
O O5 0.758957 0.750642 0.016916
O O6 0.260814 0.080221 0.342654
O O7 0.000000 0.000000 0.000000
O O8 0.510251 0.346607 0.777286
O O9 0.500000 0.000000 0.500000
O O10 0.000000 0.000000 0.500000
#
# Coordination Sequence:
#
# PCOD9011952 Si02
#       4
#     2   2   2   2
#     4  10  21  40  68 100 139 172 218 288 344 391
#     4  10  26  44  75 103 135 182 232 283 347 405
#     4  10  24  44  66  99 141 174 230 282 338 402
#     4  12  28  47  70 101 142 186 230 279 346 412
#
# _framework density 24.066105
#
# number of rings (size 3 to 8) (size 9 to 14) (size 15 to 20)
#    1.500    0.000    0.000    3.750    7.000    3.000 
#    0.000    0.000    0.000    0.000    0.000    0.000 
#    0.000    0.000    0.000    0.000    0.000    0.000 
#
# Total GULP energy -44540.267067 kJ/mol
# GULP energy per Si atom -5567.533383 kJ/mol
# Density = 2.401133 g / cm^3
# Si number density = 24.066105 Si / 1000 Ang^3
#
#
#
# Elastic Constant Matrix: (Units=GPa)
#
#
# Indices 1 2 3 4 5 6 
#
# 1 87.6920 16.7173 21.7581 9.2693 -27.6557 -36.6105
# 2 16.7173 106.1738 39.1733 21.2406 6.0489 -22.4540
# 3 21.7581 39.1733 101.5897 6.0117 4.1884 -2.3066
# 4 9.2693 21.2406 6.0117 53.1001 1.8796 -7.9468
# 5 -27.6557 6.0489 4.1884 1.8796 31.1261 3.5332
# 6 -36.6105 -22.4540 -2.3066 -7.9468 3.5332 38.5497
#
#
#
# Elastic Compliance Matrix: (Units=1/GPa)
#
#
# Indices 1 2 3 4 5 6 
#
# 1 0.036191 0.003586 -0.009429 -0.002834 0.029194 0.032635
# 2 0.003586 0.013914 -0.005675 -0.004017 0.000318 0.010313
# 3 -0.009429 -0.005675 0.014084 0.001040 -0.008045 -0.010465
# 4 -0.002834 -0.004017 0.001040 0.020868 -0.003094 -0.000383
# 5 0.029194 0.000318 -0.008045 -0.003094 0.056824 0.021583
# 6 0.032635 0.010313 -0.010465 -0.000383 0.021583 0.060257
#
#
# Mechanical properties :
#
#
# Convention : Reuss Voigt Hill
#
# Bulk Modulus (GPa) = 24.29930 50.08365 37.19147
# Shear Modulus (GPa) = 20.93000 39.07563 30.00282
#
# Velocity S-wave (km/s) = 2.95225 4.03386 3.53467
# Velocity P-wave (km/s) = 4.66260 6.52320 5.66974
#
# Compressibility (1/GPa) = 0.04115346
#
# Stress axis : x y z
#
# Youngs Moduli (GPa) = 27.63140 71.86871 71.00439
#
# Poissons Ratio (x) = -0.25772 0.66949
# Poissons Ratio (y) = -0.09908 0.40292
# Poissons Ratio (z) = 0.26053 0.40783
#
# Static dielectric constant tensor:
#      x y z
#    x 2.119090 0.163660 0.059180 
#    y 0.163660 2.024560 -0.009430 
#    z 0.059180 -0.009430 1.722890 
# 
# From -- ./inp_files/4290.got.cif
#   From: 2010.05.17/outbox.cif.g08.bks.cpg/sg2_3_cif.got.tgz:4290.got - 2010.06.03 11:33:40.
