data_PCOD9011482
_publ_section_title
;
Structure prediction by ZEFSAII (Michael W. Deem and Ramdas Pophale) SiO2 
 PCOD9011482
Probable space group: P -1
;
_chemical_formula_sum "Si O2"
_cell_formula_units_Z 10
_cell_length_a 6.875483
_cell_length_b 15.965070
_cell_length_c 10.901230
_cell_angle_alpha 23.917673
_cell_angle_beta 121.545532
_cell_angle_gamma 115.204314
_cell_volume 408.657298
_symmetry_space_group_name_H-M "P -1"
_symmetry_group_IT_number 2
_symmetry_cell_setting 'triclinic'
loop_
_space_group_symop_operation_xyz
x,y,z
-x,-y,-z
loop_
_atom_site_type_symbol
_atom_site_label
_atom_site_fract_x
_atom_site_fract_y
_atom_site_fract_z
Si Si1 0.726997 0.854899 0.219558
Si Si2 0.470459 0.323172 0.825217
Si Si3 0.320003 0.284476 0.094396
Si Si4 0.173967 0.873750 0.477062
Si Si5 0.893376 0.396425 0.961352
O O1 0.678928 0.823590 0.100925
O O2 0.745218 0.625357 0.595467
O O3 0.970592 0.925369 0.241580
O O4 0.500000 0.000000 0.000000
O O5 0.500000 0.500000 0.500000
O O6 0.365870 0.383212 0.844537
O O7 0.737983 0.238991 0.053716
O O8 0.080332 0.706609 0.760122
O O9 0.124804 0.408941 0.946883
O O10 0.221601 0.076222 0.297607
O O11 0.440195 0.769487 0.679402
#
# Coordination Sequence:
#
# PCOD9011482 Si02
#       5
#     2   2   2   2   2
#     4  11  23  39  62  93 129 165 203 256 314 362
#     4   9  21  40  62  89 123 162 202 253 310 366
#     4  10  21  40  66  93 120 163 213 251 307 372
#     4  10  22  40  64  94 125 161 207 257 307 369
#     4  10  21  42  68  89 123 168 208 254 304 370
#
# _framework density 24.470381
#
# number of rings (size 3 to 8) (size 9 to 14) (size 15 to 20)
#    0.000    2.000    0.000    2.400    0.000    8.000 
#    0.000   12.000    0.000    3.600    0.000    0.000 
#    0.000    0.000    0.000    0.000    0.000    0.000 
#
# Total GULP energy -55775.251408 kJ/mol
# GULP energy per Si atom -5577.525141 kJ/mol
# Density = 2.441469 g / cm^3
# Si number density = 24.470381 Si / 1000 Ang^3
#
#
#
# Elastic Constant Matrix: (Units=GPa)
#
#
# Indices 1 2 3 4 5 6 
#
# 1 180.2391 80.8076 67.9368 6.6893 18.5113 8.1236
# 2 80.8076 138.9286 26.7463 28.8533 36.4889 47.4850
# 3 67.9368 26.7463 93.0280 2.8808 13.5153 -9.0339
# 4 6.6893 28.8533 2.8808 26.7442 6.5939 4.8888
# 5 18.5113 36.4889 13.5153 6.5939 45.5811 3.6679
# 6 8.1236 47.4850 -9.0339 4.8888 3.6679 60.9730
#
#
#
# Elastic Compliance Matrix: (Units=1/GPa)
#
#
# Indices 1 2 3 4 5 6 
#
# 1 0.010741 -0.008237 -0.005717 0.005468 0.002852 0.003527
# 2 -0.008237 0.024449 -0.000197 -0.018397 -0.012239 -0.015761
# 3 -0.005717 -0.000197 0.015665 -0.000066 -0.002429 0.003387
# 4 0.005468 -0.018397 -0.000066 0.053209 0.004099 0.009077
# 5 0.002852 -0.012239 -0.002429 0.004099 0.030171 0.006648
# 6 0.003527 -0.015761 0.003387 0.009077 0.006648 0.027580
#
#
# Mechanical properties :
#
#
# Convention : Reuss Voigt Hill
#
# Bulk Modulus (GPa) = 44.33879 84.79745 64.56812
# Shear Modulus (GPa) = 25.29919 42.44001 33.86960
#
# Velocity S-wave (km/s) = 3.21887 4.16906 3.72439
# Velocity P-wave (km/s) = 5.65452 7.60941 6.70361
#
# Compressibility (1/GPa) = 0.02255362
#
# Stress axis : x y z
#
# Youngs Moduli (GPa) = 93.09814 40.90075 63.83691
#
# Poissons Ratio (x) = 0.33691 0.36497
# Poissons Ratio (y) = 0.76687 0.01255
# Poissons Ratio (z) = 0.53226 0.00804
#
# Static dielectric constant tensor:
#      x y z
#    x 1.979550 0.043920 -0.056650 
#    y 0.043920 2.206320 0.016610 
#    z -0.056650 0.016610 1.990130 
# 
# From -- ./inp_files/367346.got.cif
#   From: 2010.05.17/outbox.cif.g08.bks.cpg/sg2_184_cif.got.tgz:367346.got - 2010.06.03 11:33:40.
