data_PCOD9011744
_publ_section_title
;
Structure prediction by ZEFSAII (Michael W. Deem and Ramdas Pophale) SiO2 
 PCOD9011744
Probable space group: P -1
;
_chemical_formula_sum "Si O2"
_cell_formula_units_Z 10
_cell_length_a 8.862765
_cell_length_b 6.490700
_cell_length_c 12.902029
_cell_angle_alpha 43.062074
_cell_angle_beta 127.029143
_cell_angle_gamma 133.260229
_cell_volume 361.276642
_symmetry_space_group_name_H-M "P -1"
_symmetry_group_IT_number 2
_symmetry_cell_setting 'triclinic'
loop_
_space_group_symop_operation_xyz
x,y,z
-x,-y,-z
loop_
_atom_site_type_symbol
_atom_site_label
_atom_site_fract_x
_atom_site_fract_y
_atom_site_fract_z
Si Si1 0.344188 0.673451 0.367712
Si Si2 0.754999 0.411488 0.419939
Si Si3 0.496580 0.783285 0.176472
Si Si4 0.111500 0.476589 0.780061
Si Si5 0.133079 0.321041 0.074737
O O1 0.500000 0.500000 0.500000
O O2 0.350481 0.794867 0.443615
O O3 0.411389 0.872302 0.213435
O O4 0.090428 0.443330 0.329655
O O5 0.706450 0.735341 0.293451
O O6 0.000000 0.500000 0.500000
O O7 0.726902 0.322277 0.318582
O O8 0.320581 0.416110 0.199443
O O9 0.500000 0.000000 0.000000
O O10 0.002944 0.077699 0.850693
O O11 0.203248 0.482800 0.929568
O O12 0.000000 0.500000 0.000000
#
# Coordination Sequence:
#
# PCOD9011744 Si02
#       5
#     2   2   2   2   2
#     4   9  19  40  65  87 130 169 204 260 314 379
#     4   9  20  40  63  88 129 168 206 258 315 381
#     4  11  22  39  68  94 125 167 215 265 311 374
#     4  10  21  40  67  90 128 166 208 263 318 373
#     4  11  22  38  65  98 128 160 212 269 317 365
#
# _framework density 27.67962
#
# number of rings (size 3 to 8) (size 9 to 14) (size 15 to 20)
#    0.000    2.000    2.000    1.200    2.800    0.800 
#    0.000   10.000   17.600    0.000    0.000    0.000 
#    0.000    0.000    0.000    0.000    0.000    0.000 
#
# Total GULP energy -55907.620428 kJ/mol
# GULP energy per Si atom -5590.762043 kJ/mol
# Density = 2.761662 g / cm^3
# Si number density = 27.679620 Si / 1000 Ang^3
#
#
#
# Elastic Constant Matrix: (Units=GPa)
#
#
# Indices 1 2 3 4 5 6 
#
# 1 228.0230 31.8644 93.0561 0.4207 -50.3740 -18.3467
# 2 31.8644 109.9221 49.3330 29.5761 -12.7158 -5.7099
# 3 93.0561 49.3330 169.4975 13.9397 -46.4912 -14.8263
# 4 0.4207 29.5761 13.9397 62.8349 -22.7420 -6.4971
# 5 -50.3740 -12.7158 -46.4912 -22.7420 96.5773 5.0687
# 6 -18.3467 -5.7099 -14.8263 -6.4971 5.0687 22.0486
#
#
#
# Elastic Compliance Matrix: (Units=1/GPa)
#
#
# Indices 1 2 3 4 5 6 
#
# 1 0.006282 -0.000840 -0.002443 0.002085 0.002300 0.003452
# 2 -0.000840 0.012015 -0.003102 -0.005651 -0.001630 -0.000964
# 3 -0.002443 -0.003102 0.009077 0.000740 0.002711 0.002862
# 4 0.002085 -0.005651 0.000740 0.020914 0.005325 0.005708
# 5 0.002300 -0.001630 0.002711 0.005325 0.013808 0.001709
# 6 0.003452 -0.000964 0.002862 0.005708 0.001709 0.051191
#
#
# Mechanical properties :
#
#
# Convention : Reuss Voigt Hill
#
# Bulk Modulus (GPa) = 68.47918 95.10551 81.79234
# Shear Modulus (GPa) = 38.18934 58.50476 48.34705
#
# Velocity S-wave (km/s) = 3.71845 4.60242 4.18385
# Velocity P-wave (km/s) = 6.57491 7.91688 7.27690
#
# Compressibility (1/GPa) = 0.01460298
#
# Stress axis : x y z
#
# Youngs Moduli (GPa) = 159.18825 83.22801 110.16738
#
# Poissons Ratio (x) = 0.06992 0.26914
# Poissons Ratio (y) = 0.13374 0.34179
# Poissons Ratio (z) = 0.38889 0.25821
#
# Static dielectric constant tensor:
#      x y z
#    x 2.156430 0.069520 -0.013010 
#    y 0.069520 2.248020 0.021070 
#    z -0.013010 0.021070 2.151470 
# 
# From -- ./inp_files/22887.got.cif
#   From: 2010.05.17/outbox.cif.g08.bks.cpg/sg2_12_cif.got.tgz:22887.got - 2010.06.03 11:33:40.
