data_PCOD9011522
_publ_section_title
;
Structure prediction by ZEFSAII (Michael W. Deem and Ramdas Pophale) SiO2 
 PCOD9011522
Probable space group: P -1
;
_chemical_formula_sum "Si O2"
_cell_formula_units_Z 16
_cell_length_a 9.193233
_cell_length_b 5.382693
_cell_length_c 22.275662
_cell_angle_alpha 55.434030
_cell_angle_beta 132.035648
_cell_angle_gamma 126.202899
_cell_volume 632.894954
_symmetry_space_group_name_H-M "P -1"
_symmetry_group_IT_number 2
_symmetry_cell_setting 'triclinic'
loop_
_space_group_symop_operation_xyz
x,y,z
-x,-y,-z
loop_
_atom_site_type_symbol
_atom_site_label
_atom_site_fract_x
_atom_site_fract_y
_atom_site_fract_z
Si Si1 0.831419 0.838826 0.527406
Si Si2 0.548026 0.165566 0.138119
Si Si3 0.385661 0.648356 0.562843
Si Si4 0.356030 0.185204 0.210984
Si Si5 0.985136 0.584397 0.163289
Si Si6 0.277916 0.373395 0.690948
Si Si7 0.146148 0.694546 0.066543
Si Si8 0.876212 0.903315 0.662684
O O1 0.673183 0.526426 0.493431
O O2 0.908058 0.767205 0.624155
O O3 0.732414 0.109124 0.483537
O O4 0.000000 0.000000 0.500000
O O5 0.438776 0.221070 0.160850
O O6 0.742555 0.472516 0.129950
O O7 0.647496 0.893049 0.219619
O O8 0.347328 0.002266 0.062369
O O9 0.315316 0.368395 0.631494
O O10 0.632149 0.829504 0.611774
O O11 0.566722 0.277766 0.294568
O O12 0.255418 0.455148 0.156341
O O13 0.167132 0.855543 0.212400
O O14 0.012979 0.723716 0.083893
O O15 0.049538 0.275507 0.238942
O O16 0.035538 0.269383 0.653779
O O17 0.000000 0.500000 0.000000
#
# Coordination Sequence:
#
# PCOD9011522 Si02
#       8
#     2   2   2   2   2   2   2   2
#     4  12  27  49  68  99 139 184 233 291 353 411
#     4   9  21  40  61  98 131 168 222 269 330 398
#     4  12  26  46  70  99 137 182 237 289 351 412
#     4  10  21  40  66  94 127 172 217 270 331 398
#     4  10  23  42  65  99 128 168 221 271 334 399
#     4  10  23  41  67  94 131 174 223 278 337 401
#     4  10  22  42  64  93 136 172 211 267 329 400
#     4  11  24  46  67  96 134 175 225 284 343 411
#
# _framework density 25.280657000000001
#
# number of rings (size 3 to 8) (size 9 to 14) (size 15 to 20)
#    0.000    1.500    1.250    3.375    3.500    6.500 
#    4.500    1.250    0.000    0.000    0.000    0.000 
#    0.000    0.000    0.000    0.000    0.000    0.000 
#
# Total GULP energy -89406.008221 kJ/mol
# GULP energy per Si atom -5587.875514 kJ/mol
# Density = 2.522312 g / cm^3
# Si number density = 25.280657 Si / 1000 Ang^3
#
#
#
# Elastic Constant Matrix: (Units=GPa)
#
#
# Indices 1 2 3 4 5 6 
#
# 1 136.7919 61.0230 22.2459 9.1134 7.1813 37.0396
# 2 61.0230 136.4011 36.3024 28.3474 3.4025 48.3769
# 3 22.2459 36.3024 94.7491 19.8948 -2.9074 19.6048
# 4 9.1134 28.3474 19.8948 41.4276 3.2405 3.9489
# 5 7.1813 3.4025 -2.9074 3.2405 26.9860 2.5519
# 6 37.0396 48.3769 19.6048 3.9489 2.5519 58.0912
#
#
#
# Elastic Compliance Matrix: (Units=1/GPa)
#
#
# Indices 1 2 3 4 5 6 
#
# 1 0.009775 -0.003111 -0.000624 0.000761 -0.002047 -0.003393
# 2 -0.003111 0.013503 -0.001162 -0.007249 0.000665 -0.008406
# 3 -0.000624 -0.001162 0.012884 -0.005196 0.002584 -0.002743
# 4 0.000761 -0.007249 -0.005196 0.031236 -0.004106 0.005361
# 5 -0.002047 0.000665 0.002584 -0.004106 0.038433 -0.001530
# 6 -0.003393 -0.008406 -0.002743 0.005361 -0.001530 0.027007
#
#
# Mechanical properties :
#
#
# Convention : Reuss Voigt Hill
#
# Bulk Modulus (GPa) = 37.92199 67.45387 52.68793
# Shear Modulus (GPa) = 33.02057 41.85903 37.43980
#
# Velocity S-wave (km/s) = 3.61800 4.07353 3.85251
# Velocity P-wave (km/s) = 5.69967 6.99034 6.37774
#
# Compressibility (1/GPa) = 0.02636992
#
# Stress axis : x y z
#
# Youngs Moduli (GPa) = 102.30041 74.05531 77.61850
#
# Poissons Ratio (x) = 0.23037 0.04841
# Poissons Ratio (y) = 0.31824 0.09016
# Poissons Ratio (z) = 0.06381 0.08602
#
# Static dielectric constant tensor:
#      x y z
#    x 2.023890 0.003220 -0.002740 
#    y 0.003220 2.093090 0.024430 
#    z -0.002740 0.024430 2.068930 
# 
# From -- ./inp_files/139015.got.cif
#   From: 2010.05.17/outbox.cif.g08.bks.cpg/sg2_70_cif.got.tgz:139015.got - 2010.06.03 11:33:40.
