data_PCOD9011974
_publ_section_title
;
Structure prediction by ZEFSAII (Michael W. Deem and Ramdas Pophale) SiO2 
 PCOD9011974
Probable space group: P -1
;
_chemical_formula_sum "Si O2"
_cell_formula_units_Z 16
_cell_length_a 17.279110
_cell_length_b 16.178178
_cell_length_c 10.687329
_cell_angle_alpha 144.331504
_cell_angle_beta 147.544707
_cell_angle_gamma 28.211557
_cell_volume 729.476215
_symmetry_space_group_name_H-M "P -1"
_symmetry_group_IT_number 2
_symmetry_cell_setting 'triclinic'
loop_
_space_group_symop_operation_xyz
x,y,z
-x,-y,-z
loop_
_atom_site_type_symbol
_atom_site_label
_atom_site_fract_x
_atom_site_fract_y
_atom_site_fract_z
Si Si1 0.854628 0.248407 0.147319
Si Si2 0.169897 0.015980 0.614999
Si Si3 0.822226 0.077963 0.123219
Si Si4 0.319275 0.371971 0.489654
Si Si5 0.418133 0.703533 0.731988
Si Si6 0.084152 0.251768 0.011598
Si Si7 0.311564 0.455486 0.291113
Si Si8 0.735898 0.076051 0.643777
O O1 0.742200 0.450346 0.297021
O O2 0.808077 0.142077 0.043331
O O3 0.790533 0.211983 0.887093
O O4 0.077989 0.123905 0.304699
O O5 0.236235 0.839658 0.566681
O O6 0.279210 0.960755 0.567529
O O7 0.957797 0.116495 0.412505
O O8 0.190712 0.127404 0.880427
O O9 0.908674 0.874996 0.029471
O O10 0.626761 0.202174 0.079585
O O11 0.289925 0.414056 0.351448
O O12 0.533438 0.193365 0.572767
O O13 0.184000 0.329433 0.292042
O O14 0.428405 0.530213 0.556641
O O15 0.569983 0.687912 0.835752
O O16 0.884383 0.404965 0.870728
#
# Coordination Sequence:
#
# PCOD9011974 Si02
#       8
#     2   2   2   2   2   2   2   2
#     4  10  22  42  66  83 111 153 210 247 276 335
#     4  10  17  36  57  81 114 148 194 232 280 346
#     4  10  18  37  57  84 112 156 196 236 284 341
#     4  12  23  39  57  90 127 151 186 242 302 353
#     4  10  17  29  54  81 113 139 196 232 275 343
#     4  11  22  35  57  88 127 153 176 239 311 351
#     4  11  19  31  51  88 117 149 187 234 290 350
#     4  10  22  40  64  88 108 157 205 245 280 338
#
# _framework density 21.933544000000001
#
# number of rings (size 3 to 8) (size 9 to 14) (size 15 to 20)
#    0.000    1.500    5.000    2.250    0.000    0.500 
#    4.500    0.625    0.000    6.750    0.000    0.000 
#    0.000    0.000    0.000    0.000    0.000    0.000 
#
# Total GULP energy -89088.287853 kJ/mol
# GULP energy per Si atom -5568.017991 kJ/mol
# Density = 2.188362 g / cm^3
# Si number density = 21.933544 Si / 1000 Ang^3
#
#
#
# Elastic Constant Matrix: (Units=GPa)
#
#
# Indices 1 2 3 4 5 6 
#
# 1 31.0548 15.1886 7.5486 8.4993 -4.6719 -14.0091
# 2 15.1886 70.8500 11.7724 -7.5291 -4.2223 -26.9342
# 3 7.5486 11.7724 48.4997 -0.6151 3.6204 -1.1774
# 4 8.4993 -7.5291 -0.6151 18.5074 -3.7076 -4.9359
# 5 -4.6719 -4.2223 3.6204 -3.7076 17.2593 5.8351
# 6 -14.0091 -26.9342 -1.1774 -4.9359 5.8351 34.0954
#
#
#
# Elastic Compliance Matrix: (Units=1/GPa)
#
#
# Indices 1 2 3 4 5 6 
#
# 1 0.048605 -0.007897 -0.006034 -0.022295 0.004479 0.009530
# 2 -0.007897 0.026470 -0.004674 0.020136 0.002909 0.019922
# 3 -0.006034 -0.004674 0.023045 -0.000802 -0.006290 -0.004416
# 4 -0.022295 0.020136 -0.000802 0.078895 0.010481 0.016346
# 5 0.004479 0.002909 -0.006290 0.010481 0.065379 -0.005750
# 6 0.009530 0.019922 -0.004416 0.016346 -0.005750 0.052181
#
#
# Mechanical properties :
#
#
# Convention : Reuss Voigt Hill
#
# Bulk Modulus (GPa) = 16.41759 24.38039 20.39899
# Shear Modulus (GPa) = 14.20101 21.69876 17.94988
#
# Velocity S-wave (km/s) = 2.54728 3.14872 2.86383
# Velocity P-wave (km/s) = 4.01907 4.93548 4.50066
#
# Compressibility (1/GPa) = 0.06091029
#
# Stress axis : x y z
#
# Youngs Moduli (GPa) = 20.57407 37.77798 43.39412
#
# Poissons Ratio (x) = 0.29831 0.26184
# Poissons Ratio (y) = 0.16246 0.20284
# Poissons Ratio (z) = 0.12414 0.17659
#
# Static dielectric constant tensor:
#      x y z
#    x 1.903640 -0.057930 -0.072950 
#    y -0.057930 1.925030 0.034390 
#    z -0.072950 0.034390 1.804850 
# 
# From -- ./inp_files/343580.got.cif
#   From: 2010.05.17/outbox.cif.g08.bks.cpg/sg2_172_cif.got.tgz:343580.got - 2010.06.03 11:33:40.
