data_PCOD9011657
_publ_section_title
;
Structure prediction by ZEFSAII (Michael W. Deem and Ramdas Pophale) SiO2 
 PCOD9011657
Probable space group: P -1
;
_chemical_formula_sum "Si O2"
_cell_formula_units_Z 16
_cell_length_a 11.036667
_cell_length_b 6.634475
_cell_length_c 11.829834
_cell_angle_alpha 124.421384
_cell_angle_beta 105.992659
_cell_angle_gamma 75.298573
_cell_volume 681.613945
_symmetry_space_group_name_H-M "P -1"
_symmetry_group_IT_number 2
_symmetry_cell_setting 'triclinic'
loop_
_space_group_symop_operation_xyz
x,y,z
-x,-y,-z
loop_
_atom_site_type_symbol
_atom_site_label
_atom_site_fract_x
_atom_site_fract_y
_atom_site_fract_z
Si Si1 0.909635 0.621150 0.852698
Si Si2 0.189442 0.255690 0.499964
Si Si3 0.552705 0.259072 0.093900
Si Si4 0.876131 0.795737 0.148030
Si Si5 0.271964 0.729971 0.307831
Si Si6 0.949468 0.298483 0.293074
Si Si7 0.686955 0.416019 0.973508
Si Si8 0.544433 0.564613 0.407203
O O1 0.780210 0.522292 0.746499
O O2 0.998227 0.366490 0.825222
O O3 0.994131 0.757208 0.833589
O O4 0.879547 0.769222 0.005262
O O5 0.141123 0.443668 0.646451
O O6 0.328415 0.306842 0.513611
O O7 0.079432 0.321624 0.401034
O O8 0.199778 0.964195 0.427391
O O9 0.443296 0.459265 0.077454
O O10 0.576614 0.342666 0.254226
O O11 0.664099 0.262136 0.030725
O O12 0.500000 0.000000 0.000000
O O13 0.880835 0.082134 0.262823
O O14 0.760555 0.644669 0.101046
O O15 0.250040 0.736648 0.167008
O O16 0.420174 0.721795 0.371465
O O17 0.500000 0.500000 0.500000
#
# Coordination Sequence:
#
# PCOD9011657 Si02
#       8
#     2   2   2   2   2   2   2   2
#     4  10  21  40  68  97 128 174 223 276 337 388
#     4  11  25  43  62  96 133 179 222 269 341 394
#     4  10  23  43  67  99 131 175 222 279 340 391
#     4  10  21  40  66  99 129 172 223 273 335 398
#     4  10  21  46  67  96 136 180 226 279 336 401
#     4  11  24  43  63  97 140 171 224 276 329 404
#     4   9  22  41  68  96 134 170 223 280 329 401
#     4  11  25  44  67 101 132 178 231 274 339 413
#
# _framework density 23.473697000000001
#
# number of rings (size 3 to 8) (size 9 to 14) (size 15 to 20)
#    0.000    1.750    1.250    1.500    5.250    0.500 
#    4.500    0.000    0.000    0.000    0.000    0.000 
#    0.000    0.000    0.000    0.000    0.000    0.000 
#
# Total GULP energy -89344.802298 kJ/mol
# GULP energy per Si atom -5584.050144 kJ/mol
# Density = 2.342027 g / cm^3
# Si number density = 23.473697 Si / 1000 Ang^3
#
#
#
# Elastic Constant Matrix: (Units=GPa)
#
#
# Indices 1 2 3 4 5 6 
#
# 1 103.0578 27.8287 22.7272 -2.8520 17.8682 16.3426
# 2 27.8287 56.2347 45.8874 2.3640 -1.8335 22.2902
# 3 22.7272 45.8874 90.6564 0.5554 8.9067 19.0952
# 4 -2.8520 2.3640 0.5554 31.5644 7.9613 -2.4522
# 5 17.8682 -1.8335 8.9067 7.9613 32.5193 -0.7581
# 6 16.3426 22.2902 19.0952 -2.4522 -0.7581 50.7117
#
#
#
# Elastic Compliance Matrix: (Units=1/GPa)
#
#
# Indices 1 2 3 4 5 6 
#
# 1 0.013447 -0.008169 0.001964 0.004056 -0.009413 -0.001427
# 2 -0.008169 0.040677 -0.017987 -0.007505 0.013345 -0.008637
# 3 0.001964 -0.017987 0.020553 0.003282 -0.008537 -0.000435
# 4 0.004056 -0.007505 0.003282 0.035825 -0.012267 0.002305
# 5 -0.009413 0.013345 -0.008537 -0.012267 0.042027 0.000417
# 6 -0.001427 -0.008637 -0.000435 0.002305 0.000417 0.024257
#
#
# Mechanical properties :
#
#
# Convention : Reuss Voigt Hill
#
# Bulk Modulus (GPa) = 38.03321 49.20394 43.61858
# Shear Modulus (GPa) = 21.37362 33.19277 27.28319
#
# Velocity S-wave (km/s) = 3.02078 3.76445 3.41293
# Velocity P-wave (km/s) = 5.32958 6.31677 5.84406
#
# Compressibility (1/GPa) = 0.02629281
#
# Stress axis : x y z
#
# Youngs Moduli (GPa) = 74.36862 24.58397 48.65491
#
# Poissons Ratio (x) = 0.20083 -0.09558
# Poissons Ratio (y) = 0.60752 0.87517
# Poissons Ratio (z) = -0.14609 0.44220
#
# Static dielectric constant tensor:
#      x y z
#    x 1.945570 -0.014760 -0.008420 
#    y -0.014760 1.880130 -0.005070 
#    z -0.008420 -0.005070 1.934700 
# 
# From -- ./inp_files/411294.got.cif
#   From: 2010.05.17/outbox.cif.g08.bks.cpg/sg2_206_cif.got.tgz:411294.got - 2010.06.03 11:33:40.
