data_PCOD9011455
_publ_section_title
;
Structure prediction by ZEFSAII (Michael W. Deem and Ramdas Pophale) SiO2 
 PCOD9011455
Probable space group: P -1
;
_chemical_formula_sum "Si O2"
_cell_formula_units_Z 16
_cell_length_a 14.650121
_cell_length_b 14.895643
_cell_length_c 11.112117
_cell_angle_alpha 44.235850
_cell_angle_beta 29.595037
_cell_angle_gamma 43.950144
_cell_volume 801.697751
_symmetry_space_group_name_H-M "P -1"
_symmetry_group_IT_number 2
_symmetry_cell_setting 'triclinic'
loop_
_space_group_symop_operation_xyz
x,y,z
-x,-y,-z
loop_
_atom_site_type_symbol
_atom_site_label
_atom_site_fract_x
_atom_site_fract_y
_atom_site_fract_z
Si Si1 0.921284 0.011328 0.444583
Si Si2 0.742219 0.305655 0.416380
Si Si3 0.694482 0.824870 0.530308
Si Si4 0.672645 0.540450 0.829888
Si Si5 0.094013 0.724494 0.284359
Si Si6 0.267106 0.951035 0.915117
Si Si7 0.647649 0.570424 0.116510
Si Si8 0.956197 0.719957 0.696025
O O1 0.777294 0.158929 0.458414
O O2 0.850729 0.878283 0.646156
O O3 0.000000 0.000000 0.500000
O O4 0.100857 0.993265 0.164955
O O5 0.699964 0.420457 0.254049
O O6 0.557938 0.344663 0.677743
O O7 0.928930 0.303847 0.286733
O O8 0.693422 0.679803 0.620039
O O9 0.486494 0.890867 0.765271
O O10 0.872368 0.798294 0.441759
O O11 0.730021 0.925326 0.291882
O O12 0.848548 0.409670 0.730110
O O13 0.500000 0.500000 0.000000
O O14 0.645472 0.565852 0.979103
O O15 0.112348 0.686615 0.440448
O O16 0.215945 0.829123 0.019539
O O17 0.809023 0.634821 0.921939
#
# Coordination Sequence:
#
# PCOD9011455 Si02
#       8
#     2   2   2   2   2   2   2   2
#     4   9  21  39  66  91 123 166 205 261 317 368
#     4  10  23  43  63  92 126 164 213 266 312 369
#     4  11  23  40  63  91 126 169 207 256 324 375
#     4  12  24  41  63  94 132 167 212 265 314 385
#     4  11  22  39  65  94 127 166 207 257 319 386
#     4  10  23  42  62  92 130 164 207 269 314 377
#     4  11  24  41  64  91 126 168 212 261 317 376
#     4  10  21  40  66  92 122 168 205 263 315 377
#
# _framework density 19.957646
#
# number of rings (size 3 to 8) (size 9 to 14) (size 15 to 20)
#    0.000    1.500    2.500    1.875    5.250    0.500 
#    0.000    8.750    0.000    0.000    0.000    0.000 
#    0.000    0.000    0.000    0.000    0.000    0.000 
#
# Total GULP energy -89291.902587 kJ/mol
# GULP energy per Si atom -5580.743912 kJ/mol
# Density = 1.991222 g / cm^3
# Si number density = 19.957646 Si / 1000 Ang^3
#
#
#
# Elastic Constant Matrix: (Units=GPa)
#
#
# Indices 1 2 3 4 5 6 
#
# 1 45.8023 7.8832 2.9477 4.2810 -7.8077 -3.8350
# 2 7.8832 135.8636 37.4072 -2.5750 11.0320 1.5126
# 3 2.9477 37.4072 47.9405 -24.0048 -2.2481 -1.3976
# 4 4.2810 -2.5750 -24.0048 23.9140 -1.1898 -7.8408
# 5 -7.8077 11.0320 -2.2481 -1.1898 27.2525 5.9802
# 6 -3.8350 1.5126 -1.3976 -7.8408 5.9802 27.9981
#
#
#
# Elastic Compliance Matrix: (Units=1/GPa)
#
#
# Indices 1 2 3 4 5 6 
#
# 1 0.024319 -0.000313 -0.006582 -0.011158 0.006386 -0.001469
# 2 -0.000313 0.014541 -0.025331 -0.026800 -0.007480 -0.008001
# 3 -0.006582 -0.025331 0.095257 0.105156 0.013859 0.031711
# 4 -0.011158 -0.026800 0.105156 0.162872 0.012899 0.048026
# 5 0.006386 -0.007480 0.013859 0.012899 0.044100 -0.003837
# 6 -0.001469 -0.008001 0.031711 0.048026 -0.003837 0.051800
#
#
# Mechanical properties :
#
#
# Convention : Reuss Voigt Hill
#
# Bulk Modulus (GPa) = 14.35392 36.23142 25.29267
# Shear Modulus (GPa) = 10.40452 27.92414 19.16433
#
# Velocity S-wave (km/s) = 2.28574 3.74461 3.10215
# Velocity P-wave (km/s) = 3.76483 6.07369 5.05290
#
# Compressibility (1/GPa) = 0.06966740
#
# Stress axis : x y z
#
# Youngs Moduli (GPa) = 41.12046 68.77015 10.49790
#
# Poissons Ratio (x) = 0.02149 0.06909
# Poissons Ratio (y) = 0.01285 0.26592
# Poissons Ratio (z) = 0.27065 1.74198
#
# Static dielectric constant tensor:
#      x y z
#    x 1.695250 -0.002040 -0.007530 
#    y -0.002040 1.757440 0.008790 
#    z -0.007530 0.008790 1.713670 
# 
# From -- ./inp_files/454468.got.cif
#   From: 2010.05.17/outbox.cif.g08.bks.cpg/sg2_228_cif.got.tgz:454468.got - 2010.06.03 11:33:40.
