data_PCOD9011719
_publ_section_title
;
Structure prediction by ZEFSAII (Michael W. Deem and Ramdas Pophale) SiO2 
 PCOD9011719
Probable space group: P -1
;
_chemical_formula_sum "Si O2"
_cell_formula_units_Z 14
_cell_length_a 22.273130
_cell_length_b 6.326940
_cell_length_c 13.705328
_cell_angle_alpha 92.585735
_cell_angle_beta 158.590290
_cell_angle_gamma 99.561219
_cell_volume 578.354082
_symmetry_space_group_name_H-M "P -1"
_symmetry_group_IT_number 2
_symmetry_cell_setting 'triclinic'
loop_
_space_group_symop_operation_xyz
x,y,z
-x,-y,-z
loop_
_atom_site_type_symbol
_atom_site_label
_atom_site_fract_x
_atom_site_fract_y
_atom_site_fract_z
Si Si1 0.071928 0.835538 0.726307
Si Si2 0.632512 0.025636 0.547152
Si Si3 0.516279 0.753070 0.553574
Si Si4 0.443993 0.357416 0.740875
Si Si5 0.754809 0.952170 0.208424
Si Si6 0.268306 0.673394 0.694250
Si Si7 0.076403 0.398194 0.201016
O O1 0.171615 0.868623 0.772282
O O2 0.924004 0.551693 0.539212
O O3 0.943967 0.955798 0.528525
O O4 0.255904 0.025983 0.075773
O O5 0.479819 0.830612 0.394668
O O6 0.566966 0.861559 0.346526
O O7 0.614316 0.260674 0.553000
O O8 0.866431 0.148975 0.914778
O O9 0.500000 0.500000 0.500000
O O10 0.228787 0.314769 0.412210
O O11 0.549897 0.350239 0.000428
O O12 0.591974 0.651246 0.932153
O O13 0.684545 0.059859 0.188064
O O14 0.193918 0.610661 0.468958
O O15 0.000000 0.500000 0.000000
#
# Coordination Sequence:
#
# PCOD9011719 Si02
#       7
#     2   2   2   2   2   2   2
#     4  10  21  40  67 106 145 183 231 303 368 435
#     4  11  26  47  69 108 145 192 239 304 365 434
#     4  11  24  41  76 104 147 185 238 298 376 435
#     4  11  26  49  74 103 149 194 246 295 359 434
#     4  10  23  40  73 110 139 187 240 301 365 435
#     4  11  24  48  74 102 146 188 249 299 364 423
#     4  12  29  49  73 105 146 203 248 299 358 426
#
# _framework density 24.206626
#
# number of rings (size 3 to 8) (size 9 to 14) (size 15 to 20)
#    0.000    1.143    1.429    3.000    8.000    2.857 
#    5.143    0.000    0.000    0.000    0.000    0.000 
#    0.000    0.000    0.000    0.000    0.000    0.000 
#
# Total GULP energy -78176.393881 kJ/mol
# GULP energy per Si atom -5584.028134 kJ/mol
# Density = 2.415153 g / cm^3
# Si number density = 24.206626 Si / 1000 Ang^3
#
#
#
# Elastic Constant Matrix: (Units=GPa)
#
#
# Indices 1 2 3 4 5 6 
#
# 1 119.1286 62.0382 60.3359 -13.6353 -18.7569 -20.0545
# 2 62.0382 94.6274 59.9493 -3.5818 -6.8111 -27.9245
# 3 60.3359 59.9493 155.2597 -19.5283 -1.3183 -12.3294
# 4 -13.6353 -3.5818 -19.5283 34.9880 0.2178 -0.9328
# 5 -18.7569 -6.8111 -1.3183 0.2178 45.1064 2.1402
# 6 -20.0545 -27.9245 -12.3294 -0.9328 2.1402 48.2370
#
#
#
# Elastic Compliance Matrix: (Units=1/GPa)
#
#
# Indices 1 2 3 4 5 6 
#
# 1 0.014813 -0.007440 -0.002283 0.003736 0.004898 0.001123
# 2 -0.007440 0.020610 -0.004888 -0.003314 -0.000466 0.007545
# 3 -0.002283 -0.004888 0.009606 0.003948 -0.001370 -0.001187
# 4 0.003736 -0.003314 0.003948 0.031928 0.000957 0.001219
# 5 0.004898 -0.000466 -0.001370 0.000957 0.024074 0.000367
# 6 0.001123 0.007545 -0.001187 0.001219 0.000367 0.025270
#
#
# Mechanical properties :
#
#
# Convention : Reuss Voigt Hill
#
# Bulk Modulus (GPa) = 63.26414 81.51805 72.39109
# Shear Modulus (GPa) = 31.09601 38.11243 34.60422
#
# Velocity S-wave (km/s) = 3.58803 3.97225 3.78502
# Velocity P-wave (km/s) = 6.58461 7.40185 7.00516
#
# Compressibility (1/GPa) = 0.01580674
#
# Stress axis : x y z
#
# Youngs Moduli (GPa) = 67.50873 48.52104 104.09771
#
# Poissons Ratio (x) = 0.36097 0.23767
# Poissons Ratio (y) = 0.50223 0.50886
# Poissons Ratio (z) = 0.15413 0.23719
#
# Static dielectric constant tensor:
#      x y z
#    x 2.108760 0.104220 -0.071500 
#    y 0.104220 2.194030 -0.126820 
#    z -0.071500 -0.126820 1.973070 
# 
# From -- ./inp_files/542224.got.cif
#   From: 2010.05.17/outbox.cif.g08.bks.cpg/sg2_272_cif.got.tgz:542224.got - 2010.06.03 11:33:40.
