data_PCOD9011255
_publ_section_title
;
Structure prediction by ZEFSAII (Michael W. Deem and Ramdas Pophale) SiO2 
 PCOD9011255
Probable space group: P -1
;
_chemical_formula_sum "Si O2"
_cell_formula_units_Z 16
_cell_length_a 11.080211
_cell_length_b 8.574690
_cell_length_c 8.926965
_cell_angle_alpha 90.680383
_cell_angle_beta 80.081622
_cell_angle_gamma 54.978580
_cell_volume 677.721624
_symmetry_space_group_name_H-M "P -1"
_symmetry_group_IT_number 2
_symmetry_cell_setting 'triclinic'
loop_
_space_group_symop_operation_xyz
x,y,z
-x,-y,-z
loop_
_atom_site_type_symbol
_atom_site_label
_atom_site_fract_x
_atom_site_fract_y
_atom_site_fract_z
Si Si1 0.170477 0.558252 0.033310
Si Si2 0.077922 0.474026 0.759181
Si Si3 0.889952 0.173010 0.707172
Si Si4 0.503132 0.771365 0.907029
Si Si5 0.586806 0.516449 0.619109
Si Si6 0.076818 0.185352 0.419627
Si Si7 0.616080 0.784211 0.416704
Si Si8 0.403375 0.957628 0.222785
O O1 0.133876 0.750154 0.119212
O O2 0.338669 0.387042 0.046495
O O3 0.056280 0.522029 0.137781
O O4 0.137271 0.558185 0.866847
O O5 0.227541 0.268095 0.681096
O O6 0.015355 0.607116 0.630228
O O7 0.730365 0.316683 0.653520
O O8 0.011821 0.190120 0.595087
O O9 0.945176 0.957047 0.672574
O O10 0.484057 0.654732 0.781748
O O11 0.526854 0.924874 0.830788
O O12 0.383274 0.883603 0.068016
O O13 0.500000 0.500000 0.500000
O O14 0.647161 0.632153 0.533162
O O15 0.251979 0.090357 0.351677
O O16 0.523705 0.778644 0.297597
O O17 0.500000 0.000000 0.500000
#
# Coordination Sequence:
#
# PCOD9011255 Si02
#       8
#     2   2   2   2   2   2   2   2
#     4  10  22  41  65  95 132 166 213 269 325 381
#     4  11  23  42  66  96 129 169 218 268 321 384
#     4  10  24  43  65  93 132 171 219 266 318 386
#     4  10  21  40  65  95 131 168 211 275 320 387
#     4  11  23  44  63  92 131 170 213 270 326 381
#     4  11  23  43  66  93 128 176 215 264 320 388
#     4  12  24  40  63  99 128 164 218 271 321 384
#     4  11  22  40  65  97 130 168 220 262 331 383
#
# _framework density 23.608511
#
# number of rings (size 3 to 8) (size 9 to 14) (size 15 to 20)
#    0.000    1.250    5.000    0.750    1.750    1.000 
#    2.250    1.875    0.000    0.000    0.000    0.000 
#    0.000    0.000    0.000    0.000    0.000    0.000 
#
# Total GULP energy -89470.204028 kJ/mol
# GULP energy per Si atom -5591.887752 kJ/mol
# Density = 2.355478 g / cm^3
# Si number density = 23.608511 Si / 1000 Ang^3
#
#
#
# Elastic Constant Matrix: (Units=GPa)
#
#
# Indices 1 2 3 4 5 6 
#
# 1 75.3241 11.5996 27.1531 12.3352 12.9465 -12.5886
# 2 11.5996 58.7941 22.1429 11.9061 2.3050 -9.4161
# 3 27.1531 22.1429 105.1303 32.4353 20.2949 -3.7515
# 4 12.3352 11.9061 32.4353 38.4331 6.7904 -4.3844
# 5 12.9465 2.3050 20.2949 6.7904 42.1239 12.3702
# 6 -12.5886 -9.4161 -3.7515 -4.3844 12.3702 28.2035
#
#
#
# Elastic Compliance Matrix: (Units=1/GPa)
#
#
# Indices 1 2 3 4 5 6 
#
# 1 0.017244 -0.000413 -0.002339 -0.001047 -0.006959 0.010137
# 2 -0.000413 0.019699 -0.002800 -0.002762 -0.000917 0.005993
# 3 -0.002339 -0.002800 0.014694 -0.009879 -0.004771 0.000533
# 4 -0.001047 -0.002762 -0.009879 0.036267 -0.001694 0.003677
# 5 -0.006959 -0.000917 -0.004771 -0.001694 0.034167 -0.019296
# 6 0.010137 0.005993 0.000533 0.003677 -0.019296 0.051088
#
#
# Mechanical properties :
#
#
# Convention : Reuss Voigt Hill
#
# Bulk Modulus (GPa) = 24.67013 40.11550 32.39281
# Shear Modulus (GPa) = 25.28149 33.64229 29.46189
#
# Velocity S-wave (km/s) = 3.27596 3.77902 3.53645
# Velocity P-wave (km/s) = 4.97811 6.00585 5.51596
#
# Compressibility (1/GPa) = 0.04053486
#
# Stress axis : x y z
#
# Youngs Moduli (GPa) = 57.98991 50.76302 68.05628
#
# Poissons Ratio (x) = 0.02096 0.15917
# Poissons Ratio (y) = 0.02395 0.19053
# Poissons Ratio (z) = 0.13563 0.14211
#
# Static dielectric constant tensor:
#      x y z
#    x 1.969240 0.034540 0.033460 
#    y 0.034540 1.833110 0.031430 
#    z 0.033460 0.031430 1.926840 
# 
# From -- ./inp_files/208383.got.cif
#   From: 2010.05.17/outbox.cif.g08.bks.cpg/sg2_105_cif.got.tgz:208383.got - 2010.06.03 11:33:40.
