data_PCOD9011950
_publ_section_title
;
Structure prediction by ZEFSAII (Michael W. Deem and Ramdas Pophale) SiO2 
 PCOD9011950
Probable space group: P -1
;
_chemical_formula_sum "Si O2"
_cell_formula_units_Z 16
_cell_length_a 11.817410
_cell_length_b 20.555940
_cell_length_c 9.076193
_cell_angle_alpha 39.012363
_cell_angle_beta 49.630669
_cell_angle_gamma 30.841484
_cell_volume 710.225819
_symmetry_space_group_name_H-M "P -1"
_symmetry_group_IT_number 2
_symmetry_cell_setting 'triclinic'
loop_
_space_group_symop_operation_xyz
x,y,z
-x,-y,-z
loop_
_atom_site_type_symbol
_atom_site_label
_atom_site_fract_x
_atom_site_fract_y
_atom_site_fract_z
Si Si1 0.811293 0.604800 0.848717
Si Si2 0.076985 0.113891 0.507675
Si Si3 0.713815 0.887507 0.410282
Si Si4 0.000517 0.400700 0.776272
Si Si5 0.592781 0.917857 0.912017
Si Si6 0.684833 0.211859 0.020499
Si Si7 0.674255 0.425290 0.850344
Si Si8 0.607292 0.362064 0.535091
O O1 0.794401 0.731007 0.583379
O O2 0.859462 0.500118 0.863408
O O3 0.563408 0.705845 0.925649
O O4 0.000000 0.500000 0.000000
O O5 0.102975 0.153685 0.575554
O O6 0.250052 0.078940 0.309931
O O7 0.823383 0.271454 0.409920
O O8 0.158244 0.955438 0.745161
O O9 0.500000 0.000000 0.500000
O O10 0.620872 0.993713 0.161883
O O11 0.897439 0.357296 0.851564
O O12 0.000000 0.500000 0.500000
O O13 0.244617 0.258756 0.882695
O O14 0.500000 0.000000 0.000000
O O15 0.697304 0.306331 0.949008
O O16 0.710897 0.225755 0.801297
O O17 0.581954 0.552875 0.578518
O O18 0.500000 0.500000 0.000000
O O19 0.500000 0.500000 0.500000
#
# Coordination Sequence:
#
# PCOD9011950 Si02
#       8
#     2   2   2   2   2   2   2   2
#     4  12  24  40  72 104 138 182 236 292 354 415
#     4  11  23  46  71 101 142 181 235 293 356 415
#     4  10  21  40  68 100 138 177 224 295 350 411
#     4  12  28  44  70 103 141 188 239 291 359 420
#     4  11  24  43  67 102 141 183 231 289 358 426
#     4  11  24  44  71 103 139 186 240 287 357 428
#     4  11  24  47  69  99 147 187 234 293 352 426
#     4  10  25  42  71 101 134 185 238 287 348 419
#
# _framework density 22.528044999999999
#
# number of rings (size 3 to 8) (size 9 to 14) (size 15 to 20)
#    0.000    1.000    3.750    3.375    7.000    3.000 
#    0.000    5.000    0.000    0.000    0.000    0.000 
#    0.000    0.000    0.000    0.000    0.000    0.000 
#
# Total GULP energy -89279.520603 kJ/mol
# GULP energy per Si atom -5579.970038 kJ/mol
# Density = 2.247677 g / cm^3
# Si number density = 22.528045 Si / 1000 Ang^3
#
#
#
# Elastic Constant Matrix: (Units=GPa)
#
#
# Indices 1 2 3 4 5 6 
#
# 1 108.8803 8.3172 24.0921 -8.3396 8.3552 -0.8360
# 2 8.3172 88.1684 20.8975 -4.2360 1.9849 -4.1285
# 3 24.0921 20.8975 111.3842 -15.2814 13.0689 6.1503
# 4 -8.3396 -4.2360 -15.2814 39.5335 3.1675 8.7024
# 5 8.3552 1.9849 13.0689 3.1675 39.9149 -1.7216
# 6 -0.8360 -4.1285 6.1503 8.7024 -1.7216 32.1485
#
#
#
# Elastic Compliance Matrix: (Units=1/GPa)
#
#
# Indices 1 2 3 4 5 6 
#
# 1 0.009822 -0.000426 -0.001648 0.001514 -0.001614 0.000020
# 2 -0.000426 0.012016 -0.002344 -0.000189 0.000363 0.002051
# 3 -0.001648 -0.002344 0.011100 0.004868 -0.003731 -0.003985
# 4 0.001514 -0.000189 0.004868 0.029888 -0.004672 -0.009257
# 5 -0.001614 0.000363 -0.003731 -0.004672 0.027114 0.003435
# 6 0.000020 0.002051 -0.003985 -0.009257 0.003435 0.034822
#
#
# Mechanical properties :
#
#
# Convention : Reuss Voigt Hill
#
# Bulk Modulus (GPa) = 41.49148 46.11630 43.80389
# Shear Modulus (GPa) = 35.30283 39.32777 37.31530
#
# Velocity S-wave (km/s) = 3.96291 4.18272 4.07430
# Velocity P-wave (km/s) = 6.27672 6.62132 6.45132
#
# Compressibility (1/GPa) = 0.02410133
#
# Stress axis : x y z
#
# Youngs Moduli (GPa) = 101.81560 83.21895 90.09085
#
# Poissons Ratio (x) = 0.03543 0.14851
# Poissons Ratio (y) = 0.04335 0.21118
# Poissons Ratio (z) = 0.16784 0.19507
#
# Static dielectric constant tensor:
#      x y z
#    x 1.818150 0.002610 -0.028050 
#    y 0.002610 1.815630 0.086280 
#    z -0.028050 0.086280 1.941990 
# 
# From -- ./inp_files/282695.got.cif
#   From: 2010.05.17/outbox.cif.g08.bks.cpg/sg2_142_cif.got.tgz:282695.got - 2010.06.03 11:33:40.
