data_PCOD9011569
_publ_section_title
;
Structure prediction by ZEFSAII (Michael W. Deem and Ramdas Pophale) SiO2 
 PCOD9011569
Probable space group: P -1
;
_chemical_formula_sum "Si O2"
_cell_formula_units_Z 16
_cell_length_a 14.414520
_cell_length_b 14.049288
_cell_length_c 11.717918
_cell_angle_alpha 132.165614
_cell_angle_beta 29.088558
_cell_angle_gamma 138.540444
_cell_volume 762.851277
_symmetry_space_group_name_H-M "P -1"
_symmetry_group_IT_number 2
_symmetry_cell_setting 'triclinic'
loop_
_space_group_symop_operation_xyz
x,y,z
-x,-y,-z
loop_
_atom_site_type_symbol
_atom_site_label
_atom_site_fract_x
_atom_site_fract_y
_atom_site_fract_z
Si Si1 0.815167 0.228963 0.152832
Si Si2 0.198983 0.903833 0.449519
Si Si3 0.300164 0.459419 0.840824
Si Si4 0.579021 0.906128 0.416493
Si Si5 0.433588 0.733974 0.062515
Si Si6 0.217454 0.084768 0.009233
Si Si7 0.557122 0.325236 0.347902
Si Si8 0.749236 0.923992 0.676534
O O1 0.642604 0.232041 0.431054
O O2 0.718401 0.263034 0.168226
O O3 0.055553 0.341018 0.012150
O O4 0.804757 0.069882 0.046642
O O5 0.227595 0.761587 0.315760
O O6 0.967586 0.889183 0.713099
O O7 0.340247 0.018080 0.486860
O O8 0.271986 0.957931 0.285685
O O9 0.461861 0.389156 0.598694
O O10 0.324786 0.550986 0.772317
O O11 0.372594 0.576171 0.957162
O O12 0.500000 0.000000 0.500000
O O13 0.765501 0.903074 0.136927
O O14 0.560606 0.786469 0.084773
O O15 0.600214 0.851543 0.887353
O O16 0.342588 0.208661 0.421268
O O17 0.000000 0.000000 0.500000
#
# Coordination Sequence:
#
# PCOD9011569 Si02
#       8
#     2   2   2   2   2   2   2   2
#     4  11  21  39  66  91 118 163 216 258 309 369
#     4  12  21  39  65  91 128 167 202 262 326 359
#     4  10  24  39  61  88 129 172 209 249 312 382
#     4  10  21  40  66  96 120 158 219 269 306 366
#     4  11  23  40  58  95 134 161 204 261 309 382
#     4  11  23  40  67  95 123 162 213 266 313 369
#     4  10  21  42  61  88 130 171 209 254 306 380
#     4  11  21  37  63  99 124 162 204 261 322 373
#
# _framework density 20.973945000000001
#
# number of rings (size 3 to 8) (size 9 to 14) (size 15 to 20)
#    0.000    1.250    5.000    1.875    0.000    2.000 
#    2.250    0.625    0.000    1.500    0.000    0.000 
#    0.000    0.000    0.000    0.000    0.000    0.000 
#
# Total GULP energy -89172.461413 kJ/mol
# GULP energy per Si atom -5573.278838 kJ/mol
# Density = 2.092621 g / cm^3
# Si number density = 20.973945 Si / 1000 Ang^3
#
#
#
# Elastic Constant Matrix: (Units=GPa)
#
#
# Indices 1 2 3 4 5 6 
#
# 1 55.1009 10.6649 4.0197 -11.9161 -6.1911 14.0924
# 2 10.6649 86.7832 32.8294 -6.3706 -15.9982 29.2004
# 3 4.0197 32.8294 64.6152 4.6990 -11.2628 4.2583
# 4 -11.9161 -6.3706 4.6990 23.8974 -1.7620 3.9921
# 5 -6.1911 -15.9982 -11.2628 -1.7620 29.7428 0.3450
# 6 14.0924 29.2004 4.2583 3.9921 0.3450 24.9600
#
#
#
# Elastic Compliance Matrix: (Units=1/GPa)
#
#
# Indices 1 2 3 4 5 6 
#
# 1 0.038785 0.024051 -0.010333 0.038394 0.020006 -0.054690
# 2 0.024051 0.050505 -0.020459 0.044344 0.027941 -0.076652
# 3 -0.010333 -0.020459 0.025221 -0.020768 -0.005170 0.028860
# 4 0.038394 0.044344 -0.020768 0.093406 0.030503 -0.085373
# 5 0.020006 0.027941 -0.005170 0.030503 0.053229 -0.048715
# 6 -0.054690 -0.076652 0.028860 -0.085373 -0.048715 0.170021
#
#
# Mechanical properties :
#
#
# Convention : Reuss Voigt Hill
#
# Bulk Modulus (GPa) = 9.89830 33.50305 21.70068
# Shear Modulus (GPa) = 10.45309 26.31906 18.38608
#
# Velocity S-wave (km/s) = 2.23488 3.54622 2.96398
# Velocity P-wave (km/s) = 3.37478 5.72503 4.69921
#
# Compressibility (1/GPa) = 0.10102740
#
# Stress axis : x y z
#
# Youngs Moduli (GPa) = 25.78285 19.80020 39.64923
#
# Poissons Ratio (x) = -0.47621 0.40971
# Poissons Ratio (y) = -0.62010 0.81120
# Poissons Ratio (z) = 0.26642 0.40510
#
# Static dielectric constant tensor:
#      x y z
#    x 1.809060 -0.021840 0.024790 
#    y -0.021840 1.756060 -0.014300 
#    z 0.024790 -0.014300 1.811230 
# 
# From -- ./inp_files/455866.got.cif
#   From: 2010.05.17/outbox.cif.g08.bks.cpg/sg2_228_cif.got.tgz:455866.got - 2010.06.03 11:33:40.
