data_PCOD9011770
_publ_section_title
;
Structure prediction by ZEFSAII (Michael W. Deem and Ramdas Pophale) SiO2 
 PCOD9011770
Probable space group: P -1
;
_chemical_formula_sum "Si O2"
_cell_formula_units_Z 16
_cell_length_a 11.096904
_cell_length_b 14.690093
_cell_length_c 10.161451
_cell_angle_alpha 60.025017
_cell_angle_beta 130.950524
_cell_angle_gamma 151.531828
_cell_volume 582.725181
_symmetry_space_group_name_H-M "P -1"
_symmetry_group_IT_number 2
_symmetry_cell_setting 'triclinic'
loop_
_space_group_symop_operation_xyz
x,y,z
-x,-y,-z
loop_
_atom_site_type_symbol
_atom_site_label
_atom_site_fract_x
_atom_site_fract_y
_atom_site_fract_z
Si Si1 0.805643 0.562516 0.324795
Si Si2 0.228088 0.764004 0.962481
Si Si3 0.324769 0.609442 0.293291
Si Si4 0.769427 0.724009 0.378226
Si Si5 0.578510 0.924094 0.422994
Si Si6 0.970032 0.243531 0.930409
Si Si7 0.592418 0.221261 0.327677
Si Si8 0.163121 0.053668 0.944733
O O1 0.846106 0.641469 0.154594
O O2 0.116028 0.686351 0.511589
O O3 0.686584 0.575858 0.339830
O O4 0.636087 0.363773 0.307142
O O5 0.005539 0.621408 0.784906
O O6 0.349509 0.717796 0.125378
O O7 0.990239 0.661581 0.982807
O O8 0.500000 0.000000 0.000000
O O9 0.553707 0.646174 0.392181
O O10 0.411632 0.724963 0.400560
O O11 0.799937 0.835463 0.213323
O O12 0.103899 0.894529 0.548224
O O13 0.355930 0.894542 0.250505
O O14 0.628115 0.949469 0.597083
O O15 0.997983 0.141241 0.076649
O O16 0.468743 0.173161 0.130224
O O17 0.000000 0.000000 0.000000
#
# Coordination Sequence:
#
# PCOD9011770 Si02
#       8
#     2   2   2   2   2   2   2   2
#     4  10  22  40  63  96 130 173 218 269 331 395
#     4  10  22  46  68  96 128 174 228 276 328 397
#     4  10  24  43  68  97 130 177 224 272 334 393
#     4  12  23  40  66 100 138 171 212 278 334 389
#     4  10  21  44  66  89 137 179 224 265 319 394
#     4  10  21  40  67  92 124 179 217 268 328 399
#     4  10  22  41  61  93 131 179 221 266 321 397
#     4  12  22  36  61  97 133 169 214 269 332 389
#
# _framework density 27.457197000000001
#
# number of rings (size 3 to 8) (size 9 to 14) (size 15 to 20)
#    0.000    1.500    2.500    1.875    1.750    3.500 
#   15.750    0.625    0.000    0.000    0.000    0.000 
#    0.000    0.000    0.000    0.000    0.000    0.000 
#
# Total GULP energy -89593.908288 kJ/mol
# GULP energy per Si atom -5599.619268 kJ/mol
# Density = 2.739470 g / cm^3
# Si number density = 27.457197 Si / 1000 Ang^3
#
#
#
# Elastic Constant Matrix: (Units=GPa)
#
#
# Indices 1 2 3 4 5 6 
#
# 1 159.9091 42.9537 15.1372 -9.4193 18.0170 -18.8385
# 2 42.9537 135.2786 41.8934 -2.2893 10.0345 -30.4297
# 3 15.1372 41.8934 76.8257 -10.8240 -2.3996 -2.3963
# 4 -9.4193 -2.2893 -10.8240 46.7070 -4.3509 11.2286
# 5 18.0170 10.0345 -2.3996 -4.3509 47.8589 -4.2914
# 6 -18.8385 -30.4297 -2.3963 11.2286 -4.2914 52.0864
#
#
#
# Elastic Compliance Matrix: (Units=1/GPa)
#
#
# Indices 1 2 3 4 5 6 
#
# 1 0.007187 -0.001701 -0.000410 0.000769 -0.002189 0.001241
# 2 -0.001701 0.011283 -0.006080 -0.002843 -0.001736 0.006167
# 3 -0.000410 -0.006080 0.017030 0.004684 0.002374 -0.003731
# 4 0.000769 -0.002843 0.004684 0.024207 0.002186 -0.006206
# 5 -0.002189 -0.001736 0.002374 0.002186 0.022371 -0.000324
# 6 0.001241 0.006167 -0.003731 -0.006206 -0.000324 0.024390
#
#
# Mechanical properties :
#
#
# Convention : Reuss Voigt Hill
#
# Bulk Modulus (GPa) = 52.30342 63.55355 57.92848
# Shear Modulus (GPa) = 38.69296 47.46574 43.07935
#
# Velocity S-wave (km/s) = 3.75802 4.16230 3.96531
# Velocity P-wave (km/s) = 6.15798 6.80414 6.48910
#
# Compressibility (1/GPa) = 0.01911921
#
# Stress axis : x y z
#
# Youngs Moduli (GPa) = 139.13532 88.63100 58.71850
#
# Poissons Ratio (x) = 0.15072 0.02408
# Poissons Ratio (y) = 0.23661 0.35700
# Poissons Ratio (z) = 0.05706 0.53887
#
# Static dielectric constant tensor:
#      x y z
#    x 2.114140 0.045560 -0.013300 
#    y 0.045560 2.231620 0.055220 
#    z -0.013300 0.055220 2.158280 
# 
# From -- ./inp_files/432766.got.cif
#   From: 2010.05.17/outbox.cif.g08.bks.cpg/sg2_217_cif.got.tgz:432766.got - 2010.06.03 11:33:40.
