data_PCOD9011822
_publ_section_title
;
Structure prediction by ZEFSAII (Michael W. Deem and Ramdas Pophale) SiO2 
 PCOD9011822
Probable space group: P -1
;
_chemical_formula_sum "Si O2"
_cell_formula_units_Z 14
_cell_length_a 11.170559
_cell_length_b 9.519654
_cell_length_c 13.306411
_cell_angle_alpha 63.026108
_cell_angle_beta 65.228351
_cell_angle_gamma 117.978534
_cell_volume 664.118971
_symmetry_space_group_name_H-M "P -1"
_symmetry_group_IT_number 2
_symmetry_cell_setting 'triclinic'
loop_
_space_group_symop_operation_xyz
x,y,z
-x,-y,-z
loop_
_atom_site_type_symbol
_atom_site_label
_atom_site_fract_x
_atom_site_fract_y
_atom_site_fract_z
Si Si1 0.247033 0.595768 0.116524
Si Si2 0.952300 0.278387 0.130865
Si Si3 0.462533 0.389807 0.909792
Si Si4 0.439194 0.800775 0.505130
Si Si5 0.061399 0.584319 0.567742
Si Si6 0.661538 0.892339 0.776616
Si Si7 0.199508 0.295438 0.880728
O O1 0.327287 0.522551 0.176195
O O2 0.046785 0.367214 0.182531
O O3 0.158329 0.639283 0.210764
O O4 0.474267 0.842849 0.889540
O O5 0.683651 0.989120 0.315385
O O6 0.000000 0.500000 0.000000
O O7 0.091062 0.288867 0.012985
O O8 0.529529 0.623659 0.855831
O O9 0.378981 0.343920 0.844257
O O10 0.271312 0.121088 0.135909
O O11 0.263428 0.687029 0.518041
O O12 0.319278 0.539943 0.688998
O O13 0.500000 0.000000 0.500000
O O14 0.000000 0.500000 0.500000
O O15 0.153228 0.853501 0.442285
O O16 0.000000 0.000000 0.000000
#
# Coordination Sequence:
#
# PCOD9011822 Si02
#       7
#     2   2   2   2   2   2   2
#     4  10  21  40  67  95 120 178 217 266 332 394
#     4  12  22  43  74  98 130 184 230 272 338 406
#     4   9  20  42  66  94 123 170 219 263 327 414
#     4  12  25  44  71 101 132 182 240 264 330 428
#     4  12  26  40  64  99 134 168 219 285 324 381
#     4   9  19  41  65  89 125 161 223 261 318 403
#     4  12  26  44  68 101 144 171 218 296 343 383
#
# _framework density 21.080559999999998
#
# number of rings (size 3 to 8) (size 9 to 14) (size 15 to 20)
#    0.857    0.286    4.286    1.714    2.000    2.857 
#    2.571    0.000    0.000    0.000    0.000    0.000 
#    0.000    0.000    0.000    0.000    0.000    0.000 
#
# Total GULP energy -78044.413319 kJ/mol
# GULP energy per Si atom -5574.600951 kJ/mol
# Density = 2.103258 g / cm^3
# Si number density = 21.080560 Si / 1000 Ang^3
#
#
#
# Elastic Constant Matrix: (Units=GPa)
#
#
# Indices 1 2 3 4 5 6 
#
# 1 123.3614 50.4380 38.9696 -3.1462 10.6887 42.4262
# 2 50.4380 87.8525 16.4587 4.7076 5.7635 32.4077
# 3 38.9696 16.4587 90.5095 -7.1603 3.4533 12.0631
# 4 -3.1462 4.7076 -7.1603 24.3032 -9.2188 2.7679
# 5 10.6887 5.7635 3.4533 -9.2188 40.7447 7.8005
# 6 42.4262 32.4077 12.0631 2.7679 7.8005 32.7547
#
#
#
# Elastic Compliance Matrix: (Units=1/GPa)
#
#
# Indices 1 2 3 4 5 6 
#
# 1 0.016645 -0.002306 -0.004043 0.003733 0.000642 -0.018258
# 2 -0.002306 0.018410 -0.000551 -0.002167 0.000418 -0.014942
# 3 -0.004043 -0.000551 0.013089 0.003679 0.000772 0.000467
# 4 0.003733 -0.002167 0.003679 0.049040 0.012237 -0.011105
# 5 0.000642 0.000418 0.000772 0.012237 0.028824 -0.009428
# 6 -0.018258 -0.014942 0.000467 -0.011105 -0.009428 0.071974
#
#
# Mechanical properties :
#
#
# Convention : Reuss Voigt Hill
#
# Bulk Modulus (GPa) = 29.11670 57.05066 43.08368
# Shear Modulus (GPa) = 22.39832 32.61766 27.50799
#
# Velocity S-wave (km/s) = 3.26315 3.93782 3.61626
# Velocity P-wave (km/s) = 5.29525 6.91355 6.15779
#
# Compressibility (1/GPa) = 0.03434455
#
# Stress axis : x y z
#
# Youngs Moduli (GPa) = 60.07816 54.31695 76.40031
#
# Poissons Ratio (x) = 0.12525 0.30889
# Poissons Ratio (y) = 0.13854 0.04209
# Poissons Ratio (z) = 0.24290 0.02992
#
# Static dielectric constant tensor:
#      x y z
#    x 1.771550 0.018400 -0.022440 
#    y 0.018400 1.869610 -0.003680 
#    z -0.022440 -0.003680 1.779020 
# 
# From -- ./inp_files/427788.got.cif
#   From: 2010.05.17/outbox.cif.g08.bks.cpg/sg2_214_cif.got.tgz:427788.got - 2010.06.03 11:33:40.
