data_PCOD9011604
_publ_section_title
;
Structure prediction by ZEFSAII (Michael W. Deem and Ramdas Pophale) SiO2 
 PCOD9011604
Probable space group: P -1
;
_chemical_formula_sum "Si O2"
_cell_formula_units_Z 16
_cell_length_a 14.589232
_cell_length_b 12.478722
_cell_length_c 14.984447
_cell_angle_alpha 37.796223
_cell_angle_beta 29.321841
_cell_angle_gamma 56.453362
_cell_volume 729.376536
_symmetry_space_group_name_H-M "P -1"
_symmetry_group_IT_number 2
_symmetry_cell_setting 'triclinic'
loop_
_space_group_symop_operation_xyz
x,y,z
-x,-y,-z
loop_
_atom_site_type_symbol
_atom_site_label
_atom_site_fract_x
_atom_site_fract_y
_atom_site_fract_z
Si Si1 0.828737 0.699554 0.126426
Si Si2 0.932577 0.947788 0.193483
Si Si3 0.470379 0.628141 0.859723
Si Si4 0.811689 0.286832 0.822140
Si Si5 0.287607 0.335220 0.040219
Si Si6 0.943492 0.295747 0.231811
Si Si7 0.488560 0.690999 0.306026
Si Si8 0.548865 0.959086 0.844155
O O1 0.609170 0.701923 0.289300
O O2 0.751263 0.472747 0.367781
O O3 0.939742 0.784658 0.882690
O O4 0.986684 0.840388 0.970410
O O5 0.693307 0.800771 0.521879
O O6 0.078420 0.852998 0.168073
O O7 0.000000 0.000000 0.000000
O O8 0.500000 0.500000 0.000000
O O9 0.317049 0.705456 0.985703
O O10 0.369785 0.487679 0.951911
O O11 0.000000 0.500000 0.500000
O O12 0.646956 0.204233 0.934750
O O13 0.062575 0.309506 0.214469
O O14 0.307824 0.141368 0.179566
O O15 0.433576 0.391504 0.789937
O O16 0.703899 0.137841 0.532763
O O17 0.000000 0.500000 0.000000
O O18 0.517384 0.908812 0.122088
#
# Coordination Sequence:
#
# PCOD9011604 Si02
#       8
#     2   2   2   2   2   2   2   2
#     4  10  21  40  66  96 140 179 225 289 360 425
#     4  12  26  45  74 111 143 192 253 302 362 439
#     4  12  25  49  74 105 152 197 241 302 367 437
#     4  12  26  47  76 105 143 200 244 298 370 436
#     4  11  25  43  68 102 142 182 238 294 356 431
#     4  11  24  42  67 103 141 185 229 294 371 425
#     4  10  21  40  67  99 136 179 223 292 356 423
#     4  12  22  44  69 104 136 182 240 291 359 435
#
# _framework density 21.936543
#
# number of rings (size 3 to 8) (size 9 to 14) (size 15 to 20)
#    0.000    0.750    5.000    2.250    0.000    2.500 
#    6.750    0.000    0.000    0.000    0.000    0.000 
#    0.000    0.000    0.000    0.000    0.000    0.000 
#
# Total GULP energy -89156.746620 kJ/mol
# GULP energy per Si atom -5572.296664 kJ/mol
# Density = 2.188661 g / cm^3
# Si number density = 21.936543 Si / 1000 Ang^3
#
#
#
# Elastic Constant Matrix: (Units=GPa)
#
#
# Indices 1 2 3 4 5 6 
#
# 1 97.7753 15.3494 41.5360 -13.2198 -11.0742 9.3691
# 2 15.3494 61.9700 22.9032 -1.3378 -17.8468 7.5260
# 3 41.5360 22.9032 147.6550 -5.2205 -13.3336 15.2918
# 4 -13.2198 -1.3378 -5.2205 43.7925 4.0418 -1.1339
# 5 -11.0742 -17.8468 -13.3336 4.0418 30.5070 -2.1131
# 6 9.3691 7.5260 15.2918 -1.1339 -2.1131 50.7941
#
#
#
# Elastic Compliance Matrix: (Units=1/GPa)
#
#
# Indices 1 2 3 4 5 6 
#
# 1 0.012408 -0.001218 -0.002894 0.003148 0.002034 -0.001082
# 2 -0.001218 0.020357 -0.001688 -0.000986 0.010731 -0.001859
# 3 -0.002894 -0.001688 0.008139 -0.000128 0.001425 -0.001610
# 4 0.003148 -0.000986 -0.000128 0.023987 -0.002666 0.000029
# 5 0.002034 0.010731 0.001425 -0.002666 0.040719 -0.000760
# 6 -0.001082 -0.001859 -0.001610 0.000029 -0.000760 0.020616
#
#
# Mechanical properties :
#
#
# Convention : Reuss Voigt Hill
#
# Bulk Modulus (GPa) = 34.12638 51.88639 43.00639
# Shear Modulus (GPa) = 33.87622 40.19282 37.03452
#
# Velocity S-wave (km/s) = 3.93400 4.28510 4.11330
# Velocity P-wave (km/s) = 6.01878 6.94169 6.49665
#
# Compressibility (1/GPa) = 0.02930284
#
# Stress axis : x y z
#
# Youngs Moduli (GPa) = 80.59285 49.12204 122.85800
#
# Poissons Ratio (x) = 0.05985 0.35560
# Poissons Ratio (y) = 0.09819 0.20742
# Poissons Ratio (z) = 0.23327 0.08293
#
# Static dielectric constant tensor:
#      x y z
#    x 1.927760 -0.076130 0.037110 
#    y -0.076130 2.046830 0.097030 
#    z 0.037110 0.097030 1.891780 
# 
# From -- ./inp_files/532333.got.cif
#   From: 2010.05.17/outbox.cif.g08.bks.cpg/sg2_267_cif.got.tgz:532333.got - 2010.06.03 11:33:40.
