data_PCOD9011868
_publ_section_title
;
Structure prediction by ZEFSAII (Michael W. Deem and Ramdas Pophale) SiO2 
 PCOD9011868
Probable space group: P -1
;
_chemical_formula_sum "Si O2"
_cell_formula_units_Z 14
_cell_length_a 9.011613
_cell_length_b 11.359408
_cell_length_c 9.006340
_cell_angle_alpha 116.999648
_cell_angle_beta 131.154458
_cell_angle_gamma 73.213947
_cell_volume 618.443817
_symmetry_space_group_name_H-M "P -1"
_symmetry_group_IT_number 2
_symmetry_cell_setting 'triclinic'
loop_
_space_group_symop_operation_xyz
x,y,z
-x,-y,-z
loop_
_atom_site_type_symbol
_atom_site_label
_atom_site_fract_x
_atom_site_fract_y
_atom_site_fract_z
Si Si1 0.882868 0.137343 0.964189
Si Si2 0.993899 0.807860 0.603972
Si Si3 0.432192 0.127607 0.694910
Si Si4 0.906634 0.624378 0.925514
Si Si5 0.852984 0.456522 0.506146
Si Si6 0.338755 0.924060 0.748941
Si Si7 0.481506 0.311552 0.121682
O O1 0.650636 0.112454 0.764216
O O2 0.899896 0.208789 0.177257
O O3 0.973714 0.240390 0.963044
O O4 0.000000 0.000000 0.000000
O O5 0.763445 0.826575 0.492039
O O6 0.040065 0.681585 0.460017
O O7 0.119696 0.926146 0.675642
O O8 0.361983 0.989924 0.644079
O O9 0.458280 0.231868 0.907898
O O10 0.840282 0.560112 0.688733
O O11 0.727759 0.660078 0.933523
O O12 0.000000 0.500000 0.000000
O O13 0.635690 0.431946 0.281082
O O14 0.000000 0.500000 0.500000
O O15 0.414181 0.777054 0.733627
O O16 0.500000 0.000000 0.000000
#
# Coordination Sequence:
#
# PCOD9011868 Si02
#       7
#     2   2   2   2   2   2   2
#     4  12  26  47  69  98 144 181 228 294 348 405
#     4  11  22  40  69 100 131 182 233 285 342 414
#     4  11  21  41  69 101 133 182 236 280 345 422
#     4  12  26  44  67 103 142 181 236 287 340 415
#     4  11  21  44  69  94 137 184 230 281 349 411
#     4   9  17  36  65  95 133 175 223 276 343 404
#     4  10  21  40  67  96 133 184 225 287 344 404
#
# _framework density 22.637464000000001
#
# number of rings (size 3 to 8) (size 9 to 14) (size 15 to 20)
#    0.000    1.143    5.714    2.571    2.000    1.714 
#    7.714    2.857    0.000    0.000    0.000    0.000 
#    0.000    0.000    0.000    0.000    0.000    0.000 
#
# Total GULP energy -78060.393965 kJ/mol
# GULP energy per Si atom -5575.742426 kJ/mol
# Density = 2.258594 g / cm^3
# Si number density = 22.637464 Si / 1000 Ang^3
#
#
#
# Elastic Constant Matrix: (Units=GPa)
#
#
# Indices 1 2 3 4 5 6 
#
# 1 159.8625 45.7951 47.3168 5.0398 43.8963 2.0299
# 2 45.7951 76.0808 18.9661 1.6781 26.4382 4.7285
# 3 47.3168 18.9661 68.3396 -1.0535 22.4419 5.8250
# 4 5.0398 1.6781 -1.0535 30.5328 -6.1773 6.2474
# 5 43.8963 26.4382 22.4419 -6.1773 51.9483 3.5416
# 6 2.0299 4.7285 5.8250 6.2474 3.5416 43.2854
#
#
#
# Elastic Compliance Matrix: (Units=1/GPa)
#
#
# Indices 1 2 3 4 5 6 
#
# 1 0.010022 -0.003046 -0.004469 -0.003016 -0.005438 0.001344
# 2 -0.003046 0.017347 -0.000648 -0.001511 -0.006090 -0.000949
# 3 -0.004469 -0.000648 0.019425 0.001074 -0.004010 -0.002161
# 4 -0.003016 -0.001511 0.001074 0.036050 0.007526 -0.005657
# 5 -0.005438 -0.006090 -0.004010 0.007526 0.029712 -0.002057
# 6 0.001344 -0.000949 -0.002161 -0.005657 -0.002057 0.024419
#
#
# Mechanical properties :
#
#
# Convention : Reuss Voigt Hill
#
# Bulk Modulus (GPa) = 32.82100 58.71542 45.76821
# Shear Modulus (GPa) = 30.58927 37.96696 34.27812
#
# Velocity S-wave (km/s) = 3.67995 4.09977 3.89552
# Velocity P-wave (km/s) = 5.70842 6.95733 6.36359
#
# Compressibility (1/GPa) = 0.03046830
#
# Stress axis : x y z
#
# Youngs Moduli (GPa) = 99.78195 57.64572 51.48129
#
# Poissons Ratio (x) = 0.17557 0.23007
# Poissons Ratio (y) = 0.30390 0.03337
# Poissons Ratio (z) = 0.44592 0.03737
#
# Static dielectric constant tensor:
#      x y z
#    x 1.895930 0.043630 0.019340 
#    y 0.043630 2.099120 0.050150 
#    z 0.019340 0.050150 1.880250 
# 
# From -- ./inp_files/190530.got.cif
#   From: 2010.05.17/outbox.cif.g08.bks.cpg/sg2_96_cif.got.tgz:190530.got - 2010.06.03 11:33:40.
