data_PCOD9011208
_publ_section_title
;
Structure prediction by ZEFSAII (Michael W. Deem and Ramdas Pophale) SiO2 
 PCOD9011208
Probable space group: P -1
;
_chemical_formula_sum "Si O2"
_cell_formula_units_Z 16
_cell_length_a 17.580446
_cell_length_b 23.001309
_cell_length_c 11.333381
_cell_angle_alpha 150.327348
_cell_angle_beta 138.314165
_cell_angle_gamma 20.028012
_cell_volume 708.672130
_symmetry_space_group_name_H-M "P -1"
_symmetry_group_IT_number 2
_symmetry_cell_setting 'triclinic'
loop_
_space_group_symop_operation_xyz
x,y,z
-x,-y,-z
loop_
_atom_site_type_symbol
_atom_site_label
_atom_site_fract_x
_atom_site_fract_y
_atom_site_fract_z
Si Si1 0.269201 0.789418 0.486158
Si Si2 0.896131 0.488385 0.781485
Si Si3 0.507326 0.355952 0.743714
Si Si4 0.910619 0.834147 0.373541
Si Si5 0.092668 0.369394 0.175325
Si Si6 0.650021 0.084197 0.015087
Si Si7 0.442042 0.447713 0.247401
Si Si8 0.886935 0.465865 0.337589
O O1 0.411651 0.735238 0.457917
O O2 0.250933 0.895024 0.759296
O O3 0.425073 0.533711 0.255805
O O4 0.000000 0.000000 0.500000
O O5 0.612994 0.719334 0.891574
O O6 0.046155 0.246075 0.584073
O O7 0.949744 0.483764 0.704685
O O8 0.000000 0.500000 0.000000
O O9 0.263832 0.512325 0.771511
O O10 0.714507 0.112096 0.632464
O O11 0.500000 0.500000 0.000000
O O12 0.167660 0.651206 0.306086
O O13 0.835619 0.799114 0.130659
O O14 0.902768 0.480334 0.242066
O O15 0.235098 0.313491 0.344479
O O16 0.600814 0.189320 0.014815
O O17 0.845240 0.805300 0.776092
O O18 0.500000 0.500000 0.500000
#
# Coordination Sequence:
#
# PCOD9011208 Si02
#       8
#     2   2   2   2   2   2   2   2
#     4  11  20  38  67  91 125 177 223 264 319 392
#     4   9  20  41  68  94 121 173 227 271 322 388
#     4  12  26  39  61  99 138 167 218 272 330 397
#     4  10  21  42  67  93 124 175 223 270 324 392
#     4  10  23  42  67  92 131 169 228 266 324 393
#     4  10  21  40  65  94 130 165 218 268 327 392
#     4   9  20  37  66  92 121 168 221 262 314 393
#     4  11  25  41  60 101 138 172 209 277 339 386
#
# _framework density 22.577435999999999
#
# number of rings (size 3 to 8) (size 9 to 14) (size 15 to 20)
#    0.000    1.750    1.250    2.250    3.500    5.000 
#    2.250    6.875    0.000    0.000    0.000    0.000 
#    0.000    0.000    0.000    0.000    0.000    0.000 
#
# Total GULP energy -89087.145700 kJ/mol
# GULP energy per Si atom -5567.946606 kJ/mol
# Density = 2.252605 g / cm^3
# Si number density = 22.577436 Si / 1000 Ang^3
#
#
#
# Elastic Constant Matrix: (Units=GPa)
#
#
# Indices 1 2 3 4 5 6 
#
# 1 238.3714 105.6382 89.3433 52.4113 13.3630 72.4623
# 2 105.6382 163.5144 110.8696 44.6705 4.7698 63.7966
# 3 89.3433 110.8696 176.1702 49.1939 6.0752 85.0619
# 4 52.4113 44.6705 49.1939 56.0019 1.8515 60.8306
# 5 13.3630 4.7698 6.0752 1.8515 36.5351 -11.6911
# 6 72.4623 63.7966 85.0619 60.8306 -11.6911 105.1754
#
#
#
# Elastic Compliance Matrix: (Units=1/GPa)
#
#
# Indices 1 2 3 4 5 6 
#
# 1 0.006653 -0.003041 0.000186 -0.001043 -0.002848 -0.002603
# 2 -0.003041 0.012601 -0.006270 -0.003699 0.001274 0.001803
# 3 0.000186 -0.006270 0.013442 0.004310 -0.004980 -0.010242
# 4 -0.001043 -0.003699 0.004310 0.055569 -0.013605 -0.034175
# 5 -0.002848 0.001274 -0.004980 -0.013605 0.035203 0.016999
# 6 -0.002603 0.001803 -0.010242 -0.034175 0.016999 0.040147
#
#
# Mechanical properties :
#
#
# Convention : Reuss Voigt Hill
#
# Bulk Modulus (GPa) = 69.22319 132.19534 100.70927
# Shear Modulus (GPa) = 26.78378 57.68948 42.23663
#
# Velocity S-wave (km/s) = 3.44802 5.06037 4.32990
# Velocity P-wave (km/s) = 6.82486 9.63443 8.34868
#
# Compressibility (1/GPa) = 0.01444603
#
# Stress axis : x y z
#
# Youngs Moduli (GPa) = 150.30181 79.35733 74.39560
#
# Poissons Ratio (x) = 0.24130 -0.01382
# Poissons Ratio (y) = 0.45703 0.46647
# Poissons Ratio (z) = -0.02791 0.49758
#
# Static dielectric constant tensor:
#      x y z
#    x 1.959950 0.070010 -0.044830 
#    y 0.070010 1.890690 0.013020 
#    z -0.044830 0.013020 1.909970 
# 
# From -- ./inp_files/467398.got.cif
#   From: 2010.05.17/outbox.cif.g08.bks.cpg/sg2_234_cif.got.tgz:467398.got - 2010.06.03 11:33:40.
