data_PCOD9011530
_publ_section_title
;
Structure prediction by ZEFSAII (Michael W. Deem and Ramdas Pophale) SiO2 
 PCOD9011530
Probable space group: P -1
;
_chemical_formula_sum "Si O2"
_cell_formula_units_Z 16
_cell_length_a 11.987976
_cell_length_b 6.069695
_cell_length_c 10.809258
_cell_angle_alpha 87.224004
_cell_angle_beta 101.533162
_cell_angle_gamma 57.713857
_cell_volume 639.948186
_symmetry_space_group_name_H-M "P -1"
_symmetry_group_IT_number 2
_symmetry_cell_setting 'triclinic'
loop_
_space_group_symop_operation_xyz
x,y,z
-x,-y,-z
loop_
_atom_site_type_symbol
_atom_site_label
_atom_site_fract_x
_atom_site_fract_y
_atom_site_fract_z
Si Si1 0.825659 0.096861 0.691865
Si Si2 0.972745 0.477524 0.300622
Si Si3 0.567963 0.766297 0.124856
Si Si4 0.031278 0.185541 0.899280
Si Si5 0.785380 0.410398 0.992951
Si Si6 0.586748 0.969850 0.396765
Si Si7 0.143497 0.583493 0.504835
Si Si8 0.566679 0.486510 0.769409
O O1 0.930318 0.137801 0.794240
O O2 0.817904 0.229051 0.554660
O O3 0.674275 0.251488 0.709530
O O4 0.892378 0.786313 0.712705
O O5 0.907962 0.686337 0.172227
O O6 0.014196 0.623160 0.402691
O O7 0.895534 0.371883 0.361893
O O8 0.713549 0.550246 0.100661
O O9 0.491423 0.617329 0.138656
O O10 0.569323 0.867188 0.261159
O O11 0.500000 0.000000 0.000000
O O12 0.923301 0.376596 0.974648
O O13 0.156869 0.902248 0.979259
O O14 0.666196 0.552084 0.860259
O O15 0.547271 0.261981 0.341777
O O16 0.500000 0.000000 0.500000
O O17 0.737832 0.726387 0.472776
#
# Coordination Sequence:
#
# PCOD9011530 Si02
#       8
#     2   2   2   2   2   2   2   2
#     4  10  21  40  66  94 132 173 225 276 336 408
#     4  10  22  39  67  93 128 178 219 276 341 396
#     4  12  28  43  73 100 135 187 231 279 339 411
#     4   9  22  41  66  97 132 171 217 290 336 390
#     4  10  22  47  65  97 139 170 226 284 336 401
#     4  12  27  47  69 102 141 181 227 285 339 407
#     4  10  23  41  62  95 134 171 224 282 328 399
#     4  11  25  44  69  98 137 183 225 283 342 398
#
# _framework density 25.002023000000001
#
# number of rings (size 3 to 8) (size 9 to 14) (size 15 to 20)
#    0.000    1.500    2.500    0.750    7.000    1.500 
#    0.000    1.875    0.000    0.000    0.000    0.000 
#    0.000    0.000    0.000    0.000    0.000    0.000 
#
# Total GULP energy -89358.000872 kJ/mol
# GULP energy per Si atom -5584.875054 kJ/mol
# Density = 2.494512 g / cm^3
# Si number density = 25.002023 Si / 1000 Ang^3
#
#
#
# Elastic Constant Matrix: (Units=GPa)
#
#
# Indices 1 2 3 4 5 6 
#
# 1 69.0727 21.3800 31.9811 -4.3508 -27.1658 -7.9607
# 2 21.3800 61.0163 28.0812 -11.3096 -25.8960 -20.4031
# 3 31.9811 28.0812 139.8974 -11.3550 -32.8996 2.3736
# 4 -4.3508 -11.3096 -11.3550 58.0721 3.3853 -9.3004
# 5 -27.1658 -25.8960 -32.8996 3.3853 50.2097 3.1991
# 6 -7.9607 -20.4031 2.3736 -9.3004 3.1991 34.1853
#
#
#
# Elastic Compliance Matrix: (Units=1/GPa)
#
#
# Indices 1 2 3 4 5 6 
#
# 1 0.019581 -0.000834 -0.002334 0.000956 0.008334 0.003704
# 2 -0.000834 0.031085 -0.002952 0.007860 0.011868 0.019591
# 3 -0.002334 -0.002952 0.009153 0.000335 0.003391 -0.003167
# 4 0.000956 0.007860 0.000335 0.020355 0.002770 0.010169
# 5 0.008334 0.011868 0.003391 0.002770 0.032166 0.006532
# 6 0.003704 0.019591 -0.003167 0.010169 0.006532 0.044183
#
#
# Mechanical properties :
#
#
# Convention : Reuss Voigt Hill
#
# Bulk Modulus (GPa) = 21.01824 48.09678 34.55751
# Shear Modulus (GPa) = 27.08226 41.06303 34.07264
#
# Velocity S-wave (km/s) = 3.29477 4.05704 3.69561
# Velocity P-wave (km/s) = 4.78528 6.42067 5.66233
#
# Compressibility (1/GPa) = 0.04757772
#
# Stress axis : x y z
#
# Youngs Moduli (GPa) = 51.06889 32.16998 109.25782
#
# Poissons Ratio (x) = 0.02683 0.25504
# Poissons Ratio (y) = 0.04259 0.32256
# Poissons Ratio (z) = 0.11921 0.09498
#
# Static dielectric constant tensor:
#      x y z
#    x 1.965760 0.012560 0.008180 
#    y 0.012560 1.975910 0.054990 
#    z 0.008180 0.054990 2.043560 
# 
# From -- ./inp_files/410274.got.cif
#   From: 2010.05.17/outbox.cif.g08.bks.cpg/sg2_206_cif.got.tgz:410274.got - 2010.06.03 11:33:40.
