data_PCOD9011797
_publ_section_title
;
Structure prediction by ZEFSAII (Michael W. Deem and Ramdas Pophale) SiO2 
 PCOD9011797
Probable space group: P -1
;
_chemical_formula_sum "Si O2"
_cell_formula_units_Z 14
_cell_length_a 19.315707
_cell_length_b 11.609155
_cell_length_c 11.016147
_cell_angle_alpha 53.705543
_cell_angle_beta 137.659038
_cell_angle_gamma 157.641899
_cell_volume 591.028610
_symmetry_space_group_name_H-M "P -1"
_symmetry_group_IT_number 2
_symmetry_cell_setting 'triclinic'
loop_
_space_group_symop_operation_xyz
x,y,z
-x,-y,-z
loop_
_atom_site_type_symbol
_atom_site_label
_atom_site_fract_x
_atom_site_fract_y
_atom_site_fract_z
Si Si1 0.813732 0.143292 0.951108
Si Si2 0.534235 0.958050 0.198123
Si Si3 0.016226 0.244091 0.958409
Si Si4 0.886150 0.948332 0.758314
Si Si5 0.073924 0.927087 0.656507
Si Si6 0.390275 0.258372 0.664372
Si Si7 0.376751 0.780033 0.600171
O O1 0.900424 0.109819 0.154065
O O2 0.830684 0.121896 0.845012
O O3 0.000000 0.500000 0.000000
O O4 0.556239 0.877640 0.809926
O O5 0.636972 0.934585 0.302802
O O6 0.646797 0.159107 0.342616
O O7 0.265537 0.596765 0.113846
O O8 0.500000 0.000000 0.000000
O O9 0.023954 0.243532 0.822996
O O10 0.980916 0.034335 0.077541
O O11 0.642207 0.624529 0.717843
O O12 0.805613 0.888991 0.559765
O O13 0.872654 0.585612 0.540531
O O14 0.326318 0.201460 0.755420
O O15 0.000000 0.000000 0.500000
O O16 0.500000 0.000000 0.500000
#
# Coordination Sequence:
#
# PCOD9011797 Si02
#       7
#     2   2   2   2   2   2   2
#     4  12  24  46  72  99 142 187 232 288 357 422
#     4  11  24  42  66 101 138 174 237 293 341 417
#     4  10  21  40  67  93 130 174 223 275 343 420
#     4   9  21  41  65  97 129 175 217 281 357 418
#     4  12  28  47  70 108 145 181 242 300 354 428
#     4  10  23  41  67  95 137 173 228 285 350 412
#     4  12  27  46  74 104 142 197 241 286 362 435
#
# _framework density 23.687515999999999
#
# number of rings (size 3 to 8) (size 9 to 14) (size 15 to 20)
#    0.000    1.143    2.857    1.714    6.000    2.286 
#    5.143    0.000    0.000    0.000    0.000    0.000 
#    0.000    0.000    0.000    0.000    0.000    0.000 
#
# Total GULP energy -78139.321369 kJ/mol
# GULP energy per Si atom -5581.380098 kJ/mol
# Density = 2.363360 g / cm^3
# Si number density = 23.687516 Si / 1000 Ang^3
#
#
#
# Elastic Constant Matrix: (Units=GPa)
#
#
# Indices 1 2 3 4 5 6 
#
# 1 123.3205 18.9888 -7.0208 -8.8267 -1.7228 1.4724
# 2 18.9888 53.1651 5.3405 -7.1716 -12.5645 3.7877
# 3 -7.0208 5.3405 86.7690 -11.1090 -8.6952 -5.2807
# 4 -8.8267 -7.1716 -11.1090 33.3750 -1.3555 -6.2971
# 5 -1.7228 -12.5645 -8.6952 -1.3555 41.2628 6.5749
# 6 1.4724 3.7877 -5.2807 -6.2971 6.5749 27.7559
#
#
#
# Elastic Compliance Matrix: (Units=1/GPa)
#
#
# Indices 1 2 3 4 5 6 
#
# 1 0.008798 -0.003112 0.001192 0.002185 -0.000380 0.000770
# 2 -0.003112 0.022451 -0.000724 0.003299 0.007302 -0.004018
# 3 0.001192 -0.000724 0.012721 0.005065 0.002184 0.003088
# 4 0.002185 0.003299 0.005065 0.034477 0.002064 0.007731
# 5 -0.000380 0.007302 0.002184 0.002064 0.028044 -0.006736
# 6 0.000770 -0.004018 0.003088 0.007731 -0.006736 0.040473
#
#
# Mechanical properties :
#
#
# Convention : Reuss Voigt Hill
#
# Bulk Modulus (GPa) = 25.85237 33.09684 29.47461
# Shear Modulus (GPa) = 30.27630 36.87517 33.57574
#
# Velocity S-wave (km/s) = 3.57901 3.94983 3.76898
# Velocity P-wave (km/s) = 5.29308 5.89950 5.60450
#
# Compressibility (1/GPa) = 0.03868117
#
# Stress axis : x y z
#
# Youngs Moduli (GPa) = 113.66397 44.54240 78.60922
#
# Poissons Ratio (x) = 0.13862 -0.09370
# Poissons Ratio (y) = 0.35373 0.05692
# Poissons Ratio (z) = -0.13548 0.03225
#
# Static dielectric constant tensor:
#      x y z
#    x 1.904760 -0.001590 -0.043280 
#    y -0.001590 1.928760 -0.049590 
#    z -0.043280 -0.049590 1.926240 
# 
# From -- ./inp_files/279767.got.cif
#   From: 2010.05.17/outbox.cif.g08.bks.cpg/sg2_140_cif.got.tgz:279767.got - 2010.06.03 11:33:40.
