data_PCOD9011352
_publ_section_title
;
Structure prediction by ZEFSAII (Michael W. Deem and Ramdas Pophale) SiO2 
 PCOD9011352
Probable space group: P -1
;
_chemical_formula_sum "Si O2"
_cell_formula_units_Z 16
_cell_length_a 11.480869
_cell_length_b 9.475035
_cell_length_c 10.642638
_cell_angle_alpha 84.035579
_cell_angle_beta 57.627707
_cell_angle_gamma 51.418102
_cell_volume 716.484565
_symmetry_space_group_name_H-M "P -1"
_symmetry_group_IT_number 2
_symmetry_cell_setting 'triclinic'
loop_
_space_group_symop_operation_xyz
x,y,z
-x,-y,-z
loop_
_atom_site_type_symbol
_atom_site_label
_atom_site_fract_x
_atom_site_fract_y
_atom_site_fract_z
Si Si1 0.947301 0.426890 0.645109
Si Si2 0.291702 0.154415 0.655375
Si Si3 0.782853 0.256069 0.760925
Si Si4 0.346969 0.158529 0.174867
Si Si5 0.858154 0.486667 0.150934
Si Si6 0.357133 0.893322 0.842038
Si Si7 0.099396 0.112965 0.217248
Si Si8 0.627323 0.442907 0.108236
O O1 0.864262 0.340573 0.644624
O O2 0.787596 0.616378 0.804539
O O3 0.000000 0.500000 0.500000
O O4 0.129354 0.270130 0.635918
O O5 0.283144 0.307262 0.721539
O O6 0.500000 0.000000 0.500000
O O7 0.252234 0.048722 0.778935
O O8 0.582824 0.351295 0.808789
O O9 0.931074 0.025078 0.703934
O O10 0.724656 0.349331 0.925855
O O11 0.456890 0.144244 0.231641
O O12 0.208114 0.122570 0.262264
O O13 0.500000 0.000000 0.000000
O O14 0.755195 0.455320 0.116154
O O15 0.950019 0.321822 0.220276
O O16 0.000000 0.500000 0.000000
O O17 0.392005 0.704190 0.812531
O O18 0.239023 0.987271 0.029869
#
# Coordination Sequence:
#
# PCOD9011352 Si02
#       8
#     2   2   2   2   2   2   2   2
#     4  12  25  47  71  93 138 190 233 279 346 423
#     4  12  27  44  68  99 138 188 230 276 352 418
#     4  10  23  41  67 105 136 182 228 284 351 402
#     4  10  21  40  70  99 134 176 230 285 337 408
#     4  12  24  42  69 106 136 175 227 289 348 409
#     4  10  21  40  66 100 138 175 221 285 346 399
#     4  10  22  37  66 104 133 169 224 289 338 401
#     4  10  23  39  69 105 141 170 228 293 346 401
#
# _framework density 22.331257000000001
#
# number of rings (size 3 to 8) (size 9 to 14) (size 15 to 20)
#    0.000    1.250    3.750    1.500    5.250    1.000 
#    0.000    1.250    0.000    0.000    0.000    0.000 
#    0.000    0.000    0.000    0.000    0.000    0.000 
#
# Total GULP energy -89387.165075 kJ/mol
# GULP energy per Si atom -5586.697817 kJ/mol
# Density = 2.228043 g / cm^3
# Si number density = 22.331257 Si / 1000 Ang^3
#
#
#
# Elastic Constant Matrix: (Units=GPa)
#
#
# Indices 1 2 3 4 5 6 
#
# 1 146.9285 54.0507 29.4406 -9.7062 -0.1105 3.6788
# 2 54.0507 171.1572 42.3766 -3.4422 -4.8234 11.3389
# 3 29.4406 42.3766 44.1573 5.0234 -10.4870 4.6805
# 4 -9.7062 -3.4422 5.0234 46.7797 0.2335 -2.0271
# 5 -0.1105 -4.8234 -10.4870 0.2335 14.3769 -2.6626
# 6 3.6788 11.3389 4.6805 -2.0271 -2.6626 41.9738
#
#
#
# Elastic Compliance Matrix: (Units=1/GPa)
#
#
# Indices 1 2 3 4 5 6 
#
# 1 0.008625 -0.001374 -0.005813 0.002339 -0.004658 0.000081
# 2 -0.001374 0.008203 -0.007679 0.001099 -0.003134 -0.001385
# 3 -0.005813 -0.007679 0.041186 -0.006356 0.027418 -0.000577
# 4 0.002339 0.001099 -0.006356 0.022692 -0.004429 0.001022
# 5 -0.004658 -0.003134 0.027418 -0.004429 0.089215 0.003643
# 6 0.000081 -0.001385 -0.000577 0.001022 0.003643 0.024536
#
#
# Mechanical properties :
#
#
# Convention : Reuss Voigt Hill
#
# Bulk Modulus (GPa) = 35.35589 68.21986 51.78787
# Shear Modulus (GPa) = 21.40252 36.38443 28.89347
#
# Velocity S-wave (km/s) = 3.09918 4.04084 3.60093
# Velocity P-wave (km/s) = 5.35475 7.23786 6.36632
#
# Compressibility (1/GPa) = 0.02828383
#
# Stress axis : x y z
#
# Youngs Moduli (GPa) = 115.93769 121.90315 24.27981
#
# Poissons Ratio (x) = 0.16752 0.14113
# Poissons Ratio (y) = 0.15933 0.18643
# Poissons Ratio (z) = 0.67392 0.93604
#
# Static dielectric constant tensor:
#      x y z
#    x 1.807010 -0.042300 -0.010070 
#    y -0.042300 1.813280 -0.022260 
#    z -0.010070 -0.022260 1.886910 
# 
# From -- ./inp_files/417086.got.cif
#   From: 2010.05.17/outbox.cif.g08.bks.cpg/sg2_209_cif.got.tgz:417086.got - 2010.06.03 11:33:40.
