data_PCOD9011196
_publ_section_title
;
Structure prediction by ZEFSAII (Michael W. Deem and Ramdas Pophale) SiO2 
 PCOD9011196
Probable space group: P -1
;
_chemical_formula_sum "Si O2"
_cell_formula_units_Z 16
_cell_length_a 7.813407
_cell_length_b 13.332424
_cell_length_c 15.934242
_cell_angle_alpha 151.709309
_cell_angle_beta 97.284905
_cell_angle_gamma 78.765035
_cell_volume 768.038999
_symmetry_space_group_name_H-M "P -1"
_symmetry_group_IT_number 2
_symmetry_cell_setting 'triclinic'
loop_
_space_group_symop_operation_xyz
x,y,z
-x,-y,-z
loop_
_atom_site_type_symbol
_atom_site_label
_atom_site_fract_x
_atom_site_fract_y
_atom_site_fract_z
Si Si1 0.302188 0.093558 0.586231
Si Si2 0.204494 0.119541 0.420767
Si Si3 0.474542 0.278065 0.874034
Si Si4 0.343238 0.078955 0.862117
Si Si5 0.832856 0.144137 0.458698
Si Si6 0.806539 0.649059 0.804974
Si Si7 0.112109 0.547368 0.623773
Si Si8 0.462415 0.702334 0.709466
O O1 0.219212 0.205302 0.580124
O O2 0.316713 0.234849 0.772594
O O3 0.500000 0.000000 0.500000
O O4 0.206923 0.915249 0.491912
O O5 0.194918 0.314808 0.498818
O O6 0.021132 0.037180 0.354758
O O7 0.361300 0.919193 0.270099
O O8 0.425127 0.265375 0.958671
O O9 0.500000 0.500000 0.000000
O O10 0.297624 0.930322 0.672956
O O11 0.459993 0.914493 0.810156
O O12 0.193432 0.202668 0.004349
O O13 0.827251 0.397255 0.641253
O O14 0.616651 0.696877 0.782497
O O15 0.965728 0.668103 0.766959
O O16 0.268740 0.680276 0.715200
O O17 0.000000 0.500000 0.500000
O O18 0.500000 0.500000 0.500000
#
# Coordination Sequence:
#
# PCOD9011196 Si02
#       8
#     2   2   2   2   2   2   2   2
#     4   9  20  36  64  88 119 165 221 255 324 393
#     4  10  21  40  65  94 123 171 217 262 334 393
#     4  10  23  41  63  95 132 166 213 278 320 388
#     4  11  24  43  62  97 129 170 223 264 328 393
#     4  10  21  42  63  89 131 170 202 281 326 383
#     4  11  25  41  67  95 134 173 222 269 327 392
#     4  11  23  41  69 100 130 172 223 267 327 394
#     4  12  21  41  69  91 133 178 216 274 330 377
#
# _framework density 20.832277000000001
#
# number of rings (size 3 to 8) (size 9 to 14) (size 15 to 20)
#    0.000    1.500    2.500    2.250    7.000    0.500 
#    6.750    1.250    0.000    0.000    0.000    0.000 
#    0.000    0.000    0.000    0.000    0.000    0.000 
#
# Total GULP energy -89142.878529 kJ/mol
# GULP energy per Si atom -5571.429908 kJ/mol
# Density = 2.078486 g / cm^3
# Si number density = 20.832277 Si / 1000 Ang^3
#
#
#
# Elastic Constant Matrix: (Units=GPa)
#
#
# Indices 1 2 3 4 5 6 
#
# 1 87.4746 41.9568 -4.4482 7.3181 -6.5880 11.3225
# 2 41.9568 149.4049 25.3227 15.0135 -4.2831 9.5335
# 3 -4.4482 25.3227 52.4447 1.7815 -18.3572 7.5794
# 4 7.3181 15.0135 1.7815 18.1311 8.2733 -4.4231
# 5 -6.5880 -4.2831 -18.3572 8.2733 24.3706 -5.0502
# 6 11.3225 9.5335 7.5794 -4.4231 -5.0502 37.7814
#
#
#
# Elastic Compliance Matrix: (Units=1/GPa)
#
#
# Indices 1 2 3 4 5 6 
#
# 1 0.016733 -0.004412 0.009535 -0.011622 0.013771 -0.005334
# 2 -0.004412 0.009286 -0.005367 -0.004559 -0.002216 -0.000774
# 3 0.009535 -0.005367 0.036125 -0.020224 0.034359 -0.006525
# 4 -0.011622 -0.004559 -0.020224 0.090278 -0.047139 0.012958
# 5 0.013771 -0.002216 0.034359 -0.047139 0.085302 -0.004577
# 6 -0.005334 -0.000774 -0.006525 0.012958 -0.004577 0.030476
#
#
# Mechanical properties :
#
#
# Convention : Reuss Voigt Hill
#
# Bulk Modulus (GPa) = 16.21897 46.10965 31.16431
# Shear Modulus (GPa) = 17.28676 31.15611 24.22144
#
# Velocity S-wave (km/s) = 2.88376 3.87145 3.41352
# Velocity P-wave (km/s) = 4.34632 6.49354 5.52524
#
# Compressibility (1/GPa) = 0.06165620
#
# Stress axis : x y z
#
# Youngs Moduli (GPa) = 59.76242 107.69057 27.68193
#
# Poissons Ratio (x) = 0.47515 -0.26396
# Poissons Ratio (y) = 0.26368 0.14857
# Poissons Ratio (z) = -0.56986 0.57797
#
# Static dielectric constant tensor:
#      x y z
#    x 2.056270 0.020400 0.063810 
#    y 0.020400 1.811790 0.016840 
#    z 0.063810 0.016840 1.798400 
# 
# From -- ./inp_files/418599.got.cif
#   From: 2010.05.17/outbox.cif.g08.bks.cpg/sg2_210_cif.got.tgz:418599.got - 2010.06.03 11:33:40.
