data_PCOD9011557
_publ_section_title
;
Structure prediction by ZEFSAII (Michael W. Deem and Ramdas Pophale) SiO2 
 PCOD9011557
Probable space group: P -1
;
_chemical_formula_sum "Si O2"
_cell_formula_units_Z 14
_cell_length_a 8.542927
_cell_length_b 11.895173
_cell_length_c 17.399962
_cell_angle_alpha 29.598111
_cell_angle_beta 136.478679
_cell_angle_gamma 127.561717
_cell_volume 600.259031
_symmetry_space_group_name_H-M "P -1"
_symmetry_group_IT_number 2
_symmetry_cell_setting 'triclinic'
loop_
_space_group_symop_operation_xyz
x,y,z
-x,-y,-z
loop_
_atom_site_type_symbol
_atom_site_label
_atom_site_fract_x
_atom_site_fract_y
_atom_site_fract_z
Si Si1 0.047407 0.396933 0.495129
Si Si2 0.307308 0.668944 0.002987
Si Si3 0.485174 0.892306 0.177039
Si Si4 0.614557 0.204539 0.377139
Si Si5 0.945345 0.269735 0.970606
Si Si6 0.839573 0.121827 0.805656
Si Si7 0.264458 0.657025 0.822962
O O1 0.270573 0.229432 0.676585
O O2 0.096447 0.621388 0.331094
O O3 0.000000 0.500000 0.500000
O O4 0.834206 0.274147 0.460475
O O5 0.232311 0.751424 0.841884
O O6 0.496078 0.842526 0.993531
O O7 0.429412 0.419667 0.186805
O O8 0.111554 0.680907 0.990179
O O9 0.293551 0.777496 0.127133
O O10 0.410006 0.879194 0.247005
O O11 0.703062 0.178029 0.335892
O O12 0.500000 0.000000 0.500000
O O13 0.065835 0.479628 0.849845
O O14 0.109221 0.040412 0.152750
O O15 0.000000 0.000000 0.000000
O O16 0.500000 0.500000 0.000000
#
# Coordination Sequence:
#
# PCOD9011557 Si02
#       7
#     2   2   2   2   2   2   2
#     4  12  25  42  67 102 136 170 222 280 336 400
#     4  11  23  43  70 100 131 178 229 273 334 405
#     4  11  23  40  68 103 134 173 221 277 338 400
#     4  11  25  47  68  97 138 180 222 279 338 399
#     4  11  21  41  70 100 133 175 223 278 335 398
#     4  10  21  40  66  95 131 175 216 269 332 396
#     4  10  23  43  67  95 130 177 226 270 326 400
#
# _framework density 23.323264999999999
#
# number of rings (size 3 to 8) (size 9 to 14) (size 15 to 20)
#    0.000    1.143    0.000    8.143    0.000    6.857 
#    0.000    5.714    0.000    0.000    0.000    1.000 
#    0.000    0.000    0.000    0.000    0.000    0.000 
#
# Total GULP energy -78359.038528 kJ/mol
# GULP energy per Si atom -5597.074181 kJ/mol
# Density = 2.327018 g / cm^3
# Si number density = 23.323265 Si / 1000 Ang^3
#
#
#
# Elastic Constant Matrix: (Units=GPa)
#
#
# Indices 1 2 3 4 5 6 
#
# 1 205.6041 69.9603 51.2469 -6.9166 -12.8896 -12.3130
# 2 69.9603 101.1341 41.8678 -7.6453 -13.8953 13.8913
# 3 51.2469 41.8678 69.3055 -15.8907 -17.1539 2.2503
# 4 -6.9166 -7.6453 -15.8907 35.6202 6.8848 -13.1921
# 5 -12.8896 -13.8953 -17.1539 6.8848 46.1514 -13.7289
# 6 -12.3130 13.8913 2.2503 -13.1921 -13.7289 53.9015
#
#
#
# Elastic Compliance Matrix: (Units=1/GPa)
#
#
# Indices 1 2 3 4 5 6 
#
# 1 0.007182 -0.004179 -0.002655 0.000328 0.000624 0.003068
# 2 -0.004179 0.016304 -0.007212 -0.002537 -0.000205 -0.005529
# 3 -0.002655 -0.007212 0.024151 0.009037 0.005892 0.003956
# 4 0.000328 -0.002537 0.009037 0.034905 0.000136 0.008929
# 5 0.000624 -0.000205 0.005892 0.000136 0.025908 0.006582
# 6 0.003068 -0.005529 0.003956 0.008929 0.006582 0.024375
#
#
# Mechanical properties :
#
#
# Convention : Reuss Voigt Hill
#
# Bulk Modulus (GPa) = 51.16863 78.02152 64.59507
# Shear Modulus (GPa) = 29.86274 41.33253 35.59764
#
# Velocity S-wave (km/s) = 3.58213 4.21427 3.91099
# Velocity P-wave (km/s) = 6.25263 7.56339 6.93903
#
# Compressibility (1/GPa) = 0.01954322
#
# Stress axis : x y z
#
# Youngs Moduli (GPa) = 139.24502 61.33434 41.40590
#
# Poissons Ratio (x) = 0.25634 0.10995
# Poissons Ratio (y) = 0.58197 0.29862
# Poissons Ratio (z) = 0.36974 0.44234
#
# Static dielectric constant tensor:
#      x y z
#    x 1.942330 -0.019600 -0.030880 
#    y -0.019600 1.928810 0.011950 
#    z -0.030880 0.011950 1.912390 
# 
# From -- ./inp_files/559615.got.cif
#   From: 2010.05.17/outbox.cif.g08.bks.cpg/sg2_280_cif.got.tgz:559615.got - 2010.06.03 11:33:40.
