data_PCOD9011929
_publ_section_title
;
Structure prediction by ZEFSAII (Michael W. Deem and Ramdas Pophale) SiO2 
 PCOD9011929
Probable space group: P -1
;
_chemical_formula_sum "Si O2"
_cell_formula_units_Z 16
_cell_length_a 17.278996
_cell_length_b 7.746182
_cell_length_c 11.664923
_cell_angle_alpha 103.437657
_cell_angle_beta 40.585233
_cell_angle_gamma 71.840853
_cell_volume 628.632996
_symmetry_space_group_name_H-M "P -1"
_symmetry_group_IT_number 2
_symmetry_cell_setting 'triclinic'
loop_
_space_group_symop_operation_xyz
x,y,z
-x,-y,-z
loop_
_atom_site_type_symbol
_atom_site_label
_atom_site_fract_x
_atom_site_fract_y
_atom_site_fract_z
Si Si1 0.782773 0.722260 0.920864
Si Si2 0.244688 0.605599 0.964952
Si Si3 0.209240 0.258758 0.357236
Si Si4 0.696141 0.465056 0.681601
Si Si5 0.170452 0.437493 0.821465
Si Si6 0.627721 0.087697 0.346871
Si Si7 0.974282 0.184764 0.145118
Si Si8 0.682519 0.255133 0.889661
O O1 0.783534 0.739335 0.787952
O O2 0.997092 0.527928 0.683772
O O3 0.751061 0.559516 0.973390
O O4 0.627426 0.016508 0.206086
O O5 0.136396 0.629111 0.985714
O O6 0.447289 0.394616 0.643634
O O7 0.216167 0.806090 0.114759
O O8 0.329329 0.292809 0.261892
O O9 0.255535 0.998388 0.283771
O O10 0.894486 0.211977 0.359115
O O11 0.699739 0.388653 0.795336
O O12 0.535656 0.536549 0.810666
O O13 0.328531 0.130394 0.652027
O O14 0.182210 0.513020 0.695515
O O15 0.000000 0.500000 0.000000
O O16 0.818444 0.976814 0.111411
O O17 0.000000 0.000000 0.000000
#
# Coordination Sequence:
#
# PCOD9011929 Si02
#       8
#     2   2   2   2   2   2   2   2
#     4  10  21  40  67  99 135 179 230 284 347 412
#     4  11  22  43  69 107 143 175 237 293 346 420
#     4  11  23  44  69  99 138 185 235 282 346 424
#     4  11  24  48  66 101 144 181 238 288 346 422
#     4   9  21  40  65 100 133 183 226 270 353 416
#     4  10  21  41  68  99 138 179 223 288 346 414
#     4  11  23  42  66  97 141 181 229 290 349 413
#     4  11  26  44  71 103 138 186 231 293 356 402
#
# _framework density 25.452051999999998
#
# number of rings (size 3 to 8) (size 9 to 14) (size 15 to 20)
#    0.000    1.500    2.500    2.625    0.000    5.500 
#    6.750    1.875    0.000    0.000    0.000    0.000 
#    0.000    0.000    0.000    0.000    0.000    0.000 
#
# Total GULP energy -89301.859335 kJ/mol
# GULP energy per Si atom -5581.366208 kJ/mol
# Density = 2.539412 g / cm^3
# Si number density = 25.452052 Si / 1000 Ang^3
#
#
#
# Elastic Constant Matrix: (Units=GPa)
#
#
# Indices 1 2 3 4 5 6 
#
# 1 153.3610 35.1971 37.0695 -13.6387 2.4564 17.1940
# 2 35.1971 61.1078 32.3772 -6.5640 1.3996 19.3413
# 3 37.0695 32.3772 117.4471 -27.4064 -4.4238 17.8465
# 4 -13.6387 -6.5640 -27.4064 29.1258 3.5298 -0.0010
# 5 2.4564 1.3996 -4.4238 3.5298 27.9559 1.2454
# 6 17.1940 19.3413 17.8465 -0.0010 1.2454 39.8710
#
#
#
# Elastic Compliance Matrix: (Units=1/GPa)
#
#
# Indices 1 2 3 4 5 6 
#
# 1 0.007869 -0.003396 -0.000861 0.002216 -0.000878 -0.001333
# 2 -0.003396 0.023003 -0.004175 -0.000196 -0.001142 -0.007790
# 3 -0.000861 -0.004175 0.013020 0.010769 0.001140 -0.003467
# 4 0.002216 -0.000196 0.010769 0.045949 -0.004035 -0.005553
# 5 -0.000878 -0.001142 0.001140 -0.004035 0.036627 -0.000722
# 6 -0.001333 -0.007790 -0.003467 -0.005553 -0.000722 0.031009
#
#
# Mechanical properties :
#
#
# Convention : Reuss Voigt Hill
#
# Bulk Modulus (GPa) = 36.99796 60.13371 48.56583
# Shear Modulus (GPa) = 27.27044 34.54199 30.90622
#
# Velocity S-wave (km/s) = 3.27684 3.68793 3.48845
# Velocity P-wave (km/s) = 5.37446 6.46622 5.94545
#
# Compressibility (1/GPa) = 0.02702852
#
# Stress axis : x y z
#
# Youngs Moduli (GPa) = 127.08737 43.47236 76.80700
#
# Poissons Ratio (x) = 0.14763 0.06612
# Poissons Ratio (y) = 0.43160 0.32063
# Poissons Ratio (z) = 0.10940 0.18148
#
# Static dielectric constant tensor:
#      x y z
#    x 2.353130 0.130370 -0.007970 
#    y 0.130370 2.203330 0.124180 
#    z -0.007970 0.124180 2.039460 
# 
# From -- ./inp_files/461467.got.cif
#   From: 2010.05.17/outbox.cif.g08.bks.cpg/sg2_231_cif.got.tgz:461467.got - 2010.06.03 11:33:40.
