data_PCOD9011528
_publ_section_title
;
Structure prediction by ZEFSAII (Michael W. Deem and Ramdas Pophale) SiO2 
 PCOD9011528
Probable space group: P -1
;
_chemical_formula_sum "Si O2"
_cell_formula_units_Z 16
_cell_length_a 14.760319
_cell_length_b 11.308811
_cell_length_c 9.120581
_cell_angle_alpha 124.085047
_cell_angle_beta 73.690252
_cell_angle_gamma 60.405253
_cell_volume 693.846184
_symmetry_space_group_name_H-M "P -1"
_symmetry_group_IT_number 2
_symmetry_cell_setting 'triclinic'
loop_
_space_group_symop_operation_xyz
x,y,z
-x,-y,-z
loop_
_atom_site_type_symbol
_atom_site_label
_atom_site_fract_x
_atom_site_fract_y
_atom_site_fract_z
Si Si1 0.909484 0.284102 0.593696
Si Si2 0.853864 0.871761 0.835877
Si Si3 0.514549 0.125870 0.174803
Si Si4 0.006838 0.617929 0.876754
Si Si5 0.593372 0.818573 0.168096
Si Si6 0.265655 0.157489 0.640721
Si Si7 0.331197 0.622273 0.680995
Si Si8 0.901413 0.216422 0.892083
O O1 0.913617 0.254835 0.746493
O O2 0.050508 0.210260 0.412952
O O3 0.734746 0.569259 0.836626
O O4 0.951009 0.079927 0.364242
O O5 0.971705 0.648410 0.743494
O O6 0.687212 0.990410 0.969964
O O7 0.803327 0.086709 0.086239
O O8 0.372043 0.422953 0.440294
O O9 0.526652 0.043043 0.274536
O O10 0.500000 0.000000 0.000000
O O11 0.138369 0.347823 0.701149
O O12 0.834159 0.811562 0.175940
O O13 0.074858 0.686558 0.938257
O O14 0.681651 0.765886 0.238627
O O15 0.443630 0.895465 0.316638
O O16 0.500000 0.500000 0.500000
O O17 0.269299 0.648993 0.890061
#
# Coordination Sequence:
#
# PCOD9011528 Si02
#       8
#     2   2   2   2   2   2   2   2
#     4  10  23  40  62  96 135 174 222 276 332 393
#     4  10  23  43  67  96 136 179 226 274 337 402
#     4  11  24  41  64 101 139 175 220 283 340 392
#     4  11  21  41  69  98 126 174 227 274 331 405
#     4  11  22  41  62  91 130 175 219 267 334 392
#     4  10  23  39  65  95 127 169 225 273 323 399
#     4   9  21  42  68  96 132 179 226 270 328 402
#     4  10  21  40  66  94 131 178 224 272 328 394
#
# _framework density 23.059866
#
# number of rings (size 3 to 8) (size 9 to 14) (size 15 to 20)
#    0.000    1.750    2.500    0.750    1.750    6.500 
#    2.250    0.625    0.000    0.000    0.000    0.000 
#    0.000    0.000    0.000    0.000    0.000    0.000 
#
# Total GULP energy -89285.877532 kJ/mol
# GULP energy per Si atom -5580.367346 kJ/mol
# Density = 2.300738 g / cm^3
# Si number density = 23.059866 Si / 1000 Ang^3
#
#
#
# Elastic Constant Matrix: (Units=GPa)
#
#
# Indices 1 2 3 4 5 6 
#
# 1 92.5853 33.4394 50.9665 -11.8134 -4.3886 11.9124
# 2 33.4394 79.1894 26.5231 -17.1378 -4.9408 9.4758
# 3 50.9665 26.5231 119.7866 -14.5811 -23.6709 12.1041
# 4 -11.8134 -17.1378 -14.5811 36.6964 19.6698 -0.7567
# 5 -4.3886 -4.9408 -23.6709 19.6698 52.0947 -3.7141
# 6 11.9124 9.4758 12.1041 -0.7567 -3.7141 24.0228
#
#
#
# Elastic Compliance Matrix: (Units=1/GPa)
#
#
# Indices 1 2 3 4 5 6 
#
# 1 0.016161 -0.004052 -0.005864 0.002447 -0.002884 -0.003830
# 2 -0.004052 0.016607 -0.001116 0.007134 -0.002260 -0.004103
# 3 -0.005864 -0.001116 0.012241 -0.000211 0.004894 -0.002069
# 4 0.002447 0.007134 -0.000211 0.038804 -0.014214 -0.004896
# 5 -0.002884 -0.002260 0.004894 -0.014214 0.026580 0.003517
# 6 -0.003830 -0.004103 -0.002069 -0.004896 0.003517 0.046577
#
#
# Mechanical properties :
#
#
# Convention : Reuss Voigt Hill
#
# Bulk Modulus (GPa) = 43.58572 57.04660 50.31616
# Shear Modulus (GPa) = 26.78340 34.60493 30.69417
#
# Velocity S-wave (km/s) = 3.41174 3.87803 3.65233
# Velocity P-wave (km/s) = 5.87044 6.69659 6.29708
#
# Compressibility (1/GPa) = 0.02294329
#
# Stress axis : x y z
#
# Youngs Moduli (GPa) = 61.87882 60.21531 81.69343
#
# Poissons Ratio (x) = 0.24401 0.47904
# Poissons Ratio (y) = 0.25075 0.09121
# Poissons Ratio (z) = 0.36285 0.06723
#
# Static dielectric constant tensor:
#      x y z
#    x 1.878010 0.017170 0.029080 
#    y 0.017170 1.911120 0.001140 
#    z 0.029080 0.001140 1.933440 
# 
# From -- ./inp_files/308302.got.cif
#   From: 2010.05.17/outbox.cif.g08.bks.cpg/sg2_155_cif.got.tgz:308302.got - 2010.06.03 11:33:40.
