data_PCOD9011789
_publ_section_title
;
Structure prediction by ZEFSAII (Michael W. Deem and Ramdas Pophale) SiO2 
 PCOD9011789
Probable space group: P -1
;
_chemical_formula_sum "Si O2"
_cell_formula_units_Z 16
_cell_length_a 16.115691
_cell_length_b 16.876529
_cell_length_c 16.967169
_cell_angle_alpha 148.675965
_cell_angle_beta 162.619089
_cell_angle_gamma 32.473239
_cell_volume 704.565715
_symmetry_space_group_name_H-M "P -1"
_symmetry_group_IT_number 2
_symmetry_cell_setting 'triclinic'
loop_
_space_group_symop_operation_xyz
x,y,z
-x,-y,-z
loop_
_atom_site_type_symbol
_atom_site_label
_atom_site_fract_x
_atom_site_fract_y
_atom_site_fract_z
Si Si1 0.827941 0.901385 0.313753
Si Si2 0.702184 0.041448 0.896955
Si Si3 0.615472 0.497788 0.419603
Si Si4 0.276963 0.639159 0.879779
Si Si5 0.020371 0.464717 0.896171
Si Si6 0.758899 0.609578 0.483575
Si Si7 0.347916 0.904943 0.344740
Si Si8 0.238728 0.872013 0.794856
O O1 0.911432 0.721000 0.211890
O O2 0.942928 0.918998 0.521652
O O3 0.489962 0.939297 0.036146
O O4 0.000000 0.000000 0.500000
O O5 0.617443 0.206524 0.916608
O O6 0.739492 0.075913 0.051685
O O7 0.013868 0.957242 0.080844
O O8 0.469477 0.946433 0.575240
O O9 0.744671 0.522058 0.642542
O O10 0.749401 0.589027 0.550857
O O11 0.689720 0.315121 0.308398
O O12 0.278089 0.534256 0.151041
O O13 0.197788 0.561354 0.660571
O O14 0.006861 0.677580 0.723873
O O15 0.500000 0.500000 0.000000
O O16 0.000000 0.500000 0.000000
O O17 0.470605 0.722539 0.292833
O O18 0.500000 0.000000 0.500000
#
# Coordination Sequence:
#
# PCOD9011789 Si02
#       8
#     2   2   2   2   2   2   2   2
#     4  10  21  40  67  93 125 164 205 270 323 394
#     4  12  25  45  66  94 134 180 219 270 333 391
#     4  10  22  40  69  93 129 168 214 279 314 387
#     4  11  25  40  72  95 130 179 227 278 308 401
#     4  10  22  42  65  94 128 168 207 262 340 393
#     4  11  25  43  63 103 130 173 233 270 329 385
#     4  12  26  44  65  91 139 181 213 274 339 381
#     4  10  21  41  66  94 125 165 220 263 324 385
#
# _framework density 22.709022999999998
#
# number of rings (size 3 to 8) (size 9 to 14) (size 15 to 20)
#    0.000    1.250    2.500    2.625    5.250    1.000 
#    6.750    0.000    0.000    0.000    0.000    0.000 
#    0.000    0.000    0.000    0.000    0.000    0.000 
#
# Total GULP energy -89467.826457 kJ/mol
# GULP energy per Si atom -5591.739154 kJ/mol
# Density = 2.265734 g / cm^3
# Si number density = 22.709023 Si / 1000 Ang^3
#
#
#
# Elastic Constant Matrix: (Units=GPa)
#
#
# Indices 1 2 3 4 5 6 
#
# 1 110.5457 23.1649 19.6012 10.3883 -22.8522 4.4627
# 2 23.1649 56.0063 18.3723 -1.0183 0.1913 -2.9328
# 3 19.6012 18.3723 93.4004 -3.8481 -22.8271 -11.8697
# 4 10.3883 -1.0183 -3.8481 31.9038 -6.1783 0.5214
# 5 -22.8522 0.1913 -22.8271 -6.1783 42.4321 2.8305
# 6 4.4627 -2.9328 -11.8697 0.5214 2.8305 25.4456
#
#
#
# Elastic Compliance Matrix: (Units=1/GPa)
#
#
# Indices 1 2 3 4 5 6 
#
# 1 0.011819 -0.004934 -0.000648 -0.002893 0.005854 -0.003536
# 2 -0.004934 0.021376 -0.004104 0.000798 -0.004976 0.001952
# 3 -0.000648 -0.004104 0.014290 0.003159 0.007456 0.005412
# 4 -0.002893 0.000798 0.003159 0.033644 0.004981 0.000829
# 5 0.005854 -0.004976 0.007456 0.004981 0.031595 -0.001739
# 6 -0.003536 0.001952 0.005412 0.000829 -0.001739 0.042846
#
#
# Mechanical properties :
#
#
# Convention : Reuss Voigt Hill
#
# Bulk Modulus (GPa) = 35.57020 42.46991 39.02005
# Shear Modulus (GPa) = 27.12774 33.21056 30.16915
#
# Velocity S-wave (km/s) = 3.46002 3.82833 3.64883
# Velocity P-wave (km/s) = 5.62670 6.18740 5.91370
#
# Compressibility (1/GPa) = 0.02811342
#
# Stress axis : x y z
#
# Youngs Moduli (GPa) = 84.60599 46.78149 69.97810
#
# Poissons Ratio (x) = 0.23082 0.04533
# Poissons Ratio (y) = 0.41744 0.28722
# Poissons Ratio (z) = 0.05480 0.19201
#
# Static dielectric constant tensor:
#      x y z
#    x 1.854480 -0.006340 -0.046610 
#    y -0.006340 1.828370 0.028270 
#    z -0.046610 0.028270 1.872670 
# 
# From -- ./inp_files/534481.got.cif
#   From: 2010.05.17/outbox.cif.g08.bks.cpg/sg2_268_cif.got.tgz:534481.got - 2010.06.03 11:33:40.
