data_PCOD9011127
_publ_section_title
;
Structure prediction by ZEFSAII (Michael W. Deem and Ramdas Pophale) SiO2 
 PCOD9011127
Probable space group: P -1
;
_chemical_formula_sum "Si O2"
_cell_formula_units_Z 10
_cell_length_a 11.663799
_cell_length_b 7.612965
_cell_length_c 9.483009
_cell_angle_alpha 64.264571
_cell_angle_beta 46.030257
_cell_angle_gamma 38.491225
_cell_volume 365.811696
_symmetry_space_group_name_H-M "P -1"
_symmetry_group_IT_number 2
_symmetry_cell_setting 'triclinic'
loop_
_space_group_symop_operation_xyz
x,y,z
-x,-y,-z
loop_
_atom_site_type_symbol
_atom_site_label
_atom_site_fract_x
_atom_site_fract_y
_atom_site_fract_z
Si Si1 0.326653 0.889667 0.780481
Si Si2 0.898855 0.869559 0.512871
Si Si3 0.818008 0.428058 0.032267
Si Si4 0.359659 0.284806 0.187406
Si Si5 0.207223 0.593874 0.614233
O O1 0.251963 0.732901 0.880210
O O2 0.404925 0.862490 0.882981
O O3 0.560542 0.706623 0.552150
O O4 0.090668 0.220569 0.827282
O O5 0.731401 0.839792 0.636011
O O6 0.146630 0.625572 0.300759
O O7 0.984679 0.774606 0.635252
O O8 0.772361 0.187589 0.475533
O O9 0.812221 0.464239 0.191076
O O10 0.645393 0.699788 0.981910
#
# Coordination Sequence:
#
# PCOD9011127 Si02
#       5
#     2   2   2   2   2
#     4  10  22  41  65  91 126 166 203 254 314 366
#     4   9  20  40  64  92 127 166 204 252 315 373
#     4  11  22  39  66  96 120 160 216 255 298 373
#     4  10  21  40  65  92 127 164 204 258 312 362
#     4  10  21  41  66  90 124 166 207 253 309 369
#
# _framework density 27.336469000000001
#
# number of rings (size 3 to 8) (size 9 to 14) (size 15 to 20)
#    0.000    2.000    0.000    3.600    0.000    4.000 
#    0.000   24.000    0.000    7.200    0.000    0.000 
#    0.000    0.000    0.000    0.000    0.000    0.000 
#
# Total GULP energy -56161.275054 kJ/mol
# GULP energy per Si atom -5616.127505 kJ/mol
# Density = 2.727425 g / cm^3
# Si number density = 27.336469 Si / 1000 Ang^3
#
#
#
# Elastic Constant Matrix: (Units=GPa)
#
#
# Indices 1 2 3 4 5 6 
#
# 1 128.3175 56.4138 53.5363 -6.4308 10.8275 -33.5896
# 2 56.4138 126.6234 34.6851 6.0706 28.1342 -18.8507
# 3 53.5363 34.6851 92.6802 -2.7715 25.9844 -18.4038
# 4 -6.4308 6.0706 -2.7715 32.4830 -18.6478 0.7076
# 5 10.8275 28.1342 25.9844 -18.6478 38.0134 -15.7464
# 6 -33.5896 -18.8507 -18.4038 0.7076 -15.7464 52.6396
#
#
#
# Elastic Compliance Matrix: (Units=1/GPa)
#
#
# Indices 1 2 3 4 5 6 
#
# 1 0.017779 -0.008932 -0.010155 0.015980 0.020708 0.010575
# 2 -0.008932 0.015828 0.003998 -0.017155 -0.022437 -0.005115
# 3 -0.010155 0.003998 0.020160 -0.013880 -0.022544 -0.004557
# 4 0.015980 -0.017155 -0.013880 0.068849 0.057863 0.015584
# 5 0.020708 -0.022437 -0.022544 0.057863 0.090593 0.023619
# 6 0.010575 -0.005115 -0.004557 0.015584 0.023619 0.029176
#
#
# Mechanical properties :
#
#
# Convention : Reuss Voigt Hill
#
# Bulk Modulus (GPa) = 42.39324 70.76570 56.57947
# Shear Modulus (GPa) = 17.82998 38.15959 27.99478
#
# Velocity S-wave (km/s) = 2.55667 3.74026 3.20360
# Velocity P-wave (km/s) = 4.92514 6.67801 5.86740
#
# Compressibility (1/GPa) = 0.02358866
#
# Stress axis : x y z
#
# Youngs Moduli (GPa) = 56.24680 63.17913 49.60274
#
# Poissons Ratio (x) = 0.56432 0.50372
# Poissons Ratio (y) = 0.50240 -0.19831
# Poissons Ratio (z) = 0.57119 -0.25259
#
# Static dielectric constant tensor:
#      x y z
#    x 2.099910 0.043940 0.058160 
#    y 0.043940 2.062470 0.028370 
#    z 0.058160 0.028370 2.098080 
# 
# From -- ./inp_files/147681.got.cif
#   From: 2010.05.17/outbox.cif.g08.bks.cpg/sg2_74_cif.got.tgz:147681.got - 2010.06.03 11:33:40.
