data_PCOD9011156
_publ_section_title
;
Structure prediction by ZEFSAII (Michael W. Deem and Ramdas Pophale) SiO2 
 PCOD9011156
Probable space group: P -1
;
_chemical_formula_sum "Si O2"
_cell_formula_units_Z 12
_cell_length_a 8.077801
_cell_length_b 11.899713
_cell_length_c 9.795950
_cell_angle_alpha 68.691754
_cell_angle_beta 47.013786
_cell_angle_gamma 98.756704
_cell_volume 519.561484
_symmetry_space_group_name_H-M "P -1"
_symmetry_group_IT_number 2
_symmetry_cell_setting 'triclinic'
loop_
_space_group_symop_operation_xyz
x,y,z
-x,-y,-z
loop_
_atom_site_type_symbol
_atom_site_label
_atom_site_fract_x
_atom_site_fract_y
_atom_site_fract_z
Si Si1 0.883598 0.374249 0.234492
Si Si2 0.081637 0.946914 0.254113
Si Si3 0.537755 0.077903 0.145843
Si Si4 0.288676 0.307625 0.610126
Si Si5 0.028984 0.567521 0.307465
Si Si6 0.120857 0.865757 0.825523
O O1 0.564906 0.315363 0.459721
O O2 0.047355 0.462763 0.238709
O O3 0.913917 0.251445 0.211704
O O4 0.000000 0.500000 0.000000
O O5 0.227417 0.991965 0.299090
O O6 0.945263 0.029019 0.252394
O O7 0.852850 0.775987 0.418061
O O8 0.327005 0.988705 0.989480
O O9 0.594302 0.064411 0.277696
O O10 0.715478 0.256468 0.933289
O O11 0.251346 0.440754 0.565395
O O12 0.102417 0.216327 0.887444
O O13 0.000000 0.500000 0.500000
#
# Coordination Sequence:
#
# PCOD9011156 Si02
#       6
#     2   2   2   2   2   2
#     4  12  23  41  63  91 128 164 209 258 313 373
#     4   9  19  38  63  95 120 166 210 254 315 365
#     4   9  18  37  65  89 125 161 207 259 301 372
#     4  10  22  40  65  88 123 170 205 257 313 369
#     4  10  22  40  63  93 123 166 210 253 316 375
#     4  10  21  40  65  93 125 165 206 260 313 370
#
# _framework density 23.096401
#
# number of rings (size 3 to 8) (size 9 to 14) (size 15 to 20)
#    0.000    2.333    3.333    2.500    2.333    0.667 
#    6.000    2.500    0.000    0.000    0.000    0.000 
#    0.000    0.000    0.000    0.000    0.000    0.000 
#
# Total GULP energy -67009.853151 kJ/mol
# GULP energy per Si atom -5584.154429 kJ/mol
# Density = 2.304383 g / cm^3
# Si number density = 23.096401 Si / 1000 Ang^3
#
#
#
# Elastic Constant Matrix: (Units=GPa)
#
#
# Indices 1 2 3 4 5 6 
#
# 1 92.1187 61.4237 19.6397 13.4522 14.3065 4.9462
# 2 61.4237 167.6843 23.4265 20.0879 3.1218 13.4501
# 3 19.6397 23.4265 54.9289 17.6441 -6.3824 1.9784
# 4 13.4522 20.0879 17.6441 22.6177 2.1822 3.9983
# 5 14.3065 3.1218 -6.3824 2.1822 36.9098 8.3763
# 6 4.9462 13.4501 1.9784 3.9983 8.3763 40.4088
#
#
#
# Elastic Compliance Matrix: (Units=1/GPa)
#
#
# Indices 1 2 3 4 5 6 
#
# 1 0.016430 -0.005266 -0.003963 -0.001610 -0.006857 0.001516
# 2 -0.005266 0.008547 -0.000099 -0.004190 0.002049 -0.002206
# 3 -0.003963 -0.000099 0.026627 -0.018960 0.007369 -0.000437
# 4 -0.001610 -0.004190 -0.018960 0.064698 -0.005503 -0.002741
# 5 -0.006857 0.002049 0.007369 -0.005503 0.032635 -0.006424
# 6 0.001516 -0.002206 -0.000437 -0.002741 -0.006424 0.026920
#
#
# Mechanical properties :
#
#
# Convention : Reuss Voigt Hill
#
# Bulk Modulus (GPa) = 30.35045 58.19021 44.27033
# Shear Modulus (GPa) = 24.33128 34.00339 29.16734
#
# Velocity S-wave (km/s) = 3.24924 3.84114 3.55752
# Velocity P-wave (km/s) = 5.21977 6.70236 6.00698
#
# Compressibility (1/GPa) = 0.03294844
#
# Stress axis : x y z
#
# Youngs Moduli (GPa) = 60.86248 116.99940 37.55596
#
# Poissons Ratio (x) = 0.61612 0.14883
# Poissons Ratio (y) = 0.32050 0.00372
# Poissons Ratio (z) = 0.24120 0.01159
#
# Static dielectric constant tensor:
#      x y z
#    x 1.873530 0.054600 -0.075450 
#    y 0.054600 1.862950 -0.024700 
#    z -0.075450 -0.024700 1.906830 
# 
# From -- ./inp_files/177297.got.cif
#   From: 2010.05.17/outbox.cif.g08.bks.cpg/sg2_89_cif.got.tgz:177297.got - 2010.06.03 11:33:40.
