data_PCOD9011491
_publ_section_title
;
Structure prediction by ZEFSAII (Michael W. Deem and Ramdas Pophale) SiO2 
 PCOD9011491
Probable space group: P -1
;
_chemical_formula_sum "Si O2"
_cell_formula_units_Z 14
_cell_length_a 6.802526
_cell_length_b 10.428776
_cell_length_c 12.131878
_cell_angle_alpha 69.329800
_cell_angle_beta 132.696142
_cell_angle_gamma 95.073941
_cell_volume 577.401786
_symmetry_space_group_name_H-M "P -1"
_symmetry_group_IT_number 2
_symmetry_cell_setting 'triclinic'
loop_
_space_group_symop_operation_xyz
x,y,z
-x,-y,-z
loop_
_atom_site_type_symbol
_atom_site_label
_atom_site_fract_x
_atom_site_fract_y
_atom_site_fract_z
Si Si1 0.124407 0.499531 0.358659
Si Si2 0.731065 0.808961 0.588478
Si Si3 0.665981 0.114541 0.991286
Si Si4 0.298680 0.025411 0.249780
Si Si5 0.400418 0.625996 0.256095
Si Si6 0.538456 0.471855 0.152736
Si Si7 0.309204 0.832468 0.768762
O O1 0.183651 0.356567 0.350585
O O2 0.165092 0.625804 0.257272
O O3 0.339137 0.464581 0.550879
O O4 0.816481 0.520755 0.274826
O O5 0.694123 0.863937 0.681723
O O6 0.980037 0.875423 0.615287
O O7 0.449799 0.874829 0.399819
O O8 0.667434 0.199247 0.081749
O O9 0.978820 0.041920 0.101874
O O10 0.562036 0.225194 0.820825
O O11 0.500000 0.000000 0.000000
O O12 0.492913 0.064861 0.217262
O O13 0.331630 0.545373 0.144925
O O14 0.592730 0.304552 0.226848
O O15 0.500000 0.500000 0.000000
#
# Coordination Sequence:
#
# PCOD9011491 Si02
#       7
#     2   2   2   2   2   2   2
#     4  10  24  43  67  97 128 170 213 269 330 378
#     4   9  20  41  63  98 128 159 221 267 318 388
#     4  11  26  43  60  95 132 171 217 263 316 388
#     4  10  21  40  66  93 125 175 214 264 321 378
#     4  11  24  45  65  93 134 170 216 266 320 389
#     4  11  22  41  67 100 127 168 213 270 326 383
#     4  10  21  40  66  95 125 166 216 266 327 376
#
# _framework density 24.246549000000002
#
# number of rings (size 3 to 8) (size 9 to 14) (size 15 to 20)
#    0.000    1.714    1.429    1.714    4.000    1.143 
#   12.857    0.000    0.000    0.000    0.000    0.000 
#    0.000    0.000    0.000    0.000    0.000    0.000 
#
# Total GULP energy -78220.097839 kJ/mol
# GULP energy per Si atom -5587.149846 kJ/mol
# Density = 2.419136 g / cm^3
# Si number density = 24.246549 Si / 1000 Ang^3
#
#
#
# Elastic Constant Matrix: (Units=GPa)
#
#
# Indices 1 2 3 4 5 6 
#
# 1 106.6649 48.4347 48.9729 -14.0875 -20.8408 25.3187
# 2 48.4347 73.3769 21.9659 0.6237 -14.6553 6.0259
# 3 48.9729 21.9659 86.0402 -5.3833 -17.6430 10.6441
# 4 -14.0875 0.6237 -5.3833 31.0366 -0.1502 -8.3802
# 5 -20.8408 -14.6553 -17.6430 -0.1502 37.7839 0.7892
# 6 25.3187 6.0259 10.6441 -8.3802 0.7892 40.9978
#
#
#
# Elastic Compliance Matrix: (Units=1/GPa)
#
#
# Indices 1 2 3 4 5 6 
#
# 1 0.020877 -0.010162 -0.006927 0.006229 0.004540 -0.008415
# 2 -0.010162 0.020546 0.000519 -0.004333 0.002543 0.002187
# 3 -0.006927 0.000519 0.016244 -0.000363 0.003968 -0.000166
# 4 0.006229 -0.004333 -0.000363 0.036229 0.001641 0.004258
# 5 0.004540 0.002543 0.003968 0.001641 0.031910 -0.004486
# 6 -0.008415 0.002187 -0.000166 0.004258 -0.004486 0.030267
#
#
# Mechanical properties :
#
#
# Convention : Reuss Voigt Hill
#
# Bulk Modulus (GPa) = 40.77188 56.09210 48.43199
# Shear Modulus (GPa) = 25.33066 31.74422 28.53744
#
# Velocity S-wave (km/s) = 3.23571 3.62225 3.43442
# Velocity P-wave (km/s) = 5.55084 6.37797 5.97872
#
# Compressibility (1/GPa) = 0.02452671
#
# Stress axis : x y z
#
# Youngs Moduli (GPa) = 47.89962 48.67130 61.56028
#
# Poissons Ratio (x) = 0.49460 0.42642
# Poissons Ratio (y) = 0.48676 -0.03193
# Poissons Ratio (z) = 0.33180 -0.02524
#
# Static dielectric constant tensor:
#      x y z
#    x 1.894280 0.001480 -0.000760 
#    y 0.001480 1.961770 0.021550 
#    z -0.000760 0.021550 1.946150 
# 
# From -- ./inp_files/109684.got.cif
#   From: 2010.05.17/outbox.cif.g08.bks.cpg/sg2_55_cif.got.tgz:109684.got - 2010.06.03 11:33:40.
