data_PCOD9011923
_publ_section_title
;
Structure prediction by ZEFSAII (Michael W. Deem and Ramdas Pophale) SiO2 
 PCOD9011923
Probable space group: P -1
;
_chemical_formula_sum "Si O2"
_cell_formula_units_Z 14
_cell_length_a 12.358683
_cell_length_b 12.235179
_cell_length_c 12.403616
_cell_angle_alpha 46.742636
_cell_angle_beta 25.002128
_cell_angle_gamma 46.776140
_cell_volume 564.783095
_symmetry_space_group_name_H-M "P -1"
_symmetry_group_IT_number 2
_symmetry_cell_setting 'triclinic'
loop_
_space_group_symop_operation_xyz
x,y,z
-x,-y,-z
loop_
_atom_site_type_symbol
_atom_site_label
_atom_site_fract_x
_atom_site_fract_y
_atom_site_fract_z
Si Si1 0.706635 0.432859 0.451359
Si Si2 0.307413 0.155119 0.603371
Si Si3 0.943461 0.325422 0.658751
Si Si4 0.445618 0.177645 0.903166
Si Si5 0.651054 0.670788 0.880852
Si Si6 0.895824 0.723523 0.064263
Si Si7 0.615852 0.381841 0.197379
O O1 0.500000 0.500000 0.500000
O O2 0.693018 0.254315 0.592233
O O3 0.918662 0.537057 0.168712
O O4 0.587825 0.502189 0.624685
O O5 0.032080 0.203730 0.758410
O O6 0.261279 0.189999 0.749354
O O7 0.454761 0.285218 0.340234
O O8 0.500000 0.000000 0.500000
O O9 0.148812 0.263644 0.418595
O O10 0.000000 0.500000 0.500000
O O11 0.645940 0.318508 0.900294
O O12 0.236738 0.215282 0.968775
O O13 0.344721 0.256797 0.053596
O O14 0.500000 0.000000 0.000000
O O15 0.752766 0.487090 0.928295
O O16 0.192360 0.729578 0.819856
#
# Coordination Sequence:
#
# PCOD9011923 Si02
#       7
#     2   2   2   2   2   2   2
#     4   8  18  37  61  91 126 171 231 281 340 421
#     4  11  26  42  68 103 140 186 237 305 359 436
#     4  12  25  48  75 106 145 190 244 303 357 437
#     4  10  23  43  67 102 144 188 237 301 368 438
#     4  11  26  44  76 107 142 191 246 296 366 430
#     4  10  22  43  70  96 138 185 243 291 367 431
#     4  10  21  40  67  99 128 183 238 292 358 426
#
# _framework density 24.788277999999998
#
# number of rings (size 3 to 8) (size 9 to 14) (size 15 to 20)
#    0.000    1.714    1.429    1.286    8.000    6.857 
#    5.143    0.714    0.000    0.000    0.000    0.000 
#    0.000    0.000    0.000    0.000    0.000    0.000 
#
# Total GULP energy -78137.754328 kJ/mol
# GULP energy per Si atom -5581.268166 kJ/mol
# Density = 2.473186 g / cm^3
# Si number density = 24.788278 Si / 1000 Ang^3
#
#
#
# Elastic Constant Matrix: (Units=GPa)
#
#
# Indices 1 2 3 4 5 6 
#
# 1 171.9494 45.4790 44.5541 17.6761 -2.2602 -20.9232
# 2 45.4790 141.0382 16.7198 -6.2375 7.1479 -8.4501
# 3 44.5541 16.7198 78.1871 13.0194 8.2830 -3.8165
# 4 17.6761 -6.2375 13.0194 30.7140 -3.6549 5.1098
# 5 -2.2602 7.1479 8.2830 -3.6549 46.9915 14.4782
# 6 -20.9232 -8.4501 -3.8165 5.1098 14.4782 35.7225
#
#
#
# Elastic Compliance Matrix: (Units=1/GPa)
#
#
# Indices 1 2 3 4 5 6 
#
# 1 0.008295 -0.002185 -0.003161 -0.004769 -0.000601 0.004930
# 2 -0.002185 0.008122 -0.000849 0.003037 -0.001132 0.000575
# 3 -0.003161 -0.000849 0.016331 -0.006128 -0.004060 0.002215
# 4 -0.004769 0.003037 -0.006128 0.041288 0.007154 -0.011535
# 5 -0.000601 -0.001132 -0.004060 0.007154 0.026666 -0.012885
# 6 0.004930 0.000575 0.002215 -0.011535 -0.012885 0.038126
#
#
# Mechanical properties :
#
#
# Convention : Reuss Voigt Hill
#
# Bulk Modulus (GPa) = 49.12295 67.18675 58.15485
# Shear Modulus (GPa) = 31.64492 41.64706 36.64599
#
# Velocity S-wave (km/s) = 3.57684 4.10336 3.84912
# Velocity P-wave (km/s) = 6.07605 7.04366 6.57768
#
# Compressibility (1/GPa) = 0.02035708
#
# Stress axis : x y z
#
# Youngs Moduli (GPa) = 120.55608 123.12744 61.23210
#
# Poissons Ratio (x) = 0.26905 0.19355
# Poissons Ratio (y) = 0.26343 0.05200
# Poissons Ratio (z) = 0.38108 0.10457
#
# Static dielectric constant tensor:
#      x y z
#    x 2.162320 0.043390 0.047020 
#    y 0.043390 2.017930 0.054710 
#    z 0.047020 0.054710 2.084990 
# 
# From -- ./inp_files/427492.got.cif
#   From: 2010.05.17/outbox.cif.g08.bks.cpg/sg2_214_cif.got.tgz:427492.got - 2010.06.03 11:33:40.
