data_PCOD9011515
_publ_section_title
;
Structure prediction by ZEFSAII (Michael W. Deem and Ramdas Pophale) SiO2 
 PCOD9011515
Probable space group: P -1
;
_chemical_formula_sum "Si O2"
_cell_formula_units_Z 16
_cell_length_a 14.808772
_cell_length_b 11.417458
_cell_length_c 11.481330
_cell_angle_alpha 69.939929
_cell_angle_beta 153.060743
_cell_angle_gamma 123.655784
_cell_volume 670.758586
_symmetry_space_group_name_H-M "P -1"
_symmetry_group_IT_number 2
_symmetry_cell_setting 'triclinic'
loop_
_space_group_symop_operation_xyz
x,y,z
-x,-y,-z
loop_
_atom_site_type_symbol
_atom_site_label
_atom_site_fract_x
_atom_site_fract_y
_atom_site_fract_z
Si Si1 0.350353 0.836416 0.119670
Si Si2 0.765861 0.431467 0.362284
Si Si3 0.662282 0.311717 0.056600
Si Si4 0.159889 0.839908 0.451524
Si Si5 0.182091 0.177181 0.121252
Si Si6 0.312349 0.616798 0.456348
Si Si7 0.056422 0.340876 0.090383
Si Si8 0.801505 0.028166 0.299238
O O1 0.379918 0.716289 0.122745
O O2 0.166261 0.764821 0.039575
O O3 0.228610 0.883468 0.867779
O O4 0.609446 0.996555 0.389642
O O5 0.630898 0.404910 0.091966
O O6 0.784750 0.286554 0.439684
O O7 0.650824 0.420039 0.358622
O O8 0.040172 0.587972 0.626281
O O9 0.460110 0.135389 0.924734
O O10 0.123427 0.880729 0.524751
O O11 0.927637 0.783892 0.124850
O O12 0.446677 0.227976 0.367406
O O13 0.173170 0.263808 0.192342
O O14 0.000000 0.000000 0.000000
O O15 0.255766 0.486754 0.345003
O O16 0.074557 0.619199 0.170640
O O17 0.000000 0.000000 0.500000
#
# Coordination Sequence:
#
# PCOD9011515 Si02
#       8
#     2   2   2   2   2   2   2   2
#     4  11  21  43  65  91 129 174 214 258 334 396
#     4  11  20  41  69  94 125 169 221 267 328 389
#     4  10  21  40  66  94 124 170 213 262 326 394
#     4  11  23  41  66  92 130 174 215 272 330 385
#     4  12  28  43  66 103 133 170 230 280 320 393
#     4  11  25  46  69  96 135 176 222 272 334 394
#     4  11  25  46  70  94 132 183 218 269 340 388
#     4  11  24  41  61  97 135 171 215 270 330 392
#
# _framework density 23.853590000000001
#
# number of rings (size 3 to 8) (size 9 to 14) (size 15 to 20)
#    0.000    1.000    5.000    1.875    5.250    1.000 
#    2.250    0.625    0.000    0.000    0.000    0.000 
#    0.000    0.000    0.000    0.000    0.000    0.000 
#
# Total GULP energy -89361.428311 kJ/mol
# GULP energy per Si atom -5585.089269 kJ/mol
# Density = 2.379930 g / cm^3
# Si number density = 23.853590 Si / 1000 Ang^3
#
#
#
# Elastic Constant Matrix: (Units=GPa)
#
#
# Indices 1 2 3 4 5 6 
#
# 1 110.4005 18.3656 39.2572 4.2419 -7.3313 11.0236
# 2 18.3656 50.6346 29.5487 16.2233 2.0427 -2.8389
# 3 39.2572 29.5487 66.6609 13.9300 -3.4510 -5.9717
# 4 4.2419 16.2233 13.9300 41.3271 3.4732 2.5035
# 5 -7.3313 2.0427 -3.4510 3.4732 22.5433 11.8481
# 6 11.0236 -2.8389 -5.9717 2.5035 11.8481 38.4929
#
#
#
# Elastic Compliance Matrix: (Units=1/GPa)
#
#
# Indices 1 2 3 4 5 6 
#
# 1 0.013179 -0.001482 -0.007764 0.001717 0.006800 -0.007293
# 2 -0.001482 0.029200 -0.010495 -0.007522 -0.005168 0.003030
# 3 -0.007764 -0.010495 0.025580 -0.004048 -0.000024 0.005689
# 4 0.001717 -0.007522 -0.004048 0.028704 -0.002316 -0.002829
# 5 0.006800 -0.005168 -0.000024 -0.002316 0.057906 -0.020005
# 6 -0.007293 0.003030 0.005689 -0.002829 -0.020005 0.035515
#
#
# Mechanical properties :
#
#
# Convention : Reuss Voigt Hill
#
# Bulk Modulus (GPa) = 35.11666 44.67100 39.89383
# Shear Modulus (GPa) = 20.91531 29.84094 25.37812
#
# Velocity S-wave (km/s) = 2.96433 3.54079 3.26531
# Velocity P-wave (km/s) = 5.14490 5.95685 5.56570
#
# Compressibility (1/GPa) = 0.02847652
#
# Stress axis : x y z
#
# Youngs Moduli (GPa) = 75.87681 34.24675 39.09319
#
# Poissons Ratio (x) = 0.05077 0.30353
# Poissons Ratio (y) = 0.11249 0.41026
# Poissons Ratio (z) = 0.58913 0.35940
#
# Static dielectric constant tensor:
#      x y z
#    x 1.959310 0.009160 -0.042920 
#    y 0.009160 1.949710 -0.037560 
#    z -0.042920 -0.037560 1.919280 
# 
# From -- ./inp_files/273507.got.cif
#   From: 2010.05.17/outbox.cif.g08.bks.cpg/sg2_137_cif.got.tgz:273507.got - 2010.06.03 11:33:40.
