data_PCOD9011059
_publ_section_title
;
Structure prediction by ZEFSAII (Michael W. Deem and Ramdas Pophale) SiO2 
 PCOD9011059
Probable space group: P -1
;
_chemical_formula_sum "Si O2"
_cell_formula_units_Z 16
_cell_length_a 11.133727
_cell_length_b 11.183971
_cell_length_c 13.097094
_cell_angle_alpha 81.185984
_cell_angle_beta 70.197083
_cell_angle_gamma 137.912203
_cell_volume 788.822517
_symmetry_space_group_name_H-M "P -1"
_symmetry_group_IT_number 2
_symmetry_cell_setting 'triclinic'
loop_
_space_group_symop_operation_xyz
x,y,z
-x,-y,-z
loop_
_atom_site_type_symbol
_atom_site_label
_atom_site_fract_x
_atom_site_fract_y
_atom_site_fract_z
Si Si1 0.082066 0.150257 0.864195
Si Si2 0.257083 0.632547 0.537044
Si Si3 0.085638 0.444872 0.840121
Si Si4 0.340305 0.732880 0.941825
Si Si5 0.441274 0.543694 0.422616
Si Si6 0.100713 0.975887 0.406749
Si Si7 0.377003 0.271862 0.092812
Si Si8 0.749000 0.154916 0.628550
O O1 0.067265 0.283475 0.865414
O O2 0.359130 0.331322 0.735278
O O3 0.879781 0.955692 0.861911
O O4 0.000000 0.000000 0.000000
O O5 0.212047 0.584934 0.677613
O O6 0.453647 0.691595 0.436508
O O7 0.329157 0.817692 0.441471
O O8 0.000858 0.397071 0.581299
O O9 0.212856 0.581599 0.893626
O O10 0.835594 0.321429 0.936370
O O11 0.443135 0.698606 0.977324
O O12 0.562696 0.990567 0.797731
O O13 0.500000 0.500000 0.500000
O O14 0.154724 0.286998 0.523507
O O15 0.230634 0.961440 0.413069
O O16 0.290168 0.188580 0.245514
O O17 0.000000 0.000000 0.500000
O O18 0.500000 0.500000 0.000000
#
# Coordination Sequence:
#
# PCOD9011059 Si02
#       8
#     2   2   2   2   2   2   2   2
#     4  12  26  41  66  95 126 170 212 258 320 376
#     4  10  21  40  65  89 124 160 208 259 307 373
#     4  11  23  42  63  91 125 167 208 258 316 370
#     4  10  24  42  62  90 128 163 210 260 308 375
#     4  11  21  41  62  94 124 161 212 259 307 376
#     4  10  22  38  65  91 125 168 203 256 314 367
#     4  11  24  44  63  93 130 164 212 264 309 381
#     4   9  21  40  60  92 122 159 210 254 306 372
#
# _framework density 20.283397000000001
#
# number of rings (size 3 to 8) (size 9 to 14) (size 15 to 20)
#    0.000    1.500    2.500    2.250    7.000    3.500 
#    2.250    0.000    0.000    0.000    0.000    0.000 
#    0.000    0.000    0.000    0.000    0.000    0.000 
#
# Total GULP energy -89139.290739 kJ/mol
# GULP energy per Si atom -5571.205671 kJ/mol
# Density = 2.023723 g / cm^3
# Si number density = 20.283397 Si / 1000 Ang^3
#
#
#
# Elastic Constant Matrix: (Units=GPa)
#
#
# Indices 1 2 3 4 5 6 
#
# 1 175.2756 26.2136 80.3768 -1.0930 6.3144 -39.3341
# 2 26.2136 34.5982 9.7517 -3.5659 4.6177 -20.9617
# 3 80.3768 9.7517 102.4169 -7.5475 0.8959 -35.6353
# 4 -1.0930 -3.5659 -7.5475 27.5082 -2.2609 -4.0854
# 5 6.3144 4.6177 0.8959 -2.2609 46.7056 -1.4784
# 6 -39.3341 -20.9617 -35.6353 -4.0854 -1.4784 32.4882
#
#
#
# Elastic Compliance Matrix: (Units=1/GPa)
#
#
# Indices 1 2 3 4 5 6 
#
# 1 0.009985 -0.005759 -0.007563 -0.002529 -0.000767 -0.000276
# 2 -0.005759 0.069615 0.022548 0.024456 -0.003276 0.065602
# 3 -0.007563 0.022548 0.027989 0.015982 0.000236 0.038112
# 4 -0.002529 0.024456 0.015982 0.049324 0.001161 0.036502
# 5 -0.000767 -0.003276 0.000236 0.001161 0.021838 -0.001643
# 6 -0.000276 0.065602 0.038112 0.036502 -0.001643 0.119093
#
#
# Mechanical properties :
#
#
# Convention : Reuss Voigt Hill
#
# Bulk Modulus (GPa) = 7.93397 60.55277 34.24337
# Shear Modulus (GPa) = 15.55663 34.40363 24.98013
#
# Velocity S-wave (km/s) = 2.77242 4.12290 3.51316
# Velocity P-wave (km/s) = 3.76410 7.25138 5.77715
#
# Compressibility (1/GPa) = 0.12604038
#
# Stress axis : x y z
#
# Youngs Moduli (GPa) = 100.15098 14.36477 35.72787
#
# Poissons Ratio (x) = 0.08272 0.27022
# Poissons Ratio (y) = 0.57673 -0.80558
# Poissons Ratio (z) = 0.75748 -0.32389
#
# Static dielectric constant tensor:
#      x y z
#    x 1.905700 -0.031280 -0.046400 
#    y -0.031280 1.789720 0.037210 
#    z -0.046400 0.037210 1.722090 
# 
# From -- ./inp_files/428156.got.cif
#   From: 2010.05.17/outbox.cif.g08.bks.cpg/sg2_215_cif.got.tgz:428156.got - 2010.06.03 11:33:40.
