data_PCOD9011961
_publ_section_title
;
Structure prediction by ZEFSAII (Michael W. Deem and Ramdas Pophale) SiO2 
 PCOD9011961
Probable space group: P -1
;
_chemical_formula_sum "Si O2"
_cell_formula_units_Z 16
_cell_length_a 16.155004
_cell_length_b 27.926590
_cell_length_c 8.971914
_cell_angle_alpha 141.923574
_cell_angle_beta 137.508604
_cell_angle_gamma 17.715607
_cell_volume 757.916322
_symmetry_space_group_name_H-M "P -1"
_symmetry_group_IT_number 2
_symmetry_cell_setting 'triclinic'
loop_
_space_group_symop_operation_xyz
x,y,z
-x,-y,-z
loop_
_atom_site_type_symbol
_atom_site_label
_atom_site_fract_x
_atom_site_fract_y
_atom_site_fract_z
Si Si1 0.945207 0.490976 0.744186
Si Si2 0.629014 0.165782 0.071155
Si Si3 0.276999 0.066391 0.305516
Si Si4 0.099466 0.976608 0.416465
Si Si5 0.783751 0.378920 0.617753
Si Si6 0.749954 0.827169 0.741863
Si Si7 0.619448 0.647262 0.121482
Si Si8 0.860379 0.871365 0.248034
O O1 0.620577 0.671193 0.750330
O O2 0.074823 0.333179 0.511229
O O3 0.114622 0.448356 0.750516
O O4 0.000000 0.500000 0.000000
O O5 0.898506 0.055310 0.216299
O O6 0.541969 0.237379 0.962963
O O7 0.664935 0.053051 0.856688
O O8 0.293392 0.070436 0.161260
O O9 0.985048 0.257157 0.447075
O O10 0.500000 0.000000 0.500000
O O11 0.087820 0.076418 0.635571
O O12 0.000000 0.000000 0.500000
O O13 0.405673 0.778089 0.291529
O O14 0.500000 0.500000 0.500000
O O15 0.943429 0.246830 0.640084
O O16 0.724757 0.500777 0.880777
O O17 0.457187 0.954463 0.698014
O O18 0.894667 0.775939 0.956599
#
# Coordination Sequence:
#
# PCOD9011961 Si02
#       8
#     2   2   2   2   2   2   2   2
#     4  10  21  40  68 101 130 170 226 279 331 394
#     4  11  23  40  69 100 134 173 218 286 339 397
#     4  12  21  40  70 103 135 177 235 279 336 412
#     4  12  25  45  65  95 132 181 226 268 347 414
#     4  12  25  42  68 104 137 179 227 284 345 404
#     4  11  23  44  69 101 136 179 230 280 343 406
#     4  11  22  43  64  97 134 171 226 278 331 398
#     4  11  25  45  68  96 139 185 222 284 346 409
#
# _framework density 21.110510999999999
#
# number of rings (size 3 to 8) (size 9 to 14) (size 15 to 20)
#    0.000    0.750    2.500    7.125    0.000    1.000 
#    0.000    3.125    0.000    0.000    0.000    0.000 
#    0.000    0.000    0.000    0.000    0.000    0.000 
#
# Total GULP energy -89486.838700 kJ/mol
# GULP energy per Si atom -5592.927419 kJ/mol
# Density = 2.106246 g / cm^3
# Si number density = 21.110511 Si / 1000 Ang^3
#
#
#
# Elastic Constant Matrix: (Units=GPa)
#
#
# Indices 1 2 3 4 5 6 
#
# 1 140.3498 29.4770 36.3020 11.8223 8.4167 -13.9466
# 2 29.4770 66.4066 13.6645 -3.6680 3.4769 -31.6186
# 3 36.3020 13.6645 84.2153 14.3109 15.5145 -1.0843
# 4 11.8223 -3.6680 14.3109 36.2632 2.1723 -6.5561
# 5 8.4167 3.4769 15.5145 2.1723 40.7642 9.6743
# 6 -13.9466 -31.6186 -1.0843 -6.5561 9.6743 28.6128
#
#
#
# Elastic Compliance Matrix: (Units=1/GPa)
#
#
# Indices 1 2 3 4 5 6 
#
# 1 0.008763 -0.003336 -0.002819 -0.002034 -0.000376 0.000139
# 2 -0.003336 0.051623 -0.006466 0.021944 -0.018168 0.066346
# 3 -0.002819 -0.006466 0.015716 -0.007390 -0.002361 -0.008819
# 4 -0.002034 0.021944 -0.007390 0.040309 -0.009168 0.035314
# 5 -0.000376 -0.018168 -0.002361 -0.009168 0.035742 -0.034535
# 6 0.000139 0.066346 -0.008819 0.035314 -0.034535 0.127768
#
#
# Mechanical properties :
#
#
# Convention : Reuss Voigt Hill
#
# Bulk Modulus (GPa) = 19.66189 49.98430 34.82310
# Shear Modulus (GPa) = 15.52237 35.22991 25.37614
#
# Velocity S-wave (km/s) = 2.71457 4.08957 3.47084
# Velocity P-wave (km/s) = 4.37712 6.78441 5.70909
#
# Compressibility (1/GPa) = 0.05085981
#
# Stress axis : x y z
#
# Youngs Moduli (GPa) = 114.12143 19.37110 63.62966
#
# Poissons Ratio (x) = 0.06462 0.17939
# Poissons Ratio (y) = 0.38069 0.41143
# Poissons Ratio (z) = 0.32173 0.12525
#
# Static dielectric constant tensor:
#      x y z
#    x 1.799730 0.011040 -0.008310 
#    y 0.011040 1.753160 -0.025100 
#    z -0.008310 -0.025100 1.814580 
# 
# From -- ./inp_files/320752.got.cif
#   From: 2010.05.17/outbox.cif.g08.bks.cpg/sg2_161_cif.got.tgz:320752.got - 2010.06.03 11:33:40.
