data_PCOD9011212
_publ_section_title
;
Structure prediction by ZEFSAII (Michael W. Deem and Ramdas Pophale) SiO2 
 PCOD9011212
Probable space group: P -1
;
_chemical_formula_sum "Si O2"
_cell_formula_units_Z 16
_cell_length_a 11.697023
_cell_length_b 11.966265
_cell_length_c 8.318826
_cell_angle_alpha 80.041578
_cell_angle_beta 124.900308
_cell_angle_gamma 127.836337
_cell_volume 725.154428
_symmetry_space_group_name_H-M "P -1"
_symmetry_group_IT_number 2
_symmetry_cell_setting 'triclinic'
loop_
_space_group_symop_operation_xyz
x,y,z
-x,-y,-z
loop_
_atom_site_type_symbol
_atom_site_label
_atom_site_fract_x
_atom_site_fract_y
_atom_site_fract_z
Si Si1 0.055066 0.660026 0.004274
Si Si2 0.634793 0.039401 0.913619
Si Si3 0.951196 0.274807 0.654102
Si Si4 0.356693 0.503031 0.788068
Si Si5 0.589451 0.234748 0.373355
Si Si6 0.268959 0.397430 0.377108
Si Si7 0.465355 0.288177 0.577548
Si Si8 0.717665 0.004013 0.310523
O O1 0.256572 0.790584 0.077407
O O2 0.031868 0.712874 0.142000
O O3 0.000000 0.500000 0.000000
O O4 0.930579 0.659770 0.777151
O O5 0.582236 0.936784 0.744345
O O6 0.431967 0.973467 0.808439
O O7 0.744478 0.021747 0.136076
O O8 0.789898 0.285184 0.500939
O O9 0.873056 0.125851 0.528200
O O10 0.153385 0.401288 0.721369
O O11 0.424783 0.667856 0.785215
O O12 0.335248 0.448136 0.600784
O O13 0.500000 0.500000 0.000000
O O14 0.561300 0.266522 0.521168
O O15 0.304471 0.286631 0.385545
O O16 0.380257 0.537104 0.309729
O O17 0.377106 0.160648 0.668469
#
# Coordination Sequence:
#
# PCOD9011212 Si02
#       8
#     2   2   2   2   2   2   2   2
#     4  12  24  41  67  99 131 171 217 273 320 384
#     4  10  22  39  64  98 131 164 225 261 328 380
#     4  11  24  41  67  97 127 169 225 264 327 383
#     4  11  25  43  65  95 133 173 216 269 331 385
#     4  10  22  42  67  96 133 170 214 277 316 390
#     4  10  24  41  64  94 134 172 222 264 318 403
#     4  10  21  41  66  91 132 175 209 265 330 375
#     4  10  21  40  65  94 131 174 209 275 319 386
#
# _framework density 22.064264000000001
#
# number of rings (size 3 to 8) (size 9 to 14) (size 15 to 20)
#    0.000    1.500    0.000    4.875    7.000    5.000 
#    2.250    2.500    0.000    0.000    0.000    0.000 
#    0.000    0.000    0.000    0.000    0.000    0.000 
#
# Total GULP energy -89134.199069 kJ/mol
# GULP energy per Si atom -5570.887442 kJ/mol
# Density = 2.201404 g / cm^3
# Si number density = 22.064264 Si / 1000 Ang^3
#
#
#
# Elastic Constant Matrix: (Units=GPa)
#
#
# Indices 1 2 3 4 5 6 
#
# 1 54.6791 4.1690 17.6181 9.4851 13.5182 0.4937
# 2 4.1690 96.0013 46.2800 -3.8142 4.3208 5.4308
# 3 17.6181 46.2800 121.0199 2.9632 8.8077 -9.5650
# 4 9.4851 -3.8142 2.9632 31.1085 -2.2555 5.9209
# 5 13.5182 4.3208 8.8077 -2.2555 28.2935 -3.2135
# 6 0.4937 5.4308 -9.5650 5.9209 -3.2135 22.9329
#
#
#
# Elastic Compliance Matrix: (Units=1/GPa)
#
#
# Indices 1 2 3 4 5 6 
#
# 1 0.023118 0.000604 -0.002732 -0.007237 -0.011030 -0.001457
# 2 0.000604 0.013792 -0.005897 0.003273 -0.001063 -0.006733
# 3 -0.002732 -0.005897 0.011567 -0.002339 -0.000813 0.006770
# 4 -0.007237 0.003273 -0.002339 0.037367 0.005475 -0.010475
# 5 -0.011030 -0.001063 -0.000813 0.005475 0.041990 0.004621
# 6 -0.001457 -0.006733 0.006770 -0.010475 0.004621 0.051407
#
#
# Mechanical properties :
#
#
# Convention : Reuss Voigt Hill
#
# Bulk Modulus (GPa) = 30.83741 45.31494 38.07617
# Shear Modulus (GPa) = 24.26006 30.04255 27.15131
#
# Velocity S-wave (km/s) = 3.31950 3.69398 3.51173
# Velocity P-wave (km/s) = 5.35711 6.22706 5.80839
#
# Compressibility (1/GPa) = 0.03242814
#
# Stress axis : x y z
#
# Youngs Moduli (GPa) = 43.25625 72.50644 86.44927
#
# Poissons Ratio (x) = -0.04382 0.23617
# Poissons Ratio (y) = -0.02615 0.50980
# Poissons Ratio (z) = 0.11817 0.42758
#
# Static dielectric constant tensor:
#      x y z
#    x 1.928470 -0.010730 -0.063540 
#    y -0.010730 1.833890 0.017710 
#    z -0.063540 0.017710 1.896000 
# 
# From -- ./inp_files/262333.got.cif
#   From: 2010.05.17/outbox.cif.g08.bks.cpg/sg2_132_cif.got.tgz:262333.got - 2010.06.03 11:33:40.
