data_PCOD9011990
_publ_section_title
;
Structure prediction by ZEFSAII (Michael W. Deem and Ramdas Pophale) SiO2 
 PCOD9011990
Probable space group: P -1
;
_chemical_formula_sum "Si O2"
_cell_formula_units_Z 16
_cell_length_a 8.901182
_cell_length_b 10.830307
_cell_length_c 8.940620
_cell_angle_alpha 116.752356
_cell_angle_beta 91.039972
_cell_angle_gamma 98.353085
_cell_volume 758.064504
_symmetry_space_group_name_H-M "P -1"
_symmetry_group_IT_number 2
_symmetry_cell_setting 'triclinic'
loop_
_space_group_symop_operation_xyz
x,y,z
-x,-y,-z
loop_
_atom_site_type_symbol
_atom_site_label
_atom_site_fract_x
_atom_site_fract_y
_atom_site_fract_z
Si Si1 0.934511 0.146375 0.106979
Si Si2 0.247704 0.313826 0.229751
Si Si3 0.293010 0.073318 0.880972
Si Si4 0.439126 0.001053 0.331499
Si Si5 0.389306 0.553672 0.148990
Si Si6 0.903953 0.850632 0.361967
Si Si7 0.168460 0.764687 0.163777
Si Si8 0.623052 0.707981 0.482143
O O1 0.072408 0.254899 0.238062
O O2 0.784543 0.085020 0.163826
O O3 0.891289 0.220238 0.996183
O O4 0.000000 0.000000 0.000000
O O5 0.279166 0.428700 0.163236
O O6 0.334182 0.370929 0.413115
O O7 0.299603 0.177706 0.078094
O O8 0.187105 0.121481 0.775335
O O9 0.457726 0.073279 0.815532
O O10 0.444811 0.161545 0.381147
O O11 0.500000 0.000000 0.500000
O O12 0.269793 0.916502 0.279332
O O13 0.280784 0.654064 0.131323
O O14 0.504096 0.631118 0.318993
O O15 0.500000 0.500000 0.000000
O O16 0.777498 0.777011 0.435264
O O17 0.025023 0.751343 0.265072
O O18 0.000000 0.000000 0.500000
#
# Coordination Sequence:
#
# PCOD9011990 Si02
#       8
#     2   2   2   2   2   2   2   2
#     4  10  21  40  68 103 135 166 222 285 340 399
#     4  11  24  46  67  95 139 182 227 283 337 400
#     4  11  22  41  69 101 138 176 220 281 347 404
#     4  12  21  38  66 105 135 165 223 284 342 402
#     4  12  28  48  70  95 136 188 236 280 332 408
#     4  12  21  38  70 105 135 175 218 280 349 404
#     4  12  23  41  72 103 133 179 229 277 345 405
#     4  12  25  44  70  98 138 179 228 288 343 400
#
# _framework density 21.106385
#
# number of rings (size 3 to 8) (size 9 to 14) (size 15 to 20)
#    0.000    0.500    6.250    4.125    0.000    3.500 
#    0.000    0.625    0.000    0.000    0.000    0.000 
#    0.000    0.000    0.000    0.000    0.000    0.000 
#
# Total GULP energy -89393.413105 kJ/mol
# GULP energy per Si atom -5587.088319 kJ/mol
# Density = 2.105835 g / cm^3
# Si number density = 21.106385 Si / 1000 Ang^3
#
#
#
# Elastic Constant Matrix: (Units=GPa)
#
#
# Indices 1 2 3 4 5 6 
#
# 1 100.2124 25.3068 30.0297 -0.0532 -7.6158 -3.3034
# 2 25.3068 88.6892 25.6202 -7.4470 1.5687 -1.0966
# 3 30.0297 25.6202 87.8840 -14.7530 11.1205 -19.2891
# 4 -0.0532 -7.4470 -14.7530 30.0010 0.3744 2.7675
# 5 -7.6158 1.5687 11.1205 0.3744 35.6879 -3.1276
# 6 -3.3034 -1.0966 -19.2891 2.7675 -3.1276 34.7760
#
#
#
# Elastic Compliance Matrix: (Units=1/GPa)
#
#
# Indices 1 2 3 4 5 6 
#
# 1 0.012291 -0.002480 -0.004680 -0.002863 0.004141 -0.000906
# 2 -0.002480 0.012976 -0.002925 0.001933 -0.000352 -0.001634
# 3 -0.004680 -0.002925 0.017543 0.007216 -0.005702 0.008106
# 4 -0.002863 0.001933 0.007216 0.037348 -0.003290 0.000523
# 5 0.004141 -0.000352 -0.005702 -0.003290 0.030753 0.000247
# 6 -0.000906 -0.001634 0.008106 0.000523 0.000247 0.033095
#
#
# Mechanical properties :
#
#
# Convention : Reuss Voigt Hill
#
# Bulk Modulus (GPa) = 44.17192 48.74434 46.45813
# Shear Modulus (GPa) = 29.11668 33.14825 31.13246
#
# Velocity S-wave (km/s) = 3.71822 3.96729 3.84477
# Velocity P-wave (km/s) = 6.27751 6.64309 6.46289
#
# Compressibility (1/GPa) = 0.02263882
#
# Stress axis : x y z
#
# Youngs Moduli (GPa) = 81.36104 77.06334 57.00388
#
# Poissons Ratio (x) = 0.19111 0.26680
# Poissons Ratio (y) = 0.20177 0.16675
# Poissons Ratio (z) = 0.38080 0.22542
#
# Static dielectric constant tensor:
#      x y z
#    x 1.788520 -0.025800 0.012540 
#    y -0.025800 1.785390 -0.025130 
#    z 0.012540 -0.025130 1.746780 
# 
# From -- ./inp_files/182724.got.cif
#   From: 2010.05.17/outbox.cif.g08.bks.cpg/sg2_92_cif.got.tgz:182724.got - 2010.06.03 11:33:40.
