data_PCOD9011662
_publ_section_title
;
Structure prediction by ZEFSAII (Michael W. Deem and Ramdas Pophale) SiO2 
 PCOD9011662
Probable space group: P -1
;
_chemical_formula_sum "Si O2"
_cell_formula_units_Z 14
_cell_length_a 7.963566
_cell_length_b 5.640481
_cell_length_c 22.568405
_cell_angle_alpha 108.598098
_cell_angle_beta 143.023092
_cell_angle_gamma 78.287459
_cell_volume 575.523751
_symmetry_space_group_name_H-M "P -1"
_symmetry_group_IT_number 2
_symmetry_cell_setting 'triclinic'
loop_
_space_group_symop_operation_xyz
x,y,z
-x,-y,-z
loop_
_atom_site_type_symbol
_atom_site_label
_atom_site_fract_x
_atom_site_fract_y
_atom_site_fract_z
Si Si1 0.614500 0.400735 0.112848
Si Si2 0.303360 0.132152 0.112247
Si Si3 0.144892 0.097199 0.740390
Si Si4 0.178628 0.164255 0.478741
Si Si5 0.952667 0.940381 0.806916
Si Si6 0.644859 0.257775 0.418230
Si Si7 0.972763 0.535094 0.066253
O O1 0.447773 0.222736 0.098926
O O2 0.814848 0.602209 0.222007
O O3 0.814337 0.237056 0.119549
O O4 0.359823 0.530393 0.020838
O O5 0.213825 0.367167 0.143323
O O6 0.544197 0.980223 0.195113
O O7 0.000000 0.000000 0.000000
O O8 0.052774 0.021909 0.775103
O O9 0.930247 0.965393 0.623079
O O10 0.328587 0.445633 0.533135
O O11 0.906398 0.213111 0.445672
O O12 0.338343 0.954567 0.542486
O O13 0.958818 0.186339 0.868260
O O14 0.646425 0.804312 0.702387
O O15 0.000000 0.500000 0.000000
#
# Coordination Sequence:
#
# PCOD9011662 Si02
#       7
#     2   2   2   2   2   2   2
#     4  10  23  42  63 100 144 180 229 289 358 428
#     4  10  21  40  66  99 132 183 242 281 348 420
#     4  11  25  43  69 103 143 189 226 298 361 429
#     4  10  25  47  75 104 143 185 247 303 359 424
#     4  11  26  43  68 104 142 185 234 292 369 429
#     4  10  25  47  73 107 139 188 245 304 356 431
#     4  10  22  43  69  97 137 185 233 293 342 431
#
# _framework density 24.325669000000001
#
# number of rings (size 3 to 8) (size 9 to 14) (size 15 to 20)
#    0.000    1.714    1.429    0.429   10.000    4.000 
#    5.143    0.000    0.000    0.000    0.000    0.000 
#    0.000    0.000    0.000    0.000    0.000    0.000 
#
# Total GULP energy -78271.071577 kJ/mol
# GULP energy per Si atom -5590.790827 kJ/mol
# Density = 2.427030 g / cm^3
# Si number density = 24.325669 Si / 1000 Ang^3
#
#
#
# Elastic Constant Matrix: (Units=GPa)
#
#
# Indices 1 2 3 4 5 6 
#
# 1 100.8684 48.9531 49.4052 -5.0075 -10.1582 -11.0240
# 2 48.9531 159.8927 74.5490 19.2108 -7.4289 -28.0017
# 3 49.4052 74.5490 147.9020 28.1493 -5.2025 -9.0470
# 4 -5.0075 19.2108 28.1493 46.5486 -6.3339 -2.3301
# 5 -10.1582 -7.4289 -5.2025 -6.3339 34.2126 -8.6922
# 6 -11.0240 -28.0017 -9.0470 -2.3301 -8.6922 39.1977
#
#
#
# Elastic Compliance Matrix: (Units=1/GPa)
#
#
# Indices 1 2 3 4 5 6 
#
# 1 0.014284 -0.002330 -0.004389 0.005955 0.004875 0.002775
# 2 -0.002330 0.009942 -0.003473 -0.001658 0.002163 0.006026
# 3 -0.004389 -0.003473 0.010931 -0.006024 -0.002018 -0.001998
# 4 0.005955 -0.001658 -0.006024 0.027383 0.006090 0.002078
# 5 0.004875 0.002163 -0.002018 0.006090 0.034633 0.010493
# 6 0.002775 0.006026 -0.001998 0.002078 0.010493 0.032587
#
#
# Mechanical properties :
#
#
# Convention : Reuss Voigt Hill
#
# Bulk Modulus (GPa) = 67.68786 83.83085 75.75936
# Shear Modulus (GPa) = 32.24408 39.70884 35.97646
#
# Velocity S-wave (km/s) = 3.64471 4.04466 3.84988
# Velocity P-wave (km/s) = 6.75263 7.50660 7.13958
#
# Compressibility (1/GPa) = 0.01477370
#
# Stress axis : x y z
#
# Youngs Moduli (GPa) = 70.00655 100.58735 91.48217
#
# Poissons Ratio (x) = 0.23435 0.40155
# Poissons Ratio (y) = 0.16310 0.31768
# Poissons Ratio (z) = 0.30728 0.34930
#
# Static dielectric constant tensor:
#      x y z
#    x 1.964640 0.084610 0.002200 
#    y 0.084610 2.154180 -0.022110 
#    z 0.002200 -0.022110 1.881100 
# 
# From -- ./inp_files/188107.got.cif
#   From: 2010.05.17/outbox.cif.g08.bks.cpg/sg2_95_cif.got.tgz:188107.got - 2010.06.03 11:33:40.
