data_PCOD9011796
_publ_section_title
;
Structure prediction by ZEFSAII (Michael W. Deem and Ramdas Pophale) SiO2 
 PCOD9011796
Probable space group: P -1
;
_chemical_formula_sum "Si O2"
_cell_formula_units_Z 14
_cell_length_a 6.473773
_cell_length_b 15.560711
_cell_length_c 13.014652
_cell_angle_alpha 44.924586
_cell_angle_beta 135.693296
_cell_angle_gamma 129.250811
_cell_volume 625.225261
_symmetry_space_group_name_H-M "P -1"
_symmetry_group_IT_number 2
_symmetry_cell_setting 'triclinic'
loop_
_space_group_symop_operation_xyz
x,y,z
-x,-y,-z
loop_
_atom_site_type_symbol
_atom_site_label
_atom_site_fract_x
_atom_site_fract_y
_atom_site_fract_z
Si Si1 0.830189 0.109958 0.347644
Si Si2 0.787399 0.183277 0.493662
Si Si3 0.379684 0.345916 0.306124
Si Si4 0.067160 0.039513 0.870621
Si Si5 0.308004 0.408574 0.426753
Si Si6 0.845336 0.550835 0.039251
Si Si7 0.742539 0.162121 0.039213
O O1 0.687302 0.115208 0.405931
O O2 0.694681 0.111273 0.183633
O O3 0.083927 0.241127 0.324123
O O4 0.000000 0.000000 0.500000
O O5 0.570262 0.273406 0.366834
O O6 0.813869 0.095222 0.674985
O O7 0.124577 0.276106 0.520274
O O8 0.535651 0.395569 0.426258
O O9 0.251630 0.449059 0.114603
O O10 0.114938 0.925549 0.911385
O O11 0.393562 0.143587 0.895367
O O12 0.000000 0.000000 0.000000
O O13 0.500000 0.500000 0.500000
O O14 0.052410 0.470054 0.233087
O O15 0.500000 0.500000 0.000000
O O16 0.033441 0.697244 0.001445
#
# Coordination Sequence:
#
# PCOD9011796 Si02
#       7
#     2   2   2   2   2   2   2
#     4  10  21  40  67  93 129 174 219 284 336 401
#     4  11  23  42  66 102 130 175 232 279 344 415
#     4  10  24  41  66  99 133 177 226 282 343 408
#     4  11  25  43  67 101 143 179 226 284 354 420
#     4  11  24  44  69  96 138 183 225 290 341 403
#     4  11  22  47  71 100 137 182 235 281 341 409
#     4  10  24  45  67 100 136 184 227 286 349 407
#
# _framework density 22.391929999999999
#
# number of rings (size 3 to 8) (size 9 to 14) (size 15 to 20)
#    0.000    1.429    2.857    1.286    2.000    5.714 
#    7.714    0.000    0.000    0.000    0.000    0.000 
#    0.000    0.000    0.000    0.000    0.000    0.000 
#
# Total GULP energy -78029.235847 kJ/mol
# GULP energy per Si atom -5573.516846 kJ/mol
# Density = 2.234097 g / cm^3
# Si number density = 22.391930 Si / 1000 Ang^3
#
#
#
# Elastic Constant Matrix: (Units=GPa)
#
#
# Indices 1 2 3 4 5 6 
#
# 1 113.4228 33.1758 59.3071 9.1835 -19.4107 -26.2928
# 2 33.1758 85.0861 30.5723 22.0978 -18.7649 -4.2614
# 3 59.3071 30.5723 150.4307 -1.5392 -22.4749 -18.6459
# 4 9.1835 22.0978 -1.5392 31.7033 -0.3518 -9.4541
# 5 -19.4107 -18.7649 -22.4749 -0.3518 41.6256 3.5988
# 6 -26.2928 -4.2614 -18.6459 -9.4541 3.5988 51.8045
#
#
#
# Elastic Compliance Matrix: (Units=1/GPa)
#
#
# Indices 1 2 3 4 5 6 
#
# 1 0.013153 -0.002923 -0.003629 -0.000468 0.002431 0.004875
# 2 -0.002923 0.018155 -0.002243 -0.012913 0.005809 -0.003557
# 3 -0.003629 -0.002243 0.009101 0.003605 0.002089 0.001762
# 4 -0.000468 -0.012913 0.003605 0.043249 -0.004436 0.008198
# 5 0.002431 0.005809 0.002089 -0.004436 0.028897 -0.000353
# 6 0.004875 -0.003557 0.001762 0.008198 -0.000353 0.023640
#
#
# Mechanical properties :
#
#
# Convention : Reuss Voigt Hill
#
# Bulk Modulus (GPa) = 43.81939 66.11667 54.96803
# Shear Modulus (GPa) = 30.98087 40.08564 35.53326
#
# Velocity S-wave (km/s) = 3.72368 4.23565 3.98789
# Velocity P-wave (km/s) = 6.17248 7.31519 6.76799
#
# Compressibility (1/GPa) = 0.02282095
#
# Stress axis : x y z
#
# Youngs Moduli (GPa) = 76.02881 55.08255 109.87234
#
# Poissons Ratio (x) = 0.16098 0.39872
# Poissons Ratio (y) = 0.22220 0.24639
# Poissons Ratio (z) = 0.27590 0.12352
#
# Static dielectric constant tensor:
#      x y z
#    x 1.929270 -0.055050 -0.056540 
#    y -0.055050 1.805220 0.069580 
#    z -0.056540 0.069580 1.846300 
# 
# From -- ./inp_files/72582.got.cif
#   From: 2010.05.17/outbox.cif.g08.bks.cpg/sg2_37_cif.got.tgz:72582.got - 2010.06.03 11:33:40.
