data_PCOD9011823
_publ_section_title
;
Structure prediction by ZEFSAII (Michael W. Deem and Ramdas Pophale) SiO2 
 PCOD9011823
Probable space group: P -1
;
_chemical_formula_sum "Si O2"
_cell_formula_units_Z 16
_cell_length_a 9.929223
_cell_length_b 15.066081
_cell_length_c 12.996679
_cell_angle_alpha 101.888276
_cell_angle_beta 134.989689
_cell_angle_gamma 113.171197
_cell_volume 843.677089
_symmetry_space_group_name_H-M "P -1"
_symmetry_group_IT_number 2
_symmetry_cell_setting 'triclinic'
loop_
_space_group_symop_operation_xyz
x,y,z
-x,-y,-z
loop_
_atom_site_type_symbol
_atom_site_label
_atom_site_fract_x
_atom_site_fract_y
_atom_site_fract_z
Si Si1 0.728524 0.746007 0.332000
Si Si2 0.870950 0.550380 0.979179
Si Si3 0.554176 0.177892 0.886961
Si Si4 0.223784 0.967317 0.827315
Si Si5 0.735936 0.053948 0.487699
Si Si6 0.531865 0.152156 0.522172
Si Si7 0.202871 0.363968 0.244530
Si Si8 0.888981 0.880367 0.833531
O O1 0.437067 0.574782 0.151495
O O2 0.570141 0.784518 0.236612
O O3 0.941415 0.810129 0.361973
O O4 0.945921 0.828727 0.570907
O O5 0.789306 0.582026 0.846117
O O6 0.000000 0.500000 0.000000
O O7 0.149902 0.702595 0.221631
O O8 0.364178 0.101809 0.870194
O O9 0.467846 0.059722 0.742189
O O10 0.909074 0.299130 0.126223
O O11 0.117799 0.954169 0.879584
O O12 0.500000 0.000000 0.000000
O O13 0.592740 0.091554 0.464451
O O14 0.700196 0.968828 0.542590
O O15 0.407753 0.190342 0.400171
O O16 0.500000 0.500000 0.500000
O O17 0.165316 0.241330 0.182849
O O18 0.000000 0.000000 0.000000
#
# Coordination Sequence:
#
# PCOD9011823 Si02
#       8
#     2   2   2   2   2   2   2   2
#     4  11  23  39  68  93 129 165 223 271 325 387
#     4  12  23  41  66  94 125 171 220 269 328 399
#     4  11  20  40  65  94 122 166 221 270 319 384
#     4  11  22  38  65  96 126 167 220 274 325 387
#     4  10  21  40  67  95 123 168 218 277 318 385
#     4  11  23  40  68  92 130 167 223 265 331 395
#     4  12  24  40  64  96 135 173 219 270 334 395
#     4  12  26  42  65 100 135 176 216 274 338 393
#
# _framework density 18.964600999999998
#
# number of rings (size 3 to 8) (size 9 to 14) (size 15 to 20)
#    0.000    0.750    3.750    6.000    3.500    0.500 
#    0.000    0.000    0.000    1.500    0.000    0.000 
#    0.000    0.000    0.000    0.000    0.000    0.000 
#
# Total GULP energy -89309.359950 kJ/mol
# GULP energy per Si atom -5581.834997 kJ/mol
# Density = 1.892144 g / cm^3
# Si number density = 18.964601 Si / 1000 Ang^3
#
#
#
# Elastic Constant Matrix: (Units=GPa)
#
#
# Indices 1 2 3 4 5 6 
#
# 1 114.4032 52.0216 42.2180 7.1754 1.9741 15.4699
# 2 52.0216 137.2100 51.7241 -7.0554 2.9484 6.4554
# 3 42.2180 51.7241 106.0406 -13.0057 14.7681 5.9037
# 4 7.1754 -7.0554 -13.0057 32.1991 2.1813 13.5047
# 5 1.9741 2.9484 14.7681 2.1813 30.6908 1.9339
# 6 15.4699 6.4554 5.9037 13.5047 1.9339 35.3130
#
#
#
# Elastic Compliance Matrix: (Units=1/GPa)
#
#
# Indices 1 2 3 4 5 6 
#
# 1 0.012255 -0.003309 -0.003865 -0.004017 0.001844 -0.002682
# 2 -0.003309 0.009916 -0.003398 0.001686 0.000806 -0.000484
# 3 -0.003865 -0.003398 0.014666 0.007629 -0.006856 -0.002680
# 4 -0.004017 0.001686 0.007629 0.042377 -0.005596 -0.015723
# 5 0.001844 0.000806 -0.006856 -0.005596 0.036061 0.000356
# 6 -0.002682 -0.000484 -0.002680 -0.015723 0.000356 0.036023
#
#
# Mechanical properties :
#
#
# Convention : Reuss Voigt Hill
#
# Bulk Modulus (GPa) = 63.72345 72.17570 67.94958
# Shear Modulus (GPa) = 28.14164 33.75325 30.94744
#
# Velocity S-wave (km/s) = 3.85633 4.22335 4.04400
# Velocity P-wave (km/s) = 7.31454 7.86911 7.59689
#
# Compressibility (1/GPa) = 0.01569281
#
# Stress axis : x y z
#
# Youngs Moduli (GPa) = 81.59943 100.84985 68.18470
#
# Poissons Ratio (x) = 0.33374 0.26354
# Poissons Ratio (y) = 0.27004 0.23166
# Poissons Ratio (z) = 0.31539 0.34265
#
# Static dielectric constant tensor:
#      x y z
#    x 1.667810 0.017900 0.020460 
#    y 0.017900 1.698030 0.003870 
#    z 0.020460 0.003870 1.662830 
# 
# From -- ./inp_files/316133.got.cif
#   From: 2010.05.17/outbox.cif.g08.bks.cpg/sg2_159_cif.got.tgz:316133.got - 2010.06.03 11:33:40.
