data_PCOD9011532
_publ_section_title
;
Structure prediction by ZEFSAII (Michael W. Deem and Ramdas Pophale) SiO2 
 PCOD9011532
Probable space group: P -1
;
_chemical_formula_sum "Si O2"
_cell_formula_units_Z 15
_cell_length_a 14.275779
_cell_length_b 15.251475
_cell_length_c 14.167854
_cell_angle_alpha 140.168557
_cell_angle_beta 159.013648
_cell_angle_gamma 38.543621
_cell_volume 678.515249
_symmetry_space_group_name_H-M "P -1"
_symmetry_group_IT_number 2
_symmetry_cell_setting 'triclinic'
loop_
_space_group_symop_operation_xyz
x,y,z
-x,-y,-z
loop_
_atom_site_type_symbol
_atom_site_label
_atom_site_fract_x
_atom_site_fract_y
_atom_site_fract_z
Si Si1 0.242308 0.752132 0.371122
Si Si2 0.000000 0.500000 0.000000
Si Si3 0.687136 0.596629 0.292129
Si Si4 0.703425 0.096890 0.271384
Si Si5 0.156433 0.960063 0.845533
Si Si6 0.794795 0.589055 0.080621
Si Si7 0.367721 0.411581 0.549651
Si Si8 0.689716 0.831846 0.337231
O O1 0.132047 0.617736 0.176107
O O2 0.367522 0.787559 0.616836
O O3 0.476327 0.706979 0.475723
O O4 0.003760 0.884777 0.216921
O O5 0.878999 0.606631 0.066887
O O6 0.619676 0.636251 0.370170
O O7 0.647485 0.734099 0.302479
O O8 0.000000 0.500000 0.500000
O O9 0.500000 0.500000 0.000000
O O10 0.736833 0.136158 0.227286
O O11 0.000000 0.000000 0.500000
O O12 0.500000 0.000000 0.000000
O O13 0.937787 0.897964 0.640828
O O14 0.414868 0.950471 0.146003
O O15 0.056367 0.472216 0.274626
O O16 0.764345 0.726762 0.230494
O O17 0.528096 0.533045 0.793685
#
# Coordination Sequence:
#
# PCOD9011532 Si02
#       8
#     2   1   2   2   2   2   2   2
#     4  10  24  44  67 100 142 182 234 275 348 405
#     4  10  24  42  68 100 140 186 222 284 342 414
#     4  12  22  43  70  99 130 170 233 287 347 408
#     4  10  21  40  66  94 132 186 230 270 324 406
#     4  11  24  40  63  96 136 179 221 274 333 405
#     4  11  23  40  63  99 133 170 226 277 341 399
#     4  11  23  42  67  97 133 174 217 294 343 398
#     4  12  23  40  67  96 131 172 229 280 336 402
#
# _framework density 22.107094
#
# number of rings (size 3 to 8) (size 9 to 14) (size 15 to 20)
#    0.000    1.067    2.667    4.000    0.000   10.667 
#    0.000    1.333    0.000    0.000    0.000    0.000 
#    0.000    0.000    0.000    0.000    0.000    0.000 
#
# Total GULP energy -83726.942812 kJ/mol
# GULP energy per Si atom -5581.796187 kJ/mol
# Density = 2.205678 g / cm^3
# Si number density = 22.107094 Si / 1000 Ang^3
#
#
#
# Elastic Constant Matrix: (Units=GPa)
#
#
# Indices 1 2 3 4 5 6 
#
# 1 108.3653 29.0705 31.9607 0.5837 7.4546 16.5146
# 2 29.0705 77.6753 28.4103 -3.0938 -2.1257 4.4495
# 3 31.9607 28.4103 105.1867 -3.1298 8.9898 6.5555
# 4 0.5837 -3.0938 -3.1298 35.7146 8.9888 -2.5310
# 5 7.4546 -2.1257 8.9898 8.9888 26.7864 7.2375
# 6 16.5146 4.4495 6.5555 -2.5310 7.2375 33.9528
#
#
#
# Elastic Compliance Matrix: (Units=1/GPa)
#
#
# Indices 1 2 3 4 5 6 
#
# 1 0.011560 -0.003306 -0.002248 -0.000673 -0.001274 -0.004534
# 2 -0.003306 0.015493 -0.003431 0.000220 0.003351 -0.000458
# 3 -0.002248 -0.003431 0.011510 0.001836 -0.004222 0.000358
# 4 -0.000673 0.000220 0.001836 0.031654 -0.012368 0.004940
# 5 -0.001274 0.003351 -0.004222 -0.012368 0.046159 -0.009766
# 6 -0.004534 -0.000458 0.000358 0.004940 -0.009766 0.034099
#
#
# Mechanical properties :
#
#
# Convention : Reuss Voigt Hill
#
# Bulk Modulus (GPa) = 48.56241 52.23447 50.39844
# Shear Modulus (GPa) = 28.52082 32.74316 30.63199
#
# Velocity S-wave (km/s) = 3.59572 3.85270 3.72643
# Velocity P-wave (km/s) = 6.26526 6.59320 6.43132
#
# Compressibility (1/GPa) = 0.02059206
#
# Stress axis : x y z
#
# Youngs Moduli (GPa) = 86.50299 64.54445 86.88102
#
# Poissons Ratio (x) = 0.21340 0.19532
# Poissons Ratio (y) = 0.28600 0.29812
# Poissons Ratio (z) = 0.19447 0.22148
#
# Static dielectric constant tensor:
#      x y z
#    x 1.810680 -0.041450 -0.017890 
#    y -0.041450 1.839770 -0.020650 
#    z -0.017890 -0.020650 1.801800 
# 
# From -- ./inp_files/39450.got.cif
#   From: 2010.05.17/outbox.cif.g08.bks.cpg/sg2_20_cif.got.tgz:39450.got - 2010.06.03 11:33:40.
