data_PCOD9011654
_publ_section_title
;
Structure prediction by ZEFSAII (Michael W. Deem and Ramdas Pophale) SiO2 
 PCOD9011654
Probable space group: P -1
;
_chemical_formula_sum "Si O2"
_cell_formula_units_Z 14
_cell_length_a 15.715039
_cell_length_b 11.105155
_cell_length_c 7.831558
_cell_angle_alpha 88.132599
_cell_angle_beta 110.396916
_cell_angle_gamma 34.037343
_cell_volume 566.746033
_symmetry_space_group_name_H-M "P -1"
_symmetry_group_IT_number 2
_symmetry_cell_setting 'triclinic'
loop_
_space_group_symop_operation_xyz
x,y,z
-x,-y,-z
loop_
_atom_site_type_symbol
_atom_site_label
_atom_site_fract_x
_atom_site_fract_y
_atom_site_fract_z
Si Si1 0.412310 0.968024 0.263619
Si Si2 0.465050 0.399677 0.478498
Si Si3 0.862049 0.298518 0.012697
Si Si4 0.931327 0.150414 0.614419
Si Si5 0.035899 0.660501 0.588425
Si Si6 0.787159 0.802515 0.212932
Si Si7 0.845007 0.533891 0.746970
O O1 0.365705 0.899662 0.336990
O O2 0.632937 0.753012 0.490198
O O3 0.244560 0.268010 0.181695
O O4 0.403557 0.953739 0.056000
O O5 0.500000 0.500000 0.500000
O O6 0.359238 0.480271 0.225382
O O7 0.304860 0.576548 0.514512
O O8 0.925170 0.316093 0.904565
O O9 0.905076 0.330006 0.207464
O O10 0.964384 0.049738 0.150611
O O11 0.969553 0.241207 0.579463
O O12 0.000000 0.000000 0.500000
O O13 0.188231 0.365335 0.711288
O O14 0.817636 0.850954 0.397281
O O15 0.981227 0.606300 0.234760
#
# Coordination Sequence:
#
# PCOD9011654 Si02
#       7
#     2   2   2   2   2   2   2
#     4  10  22  38  65  97 135 159 223 295 320 393
#     4  11  25  41  68 105 127 174 231 278 340 394
#     4  10  21  41  69  92 132 174 225 279 325 402
#     4  10  23  44  69  90 137 178 216 275 338 406
#     4  10  22  39  62  97 125 177 226 256 338 396
#     4  11  22  39  69  92 135 178 225 270 329 421
#     4  10  21  40  66  99 126 173 226 276 346 378
#
# _framework density 24.702423
#
# number of rings (size 3 to 8) (size 9 to 14) (size 15 to 20)
#    0.000    1.714    1.429    2.571    4.000    1.143 
#    0.000    9.286    6.286    0.000    0.000    0.000 
#    0.000    0.000    0.000    0.000    0.000    0.000 
#
# Total GULP energy -78071.041421 kJ/mol
# GULP energy per Si atom -5576.502959 kJ/mol
# Density = 2.464620 g / cm^3
# Si number density = 24.702423 Si / 1000 Ang^3
#
#
#
# Elastic Constant Matrix: (Units=GPa)
#
#
# Indices 1 2 3 4 5 6 
#
# 1 149.4468 51.2838 63.6006 -2.3854 -23.7059 46.4990
# 2 51.2838 80.9606 33.2916 9.2699 -4.6267 26.3417
# 3 63.6006 33.2916 185.3646 27.0073 -20.6301 31.0653
# 4 -2.3854 9.2699 27.0073 49.9863 19.3147 -2.0162
# 5 -23.7059 -4.6267 -20.6301 19.3147 63.6369 -3.5242
# 6 46.4990 26.3417 31.0653 -2.0162 -3.5242 54.7115
#
#
#
# Elastic Compliance Matrix: (Units=1/GPa)
#
#
# Indices 1 2 3 4 5 6 
#
# 1 0.011402 -0.004362 -0.001957 0.001153 0.002599 -0.006270
# 2 -0.004362 0.017113 -0.000265 -0.003561 0.000366 -0.004490
# 3 -0.001957 -0.000265 0.007735 -0.005611 0.003319 -0.002594
# 4 0.001153 -0.003561 -0.005611 0.027722 -0.009824 0.004309
# 5 0.002599 0.000366 0.003319 -0.009824 0.020583 -0.003305
# 6 -0.006270 -0.004490 -0.002594 0.004309 -0.003305 0.027187
#
#
# Mechanical properties :
#
#
# Convention : Reuss Voigt Hill
#
# Bulk Modulus (GPa) = 43.32125 79.12488 61.22306
# Shear Modulus (GPa) = 37.70624 51.50668 44.60646
#
# Velocity S-wave (km/s) = 3.91118 4.57123 4.25402
# Velocity P-wave (km/s) = 6.16212 7.74353 6.99764
#
# Compressibility (1/GPa) = 0.02308336
#
# Stress axis : x y z
#
# Youngs Moduli (GPa) = 87.70171 58.43580 129.27538
#
# Poissons Ratio (x) = 0.25487 0.25299
# Poissons Ratio (y) = 0.38252 0.03427
# Poissons Ratio (z) = 0.17163 0.01549
#
# Static dielectric constant tensor:
#      x y z
#    x 1.958400 0.050840 0.023510 
#    y 0.050840 2.040770 0.010690 
#    z 0.023510 0.010690 2.010510 
# 
# From -- ./inp_files/331957.got.cif
#   From: 2010.05.17/outbox.cif.g08.bks.cpg/sg2_166_cif.got.tgz:331957.got - 2010.06.03 11:33:40.
