data_PCOD9011487
_publ_section_title
;
Structure prediction by ZEFSAII (Michael W. Deem and Ramdas Pophale) SiO2 
 PCOD9011487
Probable space group: P -1
;
_chemical_formula_sum "Si O2"
_cell_formula_units_Z 16
_cell_length_a 18.328912
_cell_length_b 8.557280
_cell_length_c 16.840248
_cell_angle_alpha 43.001645
_cell_angle_beta 156.319476
_cell_angle_gamma 144.728093
_cell_volume 611.072953
_symmetry_space_group_name_H-M "P -1"
_symmetry_group_IT_number 2
_symmetry_cell_setting 'triclinic'
loop_
_space_group_symop_operation_xyz
x,y,z
-x,-y,-z
loop_
_atom_site_type_symbol
_atom_site_label
_atom_site_fract_x
_atom_site_fract_y
_atom_site_fract_z
Si Si1 0.696767 0.015056 0.642294
Si Si2 0.441614 0.394643 0.071589
Si Si3 0.901378 0.644989 0.458371
Si Si4 0.573294 0.450502 0.755466
Si Si5 0.887973 0.371111 0.176489
Si Si6 0.612519 0.176100 0.737679
Si Si7 0.865947 0.661755 0.702129
Si Si8 0.988632 0.202615 0.667202
O O1 0.723419 0.776569 0.789413
O O2 0.593443 0.921360 0.487321
O O3 0.500000 0.000000 0.500000
O O4 0.912539 0.310600 0.744784
O O5 0.667099 0.582383 0.271488
O O6 0.381104 0.087138 0.137213
O O7 0.500000 0.500000 0.000000
O O8 0.223509 0.385546 0.873178
O O9 0.066059 0.751843 0.655188
O O10 0.987515 0.800840 0.403678
O O11 0.867567 0.355270 0.506417
O O12 0.598642 0.327258 0.744507
O O13 0.334344 0.393774 0.532359
O O14 0.658198 0.335628 0.949878
O O15 0.935366 0.259390 0.185655
O O16 0.801669 0.395100 0.787572
O O17 0.904764 0.893607 0.716062
#
# Coordination Sequence:
#
# PCOD9011487 Si02
#       8
#     2   2   2   2   2   2   2   2
#     4  11  21  42  62  93 134 167 210 268 319 375
#     4  10  21  40  66  93 123 162 213 263 312 374
#     4  10  23  42  65  93 127 168 220 265 308 385
#     4  11  25  40  62  96 130 173 207 259 325 382
#     4  12  24  40  63  94 133 169 212 261 325 377
#     4  11  22  41  68  92 129 170 212 265 321 373
#     4  11  24  42  61  94 136 162 210 271 318 380
#     4  10  23  42  66  94 124 171 217 261 321 379
#
# _framework density 26.183453
#
# number of rings (size 3 to 8) (size 9 to 14) (size 15 to 20)
#    0.000    1.250    3.750    3.375    1.750    4.500 
#    0.000    0.625    0.000    0.000    0.000    0.000 
#    0.000    0.000    0.000    0.000    0.000    0.000 
#
# Total GULP energy -89522.463273 kJ/mol
# GULP energy per Si atom -5595.153955 kJ/mol
# Density = 2.612386 g / cm^3
# Si number density = 26.183453 Si / 1000 Ang^3
#
#
#
# Elastic Constant Matrix: (Units=GPa)
#
#
# Indices 1 2 3 4 5 6 
#
# 1 70.4147 4.9306 24.0824 -4.4697 -12.8186 -2.5977
# 2 4.9306 68.0072 2.5340 -12.1361 -7.1417 -2.9108
# 3 24.0824 2.5340 175.9935 7.8677 -4.2552 6.5160
# 4 -4.4697 -12.1361 7.8677 40.7921 3.5150 -9.6606
# 5 -12.8186 -7.1417 -4.2552 3.5150 30.0741 2.2775
# 6 -2.5977 -2.9108 6.5160 -9.6606 2.2775 29.9982
#
#
#
# Elastic Compliance Matrix: (Units=1/GPa)
#
#
# Indices 1 2 3 4 5 6 
#
# 1 0.016326 0.000041 -0.002262 0.002209 0.006227 0.002148
# 2 0.000041 0.016129 -0.000529 0.005415 0.002897 0.003207
# 3 -0.002262 -0.000529 0.006186 -0.002162 0.000213 -0.002303
# 4 0.002209 0.005415 -0.002162 0.029566 -0.002358 0.010887
# 5 0.006227 0.002897 0.000213 -0.002358 0.037111 -0.002803
# 6 0.002148 0.003207 -0.002303 0.010887 -0.002803 0.038052
#
#
# Mechanical properties :
#
#
# Convention : Reuss Voigt Hill
#
# Bulk Modulus (GPa) = 30.17444 41.94547 36.05995
# Shear Modulus (GPa) = 31.26626 39.03077 35.14852
#
# Velocity S-wave (km/s) = 3.45936 3.86510 3.66784
# Velocity P-wave (km/s) = 5.24456 5.99778 5.63377
#
# Compressibility (1/GPa) = 0.03314064
#
# Stress axis : x y z
#
# Youngs Moduli (GPa) = 61.25374 62.00073 161.64817
#
# Poissons Ratio (x) = -0.00253 0.36569
# Poissons Ratio (y) = -0.00250 0.08544
# Poissons Ratio (z) = 0.13857 0.03277
#
# Static dielectric constant tensor:
#      x y z
#    x 2.093640 0.040820 -0.007040 
#    y 0.040820 2.074120 0.040910 
#    z -0.007040 0.040910 2.040060 
# 
# From -- ./inp_files/577561.got.cif
#   From: 2010.05.17/outbox.cif.g08.bks.cpg/sg2_289_cif.got.tgz:577561.got - 2010.06.03 11:33:40.
