data_PCOD9011964
_publ_section_title
;
Structure prediction by ZEFSAII (Michael W. Deem and Ramdas Pophale) SiO2 
 PCOD9011964
Probable space group: P -1
;
_chemical_formula_sum "Si O2"
_cell_formula_units_Z 16
_cell_length_a 25.811196
_cell_length_b 6.799580
_cell_length_c 4.994229
_cell_angle_alpha 78.751520
_cell_angle_beta 72.179075
_cell_angle_gamma 118.711389
_cell_volume 667.617967
_symmetry_space_group_name_H-M "P -1"
_symmetry_group_IT_number 2
_symmetry_cell_setting 'triclinic'
loop_
_space_group_symop_operation_xyz
x,y,z
-x,-y,-z
loop_
_atom_site_type_symbol
_atom_site_label
_atom_site_fract_x
_atom_site_fract_y
_atom_site_fract_z
Si Si1 0.918964 0.742197 0.496410
Si Si2 0.368386 0.552722 0.755291
Si Si3 0.063200 0.948515 0.117690
Si Si4 0.211352 0.762195 0.376581
Si Si5 0.810261 0.020817 0.126357
Si Si6 0.563237 0.631096 0.564843
Si Si7 0.288846 0.529588 0.395135
Si Si8 0.492960 0.819445 0.832119
O O1 0.853952 0.489321 0.568906
O O2 0.986026 0.752734 0.366632
O O3 0.912442 0.824244 0.778233
O O4 0.932012 0.954747 0.215446
O O5 0.376787 0.339280 0.702424
O O6 0.341410 0.614517 0.527305
O O7 0.320135 0.497679 0.090514
O O8 0.442987 0.769214 0.682166
O O9 0.113028 0.869591 0.083779
O O10 0.197058 0.835718 0.662444
O O11 0.267338 0.711466 0.330648
O O12 0.223900 0.962126 0.087030
O O13 0.774784 0.738962 0.345353
O O14 0.500000 0.500000 0.500000
O O15 0.548594 0.445873 0.876937
O O16 0.560234 0.846488 0.631145
O O17 0.500000 0.000000 0.000000
#
# Coordination Sequence:
#
# PCOD9011964 Si02
#       8
#     2   2   2   2   2   2   2   2
#     4  10  21  40  68  99 139 175 228 294 355 416
#     4  11  23  45  73  96 136 189 224 274 355 396
#     4  10  21  40  68 101 133 184 226 284 368 414
#     4  12  26  44  70 103 133 186 240 290 347 415
#     4  12  26  44  72  99 132 188 241 281 360 408
#     4   9  20  41  68 100 136 174 217 271 337 408
#     4  12  26  48  69  95 148 183 232 296 330 409
#     4  10  21  43  72 107 138 173 222 281 343 406
#
# _framework density 23.965803999999999
#
# number of rings (size 3 to 8) (size 9 to 14) (size 15 to 20)
#    0.000    1.250    2.500    3.000    1.750    3.000 
#    2.250    6.250    0.000    0.000    0.000    0.000 
#    0.000    0.000    0.000    0.000    0.000    0.000 
#
# Total GULP energy -89592.928499 kJ/mol
# GULP energy per Si atom -5599.558031 kJ/mol
# Density = 2.391126 g / cm^3
# Si number density = 23.965804 Si / 1000 Ang^3
#
#
#
# Elastic Constant Matrix: (Units=GPa)
#
#
# Indices 1 2 3 4 5 6 
#
# 1 193.5628 45.9094 70.2921 26.9259 -9.4529 -29.1157
# 2 45.9094 69.7325 25.2356 23.3493 -7.0395 -11.5985
# 3 70.2921 25.2356 121.0516 38.2726 -3.0417 -20.2694
# 4 26.9259 23.3493 38.2726 38.3097 -2.5099 -0.8779
# 5 -9.4529 -7.0395 -3.0417 -2.5099 41.7322 5.6290
# 6 -29.1157 -11.5985 -20.2694 -0.8779 5.6290 46.8968
#
#
#
# Elastic Compliance Matrix: (Units=1/GPa)
#
#
# Indices 1 2 3 4 5 6 
#
# 1 0.007525 -0.003360 -0.003313 0.000162 0.000590 0.002341
# 2 -0.003360 0.020593 0.002115 -0.012113 0.001667 0.003494
# 3 -0.003313 0.002115 0.014864 -0.013752 -0.000775 0.004726
# 4 0.000162 -0.012113 -0.013752 0.046985 0.000905 -0.008068
# 5 0.000590 0.001667 -0.000775 0.000905 0.024713 -0.002506
# 6 0.002341 0.003494 0.004726 -0.008068 -0.002506 0.025833
#
#
# Mechanical properties :
#
#
# Convention : Reuss Voigt Hill
#
# Bulk Modulus (GPa) = 29.52978 74.13569 51.83273
# Shear Modulus (GPa) = 31.07157 41.58174 36.32665
#
# Velocity S-wave (km/s) = 3.60459 4.16991 3.89751
# Velocity P-wave (km/s) = 5.44725 7.36106 6.47525
#
# Compressibility (1/GPa) = 0.03386412
#
# Stress axis : x y z
#
# Youngs Moduli (GPa) = 132.89078 48.56082 67.27710
#
# Poissons Ratio (x) = 0.16318 0.22291
# Poissons Ratio (y) = 0.44655 -0.14228
# Poissons Ratio (z) = 0.44032 -0.10270
#
# Static dielectric constant tensor:
#      x y z
#    x 1.916410 -0.005020 -0.002190 
#    y -0.005020 1.941640 -0.078830 
#    z -0.002190 -0.078830 1.951160 
# 
# From -- ./inp_files/121635.got.cif
#   From: 2010.05.17/outbox.cif.g08.bks.cpg/sg2_61_cif.got.tgz:121635.got - 2010.06.03 11:33:40.
