data_PCOD9011994
_publ_section_title
;
Structure prediction by ZEFSAII (Michael W. Deem and Ramdas Pophale) SiO2 
 PCOD9011994
Probable space group: P -1
;
_chemical_formula_sum "Si O2"
_cell_formula_units_Z 16
_cell_length_a 16.908806
_cell_length_b 8.315298
_cell_length_c 17.341284
_cell_angle_alpha 131.366504
_cell_angle_beta 29.374543
_cell_angle_gamma 144.638279
_cell_volume 681.429893
_symmetry_space_group_name_H-M "P -1"
_symmetry_group_IT_number 2
_symmetry_cell_setting 'triclinic'
loop_
_space_group_symop_operation_xyz
x,y,z
-x,-y,-z
loop_
_atom_site_type_symbol
_atom_site_label
_atom_site_fract_x
_atom_site_fract_y
_atom_site_fract_z
Si Si1 0.566337 0.123264 0.320034
Si Si2 0.783524 0.177017 0.578173
Si Si3 0.921993 0.438034 0.240690
Si Si4 0.934775 0.803974 0.851843
Si Si5 0.504538 0.425779 0.791703
Si Si6 0.865139 0.558087 0.085847
Si Si7 0.304496 0.473388 0.184398
Si Si8 0.846648 0.803239 0.499060
O O1 0.698773 0.280456 0.334279
O O2 0.647455 0.340058 0.248563
O O3 0.315825 0.923624 0.454644
O O4 0.601534 0.899378 0.210671
O O5 0.645377 0.228537 0.762689
O O6 0.000000 0.500000 0.500000
O O7 0.808850 0.971728 0.529860
O O8 0.956148 0.699362 0.330254
O O9 0.930641 0.268877 0.246729
O O10 0.094218 0.495782 0.051384
O O11 0.882619 0.738727 0.784138
O O12 0.694798 0.594113 0.026768
O O13 0.049238 0.127456 0.877155
O O14 0.692516 0.590270 0.748219
O O15 0.619579 0.546141 0.650229
O O16 0.000000 0.500000 0.000000
O O17 0.500000 0.500000 0.000000
O O18 0.000000 0.000000 0.500000
#
# Coordination Sequence:
#
# PCOD9011994 Si02
#       8
#     2   2   2   2   2   2   2   2
#     4  10  23  44  70 103 137 181 237 291 348 410
#     4  11  25  48  71  99 143 183 230 283 353 418
#     4  11  25  43  70 102 139 188 232 290 348 418
#     4  11  21  41  71 106 137 179 235 293 353 406
#     4  10  22  43  67  98 143 177 229 296 347 413
#     4  10  21  40  68 103 139 177 230 290 341 407
#     4   9  21  43  72 101 130 183 229 286 352 411
#     4  12  27  47  66  99 144 190 234 287 349 421
#
# _framework density 23.480038
#
# number of rings (size 3 to 8) (size 9 to 14) (size 15 to 20)
#    0.000    1.500    2.500    2.625    1.750    5.000 
#    4.500    3.125    0.000    0.000    0.000    0.000 
#    0.000    0.000    0.000    0.000    0.000    0.000 
#
# Total GULP energy -89225.665167 kJ/mol
# GULP energy per Si atom -5576.604073 kJ/mol
# Density = 2.342660 g / cm^3
# Si number density = 23.480038 Si / 1000 Ang^3
#
#
#
# Elastic Constant Matrix: (Units=GPa)
#
#
# Indices 1 2 3 4 5 6 
#
# 1 165.3469 70.5881 56.9732 19.4318 -7.9769 -1.7345
# 2 70.5881 121.5940 55.3912 24.7441 -1.1534 -2.1183
# 3 56.9732 55.3912 57.3413 19.8993 3.3514 -7.9114
# 4 19.4318 24.7441 19.8993 50.1544 -2.6257 -3.1873
# 5 -7.9769 -1.1534 3.3514 -2.6257 42.7640 2.7535
# 6 -1.7345 -2.1183 -7.9114 -3.1873 2.7535 50.3292
#
#
#
# Elastic Compliance Matrix: (Units=1/GPa)
#
#
# Indices 1 2 3 4 5 6 
#
# 1 0.009817 -0.002030 -0.008290 0.000546 0.002534 -0.001154
# 2 -0.002030 0.015499 -0.012564 -0.001922 0.001007 -0.001569
# 3 -0.008290 -0.012564 0.041337 -0.006946 -0.005910 0.005567
# 4 0.000546 -0.001922 -0.006946 0.023552 0.002026 0.000227
# 5 0.002534 0.001007 -0.005910 0.002026 0.024601 -0.002017
# 6 -0.001154 -0.001569 0.005567 0.000227 -0.002017 0.020763
#
#
# Mechanical properties :
#
#
# Convention : Reuss Voigt Hill
#
# Bulk Modulus (GPa) = 47.87936 78.90969 63.39452
# Shear Modulus (GPa) = 26.55372 39.40481 32.97926
#
# Velocity S-wave (km/s) = 3.36654 4.10106 3.75182
# Velocity P-wave (km/s) = 5.96215 7.49033 6.76950
#
# Compressibility (1/GPa) = 0.02088583
#
# Stress axis : x y z
#
# Youngs Moduli (GPa) = 101.86597 64.52034 24.19152
#
# Poissons Ratio (x) = 0.13095 0.20055
# Poissons Ratio (y) = 0.20675 0.30393
# Poissons Ratio (z) = 0.84449 0.81060
#
# Static dielectric constant tensor:
#      x y z
#    x 1.925440 0.031400 0.014480 
#    y 0.031400 1.991590 -0.165280 
#    z 0.014480 -0.165280 2.125370 
# 
# From -- ./inp_files/575591.got.cif
#   From: 2010.05.17/outbox.cif.g08.bks.cpg/sg2_288_cif.got.tgz:575591.got - 2010.06.03 11:33:40.
