data_PCOD9011641
_publ_section_title
;
Structure prediction by ZEFSAII (Michael W. Deem and Ramdas Pophale) SiO2 
 PCOD9011641
Probable space group: P -1
;
_chemical_formula_sum "Si O2"
_cell_formula_units_Z 16
_cell_length_a 11.503265
_cell_length_b 7.543515
_cell_length_c 9.211932
_cell_angle_alpha 64.570339
_cell_angle_beta 58.807963
_cell_angle_gamma 79.198537
_cell_volume 616.921136
_symmetry_space_group_name_H-M "P -1"
_symmetry_group_IT_number 2
_symmetry_cell_setting 'triclinic'
loop_
_space_group_symop_operation_xyz
x,y,z
-x,-y,-z
loop_
_atom_site_type_symbol
_atom_site_label
_atom_site_fract_x
_atom_site_fract_y
_atom_site_fract_z
Si Si1 0.828370 0.348362 0.445915
Si Si2 0.852905 0.576197 0.092920
Si Si3 0.417952 0.122648 0.308733
Si Si4 0.889728 0.245815 0.745445
Si Si5 0.162105 0.017639 0.663562
Si Si6 0.473887 0.704166 0.367522
Si Si7 0.300080 0.119969 0.060299
Si Si8 0.279983 0.725134 0.903593
O O1 0.842391 0.555171 0.279432
O O2 0.914040 0.340391 0.538871
O O3 0.671775 0.329264 0.599932
O O4 0.853414 0.159080 0.389050
O O5 0.735349 0.423286 0.167983
O O6 0.830215 0.760161 0.943174
O O7 0.000000 0.500000 0.000000
O O8 0.287615 0.161539 0.477979
O O9 0.358497 0.129209 0.180901
O O10 0.560877 0.245183 0.176070
O O11 0.454639 0.899179 0.408918
O O12 0.022207 0.124549 0.734988
O O13 0.756272 0.096245 0.865574
O O14 0.826258 0.366382 0.875857
O O15 0.211222 0.918756 0.816169
O O16 0.500000 0.500000 0.500000
O O17 0.585655 0.787862 0.152969
#
# Coordination Sequence:
#
# PCOD9011641 Si02
#       8
#     2   2   2   2   2   2   2   2
#     4  10  21  40  66  98 132 174 228 277 334 410
#     4  11  26  45  69  95 142 182 225 282 351 408
#     4  11  23  41  70 100 133 182 234 280 331 409
#     4  12  22  41  74 102 129 175 236 286 330 407
#     4  10  22  38  66  99 132 173 225 279 335 400
#     4  11  20  38  62 102 133 175 222 281 331 397
#     4  12  22  39  73  99 134 183 236 271 341 406
#     4  11  24  44  66  98 143 177 229 284 341 402
#
# _framework density 25.935244000000001
#
# number of rings (size 3 to 8) (size 9 to 14) (size 15 to 20)
#    0.000    1.000    5.000    3.750    1.750    0.500 
#    0.000    0.625    2.750    0.000    0.000    0.000 
#    0.000    0.000    0.000    0.000    0.000    0.000 
#
# Total GULP energy -89437.474573 kJ/mol
# GULP energy per Si atom -5589.842161 kJ/mol
# Density = 2.587621 g / cm^3
# Si number density = 25.935244 Si / 1000 Ang^3
#
#
#
# Elastic Constant Matrix: (Units=GPa)
#
#
# Indices 1 2 3 4 5 6 
#
# 1 119.2821 27.9420 51.5757 2.8239 -14.2995 -3.7143
# 2 27.9420 49.1702 25.6712 -2.7313 -1.0015 -1.3426
# 3 51.5757 25.6712 124.2351 14.0593 -1.0339 -8.1960
# 4 2.8239 -2.7313 14.0593 31.8941 -10.9818 -1.1446
# 5 -14.2995 -1.0015 -1.0339 -10.9818 51.7233 -0.0111
# 6 -3.7143 -1.3426 -8.1960 -1.1446 -0.0111 33.5289
#
#
#
# Elastic Compliance Matrix: (Units=1/GPa)
#
#
# Indices 1 2 3 4 5 6 
#
# 1 0.011494 -0.004271 -0.004025 0.001548 0.003343 0.000172
# 2 -0.004271 0.025034 -0.003901 0.004278 0.000134 -0.000278
# 3 -0.004025 -0.003901 0.011274 -0.005619 -0.002156 0.001961
# 4 0.001548 0.004278 -0.005619 0.036903 0.008234 0.000232
# 5 0.003343 0.000134 -0.002156 0.008234 0.021966 0.000137
# 6 0.000172 -0.000278 0.001961 0.000232 0.000137 0.030320
#
#
# Mechanical properties :
#
#
# Convention : Reuss Voigt Hill
#
# Bulk Modulus (GPa) = 42.72249 55.89613 49.30931
# Shear Modulus (GPa) = 29.55283 35.92916 32.74099
#
# Velocity S-wave (km/s) = 3.37929 3.72606 3.55690
# Velocity P-wave (km/s) = 5.63335 6.33327 5.99354
#
# Compressibility (1/GPa) = 0.02340688
#
# Stress axis : x y z
#
# Youngs Moduli (GPa) = 87.00235 39.94524 88.70234
#
# Poissons Ratio (x) = 0.17062 0.35703
# Poissons Ratio (y) = 0.37163 0.34603
# Poissons Ratio (z) = 0.35019 0.15583
#
# Static dielectric constant tensor:
#      x y z
#    x 2.030900 -0.001450 0.015450 
#    y -0.001450 2.149160 -0.018710 
#    z 0.015450 -0.018710 2.138880 
# 
# From -- ./inp_files/242453.got.cif
#   From: 2010.05.17/outbox.cif.g08.bks.cpg/sg2_122_cif.got.tgz:242453.got - 2010.06.03 11:33:40.
