data_PCOD9011273
_publ_section_title
;
Structure prediction by ZEFSAII (Michael W. Deem and Ramdas Pophale) SiO2 
 PCOD9011273
Probable space group: P -1
;
_chemical_formula_sum "Si O2"
_cell_formula_units_Z 15
_cell_length_a 17.056058
_cell_length_b 5.094070
_cell_length_c 10.590928
_cell_angle_alpha 86.785678
_cell_angle_beta 140.391606
_cell_angle_gamma 77.501524
_cell_volume 534.801536
_symmetry_space_group_name_H-M "P -1"
_symmetry_group_IT_number 2
_symmetry_cell_setting 'triclinic'
loop_
_space_group_symop_operation_xyz
x,y,z
-x,-y,-z
loop_
_atom_site_type_symbol
_atom_site_label
_atom_site_fract_x
_atom_site_fract_y
_atom_site_fract_z
Si Si1 0.674510 0.089166 0.700102
Si Si2 0.497760 0.266216 0.258324
Si Si3 0.753945 0.307717 0.466783
Si Si4 0.854008 0.854670 0.157655
Si Si5 0.989446 0.760616 0.741456
Si Si6 0.500000 0.000000 0.000000
Si Si7 0.829992 0.474098 0.802490
Si Si8 0.300162 0.736121 0.849750
O O1 0.759821 0.812393 0.727801
O O2 0.529365 0.198921 0.447719
O O3 0.735721 0.326662 0.750526
O O4 0.718508 0.959769 0.898758
O O5 0.615568 0.368472 0.362905
O O6 0.510779 0.034203 0.172475
O O7 0.356451 0.524247 0.043351
O O8 0.841256 0.393257 0.672087
O O9 0.732098 0.446967 0.296802
O O10 0.832994 0.969774 0.542413
O O11 0.943114 0.519112 0.254882
O O12 0.942044 0.023126 0.216289
O O13 0.811906 0.972888 0.242387
O O14 0.036253 0.659129 0.944951
O O15 0.587214 0.187011 0.078956
#
# Coordination Sequence:
#
# PCOD9011273 Si02
#       8
#     2   2   2   2   2   1   2   2
#     4   9  20  38  65  91 130 167 211 259 323 376
#     4  10  23  39  63  96 125 169 215 273 313 378
#     4  10  21  40  65  96 127 169 214 269 322 375
#     4  10  24  45  64  96 132 172 211 262 318 395
#     4  10  22  43  66  95 131 168 215 261 324 382
#     4  10  22  40  64  88 124 164 216 266 316 362
#     4   9  19  37  63  95 127 165 211 268 314 378
#     4  11  25  43  64  94 131 171 218 266 319 381
#
# _framework density 28.047791
#
# number of rings (size 3 to 8) (size 9 to 14) (size 15 to 20)
#    0.000    2.133    0.000    2.000    7.467    3.733 
#    4.800    8.667    0.000    0.000    0.000    0.000 
#    0.000    0.000    0.000    0.000    0.000    0.000 
#
# Total GULP energy -83810.402734 kJ/mol
# GULP energy per Si atom -5587.360182 kJ/mol
# Density = 2.798395 g / cm^3
# Si number density = 28.047791 Si / 1000 Ang^3
#
#
#
# Elastic Constant Matrix: (Units=GPa)
#
#
# Indices 1 2 3 4 5 6 
#
# 1 83.2627 39.5654 15.7007 -1.7529 -15.4838 -11.5578
# 2 39.5654 122.0965 16.8153 16.7089 9.8970 -10.0741
# 3 15.7007 16.8153 97.3537 4.0031 -7.3433 -4.2019
# 4 -1.7529 16.7089 4.0031 37.8327 -7.4075 -12.5112
# 5 -15.4838 9.8970 -7.3433 -7.4075 26.3507 6.5792
# 6 -11.5578 -10.0741 -4.2019 -12.5112 6.5792 46.1451
#
#
#
# Elastic Compliance Matrix: (Units=1/GPa)
#
#
# Indices 1 2 3 4 5 6 
#
# 1 0.020014 -0.008729 -0.000706 0.009156 0.016628 0.003155
# 2 -0.008729 0.013500 -0.001549 -0.008730 -0.013116 0.000123
# 3 -0.000706 -0.001549 0.010893 0.000150 0.003231 0.000057
# 4 0.009156 -0.008730 0.000150 0.036646 0.017028 0.007909
# 5 0.016628 -0.013116 0.003231 0.017028 0.058879 -0.002182
# 6 0.003155 0.000123 0.000057 0.007909 -0.002182 0.024948
#
#
# Mechanical properties :
#
#
# Convention : Reuss Voigt Hill
#
# Bulk Modulus (GPa) = 44.56478 49.65285 47.10882
# Shear Modulus (GPa) = 25.72957 37.44113 31.58535
#
# Velocity S-wave (km/s) = 3.03206 3.65760 3.35942
# Velocity P-wave (km/s) = 5.30860 5.96479 5.64624
#
# Compressibility (1/GPa) = 0.02243925
#
# Stress axis : x y z
#
# Youngs Moduli (GPa) = 49.96463 74.07236 91.80006
#
# Poissons Ratio (x) = 0.64657 0.06482
# Poissons Ratio (y) = 0.43614 0.14221
# Poissons Ratio (z) = 0.03528 0.11475
#
# Static dielectric constant tensor:
#      x y z
#    x 2.131220 0.038440 -0.062600 
#    y 0.038440 2.513000 -0.781170 
#    z -0.062600 -0.781170 3.905610 
# 
# From -- ./inp_files/468123.got.cif
#   From: 2010.05.17/outbox.cif.g08.bks.cpg/sg2_235_cif.got.tgz:468123.got - 2010.06.03 11:33:40.
