data_PCOD9011327
_publ_section_title
;
Structure prediction by ZEFSAII (Michael W. Deem and Ramdas Pophale) SiO2 
 PCOD9011327
Probable space group: P -1
;
_chemical_formula_sum "Si O2"
_cell_formula_units_Z 16
_cell_length_a 22.740883
_cell_length_b 11.274648
_cell_length_c 5.680213
_cell_angle_alpha 117.504402
_cell_angle_beta 113.143972
_cell_angle_gamma 33.781032
_cell_volume 718.127866
_symmetry_space_group_name_H-M "P -1"
_symmetry_group_IT_number 2
_symmetry_cell_setting 'triclinic'
loop_
_space_group_symop_operation_xyz
x,y,z
-x,-y,-z
loop_
_atom_site_type_symbol
_atom_site_label
_atom_site_fract_x
_atom_site_fract_y
_atom_site_fract_z
Si Si1 0.298358 0.120450 0.853723
Si Si2 0.095877 0.439978 0.109062
Si Si3 0.615158 0.487385 0.151706
Si Si4 0.027490 0.828244 0.109998
Si Si5 0.169364 0.494236 0.648833
Si Si6 0.821897 0.271104 0.419776
Si Si7 0.429235 0.692704 0.370899
Si Si8 0.503746 0.075029 0.823055
O O1 0.254929 0.318998 0.819652
O O2 0.352995 0.923307 0.589530
O O3 0.197018 0.228831 0.923755
O O4 0.385065 0.031274 0.087764
O O5 0.054493 0.650267 0.136493
O O6 0.137537 0.407400 0.402536
O O7 0.000000 0.500000 0.000000
O O8 0.717204 0.357371 0.346568
O O9 0.511995 0.633348 0.282251
O O10 0.585803 0.660291 0.092753
O O11 0.629750 0.324806 0.884765
O O12 0.106791 0.810896 0.317303
O O13 0.064581 0.730785 0.818524
O O14 0.906559 0.063348 0.185275
O O15 0.210661 0.531399 0.559988
O O16 0.500000 0.500000 0.500000
O O17 0.500000 0.000000 0.500000
O O18 0.500000 0.000000 0.000000
#
# Coordination Sequence:
#
# PCOD9011327 Si02
#       8
#     2   2   2   2   2   2   2   2
#     4  11  25  44  68  97 137 184 230 298 354 427
#     4  10  24  41  65  98 131 175 234 289 351 433
#     4  11  26  42  70 100 138 186 243 292 357 438
#     4   9  21  40  63  96 132 171 220 282 360 421
#     4  10  22  40  68  93 136 173 226 287 362 425
#     4  10  21  40  65  98 132 172 223 291 352 425
#     4  11  25  47  63  95 141 191 238 290 354 428
#     4  12  27  44  75 110 146 189 243 302 371 435
#
# _framework density 22.280152999999999
#
# number of rings (size 3 to 8) (size 9 to 14) (size 15 to 20)
#    0.000    1.500    1.250    1.875    8.750    6.000 
#    0.000    0.000    0.000    0.000    0.000    0.000 
#    0.000    0.000    0.000    0.000    0.000    0.000 
#
# Total GULP energy -89441.184911 kJ/mol
# GULP energy per Si atom -5590.074057 kJ/mol
# Density = 2.222944 g / cm^3
# Si number density = 22.280153 Si / 1000 Ang^3
#
#
#
# Elastic Constant Matrix: (Units=GPa)
#
#
# Indices 1 2 3 4 5 6 
#
# 1 99.0035 34.9585 55.3053 -3.8195 22.8999 -17.3898
# 2 34.9585 94.4542 34.4518 11.1664 9.2006 -12.5940
# 3 55.3053 34.4518 123.6756 18.6313 15.1304 -21.1099
# 4 -3.8195 11.1664 18.6313 44.8091 -4.0101 -1.9614
# 5 22.8999 9.2006 15.1304 -4.0101 37.1941 -15.9087
# 6 -17.3898 -12.5940 -21.1099 -1.9614 -15.9087 32.0644
#
#
#
# Elastic Compliance Matrix: (Units=1/GPa)
#
#
# Indices 1 2 3 4 5 6 
#
# 1 0.016535 -0.003709 -0.006164 0.004398 -0.005953 0.000768
# 2 -0.003709 0.013015 -0.001159 -0.002964 0.000176 0.002243
# 3 -0.006164 -0.001159 0.012677 -0.005300 0.000203 0.004324
# 4 0.004398 -0.002964 -0.005300 0.025984 0.003418 0.001017
# 5 -0.005953 0.000176 0.000203 0.003418 0.037559 0.015818
# 6 0.000768 0.002243 0.004324 0.001017 0.015818 0.043242
#
#
# Mechanical properties :
#
#
# Convention : Reuss Voigt Hill
#
# Bulk Modulus (GPa) = 49.59734 62.95160 56.27447
# Shear Modulus (GPa) = 28.12180 35.64137 31.88158
#
# Velocity S-wave (km/s) = 3.55659 4.00395 3.78688
# Velocity P-wave (km/s) = 6.25898 7.04921 6.66582
#
# Compressibility (1/GPa) = 0.02016237
#
# Stress axis : x y z
#
# Youngs Moduli (GPa) = 60.47695 76.83428 78.88529
#
# Poissons Ratio (x) = 0.28499 0.48626
# Poissons Ratio (y) = 0.22432 0.09143
# Poissons Ratio (z) = 0.37279 0.08905
#
# Static dielectric constant tensor:
#      x y z
#    x 1.833210 0.026510 -0.031370 
#    y 0.026510 1.825350 -0.006310 
#    z -0.031370 -0.006310 1.862340 
# 
# From -- ./inp_files/123794.got.cif
#   From: 2010.05.17/outbox.cif.g08.bks.cpg/sg2_62_cif.got.tgz:123794.got - 2010.06.03 11:33:40.
