data_PCOD9011090
_publ_section_title
;
Structure prediction by ZEFSAII (Michael W. Deem and Ramdas Pophale) SiO2 
 PCOD9011090
Probable space group: P -1
;
_chemical_formula_sum "Si O2"
_cell_formula_units_Z 16
_cell_length_a 9.728781
_cell_length_b 12.326609
_cell_length_c 14.325602
_cell_angle_alpha 40.455257
_cell_angle_beta 68.760714
_cell_angle_gamma 38.993386
_cell_volume 580.536259
_symmetry_space_group_name_H-M "P -1"
_symmetry_group_IT_number 2
_symmetry_cell_setting 'triclinic'
loop_
_space_group_symop_operation_xyz
x,y,z
-x,-y,-z
loop_
_atom_site_type_symbol
_atom_site_label
_atom_site_fract_x
_atom_site_fract_y
_atom_site_fract_z
Si Si1 0.078029 0.157664 0.979673
Si Si2 0.953647 0.457419 0.206150
Si Si3 0.425306 0.369936 0.664984
Si Si4 0.285457 0.059125 0.655927
Si Si5 0.476843 0.464746 0.137611
Si Si6 0.752314 0.146904 0.514085
Si Si7 0.526256 0.771398 0.974378
Si Si8 0.729528 0.555441 0.551554
O O1 0.946089 0.457617 0.844199
O O2 0.836123 0.263080 0.949999
O O3 0.290264 0.905877 0.172370
O O4 0.256172 0.028580 0.930346
O O5 0.779612 0.543478 0.277190
O O6 0.738059 0.684287 0.030073
O O7 0.156683 0.131686 0.330319
O O8 0.305620 0.671182 0.505067
O O9 0.411752 0.305604 0.607295
O O10 0.250399 0.289697 0.498514
O O11 0.020851 0.238380 0.652913
O O12 0.367082 0.857890 0.685603
O O13 0.492423 0.854098 0.823064
O O14 0.605414 0.500949 0.134968
O O15 0.500000 0.500000 0.000000
O O16 0.452837 0.407869 0.375300
O O17 0.000000 0.000000 0.500000
#
# Coordination Sequence:
#
# PCOD9011090 Si02
#       8
#     2   2   2   2   2   2   2   2
#     4  11  21  40  67  92 120 164 207 259 308 362
#     4  10  21  40  66  93 123 155 212 259 305 363
#     4  10  22  38  65  92 121 160 205 254 310 364
#     4  10  23  40  61  91 125 166 203 251 307 376
#     4  10  23  38  58  89 128 158 205 253 303 367
#     4  10  23  40  61  91 126 162 203 257 305 366
#     4  10  21  40  65  91 125 159 204 257 310 367
#     4  11  22  40  64  87 127 166 204 249 311 373
#
# _framework density 27.560722999999999
#
# number of rings (size 3 to 8) (size 9 to 14) (size 15 to 20)
#    0.000    1.750    0.000    4.500    5.250    2.000 
#    2.250    4.375    0.000    6.000    0.000    0.000 
#    0.000    0.000    0.000    0.000    0.000    0.000 
#
# Total GULP energy -89574.301808 kJ/mol
# GULP energy per Si atom -5598.393863 kJ/mol
# Density = 2.749799 g / cm^3
# Si number density = 27.560723 Si / 1000 Ang^3
#
#
#
# Elastic Constant Matrix: (Units=GPa)
#
#
# Indices 1 2 3 4 5 6 
#
# 1 109.4267 27.6754 22.7414 -16.4125 -6.7596 5.7466
# 2 27.6754 125.1714 30.8203 -31.5696 -0.1155 10.1930
# 3 22.7414 30.8203 81.5250 -8.2476 -8.1783 17.0564
# 4 -16.4125 -31.5696 -8.2476 43.6622 19.2703 -0.7804
# 5 -6.7596 -0.1155 -8.1783 19.2703 46.3162 -18.1129
# 6 5.7466 10.1930 17.0564 -0.7804 -18.1129 49.8252
#
#
#
# Elastic Compliance Matrix: (Units=1/GPa)
#
#
# Indices 1 2 3 4 5 6 
#
# 1 0.010265 -0.001021 -0.002161 0.002766 -0.000130 -0.000240
# 2 -0.001021 0.011837 -0.003072 0.010299 -0.006264 -0.003368
# 3 -0.002161 -0.003072 0.014860 -0.000800 0.001146 -0.003805
# 4 0.002766 0.010299 -0.000800 0.039753 -0.019642 -0.008670
# 5 -0.000130 -0.006264 0.001146 -0.019642 0.035163 0.013379
# 6 -0.000240 -0.003368 -0.003805 -0.008670 0.013379 0.026818
#
#
# Mechanical properties :
#
#
# Convention : Reuss Voigt Hill
#
# Bulk Modulus (GPa) = 40.89009 53.17746 47.03377
# Shear Modulus (GPa) = 31.37651 43.61976 37.49813
#
# Velocity S-wave (km/s) = 3.37775 3.98260 3.69258
# Velocity P-wave (km/s) = 5.48460 6.36276 5.93993
#
# Compressibility (1/GPa) = 0.02445581
#
# Stress axis : x y z
#
# Youngs Moduli (GPa) = 97.41765 84.47899 67.29257
#
# Poissons Ratio (x) = 0.08622 0.14540
# Poissons Ratio (y) = 0.09943 0.20673
# Poissons Ratio (z) = 0.21050 0.25953
#
# Static dielectric constant tensor:
#      x y z
#    x 2.105500 -0.031490 -0.037720 
#    y -0.031490 2.172660 0.022240 
#    z -0.037720 0.022240 2.242650 
# 
# From -- ./inp_files/418029.got.cif
#   From: 2010.05.17/outbox.cif.g08.bks.cpg/sg2_210_cif.got.tgz:418029.got - 2010.06.03 11:33:40.
