data_PCOD9011518
_publ_section_title
;
Structure prediction by ZEFSAII (Michael W. Deem and Ramdas Pophale) SiO2 
 PCOD9011518
Probable space group: P -1
;
_chemical_formula_sum "Si O2"
_cell_formula_units_Z 16
_cell_length_a 16.944220
_cell_length_b 10.673144
_cell_length_c 21.939423
_cell_angle_alpha 129.974793
_cell_angle_beta 165.488222
_cell_angle_gamma 42.811317
_cell_volume 619.900884
_symmetry_space_group_name_H-M "P -1"
_symmetry_group_IT_number 2
_symmetry_cell_setting 'triclinic'
loop_
_space_group_symop_operation_xyz
x,y,z
-x,-y,-z
loop_
_atom_site_type_symbol
_atom_site_label
_atom_site_fract_x
_atom_site_fract_y
_atom_site_fract_z
Si Si1 0.904148 0.724427 0.964114
Si Si2 0.471258 0.339157 0.701310
Si Si3 0.223552 0.884338 0.033463
Si Si4 0.420592 0.338023 0.415924
Si Si5 0.065851 0.946315 0.462533
Si Si6 0.724798 0.462709 0.514370
Si Si7 0.973956 0.860151 0.708275
Si Si8 0.872002 0.292112 0.348253
O O1 0.835761 0.662435 0.828863
O O2 0.516348 0.844677 0.751111
O O3 0.019012 0.876335 0.079647
O O4 0.277957 0.546971 0.222730
O O5 0.846311 0.186970 0.977573
O O6 0.327099 0.480019 0.577307
O O7 0.320329 0.202672 0.529272
O O8 0.273363 0.510864 0.660668
O O9 0.665199 0.817239 0.344602
O O10 0.160179 0.815222 0.900180
O O11 0.500000 0.500000 0.500000
O O12 0.202779 0.424989 0.344952
O O13 0.771475 0.097618 0.613255
O O14 0.007535 0.774218 0.350963
O O15 0.814310 0.146331 0.298315
O O16 0.000000 0.000000 0.500000
O O17 0.254614 0.715447 0.817600
#
# Coordination Sequence:
#
# PCOD9011518 Si02
#       8
#     2   2   2   2   2   2   2   2
#     4  11  23  43  68  94 129 171 219 260 327 389
#     4  11  24  40  62  96 136 173 217 266 326 381
#     4  10  21  40  66  94 126 174 216 265 320 386
#     4  12  23  40  66  95 127 169 219 261 324 387
#     4  11  21  42  71  95 128 168 215 270 327 381
#     4  12  25  40  68  99 130 176 211 268 328 383
#     4  11  21  41  65  95 129 175 215 270 320 388
#     4  10  21  40  66  94 128 173 220 266 327 381
#
# _framework density 25.810576999999999
#
# number of rings (size 3 to 8) (size 9 to 14) (size 15 to 20)
#    0.000    1.000    7.500    1.875    0.000    4.000 
#    0.000    0.000    0.000    7.500    0.000    0.000 
#    0.000    0.000    0.000    0.000    0.000    0.000 
#
# Total GULP energy -89275.549399 kJ/mol
# GULP energy per Si atom -5579.721837 kJ/mol
# Density = 2.575183 g / cm^3
# Si number density = 25.810577 Si / 1000 Ang^3
#
#
#
# Elastic Constant Matrix: (Units=GPa)
#
#
# Indices 1 2 3 4 5 6 
#
# 1 154.0376 53.8633 29.2550 21.5787 -57.4063 -2.2612
# 2 53.8633 142.2117 9.1803 5.9660 -8.1088 -0.6395
# 3 29.2550 9.1803 57.9128 24.6206 -33.7140 0.3755
# 4 21.5787 5.9660 24.6206 41.8267 -14.8712 -17.1284
# 5 -57.4063 -8.1088 -33.7140 -14.8712 45.9738 5.3670
# 6 -2.2612 -0.6395 0.3755 -17.1284 5.3670 45.3661
#
#
#
# Elastic Compliance Matrix: (Units=1/GPa)
#
#
# Indices 1 2 3 4 5 6 
#
# 1 0.017237 -0.005424 0.010774 -0.007038 0.026790 -0.005133
# 2 -0.005424 0.008834 -0.003824 0.001648 -0.007652 0.001413
# 3 0.010774 -0.003824 0.045989 -0.023160 0.040581 -0.013443
# 4 -0.007038 0.001648 -0.023160 0.043449 -0.013512 0.017867
# 5 0.026790 -0.007652 0.040581 -0.013512 0.080851 -0.013775
# 6 -0.005133 0.001413 -0.013443 0.017867 -0.013775 0.030294
#
#
# Mechanical properties :
#
#
# Convention : Reuss Voigt Hill
#
# Bulk Modulus (GPa) = 13.31382 59.86214 36.58798
# Shear Modulus (GPa) = 20.10934 44.09089 32.10011
#
# Velocity S-wave (km/s) = 2.79429 4.13758 3.53041
# Velocity P-wave (km/s) = 3.94718 6.78744 5.55200
#
# Compressibility (1/GPa) = 0.07510990
#
# Stress axis : x y z
#
# Youngs Moduli (GPa) = 58.01373 113.19749 21.74453
#
# Poissons Ratio (x) = 0.61404 -0.23427
# Poissons Ratio (y) = 0.31469 0.08316
# Poissons Ratio (z) = -0.62502 0.43290
#
# Static dielectric constant tensor:
#      x y z
#    x 2.363400 0.243240 0.169820 
#    y 0.243240 2.290050 0.091710 
#    z 0.169820 0.091710 2.041110 
# 
# From -- ./inp_files/599935.got.cif
#   From: 2010.05.17/outbox.cif.g08.bks.cpg/sg2_300_cif.got.tgz:599935.got - 2010.06.03 11:33:40.
