data_PCOD9011643
_publ_section_title
;
Structure prediction by ZEFSAII (Michael W. Deem and Ramdas Pophale) SiO2 
 PCOD9011643
Probable space group: P -1
;
_chemical_formula_sum "Si O2"
_cell_formula_units_Z 16
_cell_length_a 24.073542
_cell_length_b 8.300467
_cell_length_c 10.676036
_cell_angle_alpha 40.456275
_cell_angle_beta 152.430331
_cell_angle_gamma 128.698665
_cell_volume 631.976426
_symmetry_space_group_name_H-M "P -1"
_symmetry_group_IT_number 2
_symmetry_cell_setting 'triclinic'
loop_
_space_group_symop_operation_xyz
x,y,z
-x,-y,-z
loop_
_atom_site_type_symbol
_atom_site_label
_atom_site_fract_x
_atom_site_fract_y
_atom_site_fract_z
Si Si1 0.266154 0.279857 0.251523
Si Si2 0.649332 0.263025 0.253018
Si Si3 0.360388 0.703379 0.052131
Si Si4 0.770166 0.381337 0.815818
Si Si5 0.579000 0.769615 0.047799
Si Si6 0.122433 0.087563 0.847673
Si Si7 0.790661 0.633533 0.380537
Si Si8 0.147168 0.958671 0.597611
O O1 0.182163 0.421922 0.109409
O O2 0.336855 0.022682 0.597616
O O3 0.358266 0.461694 0.279471
O O4 0.196227 0.189555 0.046926
O O5 0.602023 0.400515 0.948890
O O6 0.776756 0.348633 0.491663
O O7 0.558907 0.269340 0.185628
O O8 0.214896 0.828386 0.690040
O O9 0.416059 0.942586 0.071420
O O10 0.656730 0.561738 0.419041
O O11 0.764432 0.164562 0.038371
O O12 0.838440 0.200430 0.953128
O O13 0.646875 0.727430 0.074331
O O14 0.146807 0.258522 0.676437
O O15 0.983453 0.106820 0.598717
O O16 0.853069 0.743591 0.560782
#
# Coordination Sequence:
#
# PCOD9011643 Si02
#       8
#     2   2   2   2   2   2   2   2
#     4  11  24  42  69 100 135 176 232 272 331 409
#     4  12  23  43  66 100 137 176 221 282 333 396
#     4  10  22  43  64  96 136 169 224 277 323 405
#     4  10  21  40  66  98 133 172 223 278 324 401
#     4  11  23  42  66  96 141 175 223 278 334 402
#     4  11  22  46  69  97 138 178 222 284 339 393
#     4  10  21  41  66  94 135 174 221 279 329 398
#     4   9  22  44  69  94 132 181 219 279 343 394
#
# _framework density 25.317399000000002
#
# number of rings (size 3 to 8) (size 9 to 14) (size 15 to 20)
#    0.000    1.500    2.500    3.750    0.000    2.500 
#    9.000   15.000    0.000    0.000    0.000    0.000 
#    0.000    0.000    0.000    0.000    0.000    0.000 
#
# Total GULP energy -89119.327952 kJ/mol
# GULP energy per Si atom -5569.957997 kJ/mol
# Density = 2.525978 g / cm^3
# Si number density = 25.317399 Si / 1000 Ang^3
#
#
#
# Elastic Constant Matrix: (Units=GPa)
#
#
# Indices 1 2 3 4 5 6 
#
# 1 116.7521 24.1272 4.0853 14.8638 9.3093 -3.8065
# 2 24.1272 93.0486 4.0997 -7.5412 7.3362 16.2270
# 3 4.0853 4.0997 32.6914 -10.4069 0.7067 7.1905
# 4 14.8638 -7.5412 -10.4069 27.6262 -0.7514 7.4937
# 5 9.3093 7.3362 0.7067 -0.7514 32.8414 3.0667
# 6 -3.8065 16.2270 7.1905 7.4937 3.0667 57.3701
#
#
#
# Elastic Compliance Matrix: (Units=1/GPa)
#
#
# Indices 1 2 3 4 5 6 
#
# 1 0.011198 -0.003977 -0.004931 -0.010117 -0.002781 0.003956
# 2 -0.003977 0.013362 0.002645 0.008210 -0.001224 -0.005382
# 3 -0.004931 0.002645 0.039333 0.020603 0.001250 -0.008763
# 4 -0.010117 0.008210 0.020603 0.055241 0.003064 -0.012955
# 5 -0.002781 -0.001224 0.001250 0.003064 0.031750 -0.002092
# 6 0.003956 -0.005382 -0.008763 -0.012955 -0.002092 0.022118
#
#
# Mechanical properties :
#
#
# Convention : Reuss Voigt Hill
#
# Bulk Modulus (GPa) = 19.46775 34.12404 26.79590
# Shear Modulus (GPa) = 24.67302 37.57953 31.12628
#
# Velocity S-wave (km/s) = 3.12516 3.85689 3.51014
# Velocity P-wave (km/s) = 4.55284 5.77424 5.19953
#
# Compressibility (1/GPa) = 0.05136700
#
# Stress axis : x y z
#
# Youngs Moduli (GPa) = 89.29929 74.83769 25.42400
#
# Poissons Ratio (x) = 0.29763 0.12537
# Poissons Ratio (y) = 0.35515 -0.06725
# Poissons Ratio (z) = 0.44037 -0.19796
#
# Static dielectric constant tensor:
#      x y z
#    x 2.020870 -0.015860 0.001510 
#    y -0.015860 2.052550 -0.084410 
#    z 0.001510 -0.084410 2.080140 
# 
# From -- ./inp_files/474099.got.cif
#   From: 2010.05.17/outbox.cif.g08.bks.cpg/sg2_238_cif.got.tgz:474099.got - 2010.06.03 11:33:40.
