data_PCOD9011285
_publ_section_title
;
Structure prediction by ZEFSAII (Michael W. Deem and Ramdas Pophale) SiO2 
 PCOD9011285
Probable space group: P -1
;
_chemical_formula_sum "Si O2"
_cell_formula_units_Z 16
_cell_length_a 13.624080
_cell_length_b 9.405181
_cell_length_c 5.483599
_cell_angle_alpha 103.729652
_cell_angle_beta 79.492127
_cell_angle_gamma 109.778692
_cell_volume 638.291344
_symmetry_space_group_name_H-M "P -1"
_symmetry_group_IT_number 2
_symmetry_cell_setting 'triclinic'
loop_
_space_group_symop_operation_xyz
x,y,z
-x,-y,-z
loop_
_atom_site_type_symbol
_atom_site_label
_atom_site_fract_x
_atom_site_fract_y
_atom_site_fract_z
Si Si1 0.290034 0.532292 0.581210
Si Si2 0.199061 0.988981 0.854454
Si Si3 0.189788 0.281205 0.191144
Si Si4 0.532193 0.377075 0.097032
Si Si5 0.113406 0.986777 0.392676
Si Si6 0.701132 0.240895 0.699960
Si Si7 0.887158 0.502558 0.964979
Si Si8 0.603333 0.950990 0.903927
O O1 0.278853 0.430027 0.303176
O O2 0.392975 0.538849 0.683844
O O3 0.295530 0.702517 0.556011
O O4 0.185730 0.473498 0.769015
O O5 0.202041 0.168760 0.926365
O O6 0.125523 0.915870 0.092503
O O7 0.316260 0.002869 0.888528
O O8 0.149688 0.921305 0.593772
O O9 0.435759 0.232957 0.176100
O O10 0.102745 0.358027 0.174148
O O11 0.500000 0.500000 0.000000
O O12 0.607403 0.296766 0.883831
O O13 0.177029 0.163966 0.373703
O O14 0.000000 0.000000 0.500000
O O15 0.667234 0.060166 0.703807
O O16 0.810581 0.345527 0.813639
O O17 0.000000 0.500000 0.000000
O O18 0.500000 0.000000 0.000000
#
# Coordination Sequence:
#
# PCOD9011285 Si02
#       8
#     2   2   2   2   2   2   2   2
#     4  10  21  42  64  92 135 171 236 288 345 424
#     4  10  23  43  68 101 139 185 229 297 353 420
#     4   9  22  37  66  93 138 169 229 287 348 406
#     4  10  23  38  69  94 128 177 235 285 356 420
#     4  10  22  42  67 101 140 183 234 291 357 427
#     4   9  22  43  59  96 132 176 226 293 349 421
#     4  10  21  40  65  96 131 182 229 291 349 423
#     4  10  23  47  65  99 143 185 239 299 367 425
#
# _framework density 25.066922000000002
#
# number of rings (size 3 to 8) (size 9 to 14) (size 15 to 20)
#    0.750    1.500    0.000    1.125    7.000    4.000 
#   15.750    0.000    0.000    0.000    0.000    0.000 
#    0.000    0.000    0.000    0.000    0.000    0.000 
#
# Total GULP energy -89303.878172 kJ/mol
# GULP energy per Si atom -5581.492386 kJ/mol
# Density = 2.500987 g / cm^3
# Si number density = 25.066922 Si / 1000 Ang^3
#
#
#
# Elastic Constant Matrix: (Units=GPa)
#
#
# Indices 1 2 3 4 5 6 
#
# 1 162.5257 18.7937 38.5312 -13.5378 16.3911 -15.9562
# 2 18.7937 127.3327 10.4157 -13.0091 8.5048 -16.3705
# 3 38.5312 10.4157 99.0839 -14.3124 12.5272 -4.3347
# 4 -13.5378 -13.0091 -14.3124 40.0432 -13.1965 4.2026
# 5 16.3911 8.5048 12.5272 -13.1965 34.7783 -17.3993
# 6 -15.9562 -16.3705 -4.3347 4.2026 -17.3993 36.4605
#
#
#
# Elastic Compliance Matrix: (Units=1/GPa)
#
#
# Indices 1 2 3 4 5 6 
#
# 1 0.007148 -0.000439 -0.002387 0.000860 -0.001052 0.002046
# 2 -0.000439 0.008626 -0.000347 0.002488 0.001108 0.003882
# 3 -0.002387 -0.000347 0.011706 0.002501 -0.002767 -0.001417
# 4 0.000860 0.002488 0.002501 0.030357 0.011494 0.003776
# 5 -0.001052 0.001108 -0.002767 0.011494 0.044042 0.019401
# 6 0.002046 0.003882 -0.001417 0.003776 0.019401 0.038720
#
#
# Mechanical properties :
#
#
# Convention : Reuss Voigt Hill
#
# Bulk Modulus (GPa) = 47.31534 58.26929 52.79232
# Shear Modulus (GPa) = 32.46965 43.66987 38.06976
#
# Velocity S-wave (km/s) = 3.60296 4.17841 3.90131
# Velocity P-wave (km/s) = 6.01872 6.82457 6.43428
#
# Compressibility (1/GPa) = 0.02113479
#
# Stress axis : x y z
#
# Youngs Moduli (GPa) = 139.89789 115.93150 85.42443
#
# Poissons Ratio (x) = 0.05085 0.20390
# Poissons Ratio (y) = 0.06136 0.02965
# Poissons Ratio (z) = 0.33392 0.04024
#
# Static dielectric constant tensor:
#      x y z
#    x 1.817610 -0.240330 0.285390 
#    y -0.240330 1.914890 0.247420 
#    z 0.285390 0.247420 1.607040 
# 
# From -- ./inp_files/67173.got.cif
#   From: 2010.05.17/outbox.cif.g08.bks.cpg/sg2_34_cif.got.tgz:67173.got - 2010.06.03 11:33:40.
