data_PCOD9011510
_publ_section_title
;
Structure prediction by ZEFSAII (Michael W. Deem and Ramdas Pophale) SiO2 
 PCOD9011510
Probable space group: P -1
;
_chemical_formula_sum "Si O2"
_cell_formula_units_Z 16
_cell_length_a 9.604167
_cell_length_b 11.163860
_cell_length_c 12.625611
_cell_angle_alpha 103.658831
_cell_angle_beta 63.521479
_cell_angle_gamma 51.462000
_cell_volume 643.662406
_symmetry_space_group_name_H-M "P -1"
_symmetry_group_IT_number 2
_symmetry_cell_setting 'triclinic'
loop_
_space_group_symop_operation_xyz
x,y,z
-x,-y,-z
loop_
_atom_site_type_symbol
_atom_site_label
_atom_site_fract_x
_atom_site_fract_y
_atom_site_fract_z
Si Si1 0.120900 0.603078 0.968852
Si Si2 0.423328 0.219534 0.172027
Si Si3 0.432134 0.478599 0.156700
Si Si4 0.136746 0.886096 0.239029
Si Si5 0.478160 0.946593 0.660438
Si Si6 0.463990 0.722501 0.493865
Si Si7 0.374687 0.881658 0.329322
Si Si8 0.053724 0.265633 0.183391
O O1 0.324450 0.589835 0.896072
O O2 0.319252 0.355837 0.876877
O O3 0.995761 0.663317 0.907141
O O4 0.859682 0.800703 0.176621
O O5 0.356057 0.409029 0.234847
O O6 0.464421 0.149973 0.264150
O O7 0.196446 0.279717 0.205911
O O8 0.717221 0.995586 0.960838
O O9 0.167955 0.740455 0.269262
O O10 0.582963 0.318606 0.969297
O O11 0.158956 0.983732 0.333458
O O12 0.848502 0.089024 0.312493
O O13 0.561937 0.792455 0.512600
O O14 0.636650 0.970083 0.605693
O O15 0.387314 0.787204 0.409210
O O16 0.729556 0.458311 0.371480
#
# Coordination Sequence:
#
# PCOD9011510 Si02
#       8
#     2   2   2   2   2   2   2   2
#     4   9  19  39  61  91 120 160 210 252 299 357
#     4  10  23  42  65  88 125 164 210 248 306 370
#     4  10  21  40  66  94 122 162 206 258 299 364
#     4  10  22  39  66  94 122 160 208 254 311 359
#     4  11  22  37  62  94 123 164 204 252 308 370
#     4  11  22  43  60  92 130 158 208 255 308 362
#     4  10  22  37  63  90 128 160 203 256 309 360
#     4   9  22  40  63  89 121 167 199 253 303 367
#
# _framework density 24.857751
#
# number of rings (size 3 to 8) (size 9 to 14) (size 15 to 20)
#    0.000    2.000    1.250    1.125    5.250    5.500 
#    0.000    0.625    5.500    0.000    0.000    0.000 
#    0.000    0.000    0.000    0.000    0.000    0.000 
#
# Total GULP energy -89431.875316 kJ/mol
# GULP energy per Si atom -5589.492207 kJ/mol
# Density = 2.480117 g / cm^3
# Si number density = 24.857751 Si / 1000 Ang^3
#
#
#
# Elastic Constant Matrix: (Units=GPa)
#
#
# Indices 1 2 3 4 5 6 
#
# 1 107.9976 24.6776 11.5578 4.8759 11.6645 -10.9318
# 2 24.6776 54.8168 -0.2153 15.4556 -12.9756 6.5712
# 3 11.5578 -0.2153 75.4217 23.5943 -14.0515 -13.7098
# 4 4.8759 15.4556 23.5943 35.4571 -14.2569 -1.3171
# 5 11.6645 -12.9756 -14.0515 -14.2569 38.3828 -0.0445
# 6 -10.9318 6.5712 -13.7098 -1.3171 -0.0445 30.3550
#
#
#
# Elastic Compliance Matrix: (Units=1/GPa)
#
#
# Indices 1 2 3 4 5 6 
#
# 1 0.012736 -0.008366 -0.002683 0.000927 -0.007331 0.005215
# 2 -0.008366 0.028369 0.005370 -0.011040 0.009990 -0.007193
# 3 -0.002683 0.005370 0.019798 -0.012859 0.005110 0.006263
# 4 0.000927 -0.011040 -0.012859 0.044548 0.007824 -0.001140
# 5 -0.007331 0.009990 0.005110 0.007824 0.036433 -0.002102
# 6 0.005215 -0.007193 0.006263 -0.001140 -0.002102 0.039155
#
#
# Mechanical properties :
#
#
# Convention : Reuss Voigt Hill
#
# Bulk Modulus (GPa) = 20.18326 34.47516 27.32921
# Shear Modulus (GPa) = 23.93342 34.32006 29.12674
#
# Velocity S-wave (km/s) = 3.10629 3.71975 3.42678
# Velocity P-wave (km/s) = 4.58285 5.68751 5.16480
#
# Compressibility (1/GPa) = 0.04954601
#
# Stress axis : x y z
#
# Youngs Moduli (GPa) = 78.51746 35.24923 50.50902
#
# Poissons Ratio (x) = 0.29489 0.13553
# Poissons Ratio (y) = 0.65686 -0.27124
# Poissons Ratio (z) = 0.21069 -0.18930
#
# Static dielectric constant tensor:
#      x y z
#    x 1.937720 0.017640 -0.063690 
#    y 0.017640 1.955000 -0.020580 
#    z -0.063690 -0.020580 2.079650 
# 
# From -- ./inp_files/446913.got.cif
#   From: 2010.05.17/outbox.cif.g08.bks.cpg/sg2_224_cif.got.tgz:446913.got - 2010.06.03 11:33:40.
