data_PCOD9011435
_publ_section_title
;
Structure prediction by ZEFSAII (Michael W. Deem and Ramdas Pophale) SiO2 
 PCOD9011435
Probable space group: P -1
;
_chemical_formula_sum "Si O2"
_cell_formula_units_Z 16
_cell_length_a 10.091435
_cell_length_b 21.721289
_cell_length_c 14.894871
_cell_angle_alpha 19.369250
_cell_angle_beta 64.561530
_cell_angle_gamma 52.942519
_cell_volume 735.437965
_symmetry_space_group_name_H-M "P -1"
_symmetry_group_IT_number 2
_symmetry_cell_setting 'triclinic'
loop_
_space_group_symop_operation_xyz
x,y,z
-x,-y,-z
loop_
_atom_site_type_symbol
_atom_site_label
_atom_site_fract_x
_atom_site_fract_y
_atom_site_fract_z
Si Si1 0.437415 0.526158 0.377484
Si Si2 0.443405 0.931469 0.840581
Si Si3 0.974839 0.235377 0.211475
Si Si4 0.598457 0.152215 0.690892
Si Si5 0.815111 0.636030 0.553136
Si Si6 0.619935 0.428087 0.156390
Si Si7 0.587636 0.056213 0.471278
Si Si8 0.209026 0.376223 0.693422
O O1 0.500000 0.500000 0.500000
O O2 0.588023 0.288302 0.596161
O O3 0.251595 0.542525 0.409397
O O4 0.411246 0.762536 0.032053
O O5 0.482439 0.072973 0.569705
O O6 0.263862 0.126916 0.689812
O O7 0.638158 0.757272 0.084082
O O8 0.819955 0.361254 0.163788
O O9 0.182636 0.143388 0.305640
O O10 0.890111 0.419189 0.899654
O O11 0.000000 0.000000 0.500000
O O12 0.377185 0.277939 0.558739
O O13 0.662734 0.216444 0.496537
O O14 0.724386 0.859137 0.059824
O O15 0.993562 0.533856 0.577109
O O16 0.500000 0.500000 0.000000
O O17 0.474799 0.686453 0.893305
O O18 0.500000 0.000000 0.500000
#
# Coordination Sequence:
#
# PCOD9011435 Si02
#       8
#     2   2   2   2   2   2   2   2
#     4  10  23  43  65  89 125 172 212 263 328 379
#     4  10  21  41  61  87 129 169 210 260 322 382
#     4  12  22  37  65  95 129 172 218 256 318 383
#     4  11  22  40  66  96 129 161 217 271 314 381
#     4  11  21  38  66  92 125 166 213 265 319 378
#     4  12  21  39  64  97 129 172 211 260 322 382
#     4  12  24  39  61  92 136 174 209 263 320 385
#     4  10  21  40  66  91 119 165 215 269 320 368
#
# _framework density 21.755742999999999
#
# number of rings (size 3 to 8) (size 9 to 14) (size 15 to 20)
#    0.000    1.000    5.000    2.625    0.000    1.500 
#    0.000    2.500    0.000    0.000    0.000    0.000 
#    0.000    0.000    0.000    0.000    0.000    0.000 
#
# Total GULP energy -89387.135859 kJ/mol
# GULP energy per Si atom -5586.695991 kJ/mol
# Density = 2.170623 g / cm^3
# Si number density = 21.755743 Si / 1000 Ang^3
#
#
#
# Elastic Constant Matrix: (Units=GPa)
#
#
# Indices 1 2 3 4 5 6 
#
# 1 96.5245 67.2184 52.8700 -17.7943 -10.1866 -5.3531
# 2 67.2184 107.8792 38.8054 -11.4976 5.5325 -13.4473
# 3 52.8700 38.8054 95.4924 -2.7333 -6.9548 -10.0843
# 4 -17.7943 -11.4976 -2.7333 40.8955 -2.2174 -5.0858
# 5 -10.1866 5.5325 -6.9548 -2.2174 33.4321 -8.2728
# 6 -5.3531 -13.4473 -10.0843 -5.0858 -8.2728 47.9233
#
#
#
# Elastic Compliance Matrix: (Units=1/GPa)
#
#
# Indices 1 2 3 4 5 6 
#
# 1 0.026509 -0.013115 -0.008487 0.007749 0.008962 -0.000135
# 2 -0.013115 0.018121 -0.000351 -0.000698 -0.006534 0.002344
# 3 -0.008487 -0.000351 0.015550 -0.002426 0.001079 0.002155
# 4 0.007749 -0.000698 -0.002426 0.028224 0.004831 0.003988
# 5 0.008962 -0.006534 0.001079 0.004831 0.035774 0.006083
# 6 -0.000135 0.002344 0.002155 0.003988 0.006083 0.023436
#
#
# Mechanical properties :
#
#
# Convention : Reuss Voigt Hill
#
# Bulk Modulus (GPa) = 61.44837 68.63151 65.03994
# Shear Modulus (GPa) = 25.38814 33.85033 29.61923
#
# Velocity S-wave (km/s) = 3.41979 3.94880 3.69378
# Velocity P-wave (km/s) = 6.62565 7.23917 6.93920
#
# Compressibility (1/GPa) = 0.01627382
#
# Stress axis : x y z
#
# Youngs Moduli (GPa) = 37.72357 55.18609 64.30834
#
# Poissons Ratio (x) = 0.72377 0.54578
# Poissons Ratio (y) = 0.49475 0.02256
# Poissons Ratio (z) = 0.32015 0.01936
#
# Static dielectric constant tensor:
#      x y z
#    x 1.758420 0.014250 -0.032050 
#    y 0.014250 1.885680 0.023390 
#    z -0.032050 0.023390 1.832020 
# 
# From -- ./inp_files/505095.got.cif
#   From: 2010.05.17/outbox.cif.g08.bks.cpg/sg2_253_cif.got.tgz:505095.got - 2010.06.03 11:33:40.
