data_PCOD9011239
_publ_section_title
;
Structure prediction by ZEFSAII (Michael W. Deem and Ramdas Pophale) SiO2 
 PCOD9011239
Probable space group: P -1
;
_chemical_formula_sum "Si O2"
_cell_formula_units_Z 16
_cell_length_a 9.221462
_cell_length_b 12.779437
_cell_length_c 9.143907
_cell_angle_alpha 119.122954
_cell_angle_beta 131.150533
_cell_angle_gamma 89.156738
_cell_volume 627.704433
_symmetry_space_group_name_H-M "P -1"
_symmetry_group_IT_number 2
_symmetry_cell_setting 'triclinic'
loop_
_space_group_symop_operation_xyz
x,y,z
-x,-y,-z
loop_
_atom_site_type_symbol
_atom_site_label
_atom_site_fract_x
_atom_site_fract_y
_atom_site_fract_z
Si Si1 0.779249 0.667146 0.328958
Si Si2 0.768068 0.270990 0.373982
Si Si3 0.209298 0.848412 0.098220
Si Si4 0.744096 0.454633 0.704622
Si Si5 0.764767 0.732913 0.824662
Si Si6 0.695425 0.826783 0.131668
Si Si7 0.645934 0.056267 0.407921
Si Si8 0.672446 0.385237 0.934007
O O1 0.590978 0.677498 0.303282
O O2 0.033415 0.734335 0.581269
O O3 0.761660 0.731871 0.206751
O O4 0.718536 0.510656 0.155671
O O5 0.842224 0.412619 0.603130
O O6 0.562110 0.243014 0.120770
O O7 0.696292 0.165928 0.390066
O O8 0.386149 0.969925 0.202617
O O9 0.262414 0.723338 0.033392
O O10 0.261355 0.888793 0.333013
O O11 0.955826 0.805027 0.884339
O O12 0.795378 0.608852 0.828252
O O13 0.485754 0.349170 0.444342
O O14 0.784835 0.428242 0.879560
O O15 0.791276 0.838130 0.041728
O O16 0.740826 0.959294 0.342495
#
# Coordination Sequence:
#
# PCOD9011239 Si02
#       8
#     2   2   2   2   2   2   2   2
#     4  11  24  41  67  96 124 165 205 262 328 371
#     4  11  24  42  67  92 125 170 210 258 317 369
#     4  11  23  41  65  89 128 170 208 261 310 368
#     4  10  21  40  65  95 127 155 210 264 311 388
#     4  10  22  39  65  96 122 163 206 262 325 366
#     4  11  23  43  62  95 127 163 213 263 299 379
#     4  11  24  42  62  89 129 169 217 256 298 376
#     4  11  22  42  62  95 129 158 209 262 316 384
#
# _framework density 25.489704
#
# number of rings (size 3 to 8) (size 9 to 14) (size 15 to 20)
#    0.000    1.250    3.750    1.875    0.000    4.000 
#    0.000    3.750    0.000    0.000    0.000    0.000 
#    0.000    0.000    0.000    0.000    0.000    0.000 
#
# Total GULP energy -89583.054314 kJ/mol
# GULP energy per Si atom -5598.940895 kJ/mol
# Density = 2.543169 g / cm^3
# Si number density = 25.489704 Si / 1000 Ang^3
#
#
#
# Elastic Constant Matrix: (Units=GPa)
#
#
# Indices 1 2 3 4 5 6 
#
# 1 152.3628 8.3377 11.3205 -1.9157 8.3384 -18.6800
# 2 8.3377 43.8868 20.7756 4.7750 -14.7193 -19.4496
# 3 11.3205 20.7756 66.8755 -8.2704 11.3086 -19.4081
# 4 -1.9157 4.7750 -8.2704 29.8767 -13.4157 2.0117
# 5 8.3384 -14.7193 11.3086 -13.4157 56.3655 -7.9252
# 6 -18.6800 -19.4496 -19.4081 2.0117 -7.9252 32.4423
#
#
#
# Elastic Compliance Matrix: (Units=1/GPa)
#
#
# Indices 1 2 3 4 5 6 
#
# 1 0.007080 0.000456 -0.000063 -0.000073 -0.000338 0.004234
# 2 0.000456 0.044287 -0.009770 -0.004273 0.015975 0.025135
# 3 -0.000063 -0.009770 0.020905 0.004812 -0.004870 0.005124
# 4 -0.000073 -0.004273 0.004812 0.038688 0.007082 -0.000394
# 5 -0.000338 0.015975 -0.004870 0.007082 0.026380 0.012474
# 6 0.004234 0.025135 0.005124 -0.000394 0.012474 0.054468
#
#
# Mechanical properties :
#
#
# Convention : Reuss Voigt Hill
#
# Bulk Modulus (GPa) = 18.68605 38.22143 28.45374
# Shear Modulus (GPa) = 21.89135 38.58300 30.23717
#
# Velocity S-wave (km/s) = 2.93376 3.89481 3.44794
# Velocity P-wave (km/s) = 4.33851 5.93746 5.19982
#
# Compressibility (1/GPa) = 0.05351587
#
# Stress axis : x y z
#
# Youngs Moduli (GPa) = 141.24923 22.58015 47.83565
#
# Poissons Ratio (x) = -0.01030 0.00303
# Poissons Ratio (y) = -0.06442 0.46738
# Poissons Ratio (z) = 0.00894 0.22062
#
# Static dielectric constant tensor:
#      x y z
#    x 2.061850 -0.016680 0.037230 
#    y -0.016680 1.928920 -0.002180 
#    z 0.037230 -0.002180 2.091330 
# 
# From -- ./inp_files/399681.got.cif
#   From: 2010.05.17/outbox.cif.g08.bks.cpg/sg2_200_cif.got.tgz:399681.got - 2010.06.03 11:33:40.
