data_PCOD9011243
_publ_section_title
;
Structure prediction by ZEFSAII (Michael W. Deem and Ramdas Pophale) SiO2 
 PCOD9011243
Probable space group: P -1
;
_chemical_formula_sum "Si O2"
_cell_formula_units_Z 10
_cell_length_a 6.780367
_cell_length_b 10.010233
_cell_length_c 9.886565
_cell_angle_alpha 136.582829
_cell_angle_beta 88.006748
_cell_angle_gamma 69.635572
_cell_volume 386.934443
_symmetry_space_group_name_H-M "P -1"
_symmetry_group_IT_number 2
_symmetry_cell_setting 'triclinic'
loop_
_space_group_symop_operation_xyz
x,y,z
-x,-y,-z
loop_
_atom_site_type_symbol
_atom_site_label
_atom_site_fract_x
_atom_site_fract_y
_atom_site_fract_z
Si Si1 0.703752 0.873607 0.059626
Si Si2 0.377698 0.526008 0.877869
Si Si3 0.814345 0.968634 0.852119
Si Si4 0.835040 0.358429 0.606412
Si Si5 0.230258 0.185543 0.678360
O O1 0.769326 0.620290 0.821367
O O2 0.804233 0.963420 0.010453
O O3 0.419033 0.031794 0.184535
O O4 0.791984 0.855770 0.195443
O O5 0.592655 0.378314 0.659412
O O6 0.220542 0.422099 0.826872
O O7 0.500000 0.500000 0.000000
O O8 0.242790 0.788862 0.026419
O O9 0.042620 0.752645 0.619823
O O10 0.034006 0.200667 0.597437
O O11 0.500000 0.000000 0.500000
#
# Coordination Sequence:
#
# PCOD9011243 Si02
#       5
#     2   2   2   2   2
#     4  10  21  40  65  95 128 167 210 259 316 377
#     4  11  23  42  64  97 128 164 214 263 309 379
#     4  10  21  41  67  91 131 168 207 262 318 372
#     4  11  22  42  71  91 126 171 212 254 322 375
#     4  12  23  43  67  95 126 168 214 263 311 375
#
# _framework density 25.844169999999998
#
# number of rings (size 3 to 8) (size 9 to 14) (size 15 to 20)
#    0.000    1.200    6.000    1.200    0.000    3.200 
#    0.000    2.000    0.000    2.400    0.000    0.000 
#    0.000    0.000    0.000    0.000    0.000    0.000 
#
# Total GULP energy -56122.761345 kJ/mol
# GULP energy per Si atom -5612.276134 kJ/mol
# Density = 2.578535 g / cm^3
# Si number density = 25.844170 Si / 1000 Ang^3
#
#
#
# Elastic Constant Matrix: (Units=GPa)
#
#
# Indices 1 2 3 4 5 6 
#
# 1 78.2116 13.5807 10.7653 -10.6953 -18.7921 5.9990
# 2 13.5807 129.5646 24.5033 -24.1362 -4.2057 28.6490
# 3 10.7653 24.5033 131.0086 -12.1731 -38.1124 10.3453
# 4 -10.6953 -24.1362 -12.1731 47.7656 3.9271 -8.4293
# 5 -18.7921 -4.2057 -38.1124 3.9271 48.8579 3.9300
# 6 5.9990 28.6490 10.3453 -8.4293 3.9300 46.5924
#
#
#
# Elastic Compliance Matrix: (Units=1/GPa)
#
#
# Indices 1 2 3 4 5 6 
#
# 1 0.014776 -0.000707 0.001175 0.002391 0.006495 -0.001844
# 2 -0.000707 0.009777 -0.001086 0.003635 -0.000167 -0.005008
# 3 0.001175 -0.001086 0.010571 0.001283 0.008689 -0.002332
# 4 0.002391 0.003635 0.001283 0.023879 0.000195 0.001476
# 5 0.006495 -0.000167 0.008689 0.000195 0.030129 -0.005169
# 6 -0.001844 -0.005008 -0.002332 0.001476 -0.005169 0.026000
#
#
# Mechanical properties :
#
#
# Convention : Reuss Voigt Hill
#
# Bulk Modulus (GPa) = 29.50850 48.49818 39.00334
# Shear Modulus (GPa) = 39.16575 47.97222 43.56899
#
# Velocity S-wave (km/s) = 3.89711 4.31305 4.11035
# Velocity P-wave (km/s) = 5.62962 6.60375 6.13605
#
# Compressibility (1/GPa) = 0.03388854
#
# Stress axis : x y z
#
# Youngs Moduli (GPa) = 67.67771 102.28432 94.60205
#
# Poissons Ratio (x) = 0.07232 -0.11120
# Poissons Ratio (y) = 0.04785 0.10272
# Poissons Ratio (z) = -0.07955 0.11106
#
# Static dielectric constant tensor:
#      x y z
#    x 2.085690 0.010220 -0.000660 
#    y 0.010220 2.005400 0.039400 
#    z -0.000660 0.039400 2.049070 
# 
# From -- ./inp_files/148434.got.cif
#   From: 2010.05.17/outbox.cif.g08.bks.cpg/sg2_75_cif.got.tgz:148434.got - 2010.06.03 11:33:40.
