data_PCOD9011128
_publ_section_title
;
Structure prediction by ZEFSAII (Michael W. Deem and Ramdas Pophale) SiO2 
 PCOD9011128
Probable space group: P -1
;
_chemical_formula_sum "Si O2"
_cell_formula_units_Z 12
_cell_length_a 6.951666
_cell_length_b 7.947380
_cell_length_c 14.892229
_cell_angle_alpha 57.929068
_cell_angle_beta 81.964401
_cell_angle_gamma 53.106010
_cell_volume 537.788287
_symmetry_space_group_name_H-M "P -1"
_symmetry_group_IT_number 2
_symmetry_cell_setting 'triclinic'
loop_
_space_group_symop_operation_xyz
x,y,z
-x,-y,-z
loop_
_atom_site_type_symbol
_atom_site_label
_atom_site_fract_x
_atom_site_fract_y
_atom_site_fract_z
Si Si1 0.427056 0.643378 0.324506
Si Si2 0.768795 0.253930 0.022494
Si Si3 0.103676 0.548755 0.566519
Si Si4 0.116991 0.134002 0.723875
Si Si5 0.691972 0.025033 0.930931
Si Si6 0.654959 0.072989 0.418874
O O1 0.605151 0.593910 0.408001
O O2 0.413327 0.825787 0.198612
O O3 0.548308 0.360269 0.360600
O O4 0.141421 0.780736 0.325536
O O5 0.822380 0.036293 0.146930
O O6 0.500000 0.500000 0.000000
O O7 0.730727 0.195478 0.941761
O O8 0.016926 0.232174 0.021910
O O9 0.072076 0.389794 0.684428
O O10 0.000000 0.500000 0.500000
O O11 0.930287 0.848683 0.503706
O O12 0.321256 0.980424 0.675064
O O13 0.500000 0.000000 0.000000
O O14 0.500000 0.000000 0.500000
#
# Coordination Sequence:
#
# PCOD9011128 Si02
#       6
#     2   2   2   2   2   2
#     4  11  22  41  64  89 128 166 207 255 314 370
#     4  10  21  40  65  92 127 166 207 262 314 376
#     4  10  22  40  61  88 122 166 206 254 306 364
#     4  10  22  41  61  90 126 165 206 257 311 369
#     4  10  22  40  65  95 127 164 210 259 318 376
#     4  11  22  40  62  92 123 162 212 253 306 370
#
# _framework density 22.313611999999999
#
# number of rings (size 3 to 8) (size 9 to 14) (size 15 to 20)
#    0.000    1.667    1.667    2.500    0.000    3.333 
#    9.000    0.000    0.000    0.000    0.000    0.000 
#    0.000    0.000    0.000    0.000    0.000    0.000 
#
# Total GULP energy -66910.854107 kJ/mol
# GULP energy per Si atom -5575.904509 kJ/mol
# Density = 2.226283 g / cm^3
# Si number density = 22.313612 Si / 1000 Ang^3
#
#
#
# Elastic Constant Matrix: (Units=GPa)
#
#
# Indices 1 2 3 4 5 6 
#
# 1 107.1174 16.2238 49.3419 -3.5634 1.1370 -24.8838
# 2 16.2238 74.8950 18.5222 -8.1847 1.5081 -15.5695
# 3 49.3419 18.5222 90.3679 -5.8010 5.4373 -19.1097
# 4 -3.5634 -8.1847 -5.8010 36.2050 -5.5248 0.3118
# 5 1.1370 1.5081 5.4373 -5.5248 51.8094 4.3339
# 6 -24.8838 -15.5695 -19.1097 0.3118 4.3339 37.3769
#
#
#
# Elastic Compliance Matrix: (Units=1/GPa)
#
#
# Indices 1 2 3 4 5 6 
#
# 1 0.013536 -0.000183 -0.006098 0.000246 -0.000113 0.005828
# 2 -0.000183 0.015270 -0.001666 0.003061 -0.000391 0.005407
# 3 -0.006098 -0.001666 0.015637 0.001253 -0.001611 0.003417
# 4 0.000246 0.003061 0.001253 0.028941 0.002733 0.001521
# 5 -0.000113 -0.000391 -0.001611 0.002733 0.020061 -0.003411
# 6 0.005828 0.005407 0.003417 0.001521 -0.003411 0.035017
#
#
# Mechanical properties :
#
#
# Convention : Reuss Voigt Hill
#
# Bulk Modulus (GPa) = 35.02920 48.95069 41.98995
# Shear Modulus (GPa) = 32.49432 37.63110 35.06271
#
# Velocity S-wave (km/s) = 3.82023 4.11111 3.96834
# Velocity P-wave (km/s) = 5.93225 6.67235 6.31315
#
# Compressibility (1/GPa) = 0.02854761
#
# Stress axis : x y z
#
# Youngs Moduli (GPa) = 73.87956 65.48711 63.95109
#
# Poissons Ratio (x) = 0.01200 0.38997
# Poissons Ratio (y) = 0.01353 0.10657
# Poissons Ratio (z) = 0.45051 0.10913
#
# Static dielectric constant tensor:
#      x y z
#    x 1.825880 -0.047060 0.000640 
#    y -0.047060 1.873910 -0.009200 
#    z 0.000640 -0.009200 1.872610 
# 
# From -- ./inp_files/103070.got.cif
#   From: 2010.05.17/outbox.cif.g08.bks.cpg/sg2_52_cif.got.tgz:103070.got - 2010.06.03 11:33:40.
