data_PCOD9011889
_publ_section_title
;
Structure prediction by ZEFSAII (Michael W. Deem and Ramdas Pophale) SiO2 
 PCOD9011889
Probable space group: P -1
;
_chemical_formula_sum "Si O2"
_cell_formula_units_Z 16
_cell_length_a 10.218400
_cell_length_b 14.037715
_cell_length_c 8.599185
_cell_angle_alpha 129.282058
_cell_angle_beta 45.013788
_cell_angle_gamma 124.189635
_cell_volume 660.393673
_symmetry_space_group_name_H-M "P -1"
_symmetry_group_IT_number 2
_symmetry_cell_setting 'triclinic'
loop_
_space_group_symop_operation_xyz
x,y,z
-x,-y,-z
loop_
_atom_site_type_symbol
_atom_site_label
_atom_site_fract_x
_atom_site_fract_y
_atom_site_fract_z
Si Si1 0.118269 0.407212 0.624742
Si Si2 0.544238 0.097856 0.704260
Si Si3 0.028644 0.223024 0.055164
Si Si4 0.684076 0.550751 0.793573
Si Si5 0.447397 0.130316 0.126276
Si Si6 0.791666 0.315604 0.569905
Si Si7 0.158956 0.684423 0.987622
Si Si8 0.827665 0.951039 0.474361
O O1 0.289421 0.396001 0.351473
O O2 0.938661 0.396429 0.649027
O O3 0.012661 0.310363 0.742864
O O4 0.170057 0.539873 0.804609
O O5 0.607337 0.237747 0.727076
O O6 0.500000 0.000000 0.500000
O O7 0.715661 0.055075 0.611534
O O8 0.381035 0.100386 0.972765
O O9 0.188581 0.341484 0.097126
O O10 0.889104 0.208106 0.303865
O O11 0.111669 0.112394 0.796997
O O12 0.904153 0.260224 0.059514
O O13 0.757748 0.419416 0.583891
O O14 0.500000 0.500000 0.000000
O O15 0.313235 0.149084 0.400709
O O16 0.632297 0.239634 0.071532
O O17 0.500000 0.000000 0.000000
O O18 0.000000 0.000000 0.500000
#
# Coordination Sequence:
#
# PCOD9011889 Si02
#       8
#     2   2   2   2   2   2   2   2
#     4  10  21  40  67  97 131 180 227 284 344 422
#     4  11  26  44  72 101 135 189 242 286 350 419
#     4  11  23  40  69  95 135 186 227 289 349 418
#     4  11  24  42  65 101 140 179 230 288 362 417
#     4  10  23  43  68  93 135 186 232 287 343 421
#     4  11  22  45  66  95 139 181 233 286 357 420
#     4  11  20  40  70  96 130 181 238 273 350 419
#     4  11  27  47  67 105 143 183 237 293 360 412
#
# _framework density 24.227972000000001
#
# number of rings (size 3 to 8) (size 9 to 14) (size 15 to 20)
#    0.000    1.250    3.750    2.250    8.750    0.500 
#    2.250    0.625    0.000    0.000    0.000    0.000 
#    0.000    0.000    0.000    0.000    0.000    0.000 
#
# Total GULP energy -89237.189367 kJ/mol
# GULP energy per Si atom -5577.324335 kJ/mol
# Density = 2.417283 g / cm^3
# Si number density = 24.227972 Si / 1000 Ang^3
#
#
#
# Elastic Constant Matrix: (Units=GPa)
#
#
# Indices 1 2 3 4 5 6 
#
# 1 50.7112 10.6397 7.4251 1.3951 12.4922 5.9040
# 2 10.6397 92.7741 23.0187 -6.7711 11.7815 14.9612
# 3 7.4251 23.0187 108.5749 0.8304 20.0620 6.4349
# 4 1.3951 -6.7711 0.8304 37.7944 -8.1987 -2.7334
# 5 12.4922 11.7815 20.0620 -8.1987 31.0881 2.5543
# 6 5.9040 14.9612 6.4349 -2.7334 2.5543 22.3480
#
#
#
# Elastic Compliance Matrix: (Units=1/GPa)
#
#
# Indices 1 2 3 4 5 6 
#
# 1 0.022917 -0.001043 0.000792 -0.003542 -0.009857 -0.004891
# 2 -0.001043 0.012943 -0.001808 0.001349 -0.002353 -0.007435
# 3 0.000792 -0.001808 0.010980 -0.002270 -0.007185 -0.001617
# 4 -0.003542 0.001349 -0.002270 0.029241 0.009831 0.003139
# 5 -0.009857 -0.002353 -0.007185 0.009831 0.044050 0.002416
# 6 -0.004891 -0.007435 -0.001617 0.003139 0.002416 0.051590
#
#
# Mechanical properties :
#
#
# Convention : Reuss Voigt Hill
#
# Bulk Modulus (GPa) = 23.40592 37.13635 30.27113
# Shear Modulus (GPa) = 26.30480 32.31122 29.30801
#
# Velocity S-wave (km/s) = 3.29860 3.65586 3.48181
# Velocity P-wave (km/s) = 4.91827 5.76034 5.35588
#
# Compressibility (1/GPa) = 0.04272424
#
# Stress axis : x y z
#
# Youngs Moduli (GPa) = 43.63486 77.26033 91.07420
#
# Poissons Ratio (x) = 0.08057 -0.07215
# Poissons Ratio (y) = 0.04550 0.16463
# Poissons Ratio (z) = -0.03457 0.13966
#
# Static dielectric constant tensor:
#      x y z
#    x 1.936970 -0.003740 -0.059600 
#    y -0.003740 1.922220 -0.027560 
#    z -0.059600 -0.027560 2.116750 
# 
# From -- ./inp_files/274258.got.cif
#   From: 2010.05.17/outbox.cif.g08.bks.cpg/sg2_138_cif.got.tgz:274258.got - 2010.06.03 11:33:40.
