data_PCOD9011372
_publ_section_title
;
Structure prediction by ZEFSAII (Michael W. Deem and Ramdas Pophale) SiO2 
 PCOD9011372
Probable space group: P -1
;
_chemical_formula_sum "Si O2"
_cell_formula_units_Z 8
_cell_length_a 7.743403
_cell_length_b 8.153372
_cell_length_c 9.037640
_cell_angle_alpha 75.188665
_cell_angle_beta 33.874324
_cell_angle_gamma 70.458990
_cell_volume 299.448963
_symmetry_space_group_name_H-M "P -1"
_symmetry_group_IT_number 2
_symmetry_cell_setting 'triclinic'
loop_
_space_group_symop_operation_xyz
x,y,z
-x,-y,-z
loop_
_atom_site_type_symbol
_atom_site_label
_atom_site_fract_x
_atom_site_fract_y
_atom_site_fract_z
Si Si1 0.117109 0.028341 0.078539
Si Si2 0.354502 0.110155 0.431004
Si Si3 0.511490 0.479427 0.171717
Si Si4 0.849487 0.400072 0.328934
O O1 0.961011 0.211329 0.219983
O O2 0.013078 0.881970 0.284266
O O3 0.492047 0.999529 0.794759
O O4 0.000000 0.000000 0.000000
O O5 0.453202 0.291751 0.303803
O O6 0.500000 0.000000 0.500000
O O7 0.231883 0.604404 0.437311
O O8 0.500000 0.500000 0.000000
O O9 0.872175 0.502377 0.935788
O O10 0.500000 0.500000 0.500000
#
# Coordination Sequence:
#
# PCOD9011372 Si02
#       4
#     2   2   2   2
#     4  10  21  40  66 103 137 175 233 299 343 400
#     4  10  21  41  67  97 136 185 231 283 345 417
#     4  12  27  48  71 105 148 187 231 298 365 419
#     4  12  25  45  74 107 138 189 246 290 346 432
#
# _framework density 26.71574
#
# number of rings (size 3 to 8) (size 9 to 14) (size 15 to 20)
#    0.000    1.000    0.000    7.500    0.000    8.000 
#    0.000    7.500    0.000    0.000    0.000    0.000 
#    0.000    0.000    0.000    0.000    0.000    0.000 
#
# Total GULP energy -44735.350544 kJ/mol
# GULP energy per Si atom -5591.918818 kJ/mol
# Density = 2.665493 g / cm^3
# Si number density = 26.715740 Si / 1000 Ang^3
#
#
#
# Elastic Constant Matrix: (Units=GPa)
#
#
# Indices 1 2 3 4 5 6 
#
# 1 68.5873 45.2197 39.6346 -15.8211 17.7374 6.5250
# 2 45.2197 190.0242 112.5613 -5.0627 22.6493 19.3178
# 3 39.6346 112.5613 331.5087 -7.5998 7.1874 22.6030
# 4 -15.8211 -5.0627 -7.5998 76.8640 10.4294 8.9452
# 5 17.7374 22.6493 7.1874 10.4294 46.5807 -4.2889
# 6 6.5250 19.3178 22.6030 8.9452 -4.2889 22.4419
#
#
#
# Elastic Compliance Matrix: (Units=1/GPa)
#
#
# Indices 1 2 3 4 5 6 
#
# 1 0.021104 -0.002615 -0.000821 0.006097 -0.008661 -0.007144
# 2 -0.002615 0.007966 -0.001958 0.000820 -0.003226 -0.005068
# 3 -0.000821 -0.001958 0.003917 0.000272 0.000410 -0.002051
# 4 0.006097 0.000820 0.000272 0.016618 -0.007479 -0.010807
# 5 -0.008661 -0.003226 0.000410 -0.007479 0.029183 0.013440
# 6 -0.007144 -0.005068 -0.002051 -0.010807 0.013440 0.059941
#
#
# Mechanical properties :
#
#
# Convention : Reuss Voigt Hill
#
# Bulk Modulus (GPa) = 45.04518 109.43903 77.24210
# Shear Modulus (GPa) = 31.86403 55.35762 43.61083
#
# Velocity S-wave (km/s) = 3.45730 4.55697 4.04468
# Velocity P-wave (km/s) = 5.73017 8.29103 7.12657
#
# Compressibility (1/GPa) = 0.02219993
#
# Stress axis : x y z
#
# Youngs Moduli (GPa) = 47.38405 125.53131 255.32401
#
# Poissons Ratio (x) = 0.32826 0.20952
# Poissons Ratio (y) = 0.12391 0.49989
# Poissons Ratio (z) = 0.03888 0.24577
#
# Static dielectric constant tensor:
#      x y z
#    x 2.578800 -0.077060 -0.211870 
#    y -0.077060 2.135190 0.100560 
#    z -0.211870 0.100560 2.253840 
# 
# From -- ./inp_files/149752.got.cif
#   From: 2010.05.17/outbox.cif.g08.bks.cpg/sg2_75_cif.got.tgz:149752.got - 2010.06.03 11:33:40.
