data_PCOD9011909
_publ_section_title
;
Structure prediction by ZEFSAII (Michael W. Deem and Ramdas Pophale) SiO2 
 PCOD9011909
Probable space group: P -1
;
_chemical_formula_sum "Si O2"
_cell_formula_units_Z 14
_cell_length_a 8.557659
_cell_length_b 16.251869
_cell_length_c 7.471281
_cell_angle_alpha 126.288502
_cell_angle_beta 68.186158
_cell_angle_gamma 77.180017
_cell_volume 627.595061
_symmetry_space_group_name_H-M "P -1"
_symmetry_group_IT_number 2
_symmetry_cell_setting 'triclinic'
loop_
_space_group_symop_operation_xyz
x,y,z
-x,-y,-z
loop_
_atom_site_type_symbol
_atom_site_label
_atom_site_fract_x
_atom_site_fract_y
_atom_site_fract_z
Si Si1 0.704155 0.016392 0.109923
Si Si2 0.294513 0.549584 0.268957
Si Si3 0.276563 0.120919 0.435310
Si Si4 0.468204 0.390558 0.321194
Si Si5 0.166820 0.813124 0.664007
Si Si6 0.880077 0.616231 0.335641
Si Si7 0.891920 0.147652 0.694679
O O1 0.502282 0.044939 0.330881
O O2 0.698772 0.139881 0.270199
O O3 0.704966 0.968337 0.848743
O O4 0.929767 0.910764 0.956641
O O5 0.363064 0.439009 0.233581
O O6 0.250485 0.677849 0.528058
O O7 0.073534 0.594977 0.337891
O O8 0.500000 0.500000 0.000000
O O9 0.231225 0.246705 0.529700
O O10 0.073690 0.162939 0.684377
O O11 0.500000 0.500000 0.500000
O O12 0.298623 0.389059 0.505159
O O13 0.682830 0.251622 0.022560
O O14 0.157035 0.820642 0.458378
O O15 0.000000 0.500000 0.000000
O O16 0.000000 0.000000 0.500000
#
# Coordination Sequence:
#
# PCOD9011909 Si02
#       7
#     2   2   2   2   2   2   2
#     4   9  20  36  65  98 123 176 225 267 335 416
#     4  12  23  46  68  98 142 178 232 288 343 419
#     4  10  21  41  65  96 134 174 230 274 347 406
#     4  12  28  44  70 105 138 190 236 287 354 416
#     4  10  21  40  67  98 134 179 225 276 352 401
#     4  12  26  45  71  99 137 185 238 292 350 414
#     4  11  24  43  66 100 141 175 229 291 339 421
#
# _framework density 22.307378
#
# number of rings (size 3 to 8) (size 9 to 14) (size 15 to 20)
#    0.000    1.143    4.286    2.143   10.000    1.143 
#    0.000    0.714    0.000    0.000    0.000    0.000 
#    0.000    0.000    0.000    0.000    0.000    0.000 
#
# Total GULP energy -78169.085151 kJ/mol
# GULP energy per Si atom -5583.506082 kJ/mol
# Density = 2.225661 g / cm^3
# Si number density = 22.307378 Si / 1000 Ang^3
#
#
#
# Elastic Constant Matrix: (Units=GPa)
#
#
# Indices 1 2 3 4 5 6 
#
# 1 101.9767 37.1475 73.3527 5.5612 -33.5058 36.6075
# 2 37.1475 115.4357 58.3514 -2.6975 -19.4346 27.2605
# 3 73.3527 58.3514 140.2469 1.8989 -30.2729 25.7553
# 4 5.5612 -2.6975 1.8989 33.5488 13.6926 -2.7832
# 5 -33.5058 -19.4346 -30.2729 13.6926 49.4221 -4.1446
# 6 36.6075 27.2605 25.7553 -2.7832 -4.1446 41.1008
#
#
#
# Elastic Compliance Matrix: (Units=1/GPa)
#
#
# Indices 1 2 3 4 5 6 
#
# 1 0.028978 0.002580 -0.008386 -0.012966 0.017322 -0.021398
# 2 0.002580 0.012378 -0.004294 -0.001334 0.003724 -0.007531
# 3 -0.008386 -0.004294 0.013056 0.000180 0.000760 0.002225
# 4 -0.012966 -0.001334 0.000180 0.040856 -0.019423 0.013129
# 5 0.017322 0.003724 0.000760 -0.019423 0.037958 -0.015862
# 6 -0.021398 -0.007531 0.002225 0.013129 -0.015862 0.046280
#
#
# Mechanical properties :
#
#
# Convention : Reuss Voigt Hill
#
# Bulk Modulus (GPa) = 29.22960 77.26248 53.24604
# Shear Modulus (GPa) = 23.68448 37.40152 30.54300
#
# Velocity S-wave (km/s) = 3.26196 4.09913 3.70427
# Velocity P-wave (km/s) = 5.22673 7.55740 6.49743
#
# Compressibility (1/GPa) = 0.03421189
#
# Stress axis : x y z
#
# Youngs Moduli (GPa) = 34.50919 80.79070 76.59331
#
# Poissons Ratio (x) = -0.20845 0.64228
# Poissons Ratio (y) = -0.08904 0.32891
# Poissons Ratio (z) = 0.28938 0.34694
#
# Static dielectric constant tensor:
#      x y z
#    x 1.480810 -0.217360 0.082200 
#    y -0.217360 1.750460 -0.000620 
#    z 0.082200 -0.000620 1.837210 
# 
# From -- ./inp_files/204026.got.cif
#   From: 2010.05.17/outbox.cif.g08.bks.cpg/sg2_103_cif.got.tgz:204026.got - 2010.06.03 11:33:40.
