data_PCOD9011209
_publ_section_title
;
Structure prediction by ZEFSAII (Michael W. Deem and Ramdas Pophale) SiO2 
 PCOD9011209
Probable space group: P -1
;
_chemical_formula_sum "Si O2"
_cell_formula_units_Z 16
_cell_length_a 7.906913
_cell_length_b 15.430310
_cell_length_c 7.933681
_cell_angle_alpha 125.980714
_cell_angle_beta 66.089216
_cell_angle_gamma 84.653474
_cell_volume 640.236586
_symmetry_space_group_name_H-M "P -1"
_symmetry_group_IT_number 2
_symmetry_cell_setting 'triclinic'
loop_
_space_group_symop_operation_xyz
x,y,z
-x,-y,-z
loop_
_atom_site_type_symbol
_atom_site_label
_atom_site_fract_x
_atom_site_fract_y
_atom_site_fract_z
Si Si1 0.863012 0.027359 0.922721
Si Si2 0.208822 0.176502 0.176599
Si Si3 0.981528 0.555088 0.886552
Si Si4 0.388371 0.550525 0.818433
Si Si5 0.745178 0.053902 0.548710
Si Si6 0.785671 0.391137 0.668222
Si Si7 0.310134 0.167940 0.728954
Si Si8 0.558637 0.241595 0.141015
O O1 0.737813 0.949571 0.902618
O O2 0.033227 0.975071 0.646854
O O3 0.720388 0.169205 0.136066
O O4 0.000000 0.000000 0.000000
O O5 0.970278 0.264678 0.404426
O O6 0.254073 0.161037 0.940896
O O7 0.341848 0.241470 0.266825
O O8 0.214946 0.538927 0.758336
O O9 0.883433 0.487111 0.732694
O O10 0.000000 0.500000 0.000000
O O11 0.823216 0.695456 0.112195
O O12 0.589657 0.435065 0.672529
O O13 0.285338 0.608540 0.108235
O O14 0.453788 0.637766 0.788555
O O15 0.557241 0.118392 0.563720
O O16 0.665097 0.145141 0.838036
O O17 0.745748 0.927760 0.448844
#
# Coordination Sequence:
#
# PCOD9011209 Si02
#       8
#     2   2   2   2   2   2   2   2
#     4  12  24  42  62  97 135 169 215 276 331 388
#     4  11  24  42  65  94 134 173 209 278 335 385
#     4  10  22  40  64  96 127 169 223 272 320 390
#     4  10  22  43  70  96 128 177 227 270 322 403
#     4  10  21  40  68  92 124 180 217 264 325 394
#     4  10  22  44  68  97 134 171 222 276 332 385
#     4  10  21  40  65  94 130 166 221 268 324 392
#     4  11  24  42  67  95 131 176 223 264 329 402
#
# _framework density 24.990760999999999
#
# number of rings (size 3 to 8) (size 9 to 14) (size 15 to 20)
#    0.000    1.500    1.250    3.750    0.000    6.000 
#    6.750    1.250    0.000    0.000    0.000    0.000 
#    0.000    0.000    0.000    0.000    0.000    0.000 
#
# Total GULP energy -89577.379199 kJ/mol
# GULP energy per Si atom -5598.586200 kJ/mol
# Density = 2.493388 g / cm^3
# Si number density = 24.990761 Si / 1000 Ang^3
#
#
#
# Elastic Constant Matrix: (Units=GPa)
#
#
# Indices 1 2 3 4 5 6 
#
# 1 94.5832 31.4007 4.2607 14.6718 -27.5931 8.7270
# 2 31.4007 126.4888 32.6038 18.5442 -16.6266 4.7680
# 3 4.2607 32.6038 93.9089 15.8020 -25.3972 -0.3903
# 4 14.6718 18.5442 15.8020 36.0086 0.6618 -4.1986
# 5 -27.5931 -16.6266 -25.3972 0.6618 38.7731 4.9346
# 6 8.7270 4.7680 -0.3903 -4.1986 4.9346 34.6986
#
#
#
# Elastic Compliance Matrix: (Units=1/GPa)
#
#
# Indices 1 2 3 4 5 6 
#
# 1 0.018521 -0.002069 0.006409 -0.010563 0.017702 -0.008097
# 2 -0.002069 0.009757 -0.002356 -0.003343 0.001410 -0.001452
# 3 0.006409 -0.002356 0.016936 -0.009632 0.015375 -0.004450
# 4 -0.010563 -0.003343 -0.009632 0.039535 -0.017239 0.010243
# 5 0.017702 0.001410 0.015375 -0.017239 0.051119 -0.013829
# 6 -0.008097 -0.001452 -0.004450 0.010243 -0.013829 0.034212
#
#
# Mechanical properties :
#
#
# Convention : Reuss Voigt Hill
#
# Bulk Modulus (GPa) = 20.33212 50.16792 35.25002
# Shear Modulus (GPa) = 27.39649 38.34379 32.87014
#
# Velocity S-wave (km/s) = 3.31458 3.92129 3.63063
# Velocity P-wave (km/s) = 4.77516 6.37339 5.63126
#
# Compressibility (1/GPa) = 0.04918326
#
# Stress axis : x y z
#
# Youngs Moduli (GPa) = 53.99288 102.49128 59.04519
#
# Poissons Ratio (x) = 0.21207 -0.37844
# Poissons Ratio (y) = 0.11172 0.13909
# Poissons Ratio (z) = -0.34606 0.24144
#
# Static dielectric constant tensor:
#      x y z
#    x 2.069620 -0.118440 0.034350 
#    y -0.118440 1.747800 0.107610 
#    z 0.034350 0.107610 1.937470 
# 
# From -- ./inp_files/208620.got.cif
#   From: 2010.05.17/outbox.cif.g08.bks.cpg/sg2_105_cif.got.tgz:208620.got - 2010.06.03 11:33:40.
