data_PCOD9011420
_publ_section_title
;
Structure prediction by ZEFSAII (Michael W. Deem and Ramdas Pophale) SiO2 
 PCOD9011420
Probable space group: P -1
;
_chemical_formula_sum "Si O2"
_cell_formula_units_Z 16
_cell_length_a 12.234266
_cell_length_b 11.729099
_cell_length_c 9.991712
_cell_angle_alpha 119.576315
_cell_angle_beta 72.340515
_cell_angle_gamma 147.251659
_cell_volume 655.228860
_symmetry_space_group_name_H-M "P -1"
_symmetry_group_IT_number 2
_symmetry_cell_setting 'triclinic'
loop_
_space_group_symop_operation_xyz
x,y,z
-x,-y,-z
loop_
_atom_site_type_symbol
_atom_site_label
_atom_site_fract_x
_atom_site_fract_y
_atom_site_fract_z
Si Si1 0.773623 0.170790 0.068852
Si Si2 0.894633 0.021291 0.476622
Si Si3 0.464135 0.499855 0.669161
Si Si4 0.915856 0.863395 0.778491
Si Si5 0.368287 0.007756 0.410150
Si Si6 0.136977 0.323402 0.032019
Si Si7 0.489632 0.141701 0.753975
Si Si8 0.383859 0.708396 0.768314
O O1 0.683967 0.044468 0.175777
O O2 0.780496 0.335110 0.164059
O O3 0.596794 0.959611 0.906737
O O4 0.983201 0.293591 0.032096
O O5 0.669698 0.745350 0.364828
O O6 0.830628 0.094041 0.614135
O O7 0.000000 0.000000 0.500000
O O8 0.040791 0.186119 0.392755
O O9 0.500000 0.500000 0.500000
O O10 0.691835 0.719253 0.775318
O O11 0.349585 0.530402 0.733390
O O12 0.927816 0.787400 0.860355
O O13 0.083755 0.140492 0.866107
O O14 0.404160 0.061227 0.587209
O O15 0.558366 0.238495 0.379802
O O16 0.363859 0.848574 0.292093
O O17 0.370246 0.599525 0.111170
#
# Coordination Sequence:
#
# PCOD9011420 Si02
#       8
#     2   2   2   2   2   2   2   2
#     4  10  22  43  63  91 128 162 210 261 308 372
#     4  12  24  38  64  94 124 162 205 253 312 373
#     4  12  22  41  65  90 130 167 201 260 316 366
#     4  11  25  42  60  94 127 161 211 260 305 376
#     4  10  21  43  64  93 130 157 209 265 308 368
#     4  11  24  42  65  89 126 165 211 257 311 375
#     4  10  23  42  68  91 122 169 206 257 317 370
#     4  10  21  40  66  90 125 167 205 258 316 364
#
# _framework density 24.418949999999999
#
# number of rings (size 3 to 8) (size 9 to 14) (size 15 to 20)
#    0.000    1.250    3.750    1.500    1.750    1.000 
#    0.000   15.000    0.000    0.000    0.000    0.000 
#    0.000    0.000    0.000    0.000    0.000    0.000 
#
# Total GULP energy -89494.681572 kJ/mol
# GULP energy per Si atom -5593.417598 kJ/mol
# Density = 2.436337 g / cm^3
# Si number density = 24.418950 Si / 1000 Ang^3
#
#
#
# Elastic Constant Matrix: (Units=GPa)
#
#
# Indices 1 2 3 4 5 6 
#
# 1 120.4583 0.5340 2.4635 -2.3444 -21.9762 -5.6773
# 2 0.5340 47.2868 22.4853 10.7293 -5.9670 -13.1017
# 3 2.4635 22.4853 51.7478 -0.7999 6.6539 -5.9512
# 4 -2.3444 10.7293 -0.7999 45.4180 -6.7618 -7.8841
# 5 -21.9762 -5.9670 6.6539 -6.7618 33.9016 0.7185
# 6 -5.6773 -13.1017 -5.9512 -7.8841 0.7185 25.6904
#
#
#
# Elastic Compliance Matrix: (Units=1/GPa)
#
#
# Indices 1 2 3 4 5 6 
#
# 1 0.009875 0.002323 -0.002050 0.001586 0.007462 0.003170
# 2 0.002323 0.033745 -0.014556 -0.004545 0.009127 0.012701
# 3 -0.002050 -0.014556 0.026819 0.002397 -0.008662 -0.000686
# 4 0.001586 -0.004545 0.002397 0.024964 0.004607 0.006120
# 5 0.007462 0.009127 -0.008662 0.004607 0.038461 0.004635
# 6 0.003170 0.012701 -0.000686 0.006120 0.004635 0.047693
#
#
# Mechanical properties :
#
#
# Convention : Reuss Voigt Hill
#
# Bulk Modulus (GPa) = 23.88198 30.05092 26.96645
# Shear Modulus (GPa) = 22.31347 33.93601 28.12474
#
# Velocity S-wave (km/s) = 3.02615 3.73197 3.39744
# Velocity P-wave (km/s) = 4.69164 5.55907 5.14367
#
# Compressibility (1/GPa) = 0.04187257
#
# Stress axis : x y z
#
# Youngs Moduli (GPa) = 101.26764 29.63416 37.28687
#
# Poissons Ratio (x) = -0.06885 0.07644
# Poissons Ratio (y) = -0.23528 0.54277
# Poissons Ratio (z) = 0.20759 0.43137
#
# Static dielectric constant tensor:
#      x y z
#    x 1.936420 0.016490 0.025590 
#    y 0.016490 1.915730 0.023070 
#    z 0.025590 0.023070 1.976180 
# 
# From -- ./inp_files/428708.got.cif
#   From: 2010.05.17/outbox.cif.g08.bks.cpg/sg2_215_cif.got.tgz:428708.got - 2010.06.03 11:33:40.
