data_PCOD9011976
_publ_section_title
;
Structure prediction by ZEFSAII (Michael W. Deem and Ramdas Pophale) SiO2 
 PCOD9011976
Probable space group: P -1
;
_chemical_formula_sum "Si O2"
_cell_formula_units_Z 14
_cell_length_a 12.715448
_cell_length_b 13.340629
_cell_length_c 8.531382
_cell_angle_alpha 136.716959
_cell_angle_beta 136.026124
_cell_angle_gamma 34.214968
_cell_volume 531.290858
_symmetry_space_group_name_H-M "P -1"
_symmetry_group_IT_number 2
_symmetry_cell_setting 'triclinic'
loop_
_space_group_symop_operation_xyz
x,y,z
-x,-y,-z
loop_
_atom_site_type_symbol
_atom_site_label
_atom_site_fract_x
_atom_site_fract_y
_atom_site_fract_z
Si Si1 0.748573 0.091526 0.894667
Si Si2 0.086468 0.297374 0.806934
Si Si3 0.087118 0.702639 0.670030
Si Si4 0.511578 0.074932 0.933262
Si Si5 0.994115 0.878532 0.227119
Si Si6 0.376657 0.279420 0.523836
Si Si7 0.422542 0.679587 0.515612
O O1 0.521271 0.203772 0.742324
O O2 0.775533 0.248350 0.074063
O O3 0.873350 0.901892 0.707501
O O4 0.867921 0.994033 0.072435
O O5 0.275479 0.220249 0.816136
O O6 0.930514 0.306249 0.545154
O O7 0.099955 0.198467 0.868972
O O8 0.000000 0.500000 0.000000
O O9 0.174399 0.493024 0.582033
O O10 0.612177 0.898638 0.718245
O O11 0.581193 0.190765 0.204742
O O12 0.500000 0.000000 0.000000
O O13 0.227567 0.731060 0.281838
O O14 0.000000 0.000000 0.500000
O O15 0.466242 0.312234 0.504370
O O16 0.500000 0.500000 0.500000
#
# Coordination Sequence:
#
# PCOD9011976 Si02
#       7
#     2   2   2   2   2   2   2
#     4  11  24  43  70 105 147 181 243 307 350 431
#     4  12  23  43  73 106 141 189 239 290 364 432
#     4  11  22  41  71 104 138 193 235 292 366 431
#     4  10  21  40  68 101 146 185 231 295 353 430
#     4  12  24  43  71 106 138 183 239 302 351 418
#     4  11  22  43  71 104 143 195 237 288 372 430
#     4  11  23  41  71 110 142 181 244 300 347 426
#
# _framework density 26.350916000000002
#
# number of rings (size 3 to 8) (size 9 to 14) (size 15 to 20)
#    0.000    0.857    2.857    7.286    0.000    0.000 
#    0.000    0.714    3.143   10.286    0.000    0.000 
#    0.000    0.000    0.000    0.000    0.000    0.000 
#
# Total GULP energy -78079.081006 kJ/mol
# GULP energy per Si atom -5577.077215 kJ/mol
# Density = 2.629094 g / cm^3
# Si number density = 26.350916 Si / 1000 Ang^3
#
#
#
# Elastic Constant Matrix: (Units=GPa)
#
#
# Indices 1 2 3 4 5 6 
#
# 1 81.9798 25.5121 27.3650 6.7279 18.5890 8.8632
# 2 25.5121 143.1043 71.0692 22.3333 9.7644 27.5550
# 3 27.3650 71.0692 181.8448 4.5373 4.5926 12.8116
# 4 6.7279 22.3333 4.5373 67.9809 6.8688 0.2057
# 5 18.5890 9.7644 4.5926 6.8688 29.9029 -7.4394
# 6 8.8632 27.5550 12.8116 0.2057 -7.4394 40.7570
#
#
#
# Elastic Compliance Matrix: (Units=1/GPa)
#
#
# Indices 1 2 3 4 5 6 
#
# 1 0.015755 -0.000355 -0.001637 -0.000258 -0.010509 -0.004589
# 2 -0.000355 0.010825 -0.003529 -0.002880 -0.003805 -0.006812
# 3 -0.001637 -0.003529 0.007027 0.000739 0.001103 0.000731
# 4 -0.000258 -0.002880 0.000739 0.015865 -0.002343 0.001263
# 5 -0.010509 -0.003805 0.001103 -0.002343 0.044743 0.012690
# 6 -0.004589 -0.006812 0.000731 0.001263 0.012690 0.032219
#
#
# Mechanical properties :
#
#
# Convention : Reuss Voigt Hill
#
# Bulk Modulus (GPa) = 44.31737 72.75794 58.53765
# Shear Modulus (GPa) = 34.48310 46.59365 40.53838
#
# Velocity S-wave (km/s) = 3.62140 4.20956 3.92651
# Velocity P-wave (km/s) = 5.86009 7.16228 6.54366
#
# Compressibility (1/GPa) = 0.02256452
#
# Stress axis : x y z
#
# Youngs Moduli (GPa) = 63.47076 92.38153 142.30647
#
# Poissons Ratio (x) = 0.03279 0.23297
# Poissons Ratio (y) = 0.02253 0.50223
# Poissons Ratio (z) = 0.10391 0.32604
#
# Static dielectric constant tensor:
#      x y z
#    x 2.252860 -0.099850 0.028580 
#    y -0.099850 2.355890 -0.065220 
#    z 0.028580 -0.065220 1.999950 
# 
# From -- ./inp_files/316106.got.cif
#   From: 2010.05.17/outbox.cif.g08.bks.cpg/sg2_159_cif.got.tgz:316106.got - 2010.06.03 11:33:40.
