data_PCOD9011691
_publ_section_title
;
Structure prediction by ZEFSAII (Michael W. Deem and Ramdas Pophale) SiO2 
 PCOD9011691
Probable space group: P -1
;
_chemical_formula_sum "Si O2"
_cell_formula_units_Z 14
_cell_length_a 8.435660
_cell_length_b 10.905511
_cell_length_c 8.796652
_cell_angle_alpha 67.113715
_cell_angle_beta 129.586046
_cell_angle_gamma 98.768129
_cell_volume 569.358543
_symmetry_space_group_name_H-M "P -1"
_symmetry_group_IT_number 2
_symmetry_cell_setting 'triclinic'
loop_
_space_group_symop_operation_xyz
x,y,z
-x,-y,-z
loop_
_atom_site_type_symbol
_atom_site_label
_atom_site_fract_x
_atom_site_fract_y
_atom_site_fract_z
Si Si1 0.235111 0.194823 0.159131
Si Si2 0.187352 0.924077 0.256731
Si Si3 0.245183 0.456986 0.201427
Si Si4 0.261543 0.759367 0.109780
Si Si5 0.773830 0.576839 0.455074
Si Si6 0.192969 0.676025 0.583146
Si Si7 0.501234 0.231765 0.030526
O O1 0.316362 0.332282 0.194749
O O2 0.353046 0.160854 0.086765
O O3 0.985876 0.234043 0.010298
O O4 0.272225 0.048941 0.330945
O O5 0.125375 0.820402 0.394152
O O6 0.330931 0.833066 0.267286
O O7 0.000000 0.000000 0.000000
O O8 0.284295 0.395346 0.421294
O O9 0.328338 0.601293 0.187865
O O10 0.000000 0.500000 0.000000
O O11 0.340431 0.833267 0.973269
O O12 0.740593 0.425878 0.465219
O O13 0.012456 0.602971 0.581625
O O14 0.665650 0.670995 0.213862
O O15 0.353618 0.694445 0.805010
#
# Coordination Sequence:
#
# PCOD9011691 Si02
#       7
#     2   2   2   2   2   2   2
#     4  10  24  43  70 101 145 185 235 289 352 425
#     4  10  21  45  70  98 142 197 229 286 362 421
#     4  10  21  40  67 100 138 181 230 293 344 407
#     4  10  22  43  69 102 143 182 238 295 344 419
#     4  11  24  42  71 109 144 182 236 304 355 416
#     4  11  24  43  71 107 144 185 239 297 351 425
#     4  12  27  43  73 110 141 188 238 293 362 423
#
# _framework density 24.589074
#
# number of rings (size 3 to 8) (size 9 to 14) (size 15 to 20)
#    0.000    1.429    1.429    3.857   10.000    2.857 
#    0.000    7.857    0.000    0.000    0.000    0.000 
#    0.000    0.000    0.000    0.000    0.000    0.000 
#
# Total GULP energy -78020.904615 kJ/mol
# GULP energy per Si atom -5572.921758 kJ/mol
# Density = 2.453311 g / cm^3
# Si number density = 24.589074 Si / 1000 Ang^3
#
#
#
# Elastic Constant Matrix: (Units=GPa)
#
#
# Indices 1 2 3 4 5 6 
#
# 1 114.7015 19.4949 0.0318 12.3652 -12.0410 5.2093
# 2 19.4949 123.0913 -2.4827 -9.0912 -4.1514 -13.3516
# 3 0.0318 -2.4827 77.7197 12.9455 6.9343 1.0887
# 4 12.3652 -9.0912 12.9455 29.6617 11.2182 -0.7788
# 5 -12.0410 -4.1514 6.9343 11.2182 40.0689 6.3229
# 6 5.2093 -13.3516 1.0887 -0.7788 6.3229 27.3722
#
#
#
# Elastic Compliance Matrix: (Units=1/GPa)
#
#
# Indices 1 2 3 4 5 6 
#
# 1 0.010882 -0.002644 0.000796 -0.008057 0.005901 -0.004985
# 2 -0.002644 0.009469 -0.000447 0.005140 -0.002085 0.005768
# 3 0.000796 -0.000447 0.013972 -0.006505 -0.000237 -0.001056
# 4 -0.008057 0.005140 -0.006505 0.047611 -0.015552 0.009246
# 5 0.005901 -0.002085 -0.000237 -0.015552 0.032500 -0.010080
# 6 -0.004985 0.005768 -0.001056 0.009246 -0.010080 0.042929
#
#
# Mechanical properties :
#
#
# Convention : Reuss Voigt Hill
#
# Bulk Modulus (GPa) = 33.63358 38.84450 36.23904
# Shear Modulus (GPa) = 29.09303 39.31846 34.20575
#
# Velocity S-wave (km/s) = 3.44345 4.00312 3.73379
# Velocity P-wave (km/s) = 5.43303 6.09904 5.77564
#
# Compressibility (1/GPa) = 0.02973219
#
# Stress axis : x y z
#
# Youngs Moduli (GPa) = 91.89645 105.61137 71.57390
#
# Poissons Ratio (x) = 0.27925 -0.05701
# Poissons Ratio (y) = 0.24298 0.03201
# Poissons Ratio (z) = -0.07319 0.04724
#
# Static dielectric constant tensor:
#      x y z
#    x 2.060870 0.034450 0.082400 
#    y 0.034450 2.022040 0.039920 
#    z 0.082400 0.039920 1.988520 
# 
# From -- ./inp_files/185322.got.cif
#   From: 2010.05.17/outbox.cif.g08.bks.cpg/sg2_93_cif.got.tgz:185322.got - 2010.06.03 11:33:40.
