data_PCOD9011521
_publ_section_title
;
Structure prediction by ZEFSAII (Michael W. Deem and Ramdas Pophale) SiO2 
 PCOD9011521
Probable space group: P -1
;
_chemical_formula_sum "Si O2"
_cell_formula_units_Z 16
_cell_length_a 18.665189
_cell_length_b 16.454891
_cell_length_c 24.581273
_cell_angle_alpha 161.872716
_cell_angle_beta 160.526725
_cell_angle_gamma 28.127377
_cell_volume 775.788453
_symmetry_space_group_name_H-M "P -1"
_symmetry_group_IT_number 2
_symmetry_cell_setting 'triclinic'
loop_
_space_group_symop_operation_xyz
x,y,z
-x,-y,-z
loop_
_atom_site_type_symbol
_atom_site_label
_atom_site_fract_x
_atom_site_fract_y
_atom_site_fract_z
Si Si1 0.698977 0.385822 0.094606
Si Si2 0.648695 0.263652 0.685233
Si Si3 0.977233 0.885774 0.633699
Si Si4 0.781857 0.060005 0.854277
Si Si5 0.377771 0.227719 0.083898
Si Si6 0.396715 0.693214 0.590216
Si Si7 0.033460 0.653444 0.933318
Si Si8 0.746387 0.100384 0.054035
O O1 0.707769 0.316256 0.119639
O O2 0.900277 0.614122 0.374663
O O3 0.500000 0.500000 0.000000
O O4 0.675393 0.125802 0.876441
O O5 0.652626 0.529604 0.822379
O O6 0.394712 0.146123 0.433926
O O7 0.779595 0.329096 0.876449
O O8 0.779120 0.042397 0.609736
O O9 0.105493 0.812386 0.732620
O O10 0.144935 0.086886 0.847872
O O11 0.855982 0.289602 0.009852
O O12 0.000000 0.000000 0.000000
O O13 0.512629 0.334766 0.302043
O O14 0.500000 0.000000 0.000000
O O15 0.500000 0.500000 0.500000
O O16 0.138758 0.611374 0.353924
O O17 0.512700 0.972864 0.829025
O O18 0.882178 0.885849 0.985561
#
# Coordination Sequence:
#
# PCOD9011521 Si02
#       8
#     2   2   2   2   2   2   2   2
#     4  12  24  40  63  99 130 168 224 271 316 390
#     4  11  24  44  66  93 130 177 221 262 331 404
#     4  10  23  43  65  93 132 176 217 265 324 399
#     4  12  24  41  66  95 132 172 214 276 334 388
#     4  11  25  42  68 102 134 169 221 278 332 385
#     4   9  20  40  68  93 127 173 218 259 325 399
#     4  10  21  40  66  94 127 171 219 264 323 390
#     4   9  20  40  64  93 127 172 213 263 321 390
#
# _framework density 20.624179000000002
#
# number of rings (size 3 to 8) (size 9 to 14) (size 15 to 20)
#    0.000    1.500    2.500    2.625    5.250    1.000 
#    4.500    0.625    0.000    0.000    0.000    0.000 
#    0.000    0.000    0.000    0.000    0.000    0.000 
#
# Total GULP energy -89152.968673 kJ/mol
# GULP energy per Si atom -5572.060542 kJ/mol
# Density = 2.057724 g / cm^3
# Si number density = 20.624179 Si / 1000 Ang^3
#
#
#
# Elastic Constant Matrix: (Units=GPa)
#
#
# Indices 1 2 3 4 5 6 
#
# 1 68.8897 28.9678 30.5148 -6.9765 -2.1209 32.5482
# 2 28.9678 101.0952 42.2692 -14.7919 5.8765 33.4924
# 3 30.5148 42.2692 143.7413 -33.0208 2.8106 31.4106
# 4 -6.9765 -14.7919 -33.0208 23.3198 -0.7583 5.7568
# 5 -2.1209 5.8765 2.8106 -0.7583 29.9104 2.8597
# 6 32.5482 33.4924 31.4106 5.7568 2.8597 12.9726
#
#
#
# Elastic Compliance Matrix: (Units=1/GPa)
#
#
# Indices 1 2 3 4 5 6 
#
# 1 0.011849 -0.008197 -0.007487 -0.016302 0.001160 0.016540
# 2 -0.008197 0.009652 -0.005203 -0.006760 -0.003305 0.011973
# 3 -0.007487 -0.005203 0.007480 0.001618 -0.001482 0.013714
# 4 -0.016302 -0.006760 0.001618 0.024999 -0.003565 0.044128
# 5 0.001160 -0.003305 -0.001482 -0.003565 0.033896 0.003321
# 6 0.016540 0.011973 0.013714 0.044128 0.003321 -0.048846
#
#
# Mechanical properties :
#
#
# Convention : Reuss Voigt Hill
#
# Bulk Modulus (GPa) = -78.17207 57.46999 -10.35104
# Shear Modulus (GPa) = 65.32547 27.37220 46.34884
#
# Velocity S-wave (km/s) = 5.63409 3.64701 4.74572
# Velocity P-wave (km/s) = 2.08292 6.75723 4.99993
#
# Compressibility (1/GPa) = -0.01279229
#
# Stress axis : x y z
#
# Youngs Moduli (GPa) = 84.39346 103.60162 133.68821
#
# Poissons Ratio (x) = 0.84925 1.00091
# Poissons Ratio (y) = 0.69179 0.69556
# Poissons Ratio (z) = 0.63185 0.53903
#
# Static dielectric constant tensor:
#      x y z
#    x 1.727200 -0.038540 0.014140 
#    y -0.038540 1.696720 0.010900 
#    z 0.014140 0.010900 1.740680 
# 
# From -- ./inp_files/181480.got.cif
#   From: 2010.05.17/outbox.cif.g08.bks.cpg/sg2_91_cif.got.tgz:181480.got - 2010.06.03 11:33:40.
