data_PCOD9011213
_publ_section_title
;
Structure prediction by ZEFSAII (Michael W. Deem and Ramdas Pophale) SiO2 
 PCOD9011213
Probable space group: P -1
;
_chemical_formula_sum "Si O2"
_cell_formula_units_Z 14
_cell_length_a 14.006533
_cell_length_b 16.811542
_cell_length_c 6.602381
_cell_angle_alpha 72.883805
_cell_angle_beta 82.339701
_cell_angle_gamma 25.143453
_cell_volume 596.412872
_symmetry_space_group_name_H-M "P -1"
_symmetry_group_IT_number 2
_symmetry_cell_setting 'triclinic'
loop_
_space_group_symop_operation_xyz
x,y,z
-x,-y,-z
loop_
_atom_site_type_symbol
_atom_site_label
_atom_site_fract_x
_atom_site_fract_y
_atom_site_fract_z
Si Si1 0.851970 0.272807 0.487263
Si Si2 0.101723 0.650019 0.236535
Si Si3 0.334290 0.314734 0.546407
Si Si4 0.037079 0.866169 0.857962
Si Si5 0.898609 0.628546 0.737731
Si Si6 0.663556 0.275928 0.836382
Si Si7 0.314407 0.086839 0.099983
O O1 0.997383 0.117347 0.381964
O O2 0.764560 0.268356 0.663537
O O3 0.616284 0.500824 0.285084
O O4 0.973573 0.246846 0.609413
O O5 0.329011 0.412186 0.388875
O O6 0.904842 0.748380 0.114239
O O7 0.128328 0.706169 0.036908
O O8 0.266175 0.302271 0.399903
O O9 0.116724 0.483177 0.642450
O O10 0.566203 0.096367 0.753731
O O11 0.241150 0.771311 0.935289
O O12 0.800589 0.084797 0.873883
O O13 0.762746 0.812415 0.741112
O O14 0.000000 0.500000 0.000000
O O15 0.500000 0.000000 0.000000
#
# Coordination Sequence:
#
# PCOD9011213 Si02
#       7
#     2   2   2   2   2   2   2
#     4  10  21  40  65  94 132 165 205 264 316 369
#     4  11  26  40  60 103 130 162 221 262 314 393
#     4  11  24  42  65  91 128 164 214 275 323 377
#     4  10  21  41  64  95 132 164 208 261 311 383
#     4  11  21  44  68  90 118 165 224 271 317 390
#     4   9  20  40  68  94 123 168 216 247 312 391
#     4  12  24  45  68  90 125 177 221 264 327 379
#
# _framework density 23.473673000000002
#
# number of rings (size 3 to 8) (size 9 to 14) (size 15 to 20)
#    0.000    1.429    2.857    2.143    4.000    0.000 
#    0.000    2.857    0.000    0.000    0.000    0.000 
#    0.000    0.000    0.000    0.000    0.000    0.000 
#
# Total GULP energy -78329.921766 kJ/mol
# GULP energy per Si atom -5594.994412 kJ/mol
# Density = 2.342025 g / cm^3
# Si number density = 23.473673 Si / 1000 Ang^3
#
#
#
# Elastic Constant Matrix: (Units=GPa)
#
#
# Indices 1 2 3 4 5 6 
#
# 1 51.7631 29.7594 20.6614 16.4225 8.1783 21.0491
# 2 29.7594 111.5181 37.6450 -0.4594 2.0422 26.4081
# 3 20.6614 37.6450 90.7413 5.3135 10.5906 12.7967
# 4 16.4225 -0.4594 5.3135 57.7086 19.6996 3.6531
# 5 8.1783 2.0422 10.5906 19.6996 31.7382 -0.9757
# 6 21.0491 26.4081 12.7967 3.6531 -0.9757 27.9182
#
#
#
# Elastic Compliance Matrix: (Units=1/GPa)
#
#
# Indices 1 2 3 4 5 6 
#
# 1 0.032993 -0.003168 -0.002526 -0.006548 -0.004006 -0.020004
# 2 -0.003168 0.013070 -0.003563 0.001995 -0.000338 -0.008613
# 3 -0.002526 -0.003563 0.013705 0.000995 -0.004350 -0.001289
# 4 -0.006548 0.001995 0.000995 0.023817 -0.013587 -0.000997
# 5 -0.004006 -0.000338 -0.004350 -0.013587 0.042711 0.008605
# 6 -0.020004 -0.008613 -0.001289 -0.000997 0.008605 0.060071
#
#
# Mechanical properties :
#
#
# Convention : Reuss Voigt Hill
#
# Bulk Modulus (GPa) = 24.24089 47.79490 36.01790
# Shear Modulus (GPa) = 22.86933 34.53677 28.70305
#
# Velocity S-wave (km/s) = 3.12469 3.83991 3.50062
# Velocity P-wave (km/s) = 4.83400 6.32971 5.63173
#
# Compressibility (1/GPa) = 0.04125261
#
# Stress axis : x y z
#
# Youngs Moduli (GPa) = 30.30912 76.51335 72.96601
#
# Poissons Ratio (x) = 0.24243 0.18431
# Poissons Ratio (y) = 0.09603 0.26000
# Poissons Ratio (z) = 0.07656 0.27264
#
# Static dielectric constant tensor:
#      x y z
#    x 1.900280 0.020470 -0.005960 
#    y 0.020470 1.888890 -0.011290 
#    z -0.005960 -0.011290 1.882780 
# 
# From -- ./inp_files/97914.got.cif
#   From: 2010.05.17/outbox.cif.g08.bks.cpg/sg2_49_cif.got.tgz:97914.got - 2010.06.03 11:33:40.
