data_PCOD9011459
_publ_section_title
;
Structure prediction by ZEFSAII (Michael W. Deem and Ramdas Pophale) SiO2 
 PCOD9011459
Probable space group: P -1
;
_chemical_formula_sum "Si O2"
_cell_formula_units_Z 16
_cell_length_a 8.086543
_cell_length_b 16.391664
_cell_length_c 9.089922
_cell_angle_alpha 121.612029
_cell_angle_beta 49.307992
_cell_angle_gamma 126.634173
_cell_volume 714.803872
_symmetry_space_group_name_H-M "P -1"
_symmetry_group_IT_number 2
_symmetry_cell_setting 'triclinic'
loop_
_space_group_symop_operation_xyz
x,y,z
-x,-y,-z
loop_
_atom_site_type_symbol
_atom_site_label
_atom_site_fract_x
_atom_site_fract_y
_atom_site_fract_z
Si Si1 0.151399 0.724816 0.145496
Si Si2 0.501028 0.928556 0.571657
Si Si3 0.812134 0.637761 0.508639
Si Si4 0.466406 0.255234 0.808565
Si Si5 0.296834 0.603557 0.725441
Si Si6 0.974585 0.093405 0.011710
Si Si7 0.255806 0.949618 0.182217
Si Si8 0.179195 0.620102 0.487781
O O1 0.365461 0.740502 0.148261
O O2 0.206682 0.829896 0.125678
O O3 0.927278 0.702700 0.358288
O O4 0.129089 0.631864 0.960406
O O5 0.523288 0.828204 0.395598
O O6 0.500000 0.000000 0.500000
O O7 0.703798 0.991622 0.631064
O O8 0.254948 0.897047 0.774129
O O9 0.559583 0.643843 0.682460
O O10 0.771459 0.518728 0.378196
O O11 0.005728 0.667999 0.555548
O O12 0.605385 0.361707 0.736330
O O13 0.198898 0.203976 0.975605
O O14 0.285727 0.653578 0.620262
O O15 0.932312 0.050262 0.828564
O O16 0.000000 0.000000 0.000000
O O17 0.500000 0.000000 0.000000
O O18 0.000000 0.500000 0.500000
#
# Coordination Sequence:
#
# PCOD9011459 Si02
#       8
#     2   2   2   2   2   2   2   2
#     4  11  22  40  61  91 125 163 210 258 314 374
#     4  11  21  43  62  85 124 166 206 261 312 369
#     4   9  21  42  65  92 124 165 206 262 321 378
#     4  11  23  40  63  89 125 168 207 258 321 371
#     4  10  21  40  66  92 125 163 212 260 317 378
#     4  11  23  41  61  90 126 165 212 262 313 380
#     4  10  23  40  60  89 128 166 208 260 313 372
#     4   9  21  41  63  92 127 161 211 265 312 377
#
# _framework density 22.383761
#
# number of rings (size 3 to 8) (size 9 to 14) (size 15 to 20)
#    0.000    1.750    2.500    1.125    5.250    2.500 
#    0.000    0.000    0.000    9.000    0.000    0.000 
#    0.000    0.000    0.000    0.000    0.000    0.000 
#
# Total GULP energy -89293.108203 kJ/mol
# GULP energy per Si atom -5580.819263 kJ/mol
# Density = 2.233281 g / cm^3
# Si number density = 22.383761 Si / 1000 Ang^3
#
#
#
# Elastic Constant Matrix: (Units=GPa)
#
#
# Indices 1 2 3 4 5 6 
#
# 1 86.3032 16.7230 15.5210 -5.9677 37.2206 5.7055
# 2 16.7230 83.5402 29.8055 -28.3946 2.3953 -6.2342
# 3 15.5210 29.8055 85.2524 -4.6774 6.1288 -3.3452
# 4 -5.9677 -28.3946 -4.6774 45.3020 4.9566 2.5502
# 5 37.2206 2.3953 6.1288 4.9566 37.6706 -10.7352
# 6 5.7055 -6.2342 -3.3452 2.5502 -10.7352 31.5835
#
#
#
# Elastic Compliance Matrix: (Units=1/GPa)
#
#
# Indices 1 2 3 4 5 6 
#
# 1 0.028890 -0.003311 -0.002026 0.006263 -0.034001 -0.018150
# 2 -0.003311 0.018030 -0.005213 0.009814 0.002749 0.003747
# 3 -0.002026 -0.005213 0.013792 -0.002260 0.000738 0.001231
# 4 0.006263 0.009814 -0.002260 0.030489 -0.012176 -0.006034
# 5 -0.034001 0.002749 0.000738 -0.012176 0.070483 0.031703
# 6 -0.018150 0.003747 0.001231 -0.006034 0.031703 0.047074
#
#
# Mechanical properties :
#
#
# Convention : Reuss Voigt Hill
#
# Bulk Modulus (GPa) = 25.24502 42.13274 33.68888
# Shear Modulus (GPa) = 20.57092 35.78096 28.17594
#
# Velocity S-wave (km/s) = 3.03481 4.00249 3.55176
# Velocity P-wave (km/s) = 4.85622 6.34221 5.64830
#
# Compressibility (1/GPa) = 0.03961178
#
# Stress axis : x y z
#
# Youngs Moduli (GPa) = 34.61428 55.46462 72.50319
#
# Poissons Ratio (x) = 0.18364 0.14692
# Poissons Ratio (y) = 0.11461 0.37794
# Poissons Ratio (z) = 0.07014 0.28912
#
# Static dielectric constant tensor:
#      x y z
#    x 1.855360 0.051190 0.000150 
#    y 0.051190 1.915560 -0.030280 
#    z 0.000150 -0.030280 1.817090 
# 
# From -- ./inp_files/218196.got.cif
#   From: 2010.05.17/outbox.cif.g08.bks.cpg/sg2_110_cif.got.tgz:218196.got - 2010.06.03 11:33:40.
