data_PCOD9011504
_publ_section_title
;
Structure prediction by ZEFSAII (Michael W. Deem and Ramdas Pophale) SiO2 
 PCOD9011504
Probable space group: P -1
;
_chemical_formula_sum "Si O2"
_cell_formula_units_Z 16
_cell_length_a 8.640937
_cell_length_b 17.051678
_cell_length_c 14.290242
_cell_angle_alpha 24.403178
_cell_angle_beta 68.713167
_cell_angle_gamma 77.414542
_cell_volume 775.053942
_symmetry_space_group_name_H-M "P -1"
_symmetry_group_IT_number 2
_symmetry_cell_setting 'triclinic'
loop_
_space_group_symop_operation_xyz
x,y,z
-x,-y,-z
loop_
_atom_site_type_symbol
_atom_site_label
_atom_site_fract_x
_atom_site_fract_y
_atom_site_fract_z
Si Si1 0.167117 0.894855 0.184853
Si Si2 0.204759 0.284520 0.628636
Si Si3 0.343891 0.038857 0.178932
Si Si4 0.506266 0.299691 0.416555
Si Si5 0.373860 0.619003 0.355044
Si Si6 0.797900 0.991555 0.551577
Si Si7 0.339934 0.301555 0.266957
Si Si8 0.811645 0.436637 0.069279
O O1 0.290558 0.753585 0.292974
O O2 0.969078 0.776833 0.329048
O O3 0.203619 0.978526 0.191413
O O4 0.214661 0.085916 0.897066
O O5 0.378047 0.369084 0.436557
O O6 0.217531 0.456234 0.514899
O O7 0.269069 0.069971 0.262300
O O8 0.424774 0.858622 0.372582
O O9 0.499178 0.226032 0.910447
O O10 0.383546 0.208809 0.453044
O O11 0.677306 0.447477 0.170653
O O12 0.500000 0.500000 0.500000
O O13 0.697824 0.847454 0.648798
O O14 0.770749 0.206363 0.303243
O O15 0.000000 0.000000 0.500000
O O16 0.500000 0.500000 0.000000
O O17 0.189510 0.409447 0.180522
O O18 0.000000 0.500000 0.000000
#
# Coordination Sequence:
#
# PCOD9011504 Si02
#       8
#     2   2   2   2   2   2   2   2
#     4  11  24  46  65  97 140 172 219 288 341 394
#     4  11  24  42  69  97 136 174 222 281 339 406
#     4  11  24  43  69  95 133 179 225 274 341 403
#     4  10  23  41  67  94 132 180 223 271 350 388
#     4  12  23  42  71 100 133 177 232 275 337 408
#     4  11  24  42  67  97 134 176 223 273 336 400
#     4  10  23  42  64  92 134 168 225 274 332 392
#     4  10  21  40  66  93 131 173 221 278 329 399
#
# _framework density 20.643723999999999
#
# number of rings (size 3 to 8) (size 9 to 14) (size 15 to 20)
#    0.000    1.250    3.750    1.500    5.250    4.500 
#    0.000    1.250    0.000    0.000    0.000    0.000 
#    0.000    0.000    0.000    0.000    0.000    0.000 
#
# Total GULP energy -89235.796714 kJ/mol
# GULP energy per Si atom -5577.237295 kJ/mol
# Density = 2.059674 g / cm^3
# Si number density = 20.643724 Si / 1000 Ang^3
#
#
#
# Elastic Constant Matrix: (Units=GPa)
#
#
# Indices 1 2 3 4 5 6 
#
# 1 91.2046 20.3476 16.3841 10.3775 10.5797 19.5335
# 2 20.3476 100.6654 18.3795 -5.6126 -0.4042 18.2617
# 3 16.3841 18.3795 60.8371 -5.9188 4.7330 8.0960
# 4 10.3775 -5.6126 -5.9188 32.3222 3.7078 -4.8433
# 5 10.5797 -0.4042 4.7330 3.7078 34.1861 2.8859
# 6 19.5335 18.2617 8.0960 -4.8433 2.8859 45.6824
#
#
#
# Elastic Compliance Matrix: (Units=1/GPa)
#
#
# Indices 1 2 3 4 5 6 
#
# 1 0.013965 -0.001681 -0.002896 -0.005757 -0.002876 -0.005215
# 2 -0.001681 0.011418 -0.002503 0.001437 0.001126 -0.003321
# 3 -0.002896 -0.002503 0.018599 0.004069 -0.002108 -0.000493
# 4 -0.005757 0.001437 0.004069 0.034880 -0.002974 0.005052
# 5 -0.002876 0.001126 -0.002108 -0.002974 0.030863 -0.001112
# 6 -0.005215 -0.003321 -0.000493 0.005052 -0.001112 0.026141
#
#
# Mechanical properties :
#
#
# Convention : Reuss Voigt Hill
#
# Bulk Modulus (GPa) = 33.53029 40.32550 36.92789
# Shear Modulus (GPa) = 31.25694 35.61118 33.43406
#
# Velocity S-wave (km/s) = 3.89538 4.15786 4.02876
# Velocity P-wave (km/s) = 6.04232 6.52892 6.29033
#
# Compressibility (1/GPa) = 0.02982378
#
# Stress axis : x y z
#
# Youngs Moduli (GPa) = 71.60706 87.58395 53.76720
#
# Poissons Ratio (x) = 0.14719 0.15569
# Poissons Ratio (y) = 0.12034 0.13456
# Poissons Ratio (z) = 0.20735 0.21919
#
# Static dielectric constant tensor:
#      x y z
#    x 1.763150 -0.009470 0.010250 
#    y -0.009470 1.748560 -0.010550 
#    z 0.010250 -0.010550 1.778950 
# 
# From -- ./inp_files/398141.got.cif
#   From: 2010.05.17/outbox.cif.g08.bks.cpg/sg2_200_cif.got.tgz:398141.got - 2010.06.03 11:33:40.
