data_PCOD9011516
_publ_section_title
;
Structure prediction by ZEFSAII (Michael W. Deem and Ramdas Pophale) SiO2 
 PCOD9011516
Probable space group: P -1
;
_chemical_formula_sum "Si O2"
_cell_formula_units_Z 16
_cell_length_a 8.110930
_cell_length_b 15.634973
_cell_length_c 12.358454
_cell_angle_alpha 38.221634
_cell_angle_beta 128.004414
_cell_angle_gamma 107.260463
_cell_volume 705.600545
_symmetry_space_group_name_H-M "P -1"
_symmetry_group_IT_number 2
_symmetry_cell_setting 'triclinic'
loop_
_space_group_symop_operation_xyz
x,y,z
-x,-y,-z
loop_
_atom_site_type_symbol
_atom_site_label
_atom_site_fract_x
_atom_site_fract_y
_atom_site_fract_z
Si Si1 0.489460 0.013135 0.824763
Si Si2 0.903597 0.273535 0.818383
Si Si3 0.976058 0.808337 0.288798
Si Si4 0.022703 0.989455 0.729015
Si Si5 0.355704 0.050234 0.500160
Si Si6 0.432518 0.357121 0.475240
Si Si7 0.234377 0.401057 0.133107
Si Si8 0.049674 0.506518 0.735022
O O1 0.506743 0.984655 0.731411
O O2 0.476696 0.180502 0.674323
O O3 0.252461 0.002985 0.770053
O O4 0.703746 0.896760 0.088868
O O5 0.641614 0.380197 0.591425
O O6 0.063316 0.364018 0.812275
O O7 0.954154 0.185641 0.812539
O O8 0.926904 0.167196 0.035172
O O9 0.043427 0.640242 0.523547
O O10 0.076709 0.888428 0.337457
O O11 0.849890 0.003812 0.548340
O O12 0.257450 0.229971 0.297038
O O13 0.500000 0.000000 0.500000
O O14 0.416435 0.397818 0.300572
O O15 0.193955 0.441940 0.353340
O O16 0.000000 0.500000 0.000000
O O17 0.227967 0.466888 0.945366
#
# Coordination Sequence:
#
# PCOD9011516 Si02
#       8
#     2   2   2   2   2   2   2   2
#     4  11  23  42  65  98 131 168 218 268 321 388
#     4  12  24  39  64  96 129 170 220 266 330 382
#     4  12  25  41  65  97 134 168 215 278 329 379
#     4  12  23  42  67  96 130 174 220 263 325 396
#     4  11  24  42  71 102 132 166 224 278 324 384
#     4  10  21  40  66  94 124 171 220 262 320 395
#     4   9  21  41  67  89 131 174 210 260 330 395
#     4  11  22  44  63  90 131 173 214 266 328 395
#
# _framework density 22.675720999999999
#
# number of rings (size 3 to 8) (size 9 to 14) (size 15 to 20)
#    0.000    1.000    3.750    3.375    3.500    0.000 
#    0.000    0.625    0.000    0.000    0.000    0.000 
#    0.000    0.000    0.000    0.000    0.000    0.000 
#
# Total GULP energy -89507.793389 kJ/mol
# GULP energy per Si atom -5594.237087 kJ/mol
# Density = 2.262411 g / cm^3
# Si number density = 22.675721 Si / 1000 Ang^3
#
#
#
# Elastic Constant Matrix: (Units=GPa)
#
#
# Indices 1 2 3 4 5 6 
#
# 1 51.1969 7.4391 -2.8804 3.4504 3.3547 -8.8236
# 2 7.4391 101.5622 28.8787 7.6894 -2.6547 -12.8973
# 3 -2.8804 28.8787 81.0922 2.1772 -19.5935 11.2791
# 4 3.4504 7.6894 2.1772 28.4615 -11.3319 7.2716
# 5 3.3547 -2.6547 -19.5935 -11.3319 24.4228 5.6403
# 6 -8.8236 -12.8973 11.2791 7.2716 5.6403 26.0237
#
#
#
# Elastic Compliance Matrix: (Units=1/GPa)
#
#
# Indices 1 2 3 4 5 6 
#
# 1 0.027577 0.007383 -0.013970 -0.026642 -0.034398 0.033964
# 2 0.007383 0.022190 -0.022313 -0.031846 -0.040724 0.040896
# 3 -0.013970 -0.022313 0.045802 0.051097 0.075243 -0.066232
# 4 -0.026642 -0.031846 0.051097 0.118147 0.120512 -0.106095
# 5 -0.034398 -0.040724 0.075243 0.120512 0.189682 -0.139242
# 6 0.033964 0.040896 -0.066232 -0.106095 -0.139242 0.158740
#
#
# Mechanical properties :
#
#
# Convention : Reuss Voigt Hill
#
# Bulk Modulus (GPa) = 26.47619 33.41403 29.94511
# Shear Modulus (GPa) = 7.90480 29.14253 18.52366
#
# Velocity S-wave (km/s) = 1.86911 3.58884 2.86124
# Velocity P-wave (km/s) = 4.04468 5.65160 4.91427
#
# Compressibility (1/GPa) = 0.03776979
#
# Stress axis : x y z
#
# Youngs Moduli (GPa) = 36.26267 45.06545 21.83304
#
# Poissons Ratio (x) = -0.33273 0.30500
# Poissons Ratio (y) = -0.26774 0.48716
# Poissons Ratio (z) = 0.50658 1.00554
#
# Static dielectric constant tensor:
#      x y z
#    x 1.714110 0.022670 -0.052520 
#    y 0.022670 1.808790 0.043970 
#    z -0.052520 0.043970 1.791770 
# 
# From -- ./inp_files/187835.got.cif
#   From: 2010.05.17/outbox.cif.g08.bks.cpg/sg2_94_cif.got.tgz:187835.got - 2010.06.03 11:33:40.
