data_PCOD9011489
_publ_section_title
;
Structure prediction by ZEFSAII (Michael W. Deem and Ramdas Pophale) SiO2 
 PCOD9011489
Probable space group: P -1
;
_chemical_formula_sum "Si O2"
_cell_formula_units_Z 14
_cell_length_a 11.855190
_cell_length_b 8.791339
_cell_length_c 8.318329
_cell_angle_alpha 103.835495
_cell_angle_beta 51.576220
_cell_angle_gamma 82.369630
_cell_volume 612.720021
_symmetry_space_group_name_H-M "P -1"
_symmetry_group_IT_number 2
_symmetry_cell_setting 'triclinic'
loop_
_space_group_symop_operation_xyz
x,y,z
-x,-y,-z
loop_
_atom_site_type_symbol
_atom_site_label
_atom_site_fract_x
_atom_site_fract_y
_atom_site_fract_z
Si Si1 0.487422 0.686390 0.356069
Si Si2 0.048659 0.798357 0.407260
Si Si3 0.629179 0.148251 0.177683
Si Si4 0.589460 0.300988 0.903522
Si Si5 0.177751 0.696471 0.755350
Si Si6 0.122541 0.210424 0.137219
Si Si7 0.164328 0.516794 0.994379
O O1 0.482562 0.789872 0.551629
O O2 0.458232 0.779702 0.233588
O O3 0.337098 0.633823 0.497793
O O4 0.649076 0.530862 0.169173
O O5 0.228884 0.734280 0.278049
O O6 0.053375 0.690010 0.217486
O O7 0.940672 0.752605 0.617472
O O8 0.000000 0.000000 0.500000
O O9 0.770315 0.206613 0.124162
O O10 0.565965 0.226429 0.078743
O O11 0.718767 0.949004 0.042095
O O12 0.500000 0.500000 0.000000
O O13 0.024828 0.811063 0.827465
O O14 0.142337 0.544138 0.830265
O O15 0.147022 0.362892 0.064380
#
# Coordination Sequence:
#
# PCOD9011489 Si02
#       7
#     2   2   2   2   2   2   2
#     4  10  23  40  71  94 128 178 233 270 323 406
#     4  12  22  42  67  93 130 178 227 273 328 406
#     4  10  23  42  69  97 134 173 236 273 325 406
#     4  12  21  39  73  99 124 174 239 275 318 395
#     4  10  21  40  66  93 124 182 230 263 328 409
#     4  12  24  40  64  99 138 175 215 288 348 388
#     4  12  24  41  63 100 137 170 224 287 341 390
#
# _framework density 22.848935000000001
#
# number of rings (size 3 to 8) (size 9 to 14) (size 15 to 20)
#    0.857    0.000    5.714    1.714    2.000    1.714 
#    0.000    0.714    0.000    0.000    0.000    0.000 
#    0.000    0.000    0.000    0.000    0.000    0.000 
#
# Total GULP energy -77995.521725 kJ/mol
# GULP energy per Si atom -5571.108695 kJ/mol
# Density = 2.279693 g / cm^3
# Si number density = 22.848935 Si / 1000 Ang^3
#
#
#
# Elastic Constant Matrix: (Units=GPa)
#
#
# Indices 1 2 3 4 5 6 
#
# 1 38.7994 31.5416 42.3332 -6.3623 5.3713 -17.8781
# 2 31.5416 112.7495 68.1056 4.0498 -2.7702 -16.8934
# 3 42.3332 68.1056 138.9420 5.7536 9.0520 -16.4135
# 4 -6.3623 4.0498 5.7536 40.0732 -15.4013 0.1881
# 5 5.3713 -2.7702 9.0520 -15.4013 30.9798 -9.3237
# 6 -17.8781 -16.8934 -16.4135 0.1881 -9.3237 32.9836
#
#
#
# Elastic Compliance Matrix: (Units=1/GPa)
#
#
# Indices 1 2 3 4 5 6 
#
# 1 0.055819 -0.004464 -0.013131 0.014114 0.007872 0.023580
# 2 -0.004464 0.014029 -0.005453 0.000532 0.004921 0.003440
# 3 -0.013131 -0.005453 0.013997 -0.006136 -0.006806 -0.004833
# 4 0.014114 0.000532 -0.006136 0.035781 0.020314 0.010407
# 5 0.007872 0.004921 -0.006806 0.020314 0.048562 0.017012
# 6 0.023580 0.003440 -0.004833 0.010407 0.017012 0.047205
#
#
# Mechanical properties :
#
#
# Convention : Reuss Voigt Hill
#
# Bulk Modulus (GPa) = 26.49009 63.82797 45.15903
# Shear Modulus (GPa) = 18.24339 30.70802 24.47570
#
# Velocity S-wave (km/s) = 2.82872 3.66998 3.27646
# Velocity P-wave (km/s) = 4.72098 6.77892 5.84129
#
# Compressibility (1/GPa) = 0.03774997
#
# Stress axis : x y z
#
# Youngs Moduli (GPa) = 17.91503 71.28061 71.44284
#
# Poissons Ratio (x) = 0.31823 0.93809
# Poissons Ratio (y) = 0.07998 0.38955
# Poissons Ratio (z) = 0.23523 0.38867
#
# Static dielectric constant tensor:
#      x y z
#    x 1.955170 0.043160 0.083690 
#    y 0.043160 1.897970 -0.028830 
#    z 0.083690 -0.028830 1.906030 
# 
# From -- ./inp_files/295380.got.cif
#   From: 2010.05.17/outbox.cif.g08.bks.cpg/sg2_148_cif.got.tgz:295380.got - 2010.06.03 11:33:40.
