data_PCOD9011927
_publ_section_title
;
Structure prediction by ZEFSAII (Michael W. Deem and Ramdas Pophale) SiO2 
 PCOD9011927
Probable space group: P -1
;
_chemical_formula_sum "Si O2"
_cell_formula_units_Z 16
_cell_length_a 8.190569
_cell_length_b 9.032020
_cell_length_c 11.482513
_cell_angle_alpha 119.967834
_cell_angle_beta 90.144720
_cell_angle_gamma 96.929358
_cell_volume 728.555495
_symmetry_space_group_name_H-M "P -1"
_symmetry_group_IT_number 2
_symmetry_cell_setting 'triclinic'
loop_
_space_group_symop_operation_xyz
x,y,z
-x,-y,-z
loop_
_atom_site_type_symbol
_atom_site_label
_atom_site_fract_x
_atom_site_fract_y
_atom_site_fract_z
Si Si1 0.981884 0.198311 0.096131
Si Si2 0.873303 0.219477 0.851817
Si Si3 0.743725 0.234372 0.325795
Si Si4 0.455243 0.010423 0.309534
Si Si5 0.845094 0.609225 0.422549
Si Si6 0.457948 0.262776 0.629654
Si Si7 0.973872 0.051403 0.387096
Si Si8 0.178926 0.537294 0.262161
O O1 0.856704 0.207937 0.205624
O O2 0.147102 0.330156 0.174251
O O3 0.909875 0.264461 0.002396
O O4 0.000000 0.000000 0.000000
O O5 0.846026 0.376158 0.829596
O O6 0.712464 0.077853 0.781813
O O7 0.011711 0.113548 0.756285
O O8 0.560473 0.140685 0.273007
O O9 0.773388 0.438569 0.425965
O O10 0.807165 0.128008 0.391232
O O11 0.435271 0.127382 0.469187
O O12 0.536154 0.847768 0.296358
O O13 0.701382 0.639367 0.343599
O O14 0.890885 0.779789 0.567789
O O15 0.019179 0.583291 0.352758
O O16 0.637098 0.380902 0.665890
O O17 0.000000 0.000000 0.500000
#
# Coordination Sequence:
#
# PCOD9011927 Si02
#       8
#     2   2   2   2   2   2   2   2
#     4  11  24  44  64  89 131 180 218 259 324 387
#     4  11  22  41  67  92 128 175 216 265 316 379
#     4  11  25  40  61  95 135 170 215 267 324 397
#     4  10  22  39  61  99 131 167 217 268 319 396
#     4  11  22  39  64 100 136 168 203 271 341 384
#     4  10  21  40  67  99 134 165 216 270 330 383
#     4  12  21  38  67  96 126 168 213 268 330 386
#     4  10  23  41  68  99 127 170 227 269 309 390
#
# _framework density 21.961264
#
# number of rings (size 3 to 8) (size 9 to 14) (size 15 to 20)
#    0.000    1.250    3.750    2.250    1.750    3.000 
#    0.000    1.250    0.000    8.250    0.000    0.000 
#    0.000    0.000    0.000    0.000    0.000    0.000 
#
# Total GULP energy -89367.278043 kJ/mol
# GULP energy per Si atom -5585.454878 kJ/mol
# Density = 2.191128 g / cm^3
# Si number density = 21.961264 Si / 1000 Ang^3
#
#
#
# Elastic Constant Matrix: (Units=GPa)
#
#
# Indices 1 2 3 4 5 6 
#
# 1 93.4982 28.3490 7.7533 12.0315 20.9068 13.1639
# 2 28.3490 89.1008 17.2208 19.7460 1.1228 24.5990
# 3 7.7533 17.2208 54.7624 3.1824 10.1248 7.2942
# 4 12.0315 19.7460 3.1824 39.0810 2.0730 6.9348
# 5 20.9068 1.1228 10.1248 2.0730 25.1980 5.1113
# 6 13.1639 24.5990 7.2942 6.9348 5.1113 45.4150
#
#
#
# Elastic Compliance Matrix: (Units=1/GPa)
#
#
# Indices 1 2 3 4 5 6 
#
# 1 0.015045 -0.004432 0.001796 -0.001766 -0.012752 -0.000544
# 2 -0.004432 0.016605 -0.004574 -0.005792 0.006639 -0.006838
# 3 0.001796 -0.004574 0.021280 0.000625 -0.009797 -0.000454
# 4 -0.001766 -0.005792 0.000625 0.029194 -0.000763 -0.000823
# 5 -0.012752 0.006639 -0.009797 -0.000763 0.054858 -0.004384
# 6 -0.000544 -0.006838 -0.000454 -0.000823 -0.004384 0.026572
#
#
# Mechanical properties :
#
#
# Convention : Reuss Voigt Hill
#
# Bulk Modulus (GPa) = 25.96666 38.22308 32.09487
# Shear Modulus (GPa) = 26.20383 34.20802 30.20593
#
# Velocity S-wave (km/s) = 3.45800 3.95099 3.71269
# Velocity P-wave (km/s) = 5.27192 6.18517 5.74672
#
# Compressibility (1/GPa) = 0.03851092
#
# Stress axis : x y z
#
# Youngs Moduli (GPa) = 66.46525 60.22288 46.99203
#
# Poissons Ratio (x) = 0.26690 -0.08441
# Poissons Ratio (y) = 0.29456 0.21496
# Poissons Ratio (z) = -0.11939 0.27548
#
# Static dielectric constant tensor:
#      x y z
#    x 1.843990 -0.012630 -0.001670 
#    y -0.012630 1.851640 0.005520 
#    z -0.001670 0.005520 1.814350 
# 
# From -- ./inp_files/176287.got.cif
#   From: 2010.05.17/outbox.cif.g08.bks.cpg/sg2_89_cif.got.tgz:176287.got - 2010.06.03 11:33:40.
