data_PCOD9011123
_publ_section_title
;
Structure prediction by ZEFSAII (Michael W. Deem and Ramdas Pophale) SiO2 
 PCOD9011123
Probable space group: P -1
;
_chemical_formula_sum "Si O2"
_cell_formula_units_Z 14
_cell_length_a 15.779406
_cell_length_b 8.968060
_cell_length_c 15.409484
_cell_angle_alpha 114.911851
_cell_angle_beta 25.603124
_cell_angle_gamma 131.942576
_cell_volume 578.424793
_symmetry_space_group_name_H-M "P -1"
_symmetry_group_IT_number 2
_symmetry_cell_setting 'triclinic'
loop_
_space_group_symop_operation_xyz
x,y,z
-x,-y,-z
loop_
_atom_site_type_symbol
_atom_site_label
_atom_site_fract_x
_atom_site_fract_y
_atom_site_fract_z
Si Si1 0.262265 0.721552 0.680947
Si Si2 0.627801 0.431960 0.598498
Si Si3 0.298802 0.536695 0.181097
Si Si4 0.214417 0.952168 0.414884
Si Si5 0.132494 0.928221 0.194201
Si Si6 0.709567 0.450753 0.005066
Si Si7 0.636932 0.050968 0.182649
O O1 0.395590 0.635745 0.497806
O O2 0.233274 0.753125 0.814927
O O3 0.500000 0.000000 0.500000
O O4 0.965907 0.566682 0.863163
O O5 0.431304 0.463393 0.814736
O O6 0.963261 0.699554 0.358278
O O7 0.522768 0.209839 0.695613
O O8 0.500000 0.500000 0.000000
O O9 0.187881 0.468675 0.168367
O O10 0.030254 0.338201 0.444903
O O11 0.525530 0.825078 0.050853
O O12 0.446821 0.156566 0.179937
O O13 0.406623 0.015920 0.334077
O O14 0.035267 0.005094 0.619155
O O15 0.125719 0.862095 0.085016
#
# Coordination Sequence:
#
# PCOD9011123 Si02
#       7
#     2   2   2   2   2   2   2
#     4  10  23  41  64  92 125 162 206 258 307 364
#     4  10  22  39  62  91 122 161 208 251 304 365
#     4  10  21  40  65  92 125 162 205 253 304 370
#     4  10  23  40  62  93 126 163 205 250 308 369
#     4  10  23  40  62  93 123 162 209 252 304 368
#     4  11  23  42  65  92 126 163 204 256 310 360
#     4  11  23  41  63  89 127 164 204 257 310 360
#
# _framework density 24.203662999999999
#
# number of rings (size 3 to 8) (size 9 to 14) (size 15 to 20)
#    0.000    1.714    0.000    4.286    0.000   12.571 
#    0.000   10.714    0.000    0.000    0.000    0.000 
#    0.000    0.000    0.000    0.000    0.000    0.000 
#
# Total GULP energy -78229.012006 kJ/mol
# GULP energy per Si atom -5587.786572 kJ/mol
# Density = 2.414857 g / cm^3
# Si number density = 24.203663 Si / 1000 Ang^3
#
#
#
# Elastic Constant Matrix: (Units=GPa)
#
#
# Indices 1 2 3 4 5 6 
#
# 1 76.8523 26.2478 18.6440 -7.0137 15.9298 -1.0584
# 2 26.2478 100.8023 32.3321 -11.6192 18.8420 -12.6839
# 3 18.6440 32.3321 124.1493 -23.5052 20.5827 -13.2227
# 4 -7.0137 -11.6192 -23.5052 43.1710 -6.9053 12.1756
# 5 15.9298 18.8420 20.5827 -6.9053 39.7389 0.2067
# 6 -1.0584 -12.6839 -13.2227 12.1756 0.2067 39.8189
#
#
#
# Elastic Compliance Matrix: (Units=1/GPa)
#
#
# Indices 1 2 3 4 5 6 
#
# 1 0.015124 -0.002955 -0.000765 0.000882 -0.004107 -0.001042
# 2 -0.002955 0.012396 -0.001749 0.000409 -0.003733 0.003184
# 3 -0.000765 -0.001749 0.010103 0.003906 -0.003427 0.001601
# 4 0.000882 0.000409 0.003906 0.027916 0.002317 -0.007097
# 5 -0.004107 -0.003733 -0.003427 0.002317 0.030775 -0.003304
# 6 -0.001042 0.003184 0.001601 -0.007097 -0.003304 0.028819
#
#
# Mechanical properties :
#
#
# Convention : Reuss Voigt Hill
#
# Bulk Modulus (GPa) = 37.47213 50.69464 44.08339
# Shear Modulus (GPa) = 34.49067 39.51775 37.00421
#
# Velocity S-wave (km/s) = 3.77904 4.04507 3.91432
# Velocity P-wave (km/s) = 5.87853 6.54273 6.21950
#
# Compressibility (1/GPa) = 0.02668650
#
# Stress axis : x y z
#
# Youngs Moduli (GPa) = 66.11991 80.66938 98.97638
#
# Poissons Ratio (x) = 0.23834 0.07570
# Poissons Ratio (y) = 0.19535 0.17314
# Poissons Ratio (z) = 0.05057 0.14112
#
# Static dielectric constant tensor:
#      x y z
#    x 1.913810 0.017250 0.037940 
#    y 0.017250 2.024590 -0.005250 
#    z 0.037940 -0.005250 1.957190 
# 
# From -- ./inp_files/427955.got.cif
#   From: 2010.05.17/outbox.cif.g08.bks.cpg/sg2_214_cif.got.tgz:427955.got - 2010.06.03 11:33:40.
