data_PCOD9011472
_publ_section_title
;
Structure prediction by ZEFSAII (Michael W. Deem and Ramdas Pophale) SiO2 
 PCOD9011472
Probable space group: P -1
;
_chemical_formula_sum "Si O2"
_cell_formula_units_Z 14
_cell_length_a 8.248321
_cell_length_b 7.634269
_cell_length_c 12.231114
_cell_angle_alpha 102.269682
_cell_angle_beta 60.880383
_cell_angle_gamma 118.034214
_cell_volume 593.766220
_symmetry_space_group_name_H-M "P -1"
_symmetry_group_IT_number 2
_symmetry_cell_setting 'triclinic'
loop_
_space_group_symop_operation_xyz
x,y,z
-x,-y,-z
loop_
_atom_site_type_symbol
_atom_site_label
_atom_site_fract_x
_atom_site_fract_y
_atom_site_fract_z
Si Si1 0.852791 0.302618 0.960429
Si Si2 0.796671 0.732548 0.484445
Si Si3 0.010484 0.261119 0.355196
Si Si4 0.819215 0.305201 0.732311
Si Si5 0.585450 0.073061 0.219064
Si Si6 0.405140 0.715357 0.543182
Si Si7 0.936503 0.974497 0.145076
O O1 0.774694 0.345455 0.876860
O O2 0.994932 0.193319 0.868465
O O3 0.675432 0.164836 0.083787
O O4 0.000000 0.500000 0.000000
O O5 0.901488 0.808322 0.578064
O O6 0.655458 0.817762 0.478497
O O7 0.648386 0.498692 0.518054
O O8 0.972226 0.719129 0.352073
O O9 0.139001 0.498511 0.325762
O O10 0.771310 0.228124 0.442038
O O11 0.034355 0.153787 0.223129
O O12 0.644103 0.092033 0.730251
O O13 0.628442 0.254620 0.312219
O O14 0.705191 0.949737 0.211190
O O15 0.000000 0.000000 0.000000
#
# Coordination Sequence:
#
# PCOD9011472 Si02
#       7
#     2   2   2   2   2   2   2
#     4  11  22  42  67  89 124 168 213 266 325 381
#     4  10  21  40  66  92 129 175 218 256 320 378
#     4  10  21  43  65  93 133 171 214 262 316 385
#     4  11  22  39  61  97 128 166 213 265 316 378
#     4  10  22  41  61  94 129 163 214 266 319 380
#     4   9  19  39  64  89 128 170 214 262 309 375
#     4   9  20  42  65  88 125 167 208 263 322 382
#
# _framework density 23.578305
#
# number of rings (size 3 to 8) (size 9 to 14) (size 15 to 20)
#    0.000    2.000    0.000    5.571    2.000    0.571 
#   12.857    7.143    0.000    0.000    0.000    0.000 
#    0.000    0.000    0.000    0.000    0.000    0.000 
#
# Total GULP energy -78058.549638 kJ/mol
# GULP energy per Si atom -5575.610688 kJ/mol
# Density = 2.352464 g / cm^3
# Si number density = 23.578305 Si / 1000 Ang^3
#
#
#
# Elastic Constant Matrix: (Units=GPa)
#
#
# Indices 1 2 3 4 5 6 
#
# 1 94.1066 41.5139 27.0732 -12.1498 6.0547 18.4564
# 2 41.5139 95.0461 21.8985 2.4724 5.4385 -4.5786
# 3 27.0732 21.8985 80.2401 12.2984 20.5815 -0.1935
# 4 -12.1498 2.4724 12.2984 40.4132 -2.6980 4.1413
# 5 6.0547 5.4385 20.5815 -2.6980 45.0464 3.7473
# 6 18.4564 -4.5786 -0.1935 4.1413 3.7473 35.3563
#
#
#
# Elastic Compliance Matrix: (Units=1/GPa)
#
#
# Indices 1 2 3 4 5 6 
#
# 1 0.019833 -0.008151 -0.006846 0.010081 0.003128 -0.012958
# 2 -0.008151 0.014651 -0.000262 -0.004051 -0.001359 0.006769
# 3 -0.006846 -0.000262 0.018361 -0.008762 -0.008425 0.005559
# 4 0.010081 -0.004051 -0.008762 0.032132 0.005912 -0.010225
# 5 0.003128 -0.001359 -0.008425 0.005912 0.026593 -0.005366
# 6 -0.012958 0.006769 0.005559 -0.010225 -0.005366 0.037721
#
#
# Mechanical properties :
#
#
# Convention : Reuss Voigt Hill
#
# Bulk Modulus (GPa) = 44.78904 50.04045 47.41474
# Shear Modulus (GPa) = 26.70189 36.09031 31.39610
#
# Velocity S-wave (km/s) = 3.36888 3.91661 3.65302
# Velocity P-wave (km/s) = 5.84548 6.45928 6.16003
#
# Compressibility (1/GPa) = 0.02232689
#
# Stress axis : x y z
#
# Youngs Moduli (GPa) = 50.42060 68.25472 54.46224
#
# Poissons Ratio (x) = 0.55633 0.37285
# Poissons Ratio (y) = 0.41097 0.01429
# Poissons Ratio (z) = 0.34518 0.01791
#
# Static dielectric constant tensor:
#      x y z
#    x 1.958960 -0.001810 0.039480 
#    y -0.001810 1.913330 -0.006050 
#    z 0.039480 -0.006050 1.921910 
# 
# From -- ./inp_files/379850.got.cif
#   From: 2010.05.17/outbox.cif.g08.bks.cpg/sg2_190_cif.got.tgz:379850.got - 2010.06.03 11:33:40.
