data_PCOD9011896
_publ_section_title
;
Structure prediction by ZEFSAII (Michael W. Deem and Ramdas Pophale) SiO2 
 PCOD9011896
Probable space group: P -1
;
_chemical_formula_sum "Si O2"
_cell_formula_units_Z 16
_cell_length_a 9.562553
_cell_length_b 15.754505
_cell_length_c 6.738642
_cell_angle_alpha 41.870369
_cell_angle_beta 88.012157
_cell_angle_gamma 75.792437
_cell_volume 639.433121
_symmetry_space_group_name_H-M "P -1"
_symmetry_group_IT_number 2
_symmetry_cell_setting 'triclinic'
loop_
_space_group_symop_operation_xyz
x,y,z
-x,-y,-z
loop_
_atom_site_type_symbol
_atom_site_label
_atom_site_fract_x
_atom_site_fract_y
_atom_site_fract_z
Si Si1 0.066081 0.725510 0.489121
Si Si2 0.319081 0.433292 0.055346
Si Si3 0.539582 0.106678 0.072127
Si Si4 0.217578 0.153079 0.910449
Si Si5 0.116191 0.927034 0.449455
Si Si6 0.749571 0.235568 0.932756
Si Si7 0.305539 0.175073 0.295294
Si Si8 0.592054 0.474878 0.739548
O O1 0.065209 0.819996 0.512871
O O2 0.119558 0.791132 0.181523
O O3 0.900285 0.737557 0.409577
O O4 0.190592 0.578160 0.768097
O O5 0.276052 0.312957 0.171719
O O6 0.351491 0.427617 0.298366
O O7 0.478508 0.426748 0.964262
O O8 0.461146 0.143820 0.226057
O O9 0.606267 0.880474 0.072915
O O10 0.664031 0.958974 0.339594
O O11 0.617067 0.218452 0.835428
O O12 0.197928 0.189334 0.085740
O O13 0.174619 0.017153 0.141370
O O14 0.248215 0.855781 0.717876
O O15 0.000000 0.000000 0.500000
O O16 0.738043 0.369685 0.819260
O O17 0.500000 0.500000 0.500000
#
# Coordination Sequence:
#
# PCOD9011896 Si02
#       8
#     2   2   2   2   2   2   2   2
#     4  12  26  40  70 107 132 178 231 270 345 411
#     4  11  23  38  67  98 139 179 220 278 335 405
#     4   9  19  39  70  93 135 177 224 281 333 386
#     4  10  21  40  67  97 137 180 225 277 336 403
#     4  12  24  43  70  97 137 172 228 291 334 393
#     4  12  21  42  70  99 133 174 225 287 332 387
#     4   9  18  38  66  93 132 184 223 271 336 393
#     4  11  22  39  64  98 135 172 223 279 335 388
#
# _framework density 25.022162000000002
#
# number of rings (size 3 to 8) (size 9 to 14) (size 15 to 20)
#    0.750    0.500    6.250    0.375    0.000    0.500 
#    0.000    0.625   11.000    1.500    0.000    0.000 
#    0.000    0.000    0.000    0.000    0.000    0.000 
#
# Total GULP energy -89172.040607 kJ/mol
# GULP energy per Si atom -5573.252538 kJ/mol
# Density = 2.496521 g / cm^3
# Si number density = 25.022162 Si / 1000 Ang^3
#
#
#
# Elastic Constant Matrix: (Units=GPa)
#
#
# Indices 1 2 3 4 5 6 
#
# 1 100.3596 46.2002 22.2833 7.7301 23.4485 16.5383
# 2 46.2002 184.5281 36.8961 4.0269 10.5045 29.2384
# 3 22.2833 36.8961 59.4460 11.5762 22.5540 11.3774
# 4 7.7301 4.0269 11.5762 31.6518 0.3017 -3.6520
# 5 23.4485 10.5045 22.5540 0.3017 38.7294 11.2620
# 6 16.5383 29.2384 11.3774 -3.6520 11.2620 40.5609
#
#
#
# Elastic Compliance Matrix: (Units=1/GPa)
#
#
# Indices 1 2 3 4 5 6 
#
# 1 0.013285 -0.002598 0.000238 -0.003164 -0.006875 -0.001986
# 2 -0.002598 0.007318 -0.004164 0.000753 0.003126 -0.003848
# 3 0.000238 -0.004164 0.026782 -0.009367 -0.014091 -0.001539
# 4 -0.003164 0.000753 -0.009367 0.036238 0.005389 0.005141
# 5 -0.006875 0.003126 -0.014091 0.005389 0.038996 -0.005841
# 6 -0.001986 -0.003848 -0.001539 0.005141 -0.005841 0.030754
#
#
# Mechanical properties :
#
#
# Convention : Reuss Voigt Hill
#
# Bulk Modulus (GPa) = 29.12525 61.67698 45.40112
# Shear Modulus (GPa) = 28.11067 38.11870 33.11469
#
# Velocity S-wave (km/s) = 3.35540 3.90731 3.64182
# Velocity P-wave (km/s) = 5.16494 6.71256 5.98895
#
# Compressibility (1/GPa) = 0.03433447
#
# Stress axis : x y z
#
# Youngs Moduli (GPa) = 75.27325 136.65509 37.33858
#
# Poissons Ratio (x) = 0.35510 -0.00887
# Poissons Ratio (y) = 0.19560 0.15548
# Poissons Ratio (z) = -0.01789 0.56906
#
# Static dielectric constant tensor:
#      x y z
#    x 1.995280 -0.031370 0.151050 
#    y -0.031370 1.938030 -0.134220 
#    z 0.151050 -0.134220 2.257530 
# 
# From -- ./inp_files/76975.got.cif
#   From: 2010.05.17/outbox.cif.g08.bks.cpg/sg2_39_cif.got.tgz:76975.got - 2010.06.03 11:33:40.
