data_PCOD9011475
_publ_section_title
;
Structure prediction by ZEFSAII (Michael W. Deem and Ramdas Pophale) SiO2 
 PCOD9011475
Probable space group: P -1
;
_chemical_formula_sum "Si O2"
_cell_formula_units_Z 16
_cell_length_a 12.243159
_cell_length_b 15.146760
_cell_length_c 8.510479
_cell_angle_alpha 78.172508
_cell_angle_beta 121.405808
_cell_angle_gamma 141.475338
_cell_volume 775.595173
_symmetry_space_group_name_H-M "P -1"
_symmetry_group_IT_number 2
_symmetry_cell_setting 'triclinic'
loop_
_space_group_symop_operation_xyz
x,y,z
-x,-y,-z
loop_
_atom_site_type_symbol
_atom_site_label
_atom_site_fract_x
_atom_site_fract_y
_atom_site_fract_z
Si Si1 0.270045 0.783152 0.485532
Si Si2 0.539834 0.428595 0.654495
Si Si3 0.723617 0.091780 0.840009
Si Si4 0.861229 0.550462 0.463860
Si Si5 0.505109 0.250133 0.448423
Si Si6 0.050126 0.929128 0.118880
Si Si7 0.702951 0.650534 0.198264
Si Si8 0.004379 0.396221 0.093435
O O1 0.236645 0.851655 0.329885
O O2 0.336807 0.745267 0.423458
O O3 0.048004 0.627976 0.456737
O O4 0.470504 0.915915 0.708174
O O5 0.500000 0.500000 0.500000
O O6 0.483350 0.313511 0.539692
O O7 0.394472 0.348480 0.730371
O O8 0.789310 0.543469 0.844748
O O9 0.889843 0.102629 0.969950
O O10 0.796165 0.215087 0.960936
O O11 0.623459 0.367839 0.346823
O O12 0.822179 0.633183 0.372883
O O13 0.949175 0.582340 0.693282
O O14 0.277424 0.073101 0.323168
O O15 0.864920 0.789672 0.147221
O O16 0.000000 0.000000 0.000000
O O17 0.500000 0.500000 0.000000
O O18 0.000000 0.500000 0.000000
#
# Coordination Sequence:
#
# PCOD9011475 Si02
#       8
#     2   2   2   2   2   2   2   2
#     4  10  21  40  67  98 128 176 226 277 340 397
#     4  11  23  43  69  97 136 183 224 280 344 403
#     4  10  21  40  66  92 136 177 216 282 343 401
#     4  11  22  42  69 100 130 179 229 281 339 410
#     4  10  22  40  65  92 135 169 218 279 335 395
#     4  11  24  40  64  98 132 175 226 279 340 398
#     4  12  24  43  70 102 130 183 234 276 342 420
#     4  11  24  43  67 102 139 182 223 280 347 403
#
# _framework density 20.629318000000001
#
# number of rings (size 3 to 8) (size 9 to 14) (size 15 to 20)
#    0.000    1.250    3.750    3.375    1.750    1.000 
#    4.500    0.000    0.000    0.000    0.000    0.000 
#    0.000    0.000    0.000    0.000    0.000    0.000 
#
# Total GULP energy -89149.692901 kJ/mol
# GULP energy per Si atom -5571.855806 kJ/mol
# Density = 2.058236 g / cm^3
# Si number density = 20.629318 Si / 1000 Ang^3
#
#
#
# Elastic Constant Matrix: (Units=GPa)
#
#
# Indices 1 2 3 4 5 6 
#
# 1 119.2848 41.3715 34.1845 7.2732 10.1365 -6.5123
# 2 41.3715 136.6637 33.3832 12.8197 0.6757 4.0163
# 3 34.1845 33.3832 60.7883 -1.0170 3.3712 -7.8152
# 4 7.2732 12.8197 -1.0170 39.1650 -13.6026 3.7612
# 5 10.1365 0.6757 3.3712 -13.6026 25.7729 0.4885
# 6 -6.5123 4.0163 -7.8152 3.7612 0.4885 51.2193
#
#
#
# Elastic Compliance Matrix: (Units=1/GPa)
#
#
# Indices 1 2 3 4 5 6 
#
# 1 0.011195 -0.001859 -0.004873 -0.003680 -0.005681 0.001150
# 2 -0.001859 0.009215 -0.004219 -0.002787 -0.000403 -0.001394
# 3 -0.004873 -0.004219 0.021887 0.002782 0.000579 0.002841
# 4 -0.003680 -0.002787 0.002782 0.034114 0.019209 -0.002513
# 5 -0.005681 -0.000403 0.000579 0.019209 0.051155 -0.002501
# 6 0.001150 -0.001394 0.002841 -0.002513 -0.002501 0.020421
#
#
# Mechanical properties :
#
#
# Convention : Reuss Voigt Hill
#
# Bulk Modulus (GPa) = 49.03064 59.40168 54.21616
# Shear Modulus (GPa) = 28.29863 37.08462 32.69162
#
# Velocity S-wave (km/s) = 3.70776 4.24449 3.98517
# Velocity P-wave (km/s) = 6.49223 7.27174 6.89301
#
# Compressibility (1/GPa) = 0.02039541
#
# Stress axis : x y z
#
# Youngs Moduli (GPa) = 89.32951 108.52041 45.68843
#
# Poissons Ratio (x) = 0.20174 0.22264
# Poissons Ratio (y) = 0.16606 0.19274
# Poissons Ratio (z) = 0.43531 0.45781
#
# Static dielectric constant tensor:
#      x y z
#    x 1.757890 -0.046210 -0.026870 
#    y -0.046210 1.774620 0.012510 
#    z -0.026870 0.012510 1.688470 
# 
# From -- ./inp_files/272995.got.cif
#   From: 2010.05.17/outbox.cif.g08.bks.cpg/sg2_137_cif.got.tgz:272995.got - 2010.06.03 11:33:40.
