data_PCOD9011346
_publ_section_title
;
Structure prediction by ZEFSAII (Michael W. Deem and Ramdas Pophale) SiO2 
 PCOD9011346
Probable space group: P -1
;
_chemical_formula_sum "Si O2"
_cell_formula_units_Z 16
_cell_length_a 9.768574
_cell_length_b 18.509196
_cell_length_c 6.215449
_cell_angle_alpha 58.121300
_cell_angle_beta 71.160465
_cell_angle_gamma 49.327345
_cell_volume 723.389345
_symmetry_space_group_name_H-M "P -1"
_symmetry_group_IT_number 2
_symmetry_cell_setting 'triclinic'
loop_
_space_group_symop_operation_xyz
x,y,z
-x,-y,-z
loop_
_atom_site_type_symbol
_atom_site_label
_atom_site_fract_x
_atom_site_fract_y
_atom_site_fract_z
Si Si1 0.659432 0.035234 0.922445
Si Si2 0.738661 0.197810 0.656036
Si Si3 0.968075 0.706506 0.796263
Si Si4 0.536259 0.584539 0.285919
Si Si5 0.027625 0.199619 0.741636
Si Si6 0.262151 0.691872 0.900822
Si Si7 0.083432 0.458942 0.772402
Si Si8 0.357504 0.060666 0.288172
O O1 0.461240 0.086714 0.030513
O O2 0.721585 0.104935 0.854236
O O3 0.787784 0.912304 0.122373
O O4 0.663729 0.022737 0.683576
O O5 0.587650 0.307052 0.682534
O O6 0.925887 0.168837 0.688815
O O7 0.729933 0.223971 0.368557
O O8 0.831582 0.831214 0.728050
O O9 0.957766 0.716365 0.525829
O O10 0.176204 0.652329 0.843237
O O11 0.894242 0.650815 0.044211
O O12 0.500000 0.500000 0.500000
O O13 0.737668 0.546193 0.289801
O O14 0.455270 0.615031 0.036714
O O15 0.892138 0.255653 0.921290
O O16 0.000000 0.500000 0.500000
O O17 0.000000 0.500000 0.000000
O O18 0.500000 0.000000 0.500000
#
# Coordination Sequence:
#
# PCOD9011346 Si02
#       8
#     2   2   2   2   2   2   2   2
#     4  11  22  39  61  97 137 176 240 287 357 432
#     4  10  24  40  67  99 134 182 231 299 359 437
#     4  11  23  45  71  99 147 184 242 297 368 433
#     4  11  26  49  74 101 140 187 243 301 372 441
#     4  10  21  40  66 100 132 186 228 290 355 436
#     4  10  23  43  70  98 135 190 235 296 365 433
#     4  12  31  50  79 117 146 192 247 314 373 446
#     4  11  23  39  63  94 131 190 230 287 359 435
#
# _framework density 22.118102
#
# number of rings (size 3 to 8) (size 9 to 14) (size 15 to 20)
#    0.000    1.250    2.500    1.875    8.750    4.000 
#    0.000    0.000    0.000    0.000    0.000    0.000 
#    0.000    0.000    0.000    0.000    0.000    0.000 
#
# Total GULP energy -89129.525809 kJ/mol
# GULP energy per Si atom -5570.595363 kJ/mol
# Density = 2.206776 g / cm^3
# Si number density = 22.118102 Si / 1000 Ang^3
#
#
#
# Elastic Constant Matrix: (Units=GPa)
#
#
# Indices 1 2 3 4 5 6 
#
# 1 146.5645 21.1953 50.7258 -15.8057 12.4454 -10.1662
# 2 21.1953 62.3411 22.2625 4.7438 2.8480 -4.9748
# 3 50.7258 22.2625 116.7874 -7.7648 14.4375 3.7282
# 4 -15.8057 4.7438 -7.7648 28.1347 1.8053 -8.4311
# 5 12.4454 2.8480 14.4375 1.8053 44.3882 -1.9532
# 6 -10.1662 -4.9748 3.7282 -8.4311 -1.9532 30.2603
#
#
#
# Elastic Compliance Matrix: (Units=1/GPa)
#
#
# Indices 1 2 3 4 5 6 
#
# 1 0.009381 -0.002055 -0.003237 0.006277 -0.001487 0.004865
# 2 -0.002055 0.018260 -0.003024 -0.004683 0.000641 0.001421
# 3 -0.003237 -0.003024 0.011034 0.001062 -0.002654 -0.002820
# 4 0.006277 -0.004683 0.001062 0.044353 -0.003020 0.013370
# 5 -0.001487 0.000641 -0.002654 -0.003020 0.023918 0.000635
# 6 0.004865 0.001421 -0.002820 0.013370 0.000635 0.039028
#
#
# Mechanical properties :
#
#
# Convention : Reuss Voigt Hill
#
# Bulk Modulus (GPa) = 45.36741 57.11781 51.24261
# Shear Modulus (GPa) = 29.41972 35.99061 32.70516
#
# Velocity S-wave (km/s) = 3.65104 4.03823 3.84951
# Velocity P-wave (km/s) = 6.19107 6.90096 6.55563
#
# Compressibility (1/GPa) = 0.02204226
#
# Stress axis : x y z
#
# Youngs Moduli (GPa) = 106.59765 54.76495 90.63033
#
# Poissons Ratio (x) = 0.11254 0.29338
# Poissons Ratio (y) = 0.21905 0.27409
# Poissons Ratio (z) = 0.34507 0.16562
#
# Static dielectric constant tensor:
#      x y z
#    x 1.810400 0.034180 0.042330 
#    y 0.034180 1.855920 0.063400 
#    z 0.042330 0.063400 2.013010 
# 
# From -- ./inp_files/46654.got.cif
#   From: 2010.05.17/outbox.cif.g08.bks.cpg/sg2_24_cif.got.tgz:46654.got - 2010.06.03 11:33:40.
