data_PCOD9011158
_publ_section_title
;
Structure prediction by ZEFSAII (Michael W. Deem and Ramdas Pophale) SiO2 
 PCOD9011158
Probable space group: P -1
;
_chemical_formula_sum "Si O2"
_cell_formula_units_Z 16
_cell_length_a 17.711196
_cell_length_b 9.117141
_cell_length_c 11.985589
_cell_angle_alpha 143.446976
_cell_angle_beta 50.272672
_cell_angle_gamma 103.590347
_cell_volume 703.895181
_symmetry_space_group_name_H-M "P -1"
_symmetry_group_IT_number 2
_symmetry_cell_setting 'triclinic'
loop_
_space_group_symop_operation_xyz
x,y,z
-x,-y,-z
loop_
_atom_site_type_symbol
_atom_site_label
_atom_site_fract_x
_atom_site_fract_y
_atom_site_fract_z
Si Si1 0.364654 0.320098 0.804180
Si Si2 0.049446 0.580833 0.774657
Si Si3 0.158667 0.335277 0.114839
Si Si4 0.842056 0.293646 0.449577
Si Si5 0.263464 0.227098 0.502530
Si Si6 0.595576 0.279602 0.128342
Si Si7 0.646121 0.296954 0.747146
Si Si8 0.311442 0.721350 0.731381
O O1 0.371894 0.488976 0.795619
O O2 0.500000 0.000000 0.500000
O O3 0.259431 0.278559 0.896044
O O4 0.334866 0.553881 0.074726
O O5 0.141850 0.579461 0.601589
O O6 0.130175 0.347414 0.655078
O O7 0.969222 0.517933 0.737435
O O8 0.952844 0.927965 0.123509
O O9 0.144925 0.545083 0.358720
O O10 0.214465 0.003926 0.915605
O O11 0.715835 0.329900 0.602130
O O12 0.267208 0.515559 0.677899
O O13 0.297809 0.047819 0.477152
O O14 0.358517 0.975897 0.166295
O O15 0.448164 0.488233 0.407078
O O16 0.662413 0.148703 0.104595
O O17 0.500000 0.500000 0.000000
#
# Coordination Sequence:
#
# PCOD9011158 Si02
#       8
#     2   2   2   2   2   2   2   2
#     4  10  21  40  65  93 126 161 210 260 322 385
#     4  11  24  41  66  90 132 176 213 263 312 376
#     4  11  23  41  67  95 126 169 218 264 314 382
#     4  10  23  43  65  97 126 169 222 259 313 382
#     4  11  25  42  59  96 129 167 215 262 317 381
#     4  10  23  40  60  94 130 164 211 266 323 378
#     4  10  25  42  68  94 127 168 208 273 326 377
#     4  11  22  37  66  94 127 171 206 267 325 375
#
# _framework density 22.730656
#
# number of rings (size 3 to 8) (size 9 to 14) (size 15 to 20)
#    0.000    1.500    1.250    3.000    3.500    5.500 
#    0.000    6.875    0.000    0.000    0.000    2.625 
#    0.000    0.000    0.000    0.000    0.000    0.000 
#
# Total GULP energy -89512.921912 kJ/mol
# GULP energy per Si atom -5594.557620 kJ/mol
# Density = 2.267892 g / cm^3
# Si number density = 22.730656 Si / 1000 Ang^3
#
#
#
# Elastic Constant Matrix: (Units=GPa)
#
#
# Indices 1 2 3 4 5 6 
#
# 1 92.0178 37.4072 16.8855 -3.6133 -8.2403 5.8725
# 2 37.4072 80.3215 13.8748 -4.8995 -27.7530 18.8004
# 3 16.8855 13.8748 64.3689 -7.1764 -1.4099 2.5953
# 4 -3.6133 -4.8995 -7.1764 31.5754 5.2932 -3.7122
# 5 -8.2403 -27.7530 -1.4099 5.2932 47.5434 1.0073
# 6 5.8725 18.8004 2.5953 -3.7122 1.0073 35.2772
#
#
#
# Elastic Compliance Matrix: (Units=1/GPa)
#
#
# Indices 1 2 3 4 5 6 
#
# 1 0.013906 -0.007147 -0.002162 0.000520 -0.001921 0.001763
# 2 -0.007147 0.023174 -0.002522 -0.001255 0.012597 -0.011467
# 3 -0.002162 -0.002522 0.016975 0.003619 -0.001765 0.000886
# 4 0.000520 -0.001255 0.003619 0.033555 -0.004355 0.003971
# 5 -0.001921 0.012597 -0.001765 -0.004355 0.028646 -0.007540
# 6 0.001763 -0.011467 0.000886 0.003971 -0.007540 0.034732
#
#
# Mechanical properties :
#
#
# Convention : Reuss Voigt Hill
#
# Bulk Modulus (GPa) = 32.90357 41.44925 37.17641
# Shear Modulus (GPa) = 27.05888 34.11526 30.58707
#
# Velocity S-wave (km/s) = 3.45398 3.87828 3.67226
# Velocity P-wave (km/s) = 5.51484 6.19107 5.86271
#
# Compressibility (1/GPa) = 0.03039184
#
# Stress axis : x y z
#
# Youngs Moduli (GPa) = 71.91303 43.15146 58.90875
#
# Poissons Ratio (x) = 0.30842 0.12738
# Poissons Ratio (y) = 0.51399 0.14857
# Poissons Ratio (z) = 0.15550 0.10883
#
# Static dielectric constant tensor:
#      x y z
#    x 1.855410 0.012540 0.038270 
#    y 0.012540 1.869270 -0.018320 
#    z 0.038270 -0.018320 1.807390 
# 
# From -- ./inp_files/462567.got.cif
#   From: 2010.05.17/outbox.cif.g08.bks.cpg/sg2_232_cif.got.tgz:462567.got - 2010.06.03 11:33:40.
