data_PCOD9011009
_publ_section_title
;
Structure prediction by ZEFSAII (Michael W. Deem and Ramdas Pophale) SiO2 
 PCOD9011009
Probable space group: P -1
;
_chemical_formula_sum "Si O2"
_cell_formula_units_Z 16
_cell_length_a 14.492654
_cell_length_b 11.465714
_cell_length_c 14.214190
_cell_angle_alpha 112.256473
_cell_angle_beta 31.097998
_cell_angle_gamma 133.969251
_cell_volume 715.018870
_symmetry_space_group_name_H-M "P -1"
_symmetry_group_IT_number 2
_symmetry_cell_setting 'triclinic'
loop_
_space_group_symop_operation_xyz
x,y,z
-x,-y,-z
loop_
_atom_site_type_symbol
_atom_site_label
_atom_site_fract_x
_atom_site_fract_y
_atom_site_fract_z
Si Si1 0.168471 0.678847 0.483519
Si Si2 0.638121 0.812329 0.720376
Si Si3 0.746794 0.677458 0.263565
Si Si4 0.064764 0.475620 0.036401
Si Si5 0.561544 0.406124 0.973448
Si Si6 0.974640 0.184852 0.651189
Si Si7 0.667100 0.972701 0.032365
Si Si8 0.342807 0.631035 0.490608
O O1 0.397623 0.887111 0.292432
O O2 0.365699 0.718064 0.400164
O O3 0.000000 0.500000 0.500000
O O4 0.901072 0.589313 0.743806
O O5 0.805266 0.804999 0.506912
O O6 0.830251 0.036994 0.644559
O O7 0.343274 0.691810 0.900104
O O8 0.570566 0.695966 0.839986
O O9 0.500000 0.500000 0.500000
O O10 0.612315 0.716021 0.331083
O O11 0.838811 0.614458 0.094510
O O12 0.039066 0.867128 0.119505
O O13 0.814656 0.369102 0.294332
O O14 0.000000 0.500000 0.000000
O O15 0.439172 0.225996 0.961194
O O16 0.500000 0.500000 0.000000
O O17 0.140233 0.404163 0.567040
O O18 0.736407 0.070870 0.901948
#
# Coordination Sequence:
#
# PCOD9011009 Si02
#       8
#     2   2   2   2   2   2   2   2
#     4  10  24  45  66  99 135 175 233 281 346 415
#     4  10  21  40  65 102 134 172 240 280 345 415
#     4  12  23  45  70  96 144 185 226 285 344 411
#     4  12  23  39  64 101 135 181 224 280 343 410
#     4  10  22  43  71  99 137 176 226 295 347 405
#     4  10  21  40  68 101 132 176 228 296 345 399
#     4  10  22  44  66 101 136 179 233 277 347 414
#     4  12  24  43  72  97 138 185 227 288 349 402
#
# _framework density 22.377030999999999
#
# number of rings (size 3 to 8) (size 9 to 14) (size 15 to 20)
#    0.000    1.250    5.000    0.000    3.500    1.000 
#    6.750    0.625    0.000    0.000    0.000    0.000 
#    0.000    0.000    0.000    0.000    0.000    0.000 
#
# Total GULP energy -89323.964558 kJ/mol
# GULP energy per Si atom -5582.747785 kJ/mol
# Density = 2.232610 g / cm^3
# Si number density = 22.377031 Si / 1000 Ang^3
#
#
#
# Elastic Constant Matrix: (Units=GPa)
#
#
# Indices 1 2 3 4 5 6 
#
# 1 97.6258 1.1758 23.4177 1.2784 -10.3904 11.4166
# 2 1.1758 66.9955 26.5424 5.0052 -2.8615 10.8387
# 3 23.4177 26.5424 129.9850 -1.4812 -5.0588 9.3691
# 4 1.2784 5.0052 -1.4812 41.6594 3.7588 -3.6669
# 5 -10.3904 -2.8615 -5.0588 3.7588 35.8026 0.2363
# 6 11.4166 10.8387 9.3691 -3.6669 0.2363 22.3277
#
#
#
# Elastic Compliance Matrix: (Units=1/GPa)
#
#
# Indices 1 2 3 4 5 6 
#
# 1 0.011830 0.001862 -0.001929 -0.001539 0.003514 -0.006433
# 2 0.001862 0.017970 -0.003331 -0.003285 0.001909 -0.008837
# 3 -0.001929 -0.003331 0.008814 0.000653 0.000357 -0.000992
# 4 -0.001539 -0.003285 0.000653 0.025323 -0.003317 0.006301
# 5 0.003514 0.001909 0.000357 -0.003317 0.029527 -0.003731
# 6 -0.006433 -0.008837 -0.000992 0.006301 -0.003731 0.053857
#
#
# Mechanical properties :
#
#
# Convention : Reuss Voigt Hill
#
# Bulk Modulus (GPa) = 31.42788 44.09755 37.76271
# Shear Modulus (GPa) = 30.35422 36.18930 33.27176
#
# Velocity S-wave (km/s) = 3.68705 4.02587 3.86018
# Velocity P-wave (km/s) = 5.67459 6.43114 6.06467
#
# Compressibility (1/GPa) = 0.03181888
#
# Stress axis : x y z
#
# Youngs Moduli (GPa) = 84.53220 55.64803 113.46022
#
# Poissons Ratio (x) = -0.10363 0.21882
# Poissons Ratio (y) = -0.15742 0.37794
# Poissons Ratio (z) = 0.16303 0.18537
#
# Static dielectric constant tensor:
#      x y z
#    x 1.847120 0.006850 0.008680 
#    y 0.006850 1.829410 0.027280 
#    z 0.008680 0.027280 1.842660 
# 
# From -- ./inp_files/404907.got.cif
#   From: 2010.05.17/outbox.cif.g08.bks.cpg/sg2_203_cif.got.tgz:404907.got - 2010.06.03 11:33:40.
