data_PCOD9011560
_publ_section_title
;
Structure prediction by ZEFSAII (Michael W. Deem and Ramdas Pophale) SiO2 
 PCOD9011560
Probable space group: P -1
;
_chemical_formula_sum "Si O2"
_cell_formula_units_Z 12
_cell_length_a 6.522571
_cell_length_b 16.351638
_cell_length_c 9.310512
_cell_angle_alpha 141.809480
_cell_angle_beta 99.045718
_cell_angle_gamma 96.699082
_cell_volume 557.423408
_symmetry_space_group_name_H-M "P -1"
_symmetry_group_IT_number 2
_symmetry_cell_setting 'triclinic'
loop_
_space_group_symop_operation_xyz
x,y,z
-x,-y,-z
loop_
_atom_site_type_symbol
_atom_site_label
_atom_site_fract_x
_atom_site_fract_y
_atom_site_fract_z
Si Si1 0.740762 0.566295 0.474032
Si Si2 0.656556 0.501116 0.883774
Si Si3 0.179793 0.724033 0.546048
Si Si4 0.499074 0.727050 0.822696
Si Si5 0.963742 0.817976 0.409282
Si Si6 0.684406 0.940199 0.403685
O O1 0.509668 0.509291 0.279058
O O2 0.706707 0.690028 0.735283
O O3 0.705330 0.425327 0.368169
O O4 0.954859 0.627005 0.477224
O O5 0.742631 0.374209 0.689423
O O6 0.500000 0.500000 0.000000
O O7 0.865921 0.652369 0.123662
O O8 0.385550 0.788814 0.771476
O O9 0.101669 0.828723 0.585244
O O10 0.588491 0.824465 0.106041
O O11 0.755217 0.868917 0.450275
O O12 0.116139 0.919924 0.444688
O O13 0.500000 0.000000 0.500000
#
# Coordination Sequence:
#
# PCOD9011560 Si02
#       6
#     2   2   2   2   2   2
#     4  10  21  40  66  95 132 167 211 275 319 377
#     4  11  22  38  68 101 131 161 214 278 320 377
#     4  11  24  38  70  98 126 170 212 274 331 366
#     4  10  23  42  62  97 130 167 217 263 324 380
#     4  11  25  42  63  99 125 171 223 253 322 386
#     4  11  27  45  67  89 132 179 212 264 314 393
#
# _framework density 21.527619999999999
#
# number of rings (size 3 to 8) (size 9 to 14) (size 15 to 20)
#    0.000    1.333    3.333    1.000    4.667    3.333 
#    0.000    1.667    0.000    0.000    0.000    0.000 
#    0.000    0.000    0.000    0.000    0.000    0.000 
#
# Total GULP energy -66951.684238 kJ/mol
# GULP energy per Si atom -5579.307020 kJ/mol
# Density = 2.147862 g / cm^3
# Si number density = 21.527620 Si / 1000 Ang^3
#
#
#
# Elastic Constant Matrix: (Units=GPa)
#
#
# Indices 1 2 3 4 5 6 
#
# 1 84.7431 34.5346 22.7715 -3.1354 -15.1775 -7.7554
# 2 34.5346 109.9301 13.8680 -9.3126 -7.5682 -34.2328
# 3 22.7715 13.8680 67.0151 -7.1052 -13.7443 -3.8454
# 4 -3.1354 -9.3126 -7.1052 17.0448 5.8515 6.4272
# 5 -15.1775 -7.5682 -13.7443 5.8515 31.8692 -5.7660
# 6 -7.7554 -34.2328 -3.8454 6.4272 -5.7660 53.3988
#
#
#
# Elastic Compliance Matrix: (Units=1/GPa)
#
#
# Indices 1 2 3 4 5 6 
#
# 1 0.015323 -0.004174 -0.003537 -0.002852 0.005343 0.000215
# 2 -0.004174 0.013206 -0.000174 0.002791 0.001958 0.007723
# 3 -0.003537 -0.000174 0.017755 0.004621 0.005202 0.000659
# 4 -0.002852 0.002791 0.004621 0.069005 -0.012817 -0.007982
# 5 0.005343 0.001958 0.005202 -0.012817 0.040490 0.008321
# 6 0.000215 0.007723 0.000659 -0.007982 0.008321 0.025616
#
#
# Mechanical properties :
#
#
# Convention : Reuss Voigt Hill
#
# Bulk Modulus (GPa) = 32.77261 44.89294 38.83278
# Shear Modulus (GPa) = 24.11538 33.16351 28.63944
#
# Velocity S-wave (km/s) = 3.35058 3.92919 3.65136
# Velocity P-wave (km/s) = 5.49773 6.44078 5.98785
#
# Compressibility (1/GPa) = 0.03051328
#
# Stress axis : x y z
#
# Youngs Moduli (GPa) = 65.26100 75.72214 56.32371
#
# Poissons Ratio (x) = 0.31609 0.19922
# Poissons Ratio (y) = 0.27242 0.00979
# Poissons Ratio (z) = 0.23083 0.01316
#
# Static dielectric constant tensor:
#      x y z
#    x 1.826830 -0.004640 -0.056530 
#    y -0.004640 1.821100 0.003780 
#    z -0.056530 0.003780 1.733870 
# 
# From -- ./inp_files/59335.got.cif
#   From: 2010.05.17/outbox.cif.g08.bks.cpg/sg2_30_cif.got.tgz:59335.got - 2010.06.03 11:33:40.
