data_PCOD9011814
_publ_section_title
;
Structure prediction by ZEFSAII (Michael W. Deem and Ramdas Pophale) SiO2 
 PCOD9011814
Probable space group: P -1
;
_chemical_formula_sum "Si O2"
_cell_formula_units_Z 16
_cell_length_a 6.215852
_cell_length_b 11.911425
_cell_length_c 10.545248
_cell_angle_alpha 87.894048
_cell_angle_beta 99.441014
_cell_angle_gamma 123.217505
_cell_volume 643.003704
_symmetry_space_group_name_H-M "P -1"
_symmetry_group_IT_number 2
_symmetry_cell_setting 'triclinic'
loop_
_space_group_symop_operation_xyz
x,y,z
-x,-y,-z
loop_
_atom_site_type_symbol
_atom_site_label
_atom_site_fract_x
_atom_site_fract_y
_atom_site_fract_z
Si Si1 0.891387 0.316190 0.072571
Si Si2 0.674932 0.897301 0.814741
Si Si3 0.159941 0.193733 0.406420
Si Si4 0.956649 0.380245 0.337926
Si Si5 0.325099 0.688843 0.413110
Si Si6 0.589714 0.432847 0.908982
Si Si7 0.435175 0.023672 0.635017
Si Si8 0.885409 0.818227 0.067777
O O1 0.768734 0.304670 0.201011
O O2 0.187679 0.430506 0.140132
O O3 0.760533 0.373055 0.969948
O O4 0.933240 0.213072 0.001932
O O5 0.714055 0.826679 0.703388
O O6 0.488506 0.948373 0.753040
O O7 0.699485 0.835802 0.952273
O O8 0.946141 0.045861 0.846543
O O9 0.116034 0.311869 0.373879
O O10 0.369382 0.250665 0.537197
O O11 0.878458 0.054433 0.399181
O O12 0.136219 0.542725 0.339826
O O13 0.794670 0.337937 0.455721
O O14 0.362880 0.815594 0.335665
O O15 0.307651 0.304387 0.851249
O O16 0.500000 0.500000 0.000000
O O17 0.500000 0.000000 0.500000
#
# Coordination Sequence:
#
# PCOD9011814 Si02
#       8
#     2   2   2   2   2   2   2   2
#     4  10  21  40  67  94 131 177 222 272 348 399
#     4  11  25  41  69  99 133 177 228 280 338 400
#     4  12  23  44  70  97 133 187 220 280 347 405
#     4  11  24  43  69  99 133 180 225 282 340 409
#     4  11  26  43  65 102 139 174 231 280 337 415
#     4   9  21  38  63  95 132 171 217 279 330 410
#     4  12  25  44  69 100 139 180 225 283 343 406
#     4  10  23  43  64 100 132 173 229 279 334 405
#
# _framework density 24.883213000000001
#
# number of rings (size 3 to 8) (size 9 to 14) (size 15 to 20)
#    0.000    1.250    3.750    0.750    3.500    5.000 
#    0.000    2.500    0.000    0.000    0.000    0.000 
#    0.000    0.000    0.000    0.000    0.000    0.000 
#
# Total GULP energy -89157.095485 kJ/mol
# GULP energy per Si atom -5572.318468 kJ/mol
# Density = 2.482658 g / cm^3
# Si number density = 24.883213 Si / 1000 Ang^3
#
#
#
# Elastic Constant Matrix: (Units=GPa)
#
#
# Indices 1 2 3 4 5 6 
#
# 1 78.1191 14.3749 12.4617 0.5408 6.1238 -5.9920
# 2 14.3749 150.6813 -3.8175 -0.4121 -3.9517 -6.0057
# 3 12.4617 -3.8175 57.4080 16.2505 2.7305 -15.3089
# 4 0.5408 -0.4121 16.2505 21.9107 -1.1151 -11.3820
# 5 6.1238 -3.9517 2.7305 -1.1151 36.7979 -4.6123
# 6 -5.9920 -6.0057 -15.3089 -11.3820 -4.6123 37.7230
#
#
#
# Elastic Compliance Matrix: (Units=1/GPa)
#
#
# Indices 1 2 3 4 5 6 
#
# 1 0.013835 -0.001406 -0.003461 0.002690 -0.001972 0.001140
# 2 -0.001406 0.006886 0.001049 0.000220 0.001090 0.001498
# 3 -0.003461 0.001049 0.023817 -0.015236 -0.000968 0.004567
# 4 0.002690 0.000220 -0.015236 0.064529 0.004454 0.014294
# 5 -0.001972 0.001090 -0.000968 0.004454 0.028364 0.004279
# 6 0.001140 0.001498 0.004567 0.014294 0.004279 0.033618
#
#
# Mechanical properties :
#
#
# Convention : Reuss Voigt Hill
#
# Bulk Modulus (GPa) = 27.09936 36.91630 32.00783
# Shear Modulus (GPa) = 26.17974 36.83226 31.50600
#
# Velocity S-wave (km/s) = 3.24713 3.85152 3.56217
# Velocity P-wave (km/s) = 4.99728 5.88617 5.45984
#
# Compressibility (1/GPa) = 0.03690124
#
# Stress axis : x y z
#
# Youngs Moduli (GPa) = 72.27920 145.21854 41.98697
#
# Poissons Ratio (x) = 0.20425 0.14530
# Poissons Ratio (y) = 0.10166 -0.04402
# Poissons Ratio (z) = 0.25013 -0.15227
#
# Static dielectric constant tensor:
#      x y z
#    x 2.124850 0.153510 -0.041320 
#    y 0.153510 2.107680 -0.072180 
#    z -0.041320 -0.072180 2.003310 
# 
# From -- ./inp_files/364580.got.cif
#   From: 2010.05.17/outbox.cif.g08.bks.cpg/sg2_183_cif.got.tgz:364580.got - 2010.06.03 11:33:40.
