data_PCOD9011314
_publ_section_title
;
Structure prediction by ZEFSAII (Michael W. Deem and Ramdas Pophale) SiO2 
 PCOD9011314
Probable space group: P -1
;
_chemical_formula_sum "Si O2"
_cell_formula_units_Z 14
_cell_length_a 11.247661
_cell_length_b 9.953535
_cell_length_c 9.196490
_cell_angle_alpha 40.121645
_cell_angle_beta 73.269780
_cell_angle_gamma 71.809549
_cell_volume 628.284125
_symmetry_space_group_name_H-M "P -1"
_symmetry_group_IT_number 2
_symmetry_cell_setting 'triclinic'
loop_
_space_group_symop_operation_xyz
x,y,z
-x,-y,-z
loop_
_atom_site_type_symbol
_atom_site_label
_atom_site_fract_x
_atom_site_fract_y
_atom_site_fract_z
Si Si1 0.723988 0.549640 0.206260
Si Si2 0.882975 0.200553 0.811502
Si Si3 0.961983 0.766615 0.013782
Si Si4 0.500038 0.344622 0.994828
Si Si5 0.718341 0.988638 0.284668
Si Si6 0.873728 0.141149 0.358852
Si Si7 0.332545 0.447864 0.463715
O O1 0.839446 0.674306 0.091321
O O2 0.640594 0.649489 0.018001
O O3 0.782360 0.305103 0.355793
O O4 0.636591 0.592420 0.345177
O O5 0.792496 0.384469 0.619033
O O6 0.985989 0.293702 0.794309
O O7 0.803971 0.084581 0.053719
O O8 0.935642 0.021215 0.827935
O O9 0.067618 0.711338 0.901246
O O10 0.572403 0.444399 0.756262
O O11 0.500000 0.500000 0.000000
O O12 0.581540 0.128204 0.198165
O O13 0.785836 0.012695 0.396191
O O14 0.701415 0.754798 0.440022
O O15 0.000000 0.000000 0.500000
#
# Coordination Sequence:
#
# PCOD9011314 Si02
#       7
#     2   2   2   2   2   2   2
#     4  12  24  43  67 100 133 175 221 274 329 383
#     4   9  20  41  66  96 138 163 220 270 324 393
#     4  10  21  40  65  97 133 181 211 266 331 391
#     4  11  25  48  67  93 136 175 223 274 322 400
#     4  10  22  45  68  95 128 181 217 267 335 389
#     4  11  24  40  64 101 138 168 225 270 324 401
#     4  11  24  42  72  99 125 175 224 274 331 383
#
# _framework density 22.282910999999999
#
# number of rings (size 3 to 8) (size 9 to 14) (size 15 to 20)
#    0.000    1.429    2.857    1.714    2.000    2.857 
#    5.143    0.000    0.000    0.000    0.000    0.000 
#    0.000    0.000    0.000    0.000    0.000    0.000 
#
# Total GULP energy -78187.795163 kJ/mol
# GULP energy per Si atom -5584.842512 kJ/mol
# Density = 2.223219 g / cm^3
# Si number density = 22.282911 Si / 1000 Ang^3
#
#
#
# Elastic Constant Matrix: (Units=GPa)
#
#
# Indices 1 2 3 4 5 6 
#
# 1 113.0487 32.8035 16.4316 -3.6851 21.7073 29.6392
# 2 32.8035 118.6839 12.4209 6.9181 6.0219 17.5042
# 3 16.4316 12.4209 30.6601 -0.8333 7.3374 12.8414
# 4 -3.6851 6.9181 -0.8333 24.7713 -3.8641 2.5776
# 5 21.7073 6.0219 7.3374 -3.8641 29.2344 6.0017
# 6 29.6392 17.5042 12.8414 2.5776 6.0017 40.5542
#
#
#
# Elastic Compliance Matrix: (Units=1/GPa)
#
#
# Indices 1 2 3 4 5 6 
#
# 1 0.012991 -0.002151 -0.001300 0.002134 -0.007109 -0.007238
# 2 -0.002151 0.009665 -0.002134 -0.002889 0.000121 -0.001758
# 3 -0.001300 -0.002134 0.039905 0.001791 -0.006333 -0.009941
# 4 0.002134 -0.002889 0.001791 0.042805 0.005113 -0.004357
# 5 -0.007109 0.000121 -0.006333 0.005113 0.041588 0.000669
# 6 -0.007238 -0.001758 -0.009941 -0.004357 0.000669 0.034033
#
#
# Mechanical properties :
#
#
# Convention : Reuss Voigt Hill
#
# Bulk Modulus (GPa) = 19.45843 42.85607 31.15725
# Shear Modulus (GPa) = 23.89062 32.29443 28.09252
#
# Velocity S-wave (km/s) = 3.27792 3.81109 3.55451
# Velocity P-wave (km/s) = 4.80393 6.21613 5.55509
#
# Compressibility (1/GPa) = 0.05139161
#
# Stress axis : x y z
#
# Youngs Moduli (GPa) = 76.97580 103.46462 25.05960
#
# Poissons Ratio (x) = 0.22253 0.03258
# Poissons Ratio (y) = 0.16556 0.05347
# Poissons Ratio (z) = 0.10008 0.22078
#
# Static dielectric constant tensor:
#      x y z
#    x 1.880260 -0.048770 0.023410 
#    y -0.048770 1.830630 0.021140 
#    z 0.023410 0.021140 1.835500 
# 
# From -- ./inp_files/227296.got.cif
#   From: 2010.05.17/outbox.cif.g08.bks.cpg/sg2_114_cif.got.tgz:227296.got - 2010.06.03 11:33:40.
