data_PCOD9011699
_publ_section_title
;
Structure prediction by ZEFSAII (Michael W. Deem and Ramdas Pophale) SiO2 
 PCOD9011699
Probable space group: P -1
;
_chemical_formula_sum "Si O2"
_cell_formula_units_Z 16
_cell_length_a 9.004634
_cell_length_b 13.378213
_cell_length_c 7.885050
_cell_angle_alpha 82.049652
_cell_angle_beta 98.354817
_cell_angle_gamma 134.295995
_cell_volume 671.742230
_symmetry_space_group_name_H-M "P -1"
_symmetry_group_IT_number 2
_symmetry_cell_setting 'triclinic'
loop_
_space_group_symop_operation_xyz
x,y,z
-x,-y,-z
loop_
_atom_site_type_symbol
_atom_site_label
_atom_site_fract_x
_atom_site_fract_y
_atom_site_fract_z
Si Si1 0.319400 0.336152 0.528817
Si Si2 0.742652 0.130417 0.337109
Si Si3 0.022826 0.706552 0.330575
Si Si4 0.353117 0.985089 0.112324
Si Si5 0.827786 0.485008 0.078208
Si Si6 0.753469 0.905489 0.502085
Si Si7 0.876082 0.718412 0.859803
Si Si8 0.349472 0.194918 0.104935
O O1 0.500000 0.500000 0.500000
O O2 0.365600 0.239487 0.584570
O O3 0.212637 0.295839 0.336894
O O4 0.164329 0.305532 0.650812
O O5 0.853365 0.243204 0.482280
O O6 0.886571 0.192182 0.177979
O O7 0.521835 0.073953 0.271530
O O8 0.714324 0.000807 0.416438
O O9 0.170362 0.831467 0.191482
O O10 0.928108 0.563717 0.258273
O O11 0.289439 0.066887 0.020562
O O12 0.500000 0.000000 0.000000
O O13 0.596605 0.331001 0.092770
O O14 0.795373 0.576134 0.954467
O O15 0.000000 0.500000 0.000000
O O16 0.701052 0.863043 0.698463
O O17 0.000000 0.000000 0.500000
O O18 0.791915 0.771172 0.948784
#
# Coordination Sequence:
#
# PCOD9011699 Si02
#       8
#     2   2   2   2   2   2   2   2
#     4  10  21  40  67 101 132 163 227 279 325 389
#     4  11  22  42  70  98 132 171 224 278 331 391
#     4  11  22  41  69  94 129 175 221 269 323 397
#     4  12  25  44  63  98 141 176 218 270 331 397
#     4  12  26  47  64  94 142 179 218 273 334 401
#     4  11  18  40  68  99 133 166 217 284 329 381
#     4  10  22  43  69  93 132 173 217 277 334 387
#     4  11  22  41  71  94 130 178 221 270 331 396
#
# _framework density 23.818659
#
# number of rings (size 3 to 8) (size 9 to 14) (size 15 to 20)
#    0.000    1.000    5.000    4.500    0.000    0.000 
#    6.750    6.875    0.000    0.000    0.000    0.000 
#    0.000    0.000    0.000    0.000    0.000    0.000 
#
# Total GULP energy -89434.213349 kJ/mol
# GULP energy per Si atom -5589.638334 kJ/mol
# Density = 2.376445 g / cm^3
# Si number density = 23.818659 Si / 1000 Ang^3
#
#
#
# Elastic Constant Matrix: (Units=GPa)
#
#
# Indices 1 2 3 4 5 6 
#
# 1 106.5753 25.3430 25.9607 -5.1377 -21.4820 -6.7320
# 2 25.3430 106.9364 11.9013 -11.3052 -12.4361 12.6671
# 3 25.9607 11.9013 78.1652 -4.9828 -23.6460 4.3657
# 4 -5.1377 -11.3052 -4.9828 49.7148 -2.1170 -9.0098
# 5 -21.4820 -12.4361 -23.6460 -2.1170 38.9181 -2.9503
# 6 -6.7320 12.6671 4.3657 -9.0098 -2.9503 50.2749
#
#
#
# Elastic Compliance Matrix: (Units=1/GPa)
#
#
# Indices 1 2 3 4 5 6 
#
# 1 0.011604 -0.002168 -0.002196 0.001188 0.004654 0.002777
# 2 -0.002168 0.010599 -0.000003 0.001820 0.002097 -0.002511
# 3 -0.002196 -0.000003 0.016314 0.001614 0.008718 -0.000909
# 4 0.001188 0.001820 0.001614 0.021631 0.003671 0.003652
# 5 0.004654 0.002097 0.008718 0.003671 0.034584 0.002025
# 6 0.002777 -0.002511 -0.000909 0.003652 0.002025 0.021748
#
#
# Mechanical properties :
#
#
# Convention : Reuss Voigt Hill
#
# Bulk Modulus (GPa) = 33.57476 46.45408 40.01442
# Shear Modulus (GPa) = 36.99830 43.01303 40.00566
#
# Velocity S-wave (km/s) = 3.94551 4.25414 4.10273
# Velocity P-wave (km/s) = 5.90615 6.60877 6.26732
#
# Compressibility (1/GPa) = 0.02978428
#
# Stress axis : x y z
#
# Youngs Moduli (GPa) = 86.17733 94.34645 61.29656
#
# Poissons Ratio (x) = 0.20453 0.13458
# Poissons Ratio (y) = 0.18682 0.00019
# Poissons Ratio (z) = 0.18920 0.00030
#
# Static dielectric constant tensor:
#      x y z
#    x 1.873010 -0.048270 -0.046870 
#    y -0.048270 2.080850 -0.017940 
#    z -0.046870 -0.017940 1.935910 
# 
# From -- ./inp_files/187715.got.cif
#   From: 2010.05.17/outbox.cif.g08.bks.cpg/sg2_94_cif.got.tgz:187715.got - 2010.06.03 11:33:40.
