data_PCOD9011151
_publ_section_title
;
Structure prediction by ZEFSAII (Michael W. Deem and Ramdas Pophale) SiO2 
 PCOD9011151
Probable space group: P -1
;
_chemical_formula_sum "Si O2"
_cell_formula_units_Z 14
_cell_length_a 18.955310
_cell_length_b 7.733547
_cell_length_c 7.936810
_cell_angle_alpha 98.824991
_cell_angle_beta 137.320971
_cell_angle_gamma 51.950567
_cell_volume 513.975602
_symmetry_space_group_name_H-M "P -1"
_symmetry_group_IT_number 2
_symmetry_cell_setting 'triclinic'
loop_
_space_group_symop_operation_xyz
x,y,z
-x,-y,-z
loop_
_atom_site_type_symbol
_atom_site_label
_atom_site_fract_x
_atom_site_fract_y
_atom_site_fract_z
Si Si1 0.924368 0.275767 0.251506
Si Si2 0.115268 0.969873 0.083628
Si Si3 0.563160 0.718906 0.092399
Si Si4 0.250324 0.027402 0.742672
Si Si5 0.677949 0.853757 0.775181
Si Si6 0.125374 0.521726 0.425211
Si Si7 0.566222 0.303606 0.431349
O O1 0.895535 0.374423 0.406155
O O2 0.111122 0.063211 0.512501
O O3 0.874302 0.145505 0.093931
O O4 0.812119 0.536159 0.971751
O O5 0.026632 0.259738 0.921797
O O6 0.293243 0.770979 0.426818
O O7 0.000000 0.000000 0.000000
O O8 0.567686 0.604770 0.909790
O O9 0.433675 0.777607 0.979684
O O10 0.737800 0.537177 0.431820
O O11 0.500000 0.000000 0.000000
O O12 0.181291 0.256087 0.522861
O O13 0.268018 0.095625 0.965239
O O14 0.500000 0.000000 0.500000
O O15 0.654504 0.017643 0.608126
O O16 0.500000 0.500000 0.500000
#
# Coordination Sequence:
#
# PCOD9011151 Si02
#       7
#     2   2   2   2   2   2   2
#     4  11  22  41  64  90 125 173 220 260 319 396
#     4  12  26  41  60  95 134 170 213 273 328 377
#     4  10  22  41  65  93 127 169 213 260 321 388
#     4  10  21  40  65  93 122 168 220 266 320 389
#     4  11  22  40  68  99 127 167 222 275 322 388
#     4  10  21  41  64  89 124 169 216 266 321 386
#     4  12  25  44  67  99 135 172 215 272 331 384
#
# _framework density 27.23865
#
# number of rings (size 3 to 8) (size 9 to 14) (size 15 to 20)
#    0.000    1.143    0.000    9.000    0.000    5.714 
#    0.000    7.143    0.000    0.000    0.000    0.000 
#    0.000    0.000    0.000    0.000    0.000    0.000 
#
# Total GULP energy -78393.698386 kJ/mol
# GULP energy per Si atom -5599.549885 kJ/mol
# Density = 2.717665 g / cm^3
# Si number density = 27.238650 Si / 1000 Ang^3
#
#
#
# Elastic Constant Matrix: (Units=GPa)
#
#
# Indices 1 2 3 4 5 6 
#
# 1 76.6552 3.0495 19.2353 -18.3729 25.8518 2.0953
# 2 3.0495 77.0972 12.5200 7.2576 -5.1433 -3.8988
# 3 19.2353 12.5200 145.1427 -0.1382 36.9208 9.5091
# 4 -18.3729 7.2576 -0.1382 50.6738 1.4550 -5.9144
# 5 25.8518 -5.1433 36.9208 1.4550 59.4040 -7.5903
# 6 2.0953 -3.8988 9.5091 -5.9144 -7.5903 35.6753
#
#
#
# Elastic Compliance Matrix: (Units=1/GPa)
#
#
# Indices 1 2 3 4 5 6 
#
# 1 0.017539 -0.001982 0.000081 0.006656 -0.008263 -0.001923
# 2 -0.001982 0.014005 -0.002072 -0.002537 0.003754 0.002577
# 3 0.000081 -0.002072 0.008905 0.000072 -0.006252 -0.003923
# 4 0.006656 -0.002537 0.000072 0.022887 -0.003417 0.002380
# 5 -0.008263 0.003754 -0.006252 -0.003417 0.025678 0.007459
# 6 -0.001923 0.002577 -0.003923 0.002380 0.007459 0.031452
#
#
# Mechanical properties :
#
#
# Convention : Reuss Voigt Hill
#
# Bulk Modulus (GPa) = 30.76580 40.94497 35.85539
# Shear Modulus (GPa) = 35.90778 46.75663 41.33221
#
# Velocity S-wave (km/s) = 3.63473 4.14763 3.89962
# Velocity P-wave (km/s) = 5.37908 6.16455 5.78516
#
# Compressibility (1/GPa) = 0.03250363
#
# Stress axis : x y z
#
# Youngs Moduli (GPa) = 57.01724 71.40287 112.29244
#
# Poissons Ratio (x) = 0.14151 -0.00908
# Poissons Ratio (y) = 0.11300 0.23263
# Poissons Ratio (z) = -0.00461 0.14792
#
# Static dielectric constant tensor:
#      x y z
#    x 2.173140 -0.055020 -0.020570 
#    y -0.055020 2.196450 -0.020690 
#    z -0.020570 -0.020690 2.032380 
# 
# From -- ./inp_files/242817.got.cif
#   From: 2010.05.17/outbox.cif.g08.bks.cpg/sg2_122_cif.got.tgz:242817.got - 2010.06.03 11:33:40.
