data_PCOD9011183
_publ_section_title
;
Structure prediction by ZEFSAII (Michael W. Deem and Ramdas Pophale) SiO2 
 PCOD9011183
Probable space group: P -1
;
_chemical_formula_sum "Si O2"
_cell_formula_units_Z 14
_cell_length_a 19.075343
_cell_length_b 9.163723
_cell_length_c 16.261228
_cell_angle_alpha 33.985819
_cell_angle_beta 158.718474
_cell_angle_gamma 145.128669
_cell_volume 560.459344
_symmetry_space_group_name_H-M "P -1"
_symmetry_group_IT_number 2
_symmetry_cell_setting 'triclinic'
loop_
_space_group_symop_operation_xyz
x,y,z
-x,-y,-z
loop_
_atom_site_type_symbol
_atom_site_label
_atom_site_fract_x
_atom_site_fract_y
_atom_site_fract_z
Si Si1 0.019179 0.282865 0.313130
Si Si2 0.385328 0.517519 0.969046
Si Si3 0.587619 0.275950 0.917002
Si Si4 0.954447 0.862787 0.178129
Si Si5 0.264353 0.867172 0.312601
Si Si6 0.194854 0.508138 0.553551
Si Si7 0.239823 0.058092 0.530160
O O1 0.149546 0.574268 0.286839
O O2 0.127932 0.273754 0.523642
O O3 0.798176 0.295512 0.093135
O O4 0.066727 0.070533 0.400854
O O5 0.313576 0.781408 0.740836
O O6 0.236979 0.228085 0.929233
O O7 0.404480 0.530099 0.086103
O O8 0.605446 0.528136 0.173049
O O9 0.429331 0.275469 0.671457
O O10 0.500000 0.000000 0.000000
O O11 0.017384 0.575821 0.378097
O O12 0.133785 0.071346 0.320853
O O13 0.870445 0.952920 0.959857
O O14 0.243187 0.786401 0.422947
O O15 0.500000 0.000000 0.500000
#
# Coordination Sequence:
#
# PCOD9011183 Si02
#       7
#     2   2   2   2   2   2   2
#     4  10  22  42  66  98 128 177 226 271 334 389
#     4  11  21  41  65  94 131 175 223 269 324 408
#     4  10  21  40  65  93 132 174 221 265 318 407
#     4  12  23  42  65  99 135 171 221 279 336 383
#     4  10  21  43  73  94 127 176 234 273 320 401
#     4  10  22  38  69  94 120 176 226 264 322 394
#     4  11  26  39  63 102 139 169 215 285 336 391
#
# _framework density 24.979509
#
# number of rings (size 3 to 8) (size 9 to 14) (size 15 to 20)
#    0.857    0.571    4.286    0.857    0.000    6.857 
#    0.000    0.714    0.000    0.000    0.000    0.000 
#    0.000    0.000    0.000    0.000    0.000    0.000 
#
# Total GULP energy -77998.752447 kJ/mol
# GULP energy per Si atom -5571.339460 kJ/mol
# Density = 2.492265 g / cm^3
# Si number density = 24.979509 Si / 1000 Ang^3
#
#
#
# Elastic Constant Matrix: (Units=GPa)
#
#
# Indices 1 2 3 4 5 6 
#
# 1 68.2658 14.2284 46.2261 5.1682 8.1083 -2.8764
# 2 14.2284 69.2789 38.3732 9.3249 -0.5113 2.5229
# 3 46.2261 38.3732 177.5534 25.7615 4.5539 -2.6666
# 4 5.1682 9.3249 25.7615 48.8865 -9.4872 -0.0467
# 5 8.1083 -0.5113 4.5539 -9.4872 46.7479 9.3913
# 6 -2.8764 2.5229 -2.6666 -0.0467 9.3913 38.1432
#
#
#
# Elastic Compliance Matrix: (Units=1/GPa)
#
#
# Indices 1 2 3 4 5 6 
#
# 1 0.018359 -0.001454 -0.004358 0.000021 -0.003164 0.001955
# 2 -0.001454 0.016678 -0.003091 -0.001243 0.000811 -0.001630
# 3 -0.004358 -0.003091 0.007945 -0.003301 -0.000850 0.000636
# 4 0.000021 -0.001243 -0.003301 0.023468 0.005356 -0.001437
# 5 -0.003164 0.000811 -0.000850 0.005356 0.024395 -0.006351
# 6 0.001955 -0.001630 0.000636 -0.001437 -0.006351 0.028079
#
#
# Mechanical properties :
#
#
# Convention : Reuss Voigt Hill
#
# Bulk Modulus (GPa) = 39.72014 56.97261 48.34638
# Shear Modulus (GPa) = 34.45395 41.17353 37.81374
#
# Velocity S-wave (km/s) = 3.71791 4.06432 3.89497
# Velocity P-wave (km/s) = 5.86226 6.69942 6.29477
#
# Compressibility (1/GPa) = 0.02517614
#
# Stress axis : x y z
#
# Youngs Moduli (GPa) = 54.46789 59.96053 125.86558
#
# Poissons Ratio (x) = 0.08719 0.54854
# Poissons Ratio (y) = 0.07920 0.38902
# Poissons Ratio (z) = 0.23738 0.18532
#
# Static dielectric constant tensor:
#      x y z
#    x 2.066960 0.015610 0.032970 
#    y 0.015610 2.128150 0.021740 
#    z 0.032970 0.021740 2.053890 
# 
# From -- ./inp_files/577558.got.cif
#   From: 2010.05.17/outbox.cif.g08.bks.cpg/sg2_289_cif.got.tgz:577558.got - 2010.06.03 11:33:40.
