data_PCOD9011176
_publ_section_title
;
Structure prediction by ZEFSAII (Michael W. Deem and Ramdas Pophale) SiO2 
 PCOD9011176
Probable space group: P -1
;
_chemical_formula_sum "Si O2"
_cell_formula_units_Z 14
_cell_length_a 19.487552
_cell_length_b 6.895275
_cell_length_c 11.926584
_cell_angle_alpha 122.495060
_cell_angle_beta 26.788166
_cell_angle_gamma 113.081366
_cell_volume 592.827479
_symmetry_space_group_name_H-M "P -1"
_symmetry_group_IT_number 2
_symmetry_cell_setting 'triclinic'
loop_
_space_group_symop_operation_xyz
x,y,z
-x,-y,-z
loop_
_atom_site_type_symbol
_atom_site_label
_atom_site_fract_x
_atom_site_fract_y
_atom_site_fract_z
Si Si1 0.331020 0.724030 0.476428
Si Si2 0.231419 0.028818 0.911322
Si Si3 0.819347 0.484449 0.776646
Si Si4 0.883280 0.125582 0.375504
Si Si5 0.344011 0.689205 0.827534
Si Si6 0.554964 0.892108 0.062527
Si Si7 0.720243 0.766678 0.566590
O O1 0.338956 0.926109 0.617904
O O2 0.189899 0.801924 0.616977
O O3 0.307905 0.489362 0.498444
O O4 0.488167 0.699579 0.167992
O O5 0.238938 0.808574 0.914048
O O6 0.266887 0.240394 0.999602
O O7 0.063931 0.123917 0.126691
O O8 0.794874 0.308381 0.657614
O O9 0.000000 0.500000 0.500000
O O10 0.765152 0.390712 0.943976
O O11 0.870578 0.857456 0.338608
O O12 0.500000 0.500000 0.500000
O O13 0.404977 0.900490 0.860434
O O14 0.411725 0.031362 0.237446
O O15 0.696520 0.782613 0.739973
#
# Coordination Sequence:
#
# PCOD9011176 Si02
#       7
#     2   2   2   2   2   2   2
#     4  11  23  40  66  98 131 176 220 276 334 396
#     4  11  26  43  66  98 140 175 219 273 342 398
#     4  10  24  45  69  98 133 177 227 274 327 401
#     4  10  23  43  68  97 129 176 230 274 325 400
#     4  12  25  43  70  98 140 177 220 276 343 400
#     4  10  22  39  61  96 130 170 221 273 323 398
#     4  10  21  40  65  93 131 170 223 274 329 386
#
# _framework density 23.615642000000001
#
# number of rings (size 3 to 8) (size 9 to 14) (size 15 to 20)
#    0.000    1.429    1.429    2.571    2.000    9.714 
#    0.000    0.000    0.000    0.000    0.000    0.000 
#    0.000    0.000    0.000    0.000    0.000    0.000 
#
# Total GULP energy -78147.023653 kJ/mol
# GULP energy per Si atom -5581.930261 kJ/mol
# Density = 2.356189 g / cm^3
# Si number density = 23.615642 Si / 1000 Ang^3
#
#
#
# Elastic Constant Matrix: (Units=GPa)
#
#
# Indices 1 2 3 4 5 6 
#
# 1 56.9240 13.5526 26.3808 5.7618 9.3961 2.3132
# 2 13.5526 129.3713 27.6256 -3.1187 10.8440 2.3526
# 3 26.3808 27.6256 68.3378 2.2592 23.2073 -4.6389
# 4 5.7618 -3.1187 2.2592 34.2819 9.2496 5.4748
# 5 9.3961 10.8440 23.2073 9.2496 38.8918 3.4513
# 6 2.3132 2.3526 -4.6389 5.4748 3.4513 38.1798
#
#
#
# Elastic Compliance Matrix: (Units=1/GPa)
#
#
# Indices 1 2 3 4 5 6 
#
# 1 0.021919 -0.000582 -0.008558 -0.003097 0.000885 -0.001968
# 2 -0.000582 0.008567 -0.003145 0.001414 -0.000617 -0.001022
# 3 -0.008558 -0.003145 0.023498 0.002140 -0.011971 0.004343
# 4 -0.003097 0.001414 0.002140 0.032493 -0.008336 -0.003545
# 5 0.000885 -0.000617 -0.011971 -0.008336 0.035103 -0.003448
# 6 -0.001968 -0.001022 0.004343 -0.003545 -0.003448 0.027722
#
#
# Mechanical properties :
#
#
# Convention : Reuss Voigt Hill
#
# Bulk Modulus (GPa) = 33.99745 43.30566 38.65156
# Shear Modulus (GPa) = 27.22183 34.74231 30.98207
#
# Velocity S-wave (km/s) = 3.39883 3.83973 3.62599
# Velocity P-wave (km/s) = 5.46170 6.16729 5.82519
#
# Compressibility (1/GPa) = 0.02941397
#
# Stress axis : x y z
#
# Youngs Moduli (GPa) = 45.62163 116.73236 42.55729
#
# Poissons Ratio (x) = 0.06791 0.36421
# Poissons Ratio (y) = 0.02654 0.13384
# Poissons Ratio (z) = 0.39043 0.36713
#
# Static dielectric constant tensor:
#      x y z
#    x 1.920210 -0.043510 0.016140 
#    y -0.043510 1.963120 0.005440 
#    z 0.016140 0.005440 1.928410 
# 
# From -- ./inp_files/68491.got.cif
#   From: 2010.05.17/outbox.cif.g08.bks.cpg/sg2_35_cif.got.tgz:68491.got - 2010.06.03 11:33:40.
