data_PCOD9011778
_publ_section_title
;
Structure prediction by ZEFSAII (Michael W. Deem and Ramdas Pophale) SiO2 
 PCOD9011778
Probable space group: P -1
;
_chemical_formula_sum "Si O2"
_cell_formula_units_Z 16
_cell_length_a 14.201212
_cell_length_b 8.235118
_cell_length_c 7.280571
_cell_angle_alpha 105.119050
_cell_angle_beta 92.201482
_cell_angle_gamma 126.508912
_cell_volume 639.786152
_symmetry_space_group_name_H-M "P -1"
_symmetry_group_IT_number 2
_symmetry_cell_setting 'triclinic'
loop_
_space_group_symop_operation_xyz
x,y,z
-x,-y,-z
loop_
_atom_site_type_symbol
_atom_site_label
_atom_site_fract_x
_atom_site_fract_y
_atom_site_fract_z
Si Si1 0.132716 0.805687 0.917790
Si Si2 0.377609 0.006413 0.785233
Si Si3 0.497312 0.449358 0.769042
Si Si4 0.816726 0.599501 0.093507
Si Si5 0.576992 0.281246 0.193572
Si Si6 0.866523 0.926055 0.462565
Si Si7 0.780587 0.744794 0.798295
Si Si8 0.052514 0.656659 0.260128
O O1 0.243917 0.885646 0.818683
O O2 0.010415 0.587996 0.758406
O O3 0.131601 0.723014 0.100399
O O4 0.145588 0.014458 0.038264
O O5 0.403464 0.840441 0.688747
O O6 0.421694 0.191091 0.691808
O O7 0.460614 0.123033 0.009037
O O8 0.438069 0.543165 0.691609
O O9 0.637144 0.595643 0.770933
O O10 0.500000 0.500000 0.000000
O O11 0.692401 0.387008 0.099099
O O12 0.810517 0.780567 0.235848
O O13 0.934600 0.637789 0.188863
O O14 0.819848 0.628201 0.885283
O O15 0.807887 0.783320 0.598184
O O16 0.874457 0.136284 0.541447
O O17 0.000000 0.000000 0.500000
#
# Coordination Sequence:
#
# PCOD9011778 Si02
#       8
#     2   2   2   2   2   2   2   2
#     4  10  17  32  54  83 113 152 191 241 294 346
#     4  10  17  29  53  89 118 150 195 246 296 358
#     4  10  17  32  52  89 121 147 194 246 292 355
#     4  11  19  37  60  86 113 154 200 236 298 362
#     4  10  18  29  55  89 116 154 197 239 301 359
#     4   9  22  38  56  85 119 151 197 248 290 350
#     4  11  20  36  62  84 118 153 191 249 297 349
#     4   9  20  33  53  83 115 149 200 240 285 354
#
# _framework density 25.008357
#
# number of rings (size 3 to 8) (size 9 to 14) (size 15 to 20)
#    0.000    2.000    6.250    0.000    0.000    4.500 
#    0.000    1.250    0.000    5.250    0.000    0.000 
#    0.000    0.000    0.000    0.000    0.000    0.000 
#
# Total GULP energy -89348.341399 kJ/mol
# GULP energy per Si atom -5584.271337 kJ/mol
# Density = 2.495144 g / cm^3
# Si number density = 25.008357 Si / 1000 Ang^3
#
#
#
# Elastic Constant Matrix: (Units=GPa)
#
#
# Indices 1 2 3 4 5 6 
#
# 1 103.1196 55.0472 14.7198 -5.3131 -5.4833 7.0502
# 2 55.0472 168.3627 24.2756 -2.8827 -4.6353 10.3333
# 3 14.7198 24.2756 68.6675 0.6759 -1.8155 4.5993
# 4 -5.3131 -2.8827 0.6759 29.6725 0.3460 -6.7747
# 5 -5.4833 -4.6353 -1.8155 0.3460 21.4969 3.6713
# 6 7.0502 10.3333 4.5993 -6.7747 3.6713 56.9684
#
#
#
# Elastic Compliance Matrix: (Units=1/GPa)
#
#
# Indices 1 2 3 4 5 6 
#
# 1 0.012065 -0.003637 -0.001211 0.001651 0.002282 -0.000686
# 2 -0.003637 0.007452 -0.001782 -0.000079 0.000668 -0.000810
# 3 -0.001211 -0.001782 0.015547 -0.000970 0.000798 -0.000949
# 4 0.001651 -0.000079 -0.000970 0.034960 -0.000942 0.004107
# 5 0.002282 0.000668 0.000798 -0.000942 0.047954 -0.003670
# 6 -0.000686 -0.000810 -0.000949 0.004107 -0.003670 0.018587
#
#
# Mechanical properties :
#
#
# Convention : Reuss Voigt Hill
#
# Bulk Modulus (GPa) = 45.86167 58.69279 52.27723
# Shear Modulus (GPa) = 31.82835 38.03471 34.93153
#
# Velocity S-wave (km/s) = 3.57137 3.90408 3.74143
# Velocity P-wave (km/s) = 5.94850 6.62138 6.29394
#
# Compressibility (1/GPa) = 0.02180470
#
# Stress axis : x y z
#
# Youngs Moduli (GPa) = 82.88368 134.18406 64.32247
#
# Poissons Ratio (x) = 0.48803 0.07786
# Poissons Ratio (y) = 0.30145 0.11464
# Poissons Ratio (z) = 0.10033 0.23915
#
# Static dielectric constant tensor:
#      x y z
#    x 1.988680 -0.111110 -0.034990 
#    y -0.111110 2.142100 0.079710 
#    z -0.034990 0.079710 1.957920 
# 
# From -- ./inp_files/296123.got.cif
#   From: 2010.05.17/outbox.cif.g08.bks.cpg/sg2_149_cif.got.tgz:296123.got - 2010.06.03 11:33:40.
