data_PCOD9011180
_publ_section_title
;
Structure prediction by ZEFSAII (Michael W. Deem and Ramdas Pophale) SiO2 
 PCOD9011180
Probable space group: P -1
;
_chemical_formula_sum "Si O2"
_cell_formula_units_Z 16
_cell_length_a 20.411253
_cell_length_b 18.080888
_cell_length_c 8.473743
_cell_angle_alpha 134.343651
_cell_angle_beta 44.565017
_cell_angle_gamma 159.022374
_cell_volume 778.511331
_symmetry_space_group_name_H-M "P -1"
_symmetry_group_IT_number 2
_symmetry_cell_setting 'triclinic'
loop_
_space_group_symop_operation_xyz
x,y,z
-x,-y,-z
loop_
_atom_site_type_symbol
_atom_site_label
_atom_site_fract_x
_atom_site_fract_y
_atom_site_fract_z
Si Si1 0.143927 0.341780 0.564982
Si Si2 0.972953 0.564588 0.269491
Si Si3 0.938382 0.750188 0.080835
Si Si4 0.892718 0.918289 0.228759
Si Si5 0.548788 0.654020 0.235048
Si Si6 0.279649 0.621732 0.290825
Si Si7 0.802734 0.268491 0.569045
Si Si8 0.666742 0.918965 0.162899
O O1 0.048559 0.349394 0.659429
O O2 0.163133 0.371319 0.763396
O O3 0.352135 0.519777 0.409138
O O4 0.014103 0.119644 0.412847
O O5 0.791619 0.394543 0.447057
O O6 0.146663 0.715635 0.317108
O O7 0.000000 0.500000 0.000000
O O8 0.887804 0.809825 0.178124
O O9 0.886557 0.611656 0.836618
O O10 0.159973 0.957803 0.050036
O O11 0.684466 0.756932 0.300973
O O12 0.000000 0.000000 0.000000
O O13 0.662318 0.841756 0.208324
O O14 0.500000 0.500000 0.000000
O O15 0.323608 0.753138 0.283703
O O16 0.459112 0.721656 0.154640
O O17 0.000000 0.500000 0.500000
O O18 0.715208 0.084601 0.363279
#
# Coordination Sequence:
#
# PCOD9011180 Si02
#       8
#     2   2   2   2   2   2   2   2
#     4  12  26  44  66 103 140 173 229 286 336 401
#     4  11  22  41  69  94 134 181 218 277 340 394
#     4  12  25  43  70 100 139 178 223 284 341 401
#     4  12  23  42  72  98 132 180 226 275 341 405
#     4  12  24  42  71 101 136 180 227 279 339 408
#     4  11  23  43  69  96 136 180 229 274 339 406
#     4  10  21  40  65  93 131 176 225 278 329 397
#     4  12  22  41  72  97 130 184 228 267 343 409
#
# _framework density 20.552046000000001
#
# number of rings (size 3 to 8) (size 9 to 14) (size 15 to 20)
#    0.000    0.500    6.250    3.750    1.750    1.500 
#    0.000    0.625    0.000    0.000    0.000    0.000 
#    0.000    0.000    0.000    0.000    0.000    0.000 
#
# Total GULP energy -89350.330897 kJ/mol
# GULP energy per Si atom -5584.395681 kJ/mol
# Density = 2.050527 g / cm^3
# Si number density = 20.552046 Si / 1000 Ang^3
#
#
#
# Elastic Constant Matrix: (Units=GPa)
#
#
# Indices 1 2 3 4 5 6 
#
# 1 129.5435 -0.6022 19.4577 2.4459 -25.4414 -15.9585
# 2 -0.6022 49.5206 13.3593 4.8178 -4.7382 -4.4522
# 3 19.4577 13.3593 75.8293 0.7527 -7.0029 -12.3933
# 4 2.4459 4.8178 0.7527 27.5191 -4.2063 -6.3218
# 5 -25.4414 -4.7382 -7.0029 -4.2063 35.9642 4.9355
# 6 -15.9585 -4.4522 -12.3933 -6.3218 4.9355 41.6547
#
#
#
# Elastic Compliance Matrix: (Units=1/GPa)
#
#
# Indices 1 2 3 4 5 6 
#
# 1 0.009528 0.001356 -0.001678 0.000528 0.006293 0.002630
# 2 0.001356 0.021877 -0.003777 -0.003235 0.002599 0.000935
# 3 -0.001678 -0.003777 0.014924 0.001342 0.000899 0.003491
# 4 0.000528 -0.003235 0.001342 0.038728 0.003961 0.005664
# 5 0.006293 0.002599 0.000899 0.003961 0.033291 -0.000387
# 6 0.002630 0.000935 0.003491 0.005664 -0.000387 0.027059
#
#
# Mechanical properties :
#
#
# Convention : Reuss Voigt Hill
#
# Bulk Modulus (GPa) = 26.22639 35.48033 30.85336
# Shear Modulus (GPa) = 30.06380 35.87285 32.96832
#
# Velocity S-wave (km/s) = 3.82882 4.18241 4.00951
# Velocity P-wave (km/s) = 5.68640 6.37373 6.03985
#
# Compressibility (1/GPa) = 0.03812954
#
# Stress axis : x y z
#
# Youngs Moduli (GPa) = 104.95804 45.71106 67.00747
#
# Poissons Ratio (x) = -0.06197 0.11243
# Poissons Ratio (y) = -0.14229 0.25309
# Poissons Ratio (z) = 0.17610 0.17265
#
# Static dielectric constant tensor:
#      x y z
#    x 1.756800 0.016740 -0.011760 
#    y 0.016740 1.736360 -0.021290 
#    z -0.011760 -0.021290 1.739690 
# 
# From -- ./inp_files/348938.got.cif
#   From: 2010.05.17/outbox.cif.g08.bks.cpg/sg2_175_cif.got.tgz:348938.got - 2010.06.03 11:33:40.
