data_PCOD9011129
_publ_section_title
;
Structure prediction by ZEFSAII (Michael W. Deem and Ramdas Pophale) SiO2 
 PCOD9011129
Probable space group: P -1
;
_chemical_formula_sum "Si O2"
_cell_formula_units_Z 16
_cell_length_a 15.541642
_cell_length_b 9.297938
_cell_length_c 15.094077
_cell_angle_alpha 91.033043
_cell_angle_beta 137.947303
_cell_angle_gamma 55.374790
_cell_volume 818.102214
_symmetry_space_group_name_H-M "P -1"
_symmetry_group_IT_number 2
_symmetry_cell_setting 'triclinic'
loop_
_space_group_symop_operation_xyz
x,y,z
-x,-y,-z
loop_
_atom_site_type_symbol
_atom_site_label
_atom_site_fract_x
_atom_site_fract_y
_atom_site_fract_z
Si Si1 0.650989 0.449779 0.003857
Si Si2 0.657590 0.769075 0.001667
Si Si3 0.212141 0.709240 0.693046
Si Si4 0.931719 0.261454 0.880844
Si Si5 0.220511 0.362171 0.709049
Si Si6 0.935825 0.933441 0.819770
Si Si7 0.804137 0.716218 0.928269
Si Si8 0.497097 0.864151 0.558994
O O1 0.559112 0.699043 0.937038
O O2 0.740378 0.311752 0.165916
O O3 0.862588 0.256347 0.098545
O O4 0.440192 0.547942 0.815067
O O5 0.787334 0.665699 0.192467
O O6 0.814664 0.637131 0.033007
O O7 0.453804 0.074433 0.847250
O O8 0.199375 0.550354 0.675840
O O9 0.000000 0.000000 0.500000
O O10 0.708190 0.563599 0.694146
O O11 0.888149 0.147059 0.802553
O O12 0.969071 0.207270 0.014105
O O13 0.153350 0.152657 0.022199
O O14 0.000000 0.500000 0.500000
O O15 0.729248 0.022846 0.628236
O O16 0.569789 0.868012 0.709237
O O17 0.000000 0.500000 0.000000
O O18 0.500000 0.000000 0.500000
#
# Coordination Sequence:
#
# PCOD9011129 Si02
#       8
#     2   2   2   2   2   2   2   2
#     4  10  22  39  64  89 117 167 205 251 320 370
#     4  10  22  40  66  89 127 161 212 262 315 379
#     4  10  22  41  62  89 126 156 207 260 313 382
#     4  10  23  41  61  90 131 166 209 263 321 370
#     4  10  22  42  65  94 123 162 210 265 323 374
#     4  11  23  41  64  90 129 170 211 263 316 382
#     4  10  21  40  65  92 127 171 213 262 318 378
#     4  11  22  39  63  91 126 168 220 259 310 383
#
# _framework density 19.557456999999999
#
# number of rings (size 3 to 8) (size 9 to 14) (size 15 to 20)
#    0.000    1.750    1.250    2.625    3.500    5.000 
#    0.000    0.000    0.000    0.000    0.000    0.000 
#    0.000    0.000    0.000    0.000    0.000    0.000 
#
# Total GULP energy -89157.720868 kJ/mol
# GULP energy per Si atom -5572.357554 kJ/mol
# Density = 1.951294 g / cm^3
# Si number density = 19.557457 Si / 1000 Ang^3
#
#
#
# Elastic Constant Matrix: (Units=GPa)
#
#
# Indices 1 2 3 4 5 6 
#
# 1 105.8214 50.5918 64.4349 4.7410 5.9145 10.4716
# 2 50.5918 98.2508 83.5199 -7.4105 -0.7339 22.0502
# 3 64.4349 83.5199 146.4107 11.0411 24.1591 23.9806
# 4 4.7410 -7.4105 11.0411 34.9008 16.2290 -6.6111
# 5 5.9145 -0.7339 24.1591 16.2290 25.6334 -2.3012
# 6 10.4716 22.0502 23.9806 -6.6111 -2.3012 28.7901
#
#
#
# Elastic Compliance Matrix: (Units=1/GPa)
#
#
# Indices 1 2 3 4 5 6 
#
# 1 0.013737 -0.003918 -0.004193 -0.002139 0.002130 0.001176
# 2 -0.003918 0.026329 -0.015026 0.004098 0.012843 -0.004257
# 3 -0.004193 -0.015026 0.021747 -0.001786 -0.019461 -0.007046
# 4 -0.002139 0.004098 -0.001786 0.043020 -0.024308 0.007063
# 5 0.002130 0.012843 -0.019461 -0.024308 0.073146 0.005863
# 6 0.001176 -0.004257 -0.007046 0.007063 0.005863 0.045526
#
#
# Mechanical properties :
#
#
# Convention : Reuss Voigt Hill
#
# Bulk Modulus (GPa) = 64.35874 83.06401 73.71138
# Shear Modulus (GPa) = 18.18453 27.99397 23.08925
#
# Velocity S-wave (km/s) = 3.05257 3.78745 3.43969
# Velocity P-wave (km/s) = 6.73819 7.85432 7.31757
#
# Compressibility (1/GPa) = 0.01553790
#
# Stress axis : x y z
#
# Youngs Moduli (GPa) = 72.79720 37.98061 45.98324
#
# Poissons Ratio (x) = 0.14882 0.19281
# Poissons Ratio (y) = 0.28525 0.69095
# Poissons Ratio (z) = 0.30525 0.57070
#
# Static dielectric constant tensor:
#      x y z
#    x 1.686120 0.021810 0.002810 
#    y 0.021810 1.755000 0.023330 
#    z 0.002810 0.023330 1.692520 
# 
# From -- ./inp_files/528647.got.cif
#   From: 2010.05.17/outbox.cif.g08.bks.cpg/sg2_265_cif.got.tgz:528647.got - 2010.06.03 11:33:40.
