data_PCOD9011921
_publ_section_title
;
Structure prediction by ZEFSAII (Michael W. Deem and Ramdas Pophale) SiO2 
 PCOD9011921
Probable space group: P -1
;
_chemical_formula_sum "Si O2"
_cell_formula_units_Z 16
_cell_length_a 14.585432
_cell_length_b 8.589582
_cell_length_c 10.819711
_cell_angle_alpha 95.703595
_cell_angle_beta 94.145385
_cell_angle_gamma 147.731312
_cell_volume 688.236863
_symmetry_space_group_name_H-M "P -1"
_symmetry_group_IT_number 2
_symmetry_cell_setting 'triclinic'
loop_
_space_group_symop_operation_xyz
x,y,z
-x,-y,-z
loop_
_atom_site_type_symbol
_atom_site_label
_atom_site_fract_x
_atom_site_fract_y
_atom_site_fract_z
Si Si1 0.624290 0.556457 0.728978
Si Si2 0.516113 0.196106 0.075055
Si Si3 0.144510 0.155675 0.428037
Si Si4 0.871350 0.252146 0.080953
Si Si5 0.507323 0.724515 0.649649
Si Si6 0.174439 0.169138 0.977457
Si Si7 0.294308 0.909804 0.537717
Si Si8 0.960495 0.587616 0.354055
O O1 0.756083 0.635663 0.668243
O O2 0.615918 0.722284 0.688628
O O3 0.691435 0.662159 0.881465
O O4 0.427326 0.197747 0.663106
O O5 0.509373 0.199632 0.222668
O O6 0.702368 0.550878 0.081232
O O7 0.500000 0.000000 0.000000
O O8 0.335955 0.018744 0.995805
O O9 0.319901 0.388260 0.549433
O O10 0.000000 0.000000 0.500000
O O11 0.029453 0.849821 0.329440
O O12 0.919063 0.412910 0.223756
O O13 0.000000 0.500000 0.000000
O O14 0.887930 0.091919 0.094662
O O15 0.601441 0.962403 0.569706
O O16 0.000000 0.000000 0.000000
O O17 0.207373 0.643527 0.586948
O O18 0.126352 0.770023 0.467908
#
# Coordination Sequence:
#
# PCOD9011921 Si02
#       8
#     2   2   2   2   2   2   2   2
#     4  11  21  47  69  96 136 180 237 279 355 424
#     4  12  28  47  71 105 144 187 241 296 361 430
#     4  11  24  41  68 104 135 184 225 296 346 418
#     4  12  25  45  76 106 145 193 236 293 364 428
#     4  11  22  45  73  92 140 182 236 277 364 420
#     4  12  28  48  72 104 141 191 243 301 359 429
#     4  10  21  40  67  99 127 178 223 288 336 417
#     4  11  22  38  68 103 138 168 240 278 347 417
#
# _framework density 23.247810000000001
#
# number of rings (size 3 to 8) (size 9 to 14) (size 15 to 20)
#    0.000    0.750    3.750    4.125    5.250    0.000 
#    2.250    1.250    0.000    0.000    0.000    0.000 
#    0.000    0.000    0.000    0.000    0.000    0.000 
#
# Total GULP energy -89371.471865 kJ/mol
# GULP energy per Si atom -5585.716992 kJ/mol
# Density = 2.319490 g / cm^3
# Si number density = 23.247810 Si / 1000 Ang^3
#
#
#
# Elastic Constant Matrix: (Units=GPa)
#
#
# Indices 1 2 3 4 5 6 
#
# 1 69.0895 40.2387 20.8243 0.3253 -20.3717 10.4157
# 2 40.2387 172.0016 40.4273 -3.6138 -16.3179 16.2827
# 3 20.8243 40.4273 127.1427 16.6776 -24.7648 4.6974
# 4 0.3253 -3.6138 16.6776 28.8598 0.5503 -10.1357
# 5 -20.3717 -16.3179 -24.7648 0.5503 36.5979 2.3813
# 6 10.4157 16.2827 4.6974 -10.1357 2.3813 28.9737
#
#
#
# Elastic Compliance Matrix: (Units=1/GPa)
#
#
# Indices 1 2 3 4 5 6 
#
# 1 0.020673 -0.003260 0.000631 -0.004035 0.011064 -0.008023
# 2 -0.003260 0.007265 -0.001781 0.001184 0.000347 -0.002236
# 3 0.000631 -0.001781 0.011043 -0.008352 0.007452 -0.004551
# 4 -0.004035 0.001184 -0.008352 0.046593 -0.009320 0.019205
# 5 0.011064 0.000347 0.007452 -0.009320 0.039593 -0.011895
# 6 -0.008023 -0.002236 -0.004551 0.019205 -0.011895 0.047088
#
#
# Mechanical properties :
#
#
# Convention : Reuss Voigt Hill
#
# Bulk Modulus (GPa) = 33.15557 63.46828 48.31192
# Shear Modulus (GPa) = 26.16022 36.66920 31.41471
#
# Velocity S-wave (km/s) = 3.35815 3.97586 3.67999
# Velocity P-wave (km/s) = 5.41563 6.95964 6.23561
#
# Compressibility (1/GPa) = 0.03016084
#
# Stress axis : x y z
#
# Youngs Moduli (GPa) = 48.37160 137.65121 90.55343
#
# Poissons Ratio (x) = 0.44881 -0.05717
# Poissons Ratio (y) = 0.15771 0.16128
# Poissons Ratio (z) = -0.03054 0.24516
#
# Static dielectric constant tensor:
#      x y z
#    x 1.988380 -0.049830 0.011340 
#    y -0.049830 2.101190 -0.092960 
#    z 0.011340 -0.092960 1.854500 
# 
# From -- ./inp_files/446950.got.cif
#   From: 2010.05.17/outbox.cif.g08.bks.cpg/sg2_224_cif.got.tgz:446950.got - 2010.06.03 11:33:40.
