data_PCOD9011655
_publ_section_title
;
Structure prediction by ZEFSAII (Michael W. Deem and Ramdas Pophale) SiO2 
 PCOD9011655
Probable space group: P -1
;
_chemical_formula_sum "Si O2"
_cell_formula_units_Z 16
_cell_length_a 20.312263
_cell_length_b 9.655150
_cell_length_c 12.268269
_cell_angle_alpha 143.651723
_cell_angle_beta 38.278692
_cell_angle_gamma 141.812931
_cell_volume 802.249099
_symmetry_space_group_name_H-M "P -1"
_symmetry_group_IT_number 2
_symmetry_cell_setting 'triclinic'
loop_
_space_group_symop_operation_xyz
x,y,z
-x,-y,-z
loop_
_atom_site_type_symbol
_atom_site_label
_atom_site_fract_x
_atom_site_fract_y
_atom_site_fract_z
Si Si1 0.595789 0.403857 0.858689
Si Si2 0.976723 0.269009 0.018688
Si Si3 0.428475 0.058595 0.034679
Si Si4 0.947004 0.766622 0.338793
Si Si5 0.694410 0.614357 0.493318
Si Si6 0.248445 0.488426 0.874194
Si Si7 0.363995 0.831662 0.555306
Si Si8 0.761893 0.793520 0.064838
O O1 0.652446 0.342120 0.639733
O O2 0.500000 0.500000 0.000000
O O3 0.515733 0.163417 0.885653
O O4 0.698752 0.600244 0.925217
O O5 0.974433 0.213152 0.856856
O O6 0.111656 0.390059 0.958461
O O7 0.929577 0.490744 0.237475
O O8 0.896852 0.995067 0.002220
O O9 0.387792 0.273680 0.269621
O O10 0.500000 0.000000 0.000000
O O11 0.315511 0.797168 0.989002
O O12 0.828356 0.775122 0.455367
O O13 0.000000 0.000000 0.500000
O O14 0.690140 0.601139 0.359975
O O15 0.671819 0.337303 0.396374
O O16 0.256718 0.366583 0.901736
O O17 0.500000 0.000000 0.500000
O O18 0.303192 0.019354 0.732195
#
# Coordination Sequence:
#
# PCOD9011655 Si02
#       8
#     2   2   2   2   2   2   2   2
#     4  12  25  42  66  98 131 173 219 275 327 387
#     4  10  23  41  67  97 130 173 219 267 327 394
#     4  12  25  44  64  96 134 174 221 268 335 393
#     4  10  21  40  66  99 127 165 218 274 326 378
#     4  11  24  42  65  96 125 174 216 270 327 384
#     4  11  26  44  66  95 137 174 219 269 329 400
#     4  12  24  42  66  96 129 167 224 275 324 381
#     4  12  25  43  66  98 136 176 214 270 332 394
#
# _framework density 19.943929000000001
#
# number of rings (size 3 to 8) (size 9 to 14) (size 15 to 20)
#    0.000    0.750    5.000    1.875    3.500    0.500 
#    0.000    0.000    0.000    6.000    0.000    0.000 
#    0.000    0.000    0.000    0.000    0.000    0.000 
#
# Total GULP energy -89380.335094 kJ/mol
# GULP energy per Si atom -5586.270943 kJ/mol
# Density = 1.989854 g / cm^3
# Si number density = 19.943929 Si / 1000 Ang^3
#
#
#
# Elastic Constant Matrix: (Units=GPa)
#
#
# Indices 1 2 3 4 5 6 
#
# 1 94.6560 30.8616 16.6391 10.4341 21.5648 2.6194
# 2 30.8616 97.9481 -3.4194 3.9015 13.3204 2.5478
# 3 16.6391 -3.4194 57.9939 11.6579 9.2912 7.9329
# 4 10.4341 3.9015 11.6579 26.4816 3.1333 2.5114
# 5 21.5648 13.3204 9.2912 3.1333 35.3793 2.2405
# 6 2.6194 2.5478 7.9329 2.5114 2.2405 40.6258
#
#
#
# Elastic Compliance Matrix: (Units=1/GPa)
#
#
# Indices 1 2 3 4 5 6 
#
# 1 0.013924 -0.003519 -0.002632 -0.003108 -0.006219 0.000372
# 2 -0.003519 0.011851 0.002477 -0.001042 -0.002826 -0.000780
# 3 -0.002632 0.002477 0.020773 -0.007695 -0.003890 -0.003352
# 4 -0.003108 -0.001042 -0.007695 0.042542 0.000597 -0.000895
# 5 -0.006219 -0.002826 -0.003890 0.000597 0.034125 -0.000581
# 6 0.000372 -0.000780 -0.003352 -0.000895 -0.000581 0.025382
#
#
# Mechanical properties :
#
#
# Convention : Reuss Voigt Hill
#
# Bulk Modulus (GPa) = 25.51050 37.64006 31.57528
# Shear Modulus (GPa) = 29.58389 34.26512 31.92451
#
# Velocity S-wave (km/s) = 3.85561 4.14946 4.00523
# Velocity P-wave (km/s) = 5.71313 6.47080 6.10373
#
# Compressibility (1/GPa) = 0.03919954
#
# Stress axis : x y z
#
# Youngs Moduli (GPa) = 71.81936 84.38224 48.13974
#
# Poissons Ratio (x) = 0.29695 0.12671
# Poissons Ratio (y) = 0.25274 -0.11925
# Poissons Ratio (z) = 0.18903 -0.20903
#
# Static dielectric constant tensor:
#      x y z
#    x 1.729730 0.018150 -0.019160 
#    y 0.018150 1.764240 -0.017290 
#    z -0.019160 -0.017290 1.719710 
# 
# From -- ./inp_files/272609.got.cif
#   From: 2010.05.17/outbox.cif.g08.bks.cpg/sg2_137_cif.got.tgz:272609.got - 2010.06.03 11:33:40.
