data_PCOD9011743
_publ_section_title
;
Structure prediction by ZEFSAII (Michael W. Deem and Ramdas Pophale) SiO2 
 PCOD9011743
Probable space group: P -1
;
_chemical_formula_sum "Si O2"
_cell_formula_units_Z 16
_cell_length_a 8.559911
_cell_length_b 14.682777
_cell_length_c 8.230950
_cell_angle_alpha 91.187700
_cell_angle_beta 47.942935
_cell_angle_gamma 76.966658
_cell_volume 726.890659
_symmetry_space_group_name_H-M "P -1"
_symmetry_group_IT_number 2
_symmetry_cell_setting 'triclinic'
loop_
_space_group_symop_operation_xyz
x,y,z
-x,-y,-z
loop_
_atom_site_type_symbol
_atom_site_label
_atom_site_fract_x
_atom_site_fract_y
_atom_site_fract_z
Si Si1 0.399766 0.229481 0.671440
Si Si2 0.233663 0.556130 0.193523
Si Si3 0.068592 0.742784 0.102508
Si Si4 0.679767 0.060328 0.666271
Si Si5 0.460497 0.936223 0.676373
Si Si6 0.156594 0.515647 0.611666
Si Si7 0.402155 0.643756 0.612420
Si Si8 0.929747 0.049813 0.821328
O O1 0.477507 0.152240 0.756889
O O2 0.462498 0.169191 0.456333
O O3 0.532053 0.305170 0.586656
O O4 0.138614 0.276478 0.841455
O O5 0.162323 0.663920 0.174814
O O6 0.158829 0.558431 0.432364
O O7 0.079712 0.502368 0.203670
O O8 0.500000 0.500000 0.000000
O O9 0.998366 0.855653 0.197594
O O10 0.264326 0.721797 0.836759
O O11 0.771104 0.075705 0.775551
O O12 0.608346 0.964478 0.711897
O O13 0.868646 0.040028 0.391787
O O14 0.500000 0.000000 0.500000
O O15 0.215802 0.965185 0.926205
O O16 0.246820 0.579799 0.674545
O O17 0.362642 0.416343 0.474269
#
# Coordination Sequence:
#
# PCOD9011743 Si02
#       8
#     2   2   2   2   2   2   2   2
#     4  11  23  41  62  96 134 171 223 274 332 399
#     4  11  23  43  68  97 130 173 216 272 343 400
#     4  12  24  40  66  96 130 176 222 275 333 401
#     4  10  24  42  64  96 132 176 220 279 336 397
#     4  10  21  40  67  90 127 174 221 270 328 398
#     4  10  24  43  68  94 132 172 220 274 337 404
#     4  11  23  43  64  98 131 173 219 281 328 404
#     4  11  23  42  67  96 132 175 225 278 336 395
#
# _framework density 22.011562999999999
#
# number of rings (size 3 to 8) (size 9 to 14) (size 15 to 20)
#    0.000    1.250    5.000    0.375    1.750    5.500 
#    0.000    0.000    0.000    0.000    0.000    0.000 
#    0.000    0.000    0.000    0.000    0.000    0.000 
#
# Total GULP energy -89271.099594 kJ/mol
# GULP energy per Si atom -5579.443725 kJ/mol
# Density = 2.196146 g / cm^3
# Si number density = 22.011563 Si / 1000 Ang^3
#
#
#
# Elastic Constant Matrix: (Units=GPa)
#
#
# Indices 1 2 3 4 5 6 
#
# 1 92.0003 10.7351 19.1670 -3.4157 -27.6812 -4.4244
# 2 10.7351 63.1392 27.5414 -10.7208 -16.9093 -10.6732
# 3 19.1670 27.5414 101.7195 -11.6161 -22.9778 -4.7113
# 4 -3.4157 -10.7208 -11.6161 30.9955 -1.2361 -9.3181
# 5 -27.6812 -16.9093 -22.9778 -1.2361 30.8229 -3.6069
# 6 -4.4244 -10.6732 -4.7113 -9.3181 -3.6069 33.8399
#
#
#
# Elastic Compliance Matrix: (Units=1/GPa)
#
#
# Indices 1 2 3 4 5 6 
#
# 1 0.016527 0.004251 0.001207 0.006793 0.019235 0.007590
# 2 0.004251 0.025557 -0.001110 0.013977 0.019252 0.014363
# 3 0.001207 -0.001110 0.013438 0.006654 0.011311 0.004716
# 4 0.006793 0.013977 0.006654 0.047840 0.023207 0.021870
# 5 0.019235 0.019252 0.011311 0.023207 0.072483 0.024278
# 6 0.007590 0.014363 0.004716 0.021870 0.024278 0.044340
#
#
# Mechanical properties :
#
#
# Convention : Reuss Voigt Hill
#
# Bulk Modulus (GPa) = 15.57218 41.30509 28.43863
# Shear Modulus (GPa) = 21.46912 32.42602 26.94757
#
# Velocity S-wave (km/s) = 3.12646 3.84231 3.50272
# Velocity P-wave (km/s) = 4.48585 6.20406 5.41356
#
# Compressibility (1/GPa) = 0.06421709
#
# Stress axis : x y z
#
# Youngs Moduli (GPa) = 60.50818 39.12883 74.41835
#
# Poissons Ratio (x) = -0.16635 -0.08984
# Poissons Ratio (y) = -0.25725 0.08264
# Poissons Ratio (z) = -0.07304 0.04345
#
# Static dielectric constant tensor:
#      x y z
#    x 1.850110 0.025490 -0.022920 
#    y 0.025490 1.830380 -0.028280 
#    z -0.022920 -0.028280 1.827370 
# 
# From -- ./inp_files/207256.got.cif
#   From: 2010.05.17/outbox.cif.g08.bks.cpg/sg2_104_cif.got.tgz:207256.got - 2010.06.03 11:33:40.
