data_PCOD9011727
_publ_section_title
;
Structure prediction by ZEFSAII (Michael W. Deem and Ramdas Pophale) SiO2 
 PCOD9011727
Probable space group: P -1
;
_chemical_formula_sum "Si O2"
_cell_formula_units_Z 12
_cell_length_a 9.125006
_cell_length_b 12.097326
_cell_length_c 17.650098
_cell_angle_alpha 31.169451
_cell_angle_beta 36.955336
_cell_angle_gamma 37.553389
_cell_volume 567.808430
_symmetry_space_group_name_H-M "P -1"
_symmetry_group_IT_number 2
_symmetry_cell_setting 'triclinic'
loop_
_space_group_symop_operation_xyz
x,y,z
-x,-y,-z
loop_
_atom_site_type_symbol
_atom_site_label
_atom_site_fract_x
_atom_site_fract_y
_atom_site_fract_z
Si Si1 0.634866 0.944325 0.820678
Si Si2 0.166800 0.199515 0.764814
Si Si3 0.401337 0.568235 0.391806
Si Si4 0.995260 0.251205 0.339462
Si Si5 0.675631 0.302959 0.824341
Si Si6 0.700215 0.501817 0.851730
O O1 0.420919 0.008780 0.803245
O O2 0.673570 0.178787 0.690527
O O3 0.887491 0.759705 0.787263
O O4 0.504795 0.846769 0.998104
O O5 0.248588 0.412928 0.580076
O O6 0.982285 0.163566 0.796210
O O7 0.963145 0.277439 0.873150
O O8 0.356810 0.594827 0.304933
O O9 0.706971 0.432514 0.359021
O O10 0.187934 0.302388 0.289488
O O11 0.000000 0.000000 0.500000
O O12 0.603057 0.489790 0.813409
O O13 0.500000 0.500000 0.000000
#
# Coordination Sequence:
#
# PCOD9011727 Si02
#       6
#     2   2   2   2   2   2
#     4  12  22  41  67  95 123 173 214 252 314 382
#     4  10  21  40  67  87 126 170 209 254 309 372
#     4  12  23  43  63  98 134 159 209 270 316 372
#     4  12  23  40  67  93 124 168 217 255 308 380
#     4  10  24  39  67  93 130 170 202 266 326 360
#     4  10  21  42  63  92 124 164 217 252 305 382
#
# _framework density 21.133887000000001
#
# number of rings (size 3 to 8) (size 9 to 14) (size 15 to 20)
#    1.000    0.000    5.000    3.000    0.000    0.667 
#    0.000    2.500    0.000    0.000    0.000    0.000 
#    0.000    0.000    0.000    0.000    0.000    0.000 
#
# Total GULP energy -66960.288317 kJ/mol
# GULP energy per Si atom -5580.024026 kJ/mol
# Density = 2.108579 g / cm^3
# Si number density = 21.133887 Si / 1000 Ang^3
#
#
#
# Elastic Constant Matrix: (Units=GPa)
#
#
# Indices 1 2 3 4 5 6 
#
# 1 72.6879 4.1552 34.9487 7.1826 12.1497 19.6575
# 2 4.1552 62.4301 13.1310 15.5200 2.0697 14.4678
# 3 34.9487 13.1310 105.1504 14.1376 -3.0170 -0.7946
# 4 7.1826 15.5200 14.1376 33.0495 5.9210 -6.5879
# 5 12.1497 2.0697 -3.0170 5.9210 36.4808 2.4390
# 6 19.6575 14.4678 -0.7946 -6.5879 2.4390 21.2999
#
#
#
# Elastic Compliance Matrix: (Units=1/GPa)
#
#
# Indices 1 2 3 4 5 6 
#
# 1 0.034293 0.015994 -0.011501 -0.018294 -0.007116 -0.047785
# 2 0.015994 0.033030 -0.006422 -0.025122 -0.000637 -0.045133
# 3 -0.011501 -0.006422 0.014116 0.001872 0.004014 0.015622
# 4 -0.018294 -0.025122 0.001872 0.056500 -0.004978 0.052062
# 5 -0.007116 -0.000637 0.004014 -0.004978 0.030818 0.002081
# 6 -0.047785 -0.045133 0.015622 0.052062 0.002081 0.138152
#
#
# Mechanical properties :
#
#
# Convention : Reuss Voigt Hill
#
# Bulk Modulus (GPa) = 12.88976 38.30424 25.59700
# Shear Modulus (GPa) = 14.85325 30.70161 22.77743
#
# Velocity S-wave (km/s) = 2.65395 3.81559 3.28650
# Velocity P-wave (km/s) = 3.93746 6.12989 5.15166
#
# Compressibility (1/GPa) = 0.07758098
#
# Stress axis : x y z
#
# Youngs Moduli (GPa) = 29.16078 30.27568 70.84040
#
# Poissons Ratio (x) = -0.48424 0.81471
# Poissons Ratio (y) = -0.46640 0.45496
# Poissons Ratio (z) = 0.33537 0.19444
#
# Static dielectric constant tensor:
#      x y z
#    x 1.767070 0.010220 -0.042200 
#    y 0.010220 1.808970 0.015900 
#    z -0.042200 0.015900 1.783780 
# 
# From -- ./inp_files/173730.got.cif
#   From: 2010.05.17/outbox.cif.g08.bks.cpg/sg2_87_cif.got.tgz:173730.got - 2010.06.03 11:33:40.
