data_PCOD9011702
_publ_section_title
;
Structure prediction by ZEFSAII (Michael W. Deem and Ramdas Pophale) SiO2 
 PCOD9011702
Probable space group: P -1
;
_chemical_formula_sum "Si O2"
_cell_formula_units_Z 15
_cell_length_a 8.148057
_cell_length_b 17.059790
_cell_length_c 11.144789
_cell_angle_alpha 32.738097
_cell_angle_beta 128.501391
_cell_angle_gamma 126.663956
_cell_volume 645.693768
_symmetry_space_group_name_H-M "P -1"
_symmetry_group_IT_number 2
_symmetry_cell_setting 'triclinic'
loop_
_space_group_symop_operation_xyz
x,y,z
-x,-y,-z
loop_
_atom_site_type_symbol
_atom_site_label
_atom_site_fract_x
_atom_site_fract_y
_atom_site_fract_z
Si Si1 0.500000 0.500000 0.500000
Si Si2 0.811625 0.387874 0.211364
Si Si3 0.937219 0.448459 0.670422
Si Si4 0.481235 0.097783 0.483259
Si Si5 0.922812 0.857964 0.866572
Si Si6 0.235942 0.089907 0.019645
Si Si7 0.674491 0.894432 0.217698
Si Si8 0.255174 0.390947 0.293975
O O1 0.694827 0.458633 0.565558
O O2 0.353775 0.494506 0.314396
O O3 0.628100 0.252335 0.326378
O O4 0.916934 0.443461 0.312277
O O5 0.002705 0.345642 0.270202
O O6 0.725661 0.518360 0.935710
O O7 0.000000 0.500000 0.500000
O O8 0.972586 0.283653 0.924341
O O9 0.235863 0.115193 0.346716
O O10 0.500000 0.000000 0.500000
O O11 0.591032 0.015759 0.742684
O O12 0.792998 0.830358 0.970650
O O13 0.103211 0.000152 0.787167
O O14 0.308811 0.176720 0.818071
O O15 0.000000 0.000000 0.000000
O O16 0.643122 0.756649 0.469133
O O17 0.500000 0.000000 0.000000
#
# Coordination Sequence:
#
# PCOD9011702 Si02
#       8
#     1   2   2   2   2   2   2   2
#     4  10  24  44  68  98 146 180 238 302 362 438
#     4  10  23  42  67 102 141 185 232 294 365 432
#     4  11  26  43  70 103 142 190 243 303 365 443
#     4  10  21  40  67 101 138 180 233 292 359 425
#     4  10  23  42  63 102 132 180 243 289 360 435
#     4   9  20  37  67  94 133 176 228 291 342 417
#     4  11  23  41  68  96 135 183 237 293 362 428
#     4  10  22  42  68  98 141 184 229 292 370 429
#
# _framework density 23.230826
#
# number of rings (size 3 to 8) (size 9 to 14) (size 15 to 20)
#    0.000    1.867    0.000    3.200    9.333    2.667 
#    0.000    5.333    0.000    0.000    0.000    0.000 
#    0.000    0.000    0.000    0.000    0.000    0.000 
#
# Total GULP energy -83691.124404 kJ/mol
# GULP energy per Si atom -5579.408294 kJ/mol
# Density = 2.317795 g / cm^3
# Si number density = 23.230826 Si / 1000 Ang^3
#
#
#
# Elastic Constant Matrix: (Units=GPa)
#
#
# Indices 1 2 3 4 5 6 
#
# 1 79.1944 20.3781 38.2903 9.6032 19.6068 4.0028
# 2 20.3781 83.9477 25.6526 10.8505 -3.2230 18.7544
# 3 38.2903 25.6526 131.3895 15.3499 13.1644 14.0748
# 4 9.6032 10.8505 15.3499 36.7161 2.3713 10.9944
# 5 19.6068 -3.2230 13.1644 2.3713 29.4407 4.0000
# 6 4.0028 18.7544 14.0748 10.9944 4.0000 24.4651
#
#
#
# Elastic Compliance Matrix: (Units=1/GPa)
#
#
# Indices 1 2 3 4 5 6 
#
# 1 0.018605 -0.004836 -0.003582 -0.002969 -0.011894 0.006003
# 2 -0.004836 0.016489 -0.001226 0.000148 0.007246 -0.012395
# 3 -0.003582 -0.001226 0.009560 -0.001715 -0.001483 -0.002961
# 4 -0.002969 0.000148 -0.001715 0.032640 0.001984 -0.013633
# 5 -0.011894 0.007246 -0.001483 0.001984 0.044672 -0.010950
# 6 0.006003 -0.012395 -0.002961 -0.013633 -0.010950 0.059015
#
#
# Mechanical properties :
#
#
# Convention : Reuss Voigt Hill
#
# Bulk Modulus (GPa) = 39.42115 51.46375 45.44245
# Shear Modulus (GPa) = 23.95514 32.13841 28.04678
#
# Velocity S-wave (km/s) = 3.21468 3.72349 3.47840
# Velocity P-wave (km/s) = 5.54843 6.37865 5.97797
#
# Compressibility (1/GPa) = 0.02536709
#
# Stress axis : x y z
#
# Youngs Moduli (GPa) = 53.74946 60.64794 104.59826
#
# Poissons Ratio (x) = 0.29327 0.37470
# Poissons Ratio (y) = 0.25991 0.12819
# Poissons Ratio (z) = 0.19255 0.07433
#
# Static dielectric constant tensor:
#      x y z
#    x 1.841910 -0.061180 0.028980 
#    y -0.061180 1.877690 -0.021040 
#    z 0.028980 -0.021040 1.930580 
# 
# From -- ./inp_files/263514.got.cif
#   From: 2010.05.17/outbox.cif.g08.bks.cpg/sg2_132_cif.got.tgz:263514.got - 2010.06.03 11:33:40.
