data_PCOD9011888
_publ_section_title
;
Structure prediction by ZEFSAII (Michael W. Deem and Ramdas Pophale) SiO2 
 PCOD9011888
Probable space group: P -1
;
_chemical_formula_sum "Si O2"
_cell_formula_units_Z 16
_cell_length_a 11.229407
_cell_length_b 8.915179
_cell_length_c 15.548257
_cell_angle_alpha 72.637924
_cell_angle_beta 116.632179
_cell_angle_gamma 151.047531
_cell_volume 657.539815
_symmetry_space_group_name_H-M "P -1"
_symmetry_group_IT_number 2
_symmetry_cell_setting 'triclinic'
loop_
_space_group_symop_operation_xyz
x,y,z
-x,-y,-z
loop_
_atom_site_type_symbol
_atom_site_label
_atom_site_fract_x
_atom_site_fract_y
_atom_site_fract_z
Si Si1 0.509955 0.501335 0.880387
Si Si2 0.562332 0.618213 0.682597
Si Si3 0.933784 0.689395 0.230624
Si Si4 0.113770 0.848163 0.065020
Si Si5 0.923115 0.745191 0.491644
Si Si6 0.443971 0.786130 0.071105
Si Si7 0.465401 0.978445 0.773963
Si Si8 0.533086 0.289776 0.601769
O O1 0.593786 0.575780 0.794325
O O2 0.255934 0.353245 0.824154
O O3 0.458343 0.272578 0.932941
O O4 0.743146 0.835763 0.947262
O O5 0.284889 0.432621 0.621896
O O6 0.576286 0.497720 0.634418
O O7 0.798029 0.986541 0.689305
O O8 0.785072 0.384659 0.271216
O O9 0.987734 0.711583 0.143658
O O10 0.334146 0.937452 0.128477
O O11 0.878623 0.571535 0.969059
O O12 0.733095 0.488093 0.551696
O O13 0.000000 0.000000 0.500000
O O14 0.210309 0.956405 0.534301
O O15 0.592411 0.955754 0.181097
O O16 0.500000 0.000000 0.000000
O O17 0.587517 0.198695 0.697191
#
# Coordination Sequence:
#
# PCOD9011888 Si02
#       8
#     2   2   2   2   2   2   2   2
#     4  10  23  41  66  94 131 179 224 275 344 414
#     4  10  21  40  67  97 131 180 224 277 344 414
#     4  10  23  42  66  92 137 182 224 274 341 425
#     4  10  23  44  62  90 135 180 224 277 339 416
#     4  10  23  41  69 107 140 175 230 291 339 419
#     4  12  23  42  67  97 131 173 231 289 343 402
#     4  11  24  44  65  98 137 180 222 290 351 405
#     4  11  24  41  73 105 140 176 232 292 348 406
#
# _framework density 24.333127999999999
#
# number of rings (size 3 to 8) (size 9 to 14) (size 15 to 20)
#    0.000    1.500    2.500    2.250    7.000    1.500 
#    4.500    1.250    0.000    0.000    0.000    0.000 
#    0.000    0.000    0.000    0.000    0.000    0.000 
#
# Total GULP energy -89517.134526 kJ/mol
# GULP energy per Si atom -5594.820908 kJ/mol
# Density = 2.427774 g / cm^3
# Si number density = 24.333128 Si / 1000 Ang^3
#
#
#
# Elastic Constant Matrix: (Units=GPa)
#
#
# Indices 1 2 3 4 5 6 
#
# 1 64.4102 45.0912 16.3154 -6.0772 -0.2916 -5.1735
# 2 45.0912 153.9017 54.4026 13.4661 4.1286 -19.1016
# 3 16.3154 54.4026 83.8493 0.7996 0.3822 -7.9781
# 4 -6.0772 13.4661 0.7996 54.9310 10.3354 3.2333
# 5 -0.2916 4.1286 0.3822 10.3354 23.8941 -5.0155
# 6 -5.1735 -19.1016 -7.9781 3.2333 -5.0155 41.0069
#
#
#
# Elastic Compliance Matrix: (Units=1/GPa)
#
#
# Indices 1 2 3 4 5 6 
#
# 1 0.020297 -0.006412 0.000101 0.003961 -0.000523 -0.000783
# 2 -0.006412 0.011105 -0.005581 -0.003644 0.000428 0.003618
# 3 0.000101 -0.005581 0.015553 0.001066 0.000339 0.000397
# 4 0.003961 -0.003644 0.001066 0.021526 -0.009457 -0.003844
# 5 -0.000523 0.000428 0.000339 -0.009457 0.047268 0.006726
# 6 -0.000783 0.003618 0.000397 -0.003844 0.006726 0.027176
#
#
# Mechanical properties :
#
#
# Convention : Reuss Voigt Hill
#
# Bulk Modulus (GPa) = 43.15473 59.30882 51.23178
# Shear Modulus (GPa) = 28.66414 36.38989 32.52701
#
# Velocity S-wave (km/s) = 3.43591 3.87135 3.66011
# Velocity P-wave (km/s) = 5.78913 6.66406 6.24195
#
# Compressibility (1/GPa) = 0.02317243
#
# Stress axis : x y z
#
# Youngs Moduli (GPa) = 49.26761 90.04563 64.29492
#
# Poissons Ratio (x) = 0.57739 -0.00650
# Poissons Ratio (y) = 0.31591 0.35881
# Poissons Ratio (z) = -0.00498 0.50251
#
# Static dielectric constant tensor:
#      x y z
#    x 1.964890 0.045470 -0.022740 
#    y 0.045470 1.951270 0.007170 
#    z -0.022740 0.007170 1.942610 
# 
# From -- ./inp_files/565883.got.cif
#   From: 2010.05.17/outbox.cif.g08.bks.cpg/sg2_283_cif.got.tgz:565883.got - 2010.06.03 11:33:40.
