data_PCOD9011287
_publ_section_title
;
Structure prediction by ZEFSAII (Michael W. Deem and Ramdas Pophale) SiO2 
 PCOD9011287
Probable space group: P -1
;
_chemical_formula_sum "Si O2"
_cell_formula_units_Z 16
_cell_length_a 9.689988
_cell_length_b 14.108321
_cell_length_c 11.169596
_cell_angle_alpha 70.760717
_cell_angle_beta 61.721178
_cell_angle_gamma 120.730186
_cell_volume 757.836061
_symmetry_space_group_name_H-M "P -1"
_symmetry_group_IT_number 2
_symmetry_cell_setting 'triclinic'
loop_
_space_group_symop_operation_xyz
x,y,z
-x,-y,-z
loop_
_atom_site_type_symbol
_atom_site_label
_atom_site_fract_x
_atom_site_fract_y
_atom_site_fract_z
Si Si1 0.933441 0.156669 0.649487
Si Si2 0.123841 0.964712 0.903712
Si Si3 0.236033 0.312632 0.228695
Si Si4 0.587127 0.824283 0.789869
Si Si5 0.286759 0.978768 0.573518
Si Si6 0.811918 0.654386 0.296484
Si Si7 0.078352 0.573041 0.252882
Si Si8 0.319817 0.765534 0.315763
O O1 0.740777 0.151855 0.726922
O O2 0.155409 0.298217 0.402470
O O3 0.064947 0.218687 0.697620
O O4 0.766134 0.977404 0.747105
O O5 0.212993 0.004183 0.712077
O O6 0.388265 0.086982 0.819507
O O7 0.925754 0.769470 0.086355
O O8 0.000000 0.000000 0.000000
O O9 0.289211 0.221427 0.248130
O O10 0.985169 0.204845 0.292635
O O11 0.500000 0.500000 0.000000
O O12 0.607267 0.893823 0.627736
O O13 0.288054 0.665212 0.023992
O O14 0.500000 0.000000 0.500000
O O15 0.500000 0.500000 0.500000
O O16 0.921338 0.597098 0.288390
O O17 0.250716 0.668871 0.264284
O O18 0.870649 0.378154 0.444119
#
# Coordination Sequence:
#
# PCOD9011287 Si02
#       8
#     2   2   2   2   2   2   2   2
#     4  10  21  40  67  91 128 170 219 265 324 396
#     4  12  26  39  65  97 135 172 218 279 347 394
#     4  11  25  43  70  95 130 178 229 281 330 408
#     4  11  23  43  71  94 131 177 229 272 331 407
#     4  11  25  45  68  98 139 179 229 283 342 411
#     4  11  24  40  63  96 135 170 215 274 331 399
#     4  10  21  40  66  94 129 174 218 268 323 398
#     4  10  21  40  65  96 132 168 217 267 329 400
#
# _framework density 21.112746000000001
#
# number of rings (size 3 to 8) (size 9 to 14) (size 15 to 20)
#    0.000    1.250    0.000    6.750    7.000    2.000 
#    0.000    1.250    0.000    0.000    0.000    0.000 
#    0.000    0.000    0.000    0.000    0.000    0.000 
#
# Total GULP energy -89477.462045 kJ/mol
# GULP energy per Si atom -5592.341378 kJ/mol
# Density = 2.106469 g / cm^3
# Si number density = 21.112746 Si / 1000 Ang^3
#
#
#
# Elastic Constant Matrix: (Units=GPa)
#
#
# Indices 1 2 3 4 5 6 
#
# 1 96.1979 35.2907 47.5577 -6.5507 -5.8209 6.5230
# 2 35.2907 50.5877 24.5075 12.1088 0.1256 1.1417
# 3 47.5577 24.5075 151.0940 -6.1389 -6.0908 19.0942
# 4 -6.5507 12.1088 -6.1389 35.4754 -2.9974 4.4603
# 5 -5.8209 0.1256 -6.0908 -2.9974 28.5784 -3.8251
# 6 6.5230 1.1417 19.0942 4.4603 -3.8251 20.2157
#
#
#
# Elastic Compliance Matrix: (Units=1/GPa)
#
#
# Indices 1 2 3 4 5 6 
#
# 1 0.017220 -0.012610 -0.002468 0.007794 0.003373 -0.003595
# 2 -0.012610 0.033784 -0.003328 -0.015784 -0.004007 0.008029
# 3 -0.002468 -0.003328 0.009144 0.003361 0.000708 -0.008260
# 4 0.007794 -0.015784 0.003361 0.037525 0.004677 -0.012192
# 5 0.003373 -0.004007 0.000708 0.004677 0.036930 0.004425
# 6 -0.003595 0.008029 -0.008260 -0.012192 0.004425 0.061502
#
#
# Mechanical properties :
#
#
# Convention : Reuss Voigt Hill
#
# Bulk Modulus (GPa) = 42.85293 56.95459 49.90376
# Shear Modulus (GPa) = 20.77319 29.55548 25.16433
#
# Velocity S-wave (km/s) = 3.14015 3.74557 3.45614
# Velocity P-wave (km/s) = 5.78694 6.76318 6.29402
#
# Compressibility (1/GPa) = 0.02333563
#
# Stress axis : x y z
#
# Youngs Moduli (GPa) = 58.07221 29.59998 109.36271
#
# Poissons Ratio (x) = 0.37326 0.26989
# Poissons Ratio (y) = 0.73230 0.36396
# Poissons Ratio (z) = 0.14331 0.09851
#
# Static dielectric constant tensor:
#      x y z
#    x 1.746390 0.013540 0.041870 
#    y 0.013540 1.757840 0.016580 
#    z 0.041870 0.016580 1.766350 
# 
# From -- ./inp_files/398919.got.cif
#   From: 2010.05.17/outbox.cif.g08.bks.cpg/sg2_200_cif.got.tgz:398919.got - 2010.06.03 11:33:40.
