data_PCOD9011012
_publ_section_title
;
Structure prediction by ZEFSAII (Michael W. Deem and Ramdas Pophale) SiO2 
 PCOD9011012
Probable space group: P -1
;
_chemical_formula_sum "Si O2"
_cell_formula_units_Z 16
_cell_length_a 14.361664
_cell_length_b 7.849410
_cell_length_c 6.892621
_cell_angle_alpha 102.233215
_cell_angle_beta 85.101321
_cell_angle_gamma 63.527557
_cell_volume 665.225981
_symmetry_space_group_name_H-M "P -1"
_symmetry_group_IT_number 2
_symmetry_cell_setting 'triclinic'
loop_
_space_group_symop_operation_xyz
x,y,z
-x,-y,-z
loop_
_atom_site_type_symbol
_atom_site_label
_atom_site_fract_x
_atom_site_fract_y
_atom_site_fract_z
Si Si1 0.887768 0.431559 0.500630
Si Si2 0.071202 0.601433 0.051990
Si Si3 0.256989 0.620404 0.887084
Si Si4 0.457978 0.623332 0.840628
Si Si5 0.709729 0.920172 0.956377
Si Si6 0.138771 0.035084 0.798395
Si Si7 0.116523 0.162241 0.414057
Si Si8 0.682961 0.543025 0.738171
O O1 0.898546 0.436414 0.736419
O O2 0.890646 0.627002 0.473032
O O3 0.769169 0.458933 0.528907
O O4 0.996192 0.236083 0.375626
O O5 0.984852 0.830420 0.102293
O O6 0.172102 0.538923 0.881447
O O7 0.000000 0.500000 0.000000
O O8 0.373943 0.553179 0.764949
O O9 0.187724 0.835991 0.862462
O O10 0.279308 0.601504 0.113896
O O11 0.566503 0.581606 0.706537
O O12 0.500000 0.500000 0.000000
O O13 0.388930 0.860598 0.946909
O O14 0.788761 0.921229 0.775496
O O15 0.677008 0.751567 0.865199
O O16 0.785356 0.872248 0.120439
O O17 0.143143 0.023280 0.561908
#
# Coordination Sequence:
#
# PCOD9011012 Si02
#       8
#     2   2   2   2   2   2   2   2
#     4   8  16  29  49  77 111 138 174 225 262 312
#     4  10  17  29  52  77 104 141 179 217 266 322
#     4   9  18  30  48  76 105 136 176 217 267 321
#     4   9  18  32  54  78 105 143 180 222 273 312
#     4  10  19  33  57  83 107 139 187 223 257 324
#     4  10  19  31  52  78 112 144 168 218 276 320
#     4   9  17  31  51  80 113 142 174 217 271 320
#     4   9  16  31  55  78 103 144 187 221 260 311
#
# _framework density 24.051977999999998
#
# number of rings (size 3 to 8) (size 9 to 14) (size 15 to 20)
#    0.000    2.750    0.000    3.000    0.000    0.000 
#    0.000    0.000    0.000  122.250    0.000    0.000 
#    0.000    0.000    0.000    0.000    0.000    0.000 
#
# Total GULP energy -89261.023928 kJ/mol
# GULP energy per Si atom -5578.813995 kJ/mol
# Density = 2.399723 g / cm^3
# Si number density = 24.051978 Si / 1000 Ang^3
#
#
#
# Elastic Constant Matrix: (Units=GPa)
#
#
# Indices 1 2 3 4 5 6 
#
# 1 180.2995 33.2505 29.5210 7.4004 -43.6199 -8.6840
# 2 33.2505 125.9576 33.2438 -24.8472 -8.2743 -6.3656
# 3 29.5210 33.2438 84.8145 3.4445 -29.0699 -4.5324
# 4 7.4004 -24.8472 3.4445 12.5247 2.6919 -2.1155
# 5 -43.6199 -8.2743 -29.0699 2.6919 47.9446 4.9474
# 6 -8.6840 -6.3656 -4.5324 -2.1155 4.9474 38.0011
#
#
#
# Elastic Compliance Matrix: (Units=1/GPa)
#
#
# Indices 1 2 3 4 5 6 
#
# 1 0.010746 -0.009430 0.005681 -0.029827 0.013461 -0.001859
# 2 -0.009430 0.027736 -0.016369 0.070201 -0.018365 0.006838
# 3 0.005681 -0.016369 0.025024 -0.047781 0.020591 -0.003800
# 4 -0.029827 0.070201 -0.047781 0.266767 -0.061247 0.022069
# 5 0.013461 -0.018365 0.020591 -0.061247 0.046583 -0.007019
# 6 -0.001859 0.006838 -0.003800 0.022069 -0.007019 0.028725
#
#
# Mechanical properties :
#
#
# Convention : Reuss Voigt Hill
#
# Bulk Modulus (GPa) = 42.97175 64.78912 53.88043
# Shear Modulus (GPa) = 11.02355 39.36450 25.19403
#
# Velocity S-wave (km/s) = 2.14317 4.04993 3.23999
# Velocity P-wave (km/s) = 4.90196 6.99034 6.03714
#
# Compressibility (1/GPa) = 0.02327110
#
# Stress axis : x y z
#
# Youngs Moduli (GPa) = 93.05396 36.05391 39.96138
#
# Poissons Ratio (x) = 0.33998 -0.22703
# Poissons Ratio (y) = 0.87749 0.65414
# Poissons Ratio (z) = -0.52867 0.59018
#
# Static dielectric constant tensor:
#      x y z
#    x 2.059270 0.027980 0.042220 
#    y 0.027980 1.945250 0.048730 
#    z 0.042220 0.048730 1.984570 
# 
# From -- ./inp_files/211159.got.cif
#   From: 2010.05.17/outbox.cif.g08.bks.cpg/sg2_106_cif.got.tgz:211159.got - 2010.06.03 11:33:40.
