data_PCOD9011734
_publ_section_title
;
Structure prediction by ZEFSAII (Michael W. Deem and Ramdas Pophale) SiO2 
 PCOD9011734
Probable space group: P -1
;
_chemical_formula_sum "Si O2"
_cell_formula_units_Z 14
_cell_length_a 8.479999
_cell_length_b 11.373397
_cell_length_c 9.509381
_cell_angle_alpha 43.575311
_cell_angle_beta 72.893285
_cell_angle_gamma 78.593797
_cell_volume 604.062153
_symmetry_space_group_name_H-M "P -1"
_symmetry_group_IT_number 2
_symmetry_cell_setting 'triclinic'
loop_
_space_group_symop_operation_xyz
x,y,z
-x,-y,-z
loop_
_atom_site_type_symbol
_atom_site_label
_atom_site_fract_x
_atom_site_fract_y
_atom_site_fract_z
Si Si1 0.745657 0.068607 0.904702
Si Si2 0.589905 0.243836 0.222594
Si Si3 0.420764 0.157169 0.071343
Si Si4 0.132664 0.354566 0.060933
Si Si5 0.106564 0.194601 0.694704
Si Si6 0.285723 0.415117 0.259012
Si Si7 0.904179 0.064721 0.334059
O O1 0.584304 0.157294 0.932372
O O2 0.908949 0.188529 0.772853
O O3 0.693447 0.996840 0.827286
O O4 0.794330 0.897719 0.127304
O O5 0.462645 0.327058 0.289757
O O6 0.732127 0.146260 0.346059
O O7 0.490404 0.131091 0.232437
O O8 0.675489 0.394823 0.973438
O O9 0.311478 0.329593 0.960057
O O10 0.187522 0.324233 0.233956
O O11 0.022042 0.220428 0.119709
O O12 0.000000 0.500000 0.000000
O O13 0.185762 0.371797 0.463854
O O14 0.124216 0.063074 0.674313
O O15 0.000000 0.000000 0.500000
#
# Coordination Sequence:
#
# PCOD9011734 Si02
#       7
#     2   2   2   2   2   2   2
#     4  10  22  40  66  92 131 172 218 266 303 378
#     4  10  22  41  63  93 132 164 206 270 333 379
#     4  10  21  40  67  89 127 175 212 263 325 371
#     4  11  21  37  65  95 126 163 208 269 333 378
#     4  11  22  40  63  96 124 170 222 261 313 379
#     4  10  22  40  64  93 130 167 206 270 328 385
#     4  12  22  36  63  99 127 160 214 271 325 380
#
# _framework density 23.176423
#
# number of rings (size 3 to 8) (size 9 to 14) (size 15 to 20)
#    0.000    1.429    5.714    0.000    0.000    1.714 
#    0.000    1.429    0.000    0.000    0.000    0.000 
#    0.000    0.000    0.000    0.000    0.000    0.000 
#
# Total GULP energy -78016.830026 kJ/mol
# GULP energy per Si atom -5572.630716 kJ/mol
# Density = 2.312367 g / cm^3
# Si number density = 23.176423 Si / 1000 Ang^3
#
#
#
# Elastic Constant Matrix: (Units=GPa)
#
#
# Indices 1 2 3 4 5 6 
#
# 1 157.9853 45.3596 46.4623 -4.8507 11.4647 -37.0523
# 2 45.3596 75.8058 15.2787 2.0095 3.4709 -30.2297
# 3 46.4623 15.2787 78.7266 4.1658 -17.3067 -9.2404
# 4 -4.8507 2.0095 4.1658 14.1115 3.4891 -0.0983
# 5 11.4647 3.4709 -17.3067 3.4891 43.8122 3.7249
# 6 -37.0523 -30.2297 -9.2404 -0.0983 3.7249 66.8387
#
#
#
# Elastic Compliance Matrix: (Units=1/GPa)
#
#
# Indices 1 2 3 4 5 6 
#
# 1 0.011128 -0.003541 -0.007272 0.008107 -0.006484 0.003935
# 2 -0.003541 0.018050 -0.000752 -0.003260 -0.001064 0.006151
# 3 -0.007272 -0.000752 0.019844 -0.010953 0.010865 -0.002250
# 4 0.008107 -0.003260 -0.010953 0.080530 -0.012802 0.002337
# 5 -0.006484 -0.001064 0.010865 -0.012802 0.030281 -0.004280
# 6 0.003935 0.006151 -0.002250 0.002337 -0.004280 0.019856
#
#
# Mechanical properties :
#
#
# Convention : Reuss Voigt Hill
#
# Bulk Modulus (GPa) = 38.62582 58.52433 48.57508
# Shear Modulus (GPa) = 23.64617 38.64696 31.14656
#
# Velocity S-wave (km/s) = 3.19763 4.08795 3.66989
# Velocity P-wave (km/s) = 5.50775 6.89842 6.24194
#
# Compressibility (1/GPa) = 0.02588942
#
# Stress axis : x y z
#
# Youngs Moduli (GPa) = 89.86720 55.40051 50.39260
#
# Poissons Ratio (x) = 0.19620 0.36648
# Poissons Ratio (y) = 0.31826 0.03792
# Poissons Ratio (z) = 0.65355 0.04168
#
# Static dielectric constant tensor:
#      x y z
#    x 1.906720 -0.029680 -0.064670 
#    y -0.029680 1.930260 -0.067880 
#    z -0.064670 -0.067880 1.973510 
# 
# From -- ./inp_files/174045.got.cif
#   From: 2010.05.17/outbox.cif.g08.bks.cpg/sg2_88_cif.got.tgz:174045.got - 2010.06.03 11:33:40.
