data_PCOD9011762
_publ_section_title
;
Structure prediction by ZEFSAII (Michael W. Deem and Ramdas Pophale) SiO2 
 PCOD9011762
Probable space group: P -1
;
_chemical_formula_sum "Si O2"
_cell_formula_units_Z 16
_cell_length_a 7.147819
_cell_length_b 9.626353
_cell_length_c 9.579572
_cell_angle_alpha 64.568582
_cell_angle_beta 70.155386
_cell_angle_gamma 78.050329
_cell_volume 558.466593
_symmetry_space_group_name_H-M "P -1"
_symmetry_group_IT_number 2
_symmetry_cell_setting 'triclinic'
loop_
_space_group_symop_operation_xyz
x,y,z
-x,-y,-z
loop_
_atom_site_type_symbol
_atom_site_label
_atom_site_fract_x
_atom_site_fract_y
_atom_site_fract_z
Si Si1 0.563423 0.251471 0.978719
Si Si2 0.512168 0.494564 0.294429
Si Si3 0.063424 0.251471 0.478721
Si Si4 0.446290 0.079369 0.332203
Si Si5 0.053708 0.920633 0.167797
Si Si6 0.104977 0.242858 0.067861
Si Si7 0.395026 0.757142 0.432136
Si Si8 0.012161 0.494566 0.794431
O O1 0.562372 0.434369 0.864590
O O2 0.728841 0.158865 0.884290
O O3 0.342154 0.213983 0.999184
O O4 0.568851 0.199308 0.161718
O O5 0.422087 0.620939 0.372011
O O6 0.487455 0.321804 0.429174
O O7 0.750004 0.499997 0.249998
O O8 0.068855 0.199305 0.661720
O O9 0.062374 0.434368 0.364590
O O10 0.500000 0.000000 0.500000
O O11 0.228840 0.158864 0.384292
O O12 0.464294 0.922714 0.302758
O O13 0.157847 0.786015 0.500810
O O14 0.035705 0.077288 0.197241
O O15 0.000000 0.000000 0.000000
O O16 0.077925 0.379061 0.127985
O O17 0.987452 0.321806 0.929174
#
# Coordination Sequence:
#
# PCOD9011762 Si02
#       8
#     2   2   2   2   2   2   2   2
#     4  11  22  42  64  90 119 163 206 247 296 361
#     4   9  20  37  67  93 117 151 212 253 295 347
#     4  11  22  42  64  90 119 163 206 247 296 361
#     4  12  26  40  60  93 128 160 198 249 306 359
#     4  12  26  40  60  93 128 160 198 249 306 359
#     4  10  21  40  67  92 120 156 205 254 297 358
#     4  10  21  40  67  92 120 156 205 254 297 358
#     4   9  20  37  67  93 117 151 212 253 295 347
#
# _framework density 28.64988
#
# number of rings (size 3 to 8) (size 9 to 14) (size 15 to 20)
#    0.000    1.500    2.500    2.250    7.000    0.000 
#    0.000    2.500    0.000    0.000    0.000    0.000 
#    0.000    0.000    0.000    0.000    0.000    0.000 
#
# Total GULP energy -89561.233152 kJ/mol
# GULP energy per Si atom -5597.577072 kJ/mol
# Density = 2.858467 g / cm^3
# Si number density = 28.649880 Si / 1000 Ang^3
#
#
#
# Elastic Constant Matrix: (Units=GPa)
#
#
# Indices 1 2 3 4 5 6 
#
# 1 63.7326 49.4861 40.0453 -9.8909 -7.9714 -22.6327
# 2 49.4861 154.0299 73.6342 -14.7303 -2.2783 -33.9971
# 3 40.0453 73.6342 265.5165 -34.4295 9.4954 -9.7742
# 4 -9.8909 -14.7303 -34.4295 69.1938 -5.1414 4.6284
# 5 -7.9714 -2.2783 9.4954 -5.1414 57.5402 0.5099
# 6 -22.6327 -33.9971 -9.7742 4.6284 0.5099 50.6469
#
#
#
# Elastic Compliance Matrix: (Units=1/GPa)
#
#
# Indices 1 2 3 4 5 6 
#
# 1 0.023856 -0.005105 -0.001905 0.001183 0.003463 0.006723
# 2 -0.005105 0.009893 -0.001798 0.000212 -0.000035 0.003993
# 3 -0.001905 -0.001798 0.004763 0.001730 -0.000955 -0.001287
# 4 0.001183 0.000212 0.001730 0.015652 0.001289 -0.000439
# 5 0.003463 -0.000035 -0.000955 0.001289 0.018121 0.001039
# 6 0.006723 0.003993 -0.001287 -0.000439 0.001039 0.025211
#
#
# Mechanical properties :
#
#
# Convention : Reuss Voigt Hill
#
# Bulk Modulus (GPa) = 47.85683 89.95669 68.90676
# Shear Modulus (GPa) = 40.95731 56.81709 48.88720
#
# Velocity S-wave (km/s) = 3.78508 4.45809 4.13530
# Velocity P-wave (km/s) = 5.98688 7.61356 6.84869
#
# Compressibility (1/GPa) = 0.02089566
#
# Stress axis : x y z
#
# Youngs Moduli (GPa) = 41.91827 101.08049 209.93937
#
# Poissons Ratio (x) = 0.51606 0.39996
# Poissons Ratio (y) = 0.21401 0.37744
# Poissons Ratio (z) = 0.07986 0.18173
#
# Static dielectric constant tensor:
#      x y z
#    x 2.287800 0.079370 0.102820 
#    y 0.079370 2.121490 0.054880 
#    z 0.102820 0.054880 2.464280 
# 
# From -- ./inp_files/389055.got.cif
#   From: 2010.05.17/outbox.cif.g08.bks.cpg/sg2_195_cif.got.tgz:389055.got - 2010.06.03 11:33:40.
