data_PCOD9011309
_publ_section_title
;
Structure prediction by ZEFSAII (Michael W. Deem and Ramdas Pophale) SiO2 
 PCOD9011309
Probable space group: P -1
;
_chemical_formula_sum "Si O2"
_cell_formula_units_Z 12
_cell_length_a 14.409854
_cell_length_b 9.473767
_cell_length_c 9.327405
_cell_angle_alpha 133.653359
_cell_angle_beta 67.953301
_cell_angle_gamma 140.274192
_cell_volume 554.500017
_symmetry_space_group_name_H-M "P -1"
_symmetry_group_IT_number 2
_symmetry_cell_setting 'triclinic'
loop_
_space_group_symop_operation_xyz
x,y,z
-x,-y,-z
loop_
_atom_site_type_symbol
_atom_site_label
_atom_site_fract_x
_atom_site_fract_y
_atom_site_fract_z
Si Si1 0.178624 0.743133 0.017598
Si Si2 0.273324 0.104450 0.951667
Si Si3 0.043257 0.265837 0.236861
Si Si4 0.491287 0.214759 0.695928
Si Si5 0.040168 0.244815 0.552764
Si Si6 0.243819 0.876242 0.382678
O O1 0.172272 0.553353 0.779700
O O2 0.274566 0.865030 0.192098
O O3 0.000000 0.500000 0.000000
O O4 0.228697 0.994406 0.063924
O O5 0.350543 0.432121 0.129356
O O6 0.393402 0.126656 0.832202
O O7 0.118523 0.856721 0.772942
O O8 0.085446 0.284958 0.389543
O O9 0.167634 0.578956 0.300127
O O10 0.000000 0.000000 0.000000
O O11 0.500000 0.000000 0.500000
O O12 0.393094 0.160958 0.583772
O O13 0.885846 0.148625 0.565795
O O14 0.000000 0.000000 0.500000
#
# Coordination Sequence:
#
# PCOD9011309 Si02
#       6
#     2   2   2   2   2   2
#     4  10  21  40  65  97 132 167 215 283 342 392
#     4  11  23  44  67  98 139 178 224 288 332 405
#     4  12  22  38  70 100 129 179 224 280 351 400
#     4  11  25  45  68  95 135 188 235 271 336 410
#     4  11  22  36  62 101 135 166 219 282 339 397
#     4  11  22  43  66  94 138 171 223 280 337 407
#
# _framework density 21.641119
#
# number of rings (size 3 to 8) (size 9 to 14) (size 15 to 20)
#    0.000    1.000    5.000    3.500    2.333    0.667 
#    0.000    0.833    0.000    0.000    0.000    0.000 
#    0.000    0.000    0.000    0.000    0.000    0.000 
#
# Total GULP energy -67056.857295 kJ/mol
# GULP energy per Si atom -5588.071441 kJ/mol
# Density = 2.159186 g / cm^3
# Si number density = 21.641119 Si / 1000 Ang^3
#
#
#
# Elastic Constant Matrix: (Units=GPa)
#
#
# Indices 1 2 3 4 5 6 
#
# 1 61.5660 28.0967 15.5229 -4.8798 -2.2859 -17.3720
# 2 28.0967 121.3542 33.5037 -13.3360 5.1413 -26.0844
# 3 15.5229 33.5037 106.1773 -22.1841 9.9809 -13.2551
# 4 -4.8798 -13.3360 -22.1841 41.9666 -8.8493 11.6325
# 5 -2.2859 5.1413 9.9809 -8.8493 50.9603 0.6492
# 6 -17.3720 -26.0844 -13.2551 11.6325 0.6492 37.9705
#
#
#
# Elastic Compliance Matrix: (Units=1/GPa)
#
#
# Indices 1 2 3 4 5 6 
#
# 1 0.019827 -0.002872 -0.001462 -0.001036 0.001198 0.006885
# 2 -0.002872 0.010686 -0.002164 0.000312 -0.000795 0.005190
# 3 -0.001462 -0.002164 0.011495 0.004843 -0.001263 0.000395
# 4 -0.001036 0.000312 0.004843 0.029363 0.004170 -0.007636
# 5 0.001198 -0.000795 -0.001263 0.004170 0.020755 -0.002071
# 6 0.006885 0.005190 0.000395 -0.007636 -0.002071 0.035564
#
#
# Mechanical properties :
#
#
# Convention : Reuss Voigt Hill
#
# Bulk Modulus (GPa) = 34.46870 49.26046 41.86458
# Shear Modulus (GPa) = 33.25441 40.31110 36.78275
#
# Velocity S-wave (km/s) = 3.92424 4.32059 4.12718
# Velocity P-wave (km/s) = 6.04110 6.90666 6.48833
#
# Compressibility (1/GPa) = 0.02901183
#
# Stress axis : x y z
#
# Youngs Moduli (GPa) = 50.43653 93.57880 86.99639
#
# Poissons Ratio (x) = 0.26871 0.12719
# Poissons Ratio (y) = 0.14483 0.18830
# Poissons Ratio (z) = 0.07374 0.20255
#
# Static dielectric constant tensor:
#      x y z
#    x 1.864370 0.008290 -0.055970 
#    y 0.008290 1.818140 -0.021960 
#    z -0.055970 -0.021960 1.831950 
# 
# From -- ./inp_files/160314.got.cif
#   From: 2010.05.17/outbox.cif.g08.bks.cpg/sg2_81_cif.got.tgz:160314.got - 2010.06.03 11:33:40.
