data_PCOD9011861
_publ_section_title
;
Structure prediction by ZEFSAII (Michael W. Deem and Ramdas Pophale) SiO2 
 PCOD9011861
Probable space group: P -1
;
_chemical_formula_sum "Si O2"
_cell_formula_units_Z 12
_cell_length_a 12.137587
_cell_length_b 10.913668
_cell_length_c 9.574590
_cell_angle_alpha 46.728202
_cell_angle_beta 37.104012
_cell_angle_gamma 34.673914
_cell_volume 433.664242
_symmetry_space_group_name_H-M "P -1"
_symmetry_group_IT_number 2
_symmetry_cell_setting 'triclinic'
loop_
_space_group_symop_operation_xyz
x,y,z
-x,-y,-z
loop_
_atom_site_type_symbol
_atom_site_label
_atom_site_fract_x
_atom_site_fract_y
_atom_site_fract_z
Si Si1 0.121282 0.469231 0.249832
Si Si2 0.605730 0.119650 0.350051
Si Si3 0.385607 0.712940 0.080569
Si Si4 0.755589 0.613965 0.265684
Si Si5 0.136477 0.133634 0.192383
Si Si6 0.086687 0.131037 0.542227
O O1 0.229399 0.221641 0.314190
O O2 0.000000 0.500000 0.500000
O O3 0.931964 0.595488 0.219368
O O4 0.344355 0.460114 0.011892
O O5 0.478761 0.261103 0.506868
O O6 0.500000 0.000000 0.500000
O O7 0.863571 0.956763 0.282892
O O8 0.590530 0.248212 0.134219
O O9 0.194659 0.677683 0.323476
O O10 0.236890 0.951163 0.116696
O O11 0.875658 0.373269 0.275924
O O12 0.728202 0.767592 0.051318
O O13 0.153501 0.021296 0.408937
#
# Coordination Sequence:
#
# PCOD9011861 Si02
#       6
#     2   2   2   2   2   2
#     4  11  22  42  67  95 131 167 217 270 320 379
#     4  12  21  43  69  95 130 174 221 266 322 380
#     4  12  24  43  70  97 130 173 218 269 323 386
#     4  10  21  40  67  96 130 175 215 265 325 381
#     4  10  23  42  64  98 136 169 216 265 324 393
#     4  11  25  42  68  97 132 174 217 260 330 391
#
# _framework density 27.671175999999999
#
# number of rings (size 3 to 8) (size 9 to 14) (size 15 to 20)
#    0.000    1.000    5.000    1.000    0.000    8.000 
#    0.000    1.667    0.000    0.000    0.000    0.000 
#    0.000    0.000    0.000    0.000    0.000    0.000 
#
# Total GULP energy -66930.544832 kJ/mol
# GULP energy per Si atom -5577.545403 kJ/mol
# Density = 2.760820 g / cm^3
# Si number density = 27.671176 Si / 1000 Ang^3
#
#
#
# Elastic Constant Matrix: (Units=GPa)
#
#
# Indices 1 2 3 4 5 6 
#
# 1 101.4283 21.1845 28.3118 0.1568 10.0581 -2.2404
# 2 21.1845 73.5110 8.2988 13.7701 0.5672 19.2817
# 3 28.3118 8.2988 132.7544 10.8179 18.2148 2.3166
# 4 0.1568 13.7701 10.8179 49.4002 -0.9434 15.6528
# 5 10.0581 0.5672 18.2148 -0.9434 53.8471 3.6650
# 6 -2.2404 19.2817 2.3166 15.6528 3.6650 56.1930
#
#
#
# Elastic Compliance Matrix: (Units=1/GPa)
#
#
# Indices 1 2 3 4 5 6 
#
# 1 0.011384 -0.003627 -0.002100 0.000889 -0.001473 0.001633
# 2 -0.003627 0.016525 -0.000040 -0.002975 0.000808 -0.005038
# 3 -0.002100 -0.000040 0.008487 -0.001983 -0.002533 0.000298
# 4 0.000889 -0.002975 -0.001983 0.023247 0.001313 -0.005423
# 5 -0.001473 0.000808 -0.002533 0.001313 0.019846 -0.001892
# 6 0.001633 -0.005038 0.000298 -0.005423 -0.001892 0.021211
#
#
# Mechanical properties :
#
#
# Convention : Reuss Voigt Hill
#
# Bulk Modulus (GPa) = 40.22153 47.03154 43.62654
# Shear Modulus (GPa) = 41.48608 48.54795 45.01701
#
# Velocity S-wave (km/s) = 3.87622 4.19317 4.03781
# Velocity P-wave (km/s) = 5.88222 6.36216 6.12689
#
# Compressibility (1/GPa) = 0.02486231
#
# Stress axis : x y z
#
# Youngs Moduli (GPa) = 87.84498 60.51255 117.82676
#
# Poissons Ratio (x) = 0.21949 0.24741
# Poissons Ratio (y) = 0.31863 0.00472
# Poissons Ratio (z) = 0.18446 0.00242
#
# Static dielectric constant tensor:
#      x y z
#    x 2.283950 0.000450 0.003720 
#    y 0.000450 2.192730 0.011230 
#    z 0.003720 0.011230 2.109270 
# 
# From -- ./inp_files/261881.got.cif
#   From: 2010.05.17/outbox.cif.g08.bks.cpg/sg2_131_cif.got.tgz:261881.got - 2010.06.03 11:33:40.
