data_PCOD9011742
_publ_section_title
;
Structure prediction by ZEFSAII (Michael W. Deem and Ramdas Pophale) SiO2 
 PCOD9011742
Probable space group: P -1
;
_chemical_formula_sum "Si O2"
_cell_formula_units_Z 12
_cell_length_a 14.042426
_cell_length_b 13.435682
_cell_length_c 22.184885
_cell_angle_alpha 160.599707
_cell_angle_beta 21.867410
_cell_angle_gamma 149.403673
_cell_volume 514.229369
_symmetry_space_group_name_H-M "P -1"
_symmetry_group_IT_number 2
_symmetry_cell_setting 'triclinic'
loop_
_space_group_symop_operation_xyz
x,y,z
-x,-y,-z
loop_
_atom_site_type_symbol
_atom_site_label
_atom_site_fract_x
_atom_site_fract_y
_atom_site_fract_z
Si Si1 0.641690 0.078247 0.856752
Si Si2 0.792432 0.895296 0.410293
Si Si3 0.462399 0.475444 0.936599
Si Si4 0.485068 0.404858 0.699495
Si Si5 0.851850 0.854177 0.145176
Si Si6 0.421593 0.538142 0.636252
O O1 0.927676 0.122420 0.735959
O O2 0.611708 0.727937 0.669257
O O3 0.573868 0.230429 0.917479
O O4 0.471946 0.263863 0.114113
O O5 0.724214 0.656567 0.263495
O O6 0.608260 0.794082 0.512752
O O7 0.700249 0.233548 0.636821
O O8 0.215522 0.300624 0.966328
O O9 0.500000 0.500000 0.000000
O O10 0.344180 0.278589 0.768506
O O11 0.748178 0.205929 0.411469
O O12 0.145234 0.743031 0.923229
O O13 0.500000 0.500000 0.500000
#
# Coordination Sequence:
#
# PCOD9011742 Si02
#       6
#     2   2   2   2   2   2
#     4  11  24  43  68  98 131 174 213 275 327 383
#     4  11  23  44  68  97 133 171 218 273 322 390
#     4  10  21  40  67  90 126 185 216 252 325 388
#     4   9  19  43  70  93 124 177 220 262 335 373
#     4   9  20  41  67  92 136 167 213 281 313 386
#     4  12  26  41  64 101 138 171 213 272 329 382
#
# _framework density 23.335889000000002
#
# number of rings (size 3 to 8) (size 9 to 14) (size 15 to 20)
#    0.000    1.667    3.333    2.500    2.333    2.667 
#    6.000    4.167    0.000    0.000    0.000    0.000 
#    0.000    0.000    0.000    0.000    0.000    0.000 
#
# Total GULP energy -66918.712956 kJ/mol
# GULP energy per Si atom -5576.559413 kJ/mol
# Density = 2.328278 g / cm^3
# Si number density = 23.335889 Si / 1000 Ang^3
#
#
#
# Elastic Constant Matrix: (Units=GPa)
#
#
# Indices 1 2 3 4 5 6 
#
# 1 135.0271 14.5359 18.9226 -5.6040 -2.3614 13.9730
# 2 14.5359 44.2349 23.7695 11.5220 -0.4772 11.9522
# 3 18.9226 23.7695 61.2487 11.5933 -8.5674 -3.3009
# 4 -5.6040 11.5220 11.5933 16.8736 -1.5582 7.7821
# 5 -2.3614 -0.4772 -8.5674 -1.5582 42.8996 12.4129
# 6 13.9730 11.9522 -3.3009 7.7821 12.4129 28.2725
#
#
#
# Elastic Compliance Matrix: (Units=1/GPa)
#
#
# Indices 1 2 3 4 5 6 
#
# 1 0.009742 -0.001061 -0.005000 0.011994 0.002691 -0.009433
# 2 -0.001061 0.035952 -0.012309 -0.009778 0.001617 -0.014130
# 3 -0.005000 -0.012309 0.027169 -0.019538 -0.000447 0.016421
# 4 0.011994 -0.009778 -0.019538 0.101327 0.010973 -0.036784
# 5 0.002691 0.001617 -0.000447 0.010973 0.028933 -0.017789
# 6 -0.009433 -0.014130 0.016421 -0.036784 -0.017789 0.065858
#
#
# Mechanical properties :
#
#
# Convention : Reuss Voigt Hill
#
# Bulk Modulus (GPa) = 27.68353 39.44076 33.56214
# Shear Modulus (GPa) = 15.73511 29.82798 22.78154
#
# Velocity S-wave (km/s) = 2.59952 3.57907 3.12788
# Velocity P-wave (km/s) = 4.57153 5.83247 5.24006
#
# Compressibility (1/GPa) = 0.03612256
#
# Stress axis : x y z
#
# Youngs Moduli (GPa) = 102.64962 27.81522 36.80637
#
# Poissons Ratio (x) = 0.02950 0.18405
# Poissons Ratio (y) = 0.10888 0.45305
# Poissons Ratio (z) = 0.51329 0.34238
#
# Static dielectric constant tensor:
#      x y z
#    x 1.987710 -0.053480 -0.010280 
#    y -0.053480 1.939230 0.086530 
#    z -0.010280 0.086530 1.983890 
# 
# From -- ./inp_files/282409.got.cif
#   From: 2010.05.17/outbox.cif.g08.bks.cpg/sg2_142_cif.got.tgz:282409.got - 2010.06.03 11:33:40.
