data_PCOD9011463
_publ_section_title
;
Structure prediction by ZEFSAII (Michael W. Deem and Ramdas Pophale) SiO2 
 PCOD9011463
Probable space group: P -1
;
_chemical_formula_sum "Si O2"
_cell_formula_units_Z 16
_cell_length_a 8.435476
_cell_length_b 10.441647
_cell_length_c 9.683846
_cell_angle_alpha 79.305678
_cell_angle_beta 87.033124
_cell_angle_gamma 130.006609
_cell_volume 625.191622
_symmetry_space_group_name_H-M "P -1"
_symmetry_group_IT_number 2
_symmetry_cell_setting 'triclinic'
loop_
_space_group_symop_operation_xyz
x,y,z
-x,-y,-z
loop_
_atom_site_type_symbol
_atom_site_label
_atom_site_fract_x
_atom_site_fract_y
_atom_site_fract_z
Si Si1 0.322965 0.659138 0.600731
Si Si2 0.374818 0.165028 0.687477
Si Si3 0.939992 0.247271 0.282486
Si Si4 0.931756 0.831373 0.459440
Si Si5 0.174984 0.305377 0.006993
Si Si6 0.962004 0.261500 0.762205
Si Si7 0.533963 0.697676 0.840425
Si Si8 0.585875 0.192071 0.934327
O O1 0.413435 0.737600 0.431515
O O2 0.197790 0.711192 0.660766
O O3 0.162106 0.450864 0.656172
O O4 0.522196 0.735376 0.676248
O O5 0.259851 0.230370 0.620138
O O6 0.437657 0.195361 0.838091
O O7 0.219827 0.958428 0.706542
O O8 0.096595 0.285545 0.390635
O O9 0.066030 0.341531 0.116881
O O10 0.105107 0.864023 0.339027
O O11 0.000000 0.000000 0.500000
O O12 0.245856 0.221973 0.113751
O O13 0.022698 0.206340 0.903081
O O14 0.383556 0.488266 0.899702
O O15 0.804012 0.282914 0.826766
O O16 0.418519 0.741285 0.931943
O O17 0.500000 0.000000 0.000000
#
# Coordination Sequence:
#
# PCOD9011463 Si02
#       8
#     2   2   2   2   2   2   2   2
#     4  11  23  40  65  92 126 163 205 256 304 365
#     4  11  24  41  61  90 124 165 207 253 305 361
#     4  11  22  40  64  93 126 163 206 252 308 362
#     4  10  24  43  63  89 123 162 206 254 307 368
#     4  10  21  40  66  92 126 163 204 254 302 365
#     4  11  24  42  63  92 124 163 208 253 309 364
#     4  10  22  40  63  94 125 163 206 250 307 361
#     4  12  25  40  63  92 126 162 204 254 305 366
#
# _framework density 25.592153
#
# number of rings (size 3 to 8) (size 9 to 14) (size 15 to 20)
#    0.000    1.250    0.000    5.625    0.000   10.500 
#    0.000    4.375    0.000    0.000    0.000    0.000 
#    0.000    0.000    0.000    0.000    0.000    0.000 
#
# Total GULP energy -89605.224467 kJ/mol
# GULP energy per Si atom -5600.326529 kJ/mol
# Density = 2.553390 g / cm^3
# Si number density = 25.592153 Si / 1000 Ang^3
#
#
#
# Elastic Constant Matrix: (Units=GPa)
#
#
# Indices 1 2 3 4 5 6 
#
# 1 81.2829 5.2267 9.3029 7.8407 0.6175 -2.6372
# 2 5.2267 51.6609 -1.0653 -0.7413 2.4426 -2.8980
# 3 9.3029 -1.0653 123.5127 14.4071 11.6182 5.9547
# 4 7.8407 -0.7413 14.4071 33.6275 2.0434 -10.6550
# 5 0.6175 2.4426 11.6182 2.0434 51.7526 7.3677
# 6 -2.6372 -2.8980 5.9547 -10.6550 7.3677 27.9704
#
#
#
# Elastic Compliance Matrix: (Units=1/GPa)
#
#
# Indices 1 2 3 4 5 6 
#
# 1 0.012728 -0.001338 -0.000680 -0.002667 0.000148 0.000151
# 2 -0.001338 0.019751 0.000059 0.001741 -0.001417 0.002944
# 3 -0.000680 0.000059 0.008985 -0.004686 -0.001342 -0.003402
# 4 -0.002667 0.001741 -0.004686 0.037640 -0.002761 0.015993
# 5 0.000148 -0.001417 -0.001342 -0.002761 0.020703 -0.006352
# 6 0.000151 0.002944 -0.003402 0.015993 -0.006352 0.044561
#
#
# Mechanical properties :
#
#
# Convention : Reuss Voigt Hill
#
# Bulk Modulus (GPa) = 26.63487 31.48723 29.06105
# Shear Modulus (GPa) = 31.09428 38.86958 34.98193
#
# Velocity S-wave (km/s) = 3.48946 3.90142 3.70117
# Velocity P-wave (km/s) = 5.16383 5.71182 5.44472
#
# Compressibility (1/GPa) = 0.03754477
#
# Stress axis : x y z
#
# Youngs Moduli (GPa) = 78.56903 50.63086 111.29683
#
# Poissons Ratio (x) = 0.06777 0.07572
# Poissons Ratio (y) = 0.10516 -0.00662
# Poissons Ratio (z) = 0.05345 -0.00301
#
# Static dielectric constant tensor:
#      x y z
#    x 2.076620 0.047770 -0.003450 
#    y 0.047770 2.025690 0.006220 
#    z -0.003450 0.006220 1.981640 
# 
# From -- ./inp_files/186772.got.cif
#   From: 2010.05.17/outbox.cif.g08.bks.cpg/sg2_94_cif.got.tgz:186772.got - 2010.06.03 11:33:40.
