data_PCOD9011728
_publ_section_title
;
Structure prediction by ZEFSAII (Michael W. Deem and Ramdas Pophale) SiO2 
 PCOD9011728
Probable space group: P -1
;
_chemical_formula_sum "Si O2"
_cell_formula_units_Z 16
_cell_length_a 16.313198
_cell_length_b 13.704374
_cell_length_c 22.359819
_cell_angle_alpha 21.016678
_cell_angle_beta 158.761964
_cell_angle_gamma 151.597632
_cell_volume 647.662213
_symmetry_space_group_name_H-M "P -1"
_symmetry_group_IT_number 2
_symmetry_cell_setting 'triclinic'
loop_
_space_group_symop_operation_xyz
x,y,z
-x,-y,-z
loop_
_atom_site_type_symbol
_atom_site_label
_atom_site_fract_x
_atom_site_fract_y
_atom_site_fract_z
Si Si1 0.601803 0.705990 0.680868
Si Si2 0.880602 0.605930 0.463599
Si Si3 0.931744 0.792205 0.625042
Si Si4 0.520070 0.024951 0.282244
Si Si5 0.669157 0.549260 0.166133
Si Si6 0.110238 0.647853 0.251482
Si Si7 0.745772 0.166867 0.068690
Si Si8 0.676642 0.785068 0.815262
O O1 0.366053 0.536406 0.636076
O O2 0.745903 0.782100 0.794901
O O3 0.510080 0.990770 0.435450
O O4 0.718927 0.478802 0.850274
O O5 0.921401 0.523669 0.609437
O O6 0.070767 0.475725 0.628616
O O7 0.889404 0.932046 0.271813
O O8 0.720623 0.884055 0.466866
O O9 0.874463 0.524779 0.700247
O O10 0.140095 0.788673 0.814411
O O11 0.000000 0.000000 0.500000
O O12 0.354168 0.809928 0.327386
O O13 0.617539 0.293344 0.231307
O O14 0.358568 0.160183 0.047583
O O15 0.466839 0.496200 0.105499
O O16 0.886993 0.808031 0.991235
O O17 0.500000 0.000000 0.000000
#
# Coordination Sequence:
#
# PCOD9011728 Si02
#       8
#     2   2   2   2   2   2   2   2
#     4  10  23  41  62  89 124 167 206 248 314 371
#     4  11  22  41  67  91 123 164 206 259 310 367
#     4  12  21  41  67  93 124 161 206 257 311 362
#     4  11  24  37  60  99 129 157 205 259 314 365
#     4  11  22  39  62  93 125 163 210 257 310 367
#     4  12  23  40  67  95 124 161 207 263 309 363
#     4  10  21  40  67  88 120 164 207 246 311 374
#     4  11  23  40  65  90 125 166 203 259 309 366
#
# _framework density 24.704236000000002
#
# number of rings (size 3 to 8) (size 9 to 14) (size 15 to 20)
#    0.000    1.000    3.750    4.125    0.000    2.000 
#    0.000    0.625    5.500    0.000    0.000    0.000 
#    0.000    0.000    0.000    0.000    0.000    0.000 
#
# Total GULP energy -89309.620214 kJ/mol
# GULP energy per Si atom -5581.851263 kJ/mol
# Density = 2.464801 g / cm^3
# Si number density = 24.704236 Si / 1000 Ang^3
#
#
#
# Elastic Constant Matrix: (Units=GPa)
#
#
# Indices 1 2 3 4 5 6 
#
# 1 62.2526 17.6475 22.8593 12.2102 11.3021 -4.1130
# 2 17.6475 59.1404 10.0975 10.4845 0.1803 -7.0646
# 3 22.8593 10.0975 127.3243 0.6492 14.3469 -7.4103
# 4 12.2102 10.4845 0.6492 43.3908 1.7219 -8.7077
# 5 11.3021 0.1803 14.3469 1.7219 28.7701 9.4645
# 6 -4.1130 -7.0646 -7.4103 -8.7077 9.4645 39.2648
#
#
#
# Elastic Compliance Matrix: (Units=1/GPa)
#
#
# Indices 1 2 3 4 5 6 
#
# 1 0.020474 -0.004781 -0.002373 -0.003949 -0.007147 0.001683
# 2 -0.004781 0.019196 -0.000744 -0.003004 0.001741 0.001727
# 3 -0.002373 -0.000744 0.009002 0.001441 -0.004536 0.002729
# 4 -0.003949 -0.003004 0.001441 0.026116 -0.002598 0.005736
# 5 -0.007147 0.001741 -0.004536 -0.002598 0.044082 -0.012493
# 6 0.001683 0.001727 0.002729 0.005736 -0.012493 0.030754
#
#
# Mechanical properties :
#
#
# Convention : Reuss Voigt Hill
#
# Bulk Modulus (GPa) = 30.41888 38.88065 34.64977
# Shear Modulus (GPa) = 28.34798 35.49269 31.92033
#
# Velocity S-wave (km/s) = 3.39114 3.79450 3.59848
# Velocity P-wave (km/s) = 5.26052 5.91357 5.59658
#
# Compressibility (1/GPa) = 0.03287432
#
# Stress axis : x y z
#
# Youngs Moduli (GPa) = 48.84302 52.09346 111.09052
#
# Poissons Ratio (x) = 0.24907 0.26364
# Poissons Ratio (y) = 0.23353 0.08269
# Poissons Ratio (z) = 0.11591 0.03877
#
# Static dielectric constant tensor:
#      x y z
#    x 1.964170 -0.080150 0.019930 
#    y -0.080150 2.064910 -0.042770 
#    z 0.019930 -0.042770 2.068940 
# 
# From -- ./inp_files/613236.got.cif
#   From: 2010.05.17/outbox.cif.g08.bks.cpg/sg2_307_cif.got.tgz:613236.got - 2010.06.03 11:33:40.
