data_PCOD9011015
_publ_section_title
;
Structure prediction by ZEFSAII (Michael W. Deem and Ramdas Pophale) SiO2 
 PCOD9011015
Probable space group: P -1
;
_chemical_formula_sum "Si O2"
_cell_formula_units_Z 16
_cell_length_a 9.028998
_cell_length_b 11.016368
_cell_length_c 14.422048
_cell_angle_alpha 28.575711
_cell_angle_beta 88.547735
_cell_angle_gamma 77.434197
_cell_volume 626.111060
_symmetry_space_group_name_H-M "P -1"
_symmetry_group_IT_number 2
_symmetry_cell_setting 'triclinic'
loop_
_space_group_symop_operation_xyz
x,y,z
-x,-y,-z
loop_
_atom_site_type_symbol
_atom_site_label
_atom_site_fract_x
_atom_site_fract_y
_atom_site_fract_z
Si Si1 0.009589 0.435470 0.360871
Si Si2 0.151185 0.706506 0.703473
Si Si3 0.740946 0.025980 0.233450
Si Si4 0.277476 0.458168 0.566997
Si Si5 0.224171 0.739392 0.108546
Si Si6 0.617589 0.760184 0.897938
Si Si7 0.451346 0.819741 0.547021
Si Si8 0.628838 0.108634 0.836301
O O1 0.152036 0.124120 0.579558
O O2 0.089029 0.656594 0.211742
O O3 0.915556 0.468216 0.245033
O O4 0.886273 0.454782 0.431751
O O5 0.308170 0.741100 0.637826
O O6 0.223721 0.527657 0.915412
O O7 0.000000 0.000000 0.500000
O O8 0.719746 0.765325 0.359439
O O9 0.558424 0.246796 0.106533
O O10 0.818107 0.145316 0.072180
O O11 0.440909 0.310800 0.723701
O O12 0.296982 0.712884 0.345093
O O13 0.387308 0.454939 0.291477
O O14 0.272059 0.945615 0.033494
O O15 0.613989 0.987914 0.671277
O O16 0.620383 0.876794 0.923396
O O17 0.500000 0.000000 0.500000
#
# Coordination Sequence:
#
# PCOD9011015 Si02
#       8
#     2   2   2   2   2   2   2   2
#     4  12  25  44  67 105 156 182 239 300 354 412
#     4  12  29  49  74 108 141 182 241 310 361 419
#     4  11  24  41  71 104 146 195 239 281 359 426
#     4  10  21  40  65 102 146 195 229 296 345 416
#     4  12  24  42  70 111 143 197 242 287 354 431
#     4  11  25  48  77 107 138 197 239 292 365 434
#     4  12  26  50  80 104 140 188 248 298 353 434
#     4  10  21  42  73 103 151 193 242 281 358 443
#
# _framework density 25.554572
#
# number of rings (size 3 to 8) (size 9 to 14) (size 15 to 20)
#    0.000    0.750    3.750    4.125    1.750    5.500 
#    0.000    0.000    0.000    0.000    0.000    0.000 
#    0.000    0.000    0.000    0.000    0.000    0.000 
#
# Total GULP energy -89669.133009 kJ/mol
# GULP energy per Si atom -5604.320813 kJ/mol
# Density = 2.549641 g / cm^3
# Si number density = 25.554572 Si / 1000 Ang^3
#
#
#
# Elastic Constant Matrix: (Units=GPa)
#
#
# Indices 1 2 3 4 5 6 
#
# 1 149.5766 16.4740 43.9211 3.8203 -1.7971 -0.9867
# 2 16.4740 54.1537 5.3036 -10.4506 6.7231 16.1638
# 3 43.9211 5.3036 145.3393 18.8231 21.8053 -4.3157
# 4 3.8203 -10.4506 18.8231 36.5938 -2.2039 7.5031
# 5 -1.7971 6.7231 21.8053 -2.2039 58.9190 6.8826
# 6 -0.9867 16.1638 -4.3157 7.5031 6.8826 39.5511
#
#
#
# Elastic Compliance Matrix: (Units=1/GPa)
#
#
# Indices 1 2 3 4 5 6 
#
# 1 0.007693 -0.002616 -0.002337 -0.000449 0.001280 0.000868
# 2 -0.002616 0.025425 -0.001893 0.011089 -0.000382 -0.012700
# 3 -0.002337 -0.001893 0.009107 -0.005932 -0.003857 0.003506
# 4 -0.000449 0.011089 -0.005932 0.036435 0.003770 -0.012758
# 5 0.001280 -0.000382 -0.003857 0.003770 0.019123 -0.004276
# 6 0.000868 -0.012700 0.003506 -0.012758 -0.004276 0.034042
#
#
# Mechanical properties :
#
#
# Convention : Reuss Voigt Hill
#
# Bulk Modulus (GPa) = 35.04872 53.38521 44.21697
# Shear Modulus (GPa) = 32.25215 45.90417 39.07816
#
# Velocity S-wave (km/s) = 3.55644 4.24290 3.91475
# Velocity P-wave (km/s) = 5.53258 6.70365 6.14607
#
# Compressibility (1/GPa) = 0.02853171
#
# Stress axis : x y z
#
# Youngs Moduli (GPa) = 129.99601 39.33122 109.80654
#
# Poissons Ratio (x) = 0.10289 0.25665
# Poissons Ratio (y) = 0.34006 0.20788
# Poissons Ratio (z) = 0.30384 0.07446
#
# Static dielectric constant tensor:
#      x y z
#    x 1.961090 -0.008700 0.042970 
#    y -0.008700 2.043600 -0.037050 
#    z 0.042970 -0.037050 2.039810 
# 
# From -- ./inp_files/499713.got.cif
#   From: 2010.05.17/outbox.cif.g08.bks.cpg/sg2_250_cif.got.tgz:499713.got - 2010.06.03 11:33:40.
