data_PCOD9011711
_publ_section_title
;
Structure prediction by ZEFSAII (Michael W. Deem and Ramdas Pophale) SiO2 
 PCOD9011711
Probable space group: P -1
;
_chemical_formula_sum "Si O2"
_cell_formula_units_Z 12
_cell_length_a 8.957283
_cell_length_b 10.236149
_cell_length_c 12.590904
_cell_angle_alpha 141.661699
_cell_angle_beta 127.927803
_cell_angle_gamma 43.926832
_cell_volume 493.455985
_symmetry_space_group_name_H-M "P -1"
_symmetry_group_IT_number 2
_symmetry_cell_setting 'triclinic'
loop_
_space_group_symop_operation_xyz
x,y,z
-x,-y,-z
loop_
_atom_site_type_symbol
_atom_site_label
_atom_site_fract_x
_atom_site_fract_y
_atom_site_fract_z
Si Si1 0.977931 0.669311 0.334011
Si Si2 0.585809 0.103216 0.013003
Si Si3 0.179979 0.586621 0.147998
Si Si4 0.814794 0.374489 0.374505
Si Si5 0.604664 0.121236 0.547375
Si Si6 0.943232 0.785461 0.830994
O O1 0.139778 0.637582 0.289707
O O2 0.097702 0.652723 0.486635
O O3 0.244755 0.080482 0.601145
O O4 0.936655 0.439024 0.178563
O O5 0.698229 0.915954 0.848258
O O6 0.391963 0.353611 0.050695
O O7 0.748256 0.170877 0.188517
O O8 0.500000 0.000000 0.000000
O O9 0.229895 0.801579 0.272886
O O10 0.000000 0.500000 0.000000
O O11 0.597195 0.630785 0.424776
O O12 0.992953 0.320405 0.325904
O O13 0.500000 0.000000 0.500000
O O14 0.000000 0.000000 0.000000
#
# Coordination Sequence:
#
# PCOD9011711 Si02
#       6
#     2   2   2   2   2   2
#     4  12  24  45  72 100 146 189 232 297 359 420
#     4  10  21  42  69  98 135 188 236 282 351 426
#     4  11  27  48  69 105 145 188 238 296 359 426
#     4  10  24  44  70 104 141 184 239 293 352 421
#     4  11  25  46  72 109 142 183 241 291 357 426
#     4  10  21  40  67 102 137 179 235 285 348 419
#
# _framework density 24.318276999999998
#
# number of rings (size 3 to 8) (size 9 to 14) (size 15 to 20)
#    0.000    1.333    3.333    1.000    2.333    4.000 
#    0.000    0.833    0.000    0.000    0.000    0.000 
#    0.000    0.000    0.000    0.000    0.000    0.000 
#
# Total GULP energy -66976.998427 kJ/mol
# GULP energy per Si atom -5581.416536 kJ/mol
# Density = 2.426293 g / cm^3
# Si number density = 24.318277 Si / 1000 Ang^3
#
#
#
# Elastic Constant Matrix: (Units=GPa)
#
#
# Indices 1 2 3 4 5 6 
#
# 1 147.7932 43.5373 62.2317 7.2792 -21.7611 1.2857
# 2 43.5373 71.5952 42.6291 20.6475 -6.3960 -5.8840
# 3 62.2317 42.6291 117.4312 25.0387 0.1255 -1.3380
# 4 7.2792 20.6475 25.0387 48.4647 -1.9621 0.6304
# 5 -21.7611 -6.3960 0.1255 -1.9621 63.8483 18.7644
# 6 1.2857 -5.8840 -1.3380 0.6304 18.7644 47.6451
#
#
#
# Elastic Compliance Matrix: (Units=1/GPa)
#
#
# Indices 1 2 3 4 5 6 
#
# 1 0.010435 -0.004266 -0.004618 0.002830 0.003972 -0.002540
# 2 -0.004266 0.020933 -0.003967 -0.006280 -0.000370 0.002818
# 3 -0.004618 -0.003967 0.013410 -0.004657 -0.002445 0.001036
# 4 0.002830 -0.006280 -0.004657 0.025385 0.001710 -0.001992
# 5 0.003972 -0.000370 -0.002445 0.001710 0.019347 -0.007864
# 6 -0.002540 0.002818 0.001036 -0.001992 -0.007864 0.024558
#
#
# Mechanical properties :
#
#
# Convention : Reuss Voigt Hill
#
# Bulk Modulus (GPa) = 52.41933 70.40176 61.41054
# Shear Modulus (GPa) = 34.21666 44.55303 39.38485
#
# Velocity S-wave (km/s) = 3.75512 4.28492 4.02874
# Velocity P-wave (km/s) = 6.35638 7.31394 6.85191
#
# Compressibility (1/GPa) = 0.01907693
#
# Stress axis : x y z
#
# Youngs Moduli (GPa) = 95.83327 47.77161 74.57010
#
# Poissons Ratio (x) = 0.20379 0.34435
# Poissons Ratio (y) = 0.40882 0.29580
# Poissons Ratio (z) = 0.44254 0.18950
#
# Static dielectric constant tensor:
#      x y z
#    x 1.958360 -0.004480 0.101790 
#    y -0.004480 1.936890 -0.004800 
#    z 0.101790 -0.004800 2.022380 
# 
# From -- ./inp_files/377359.got.cif
#   From: 2010.05.17/outbox.cif.g08.bks.cpg/sg2_189_cif.got.tgz:377359.got - 2010.06.03 11:33:40.
