data_PCOD9011602
_publ_section_title
;
Structure prediction by ZEFSAII (Michael W. Deem and Ramdas Pophale) SiO2 
 PCOD9011602
Probable space group: P -1
;
_chemical_formula_sum "Si O2"
_cell_formula_units_Z 15
_cell_length_a 25.396189
_cell_length_b 5.431093
_cell_length_c 15.521864
_cell_angle_alpha 73.707878
_cell_angle_beta 159.934698
_cell_angle_gamma 95.315516
_cell_volume 602.705394
_symmetry_space_group_name_H-M "P -1"
_symmetry_group_IT_number 2
_symmetry_cell_setting 'triclinic'
loop_
_space_group_symop_operation_xyz
x,y,z
-x,-y,-z
loop_
_atom_site_type_symbol
_atom_site_label
_atom_site_fract_x
_atom_site_fract_y
_atom_site_fract_z
Si Si1 0.010081 0.991812 0.619453
Si Si2 0.500000 0.000000 0.500000
Si Si3 0.804443 0.176539 0.921197
Si Si4 0.713388 0.871738 0.002189
Si Si5 0.811208 0.297815 0.512291
Si Si6 0.430505 0.383995 0.623806
Si Si7 0.659554 0.484459 0.083991
Si Si8 0.344034 0.133041 0.673498
O O1 0.809023 0.133383 0.329945
O O2 0.106031 0.185781 0.757642
O O3 0.000000 0.000000 0.500000
O O4 0.138157 0.727645 0.910099
O O5 0.643989 0.120603 0.701913
O O6 0.414026 0.147527 0.260782
O O7 0.733241 0.418295 0.711177
O O8 0.986451 0.883255 0.196227
O O9 0.598948 0.200525 0.836491
O O10 0.741490 0.652637 0.144001
O O11 0.672159 0.501411 0.202795
O O12 0.787161 0.523666 0.528934
O O13 0.754793 0.053494 0.467082
O O14 0.408655 0.158119 0.674786
O O15 0.479927 0.557613 0.752879
O O16 0.500000 0.000000 0.000000
#
# Coordination Sequence:
#
# PCOD9011602 Si02
#       8
#     2   1   2   2   2   2   2   2
#     4  10  21  40  66  96 138 182 234 292 361 431
#     4  10  22  42  68 100 146 184 232 284 364 442
#     4  10  25  45  67 109 143 189 234 297 362 436
#     4  11  23  39  66 100 137 185 233 297 357 434
#     4  11  27  48  74 107 145 189 246 307 362 430
#     4  12  25  41  71  98 141 185 239 295 359 427
#     4  11  22  41  66  99 135 182 239 296 358 426
#     4  12  26  47  78 107 141 192 249 305 367 426
#
# _framework density 24.887782000000001
#
# number of rings (size 3 to 8) (size 9 to 14) (size 15 to 20)
#    0.000    1.067    4.000    1.600    1.867    5.333 
#    0.000    1.333    0.000    0.000    0.000    0.000 
#    0.000    0.000    0.000    0.000    0.000    0.000 
#
# Total GULP energy -83536.714797 kJ/mol
# GULP energy per Si atom -5569.114320 kJ/mol
# Density = 2.483114 g / cm^3
# Si number density = 24.887782 Si / 1000 Ang^3
#
#
#
# Elastic Constant Matrix: (Units=GPa)
#
#
# Indices 1 2 3 4 5 6 
#
# 1 127.4017 29.7444 56.1041 -10.0319 -14.0529 6.9334
# 2 29.7444 82.1565 26.0511 1.5253 -3.2460 4.8141
# 3 56.1041 26.0511 108.3034 6.8580 -36.1088 -16.7784
# 4 -10.0319 1.5253 6.8580 22.8098 0.2567 -1.4972
# 5 -14.0529 -3.2460 -36.1088 0.2567 48.5332 -3.0682
# 6 6.9334 4.8141 -16.7784 -1.4972 -3.0682 51.5890
#
#
#
# Elastic Compliance Matrix: (Units=1/GPa)
#
#
# Indices 1 2 3 4 5 6 
#
# 1 0.012324 -0.001962 -0.007941 0.007708 -0.002764 -0.003997
# 2 -0.001962 0.014034 -0.003442 -0.000893 -0.002333 -0.002330
# 3 -0.007941 -0.003442 0.020521 -0.009018 0.013329 0.008594
# 4 0.007708 -0.000893 -0.009018 0.049878 -0.004974 -0.002734
# 5 -0.002764 -0.002333 0.013329 -0.004974 0.030006 0.006564
# 6 -0.003997 -0.002330 0.008594 -0.002734 0.006564 0.023244
#
#
# Mechanical properties :
#
#
# Convention : Reuss Voigt Hill
#
# Bulk Modulus (GPa) = 49.52830 60.18456 54.85643
# Shear Modulus (GPa) = 27.25875 38.31721 32.78798
#
# Velocity S-wave (km/s) = 3.31307 3.92803 3.63358
# Velocity P-wave (km/s) = 5.88040 6.69383 6.30026
#
# Compressibility (1/GPa) = 0.02019048
#
# Stress axis : x y z
#
# Youngs Moduli (GPa) = 81.14454 71.25339 48.73018
#
# Poissons Ratio (x) = 0.13979 0.38696
# Poissons Ratio (y) = 0.15919 0.16771
# Poissons Ratio (z) = 0.64437 0.24522
#
# Static dielectric constant tensor:
#      x y z
#    x 2.031520 -0.026290 -0.007020 
#    y -0.026290 2.053260 -0.103100 
#    z -0.007020 -0.103100 2.035780 
# 
# From -- ./inp_files/76351.got.cif
#   From: 2010.05.17/outbox.cif.g08.bks.cpg/sg2_39_cif.got.tgz:76351.got - 2010.06.03 11:33:40.
