data_PCOD9011611
_publ_section_title
;
Structure prediction by ZEFSAII (Michael W. Deem and Ramdas Pophale) SiO2 
 PCOD9011611
Probable space group: P -1
;
_chemical_formula_sum "Si O2"
_cell_formula_units_Z 14
_cell_length_a 12.394462
_cell_length_b 6.793629
_cell_length_c 17.365852
_cell_angle_alpha 50.159000
_cell_angle_beta 145.615713
_cell_angle_gamma 122.887742
_cell_volume 633.725967
_symmetry_space_group_name_H-M "P -1"
_symmetry_group_IT_number 2
_symmetry_cell_setting 'triclinic'
loop_
_space_group_symop_operation_xyz
x,y,z
-x,-y,-z
loop_
_atom_site_type_symbol
_atom_site_label
_atom_site_fract_x
_atom_site_fract_y
_atom_site_fract_z
Si Si1 0.293476 0.441758 0.429809
Si Si2 0.249186 0.240797 0.898145
Si Si3 0.743701 0.349230 0.932733
Si Si4 0.919493 0.281741 0.895905
Si Si5 0.890459 0.504070 0.543874
Si Si6 0.835538 0.127896 0.463733
Si Si7 0.485578 0.417119 0.132795
O O1 0.500000 0.500000 0.500000
O O2 0.156531 0.612547 0.255224
O O3 0.285764 0.505328 0.499584
O O4 0.201507 0.152186 0.451942
O O5 0.421836 0.348602 0.919864
O O6 0.065269 0.385520 0.724045
O O7 0.309479 0.309362 0.004197
O O8 0.225104 0.938584 0.947663
O O9 0.753751 0.310770 0.856137
O O10 0.568242 0.475054 0.842166
O O11 0.914833 0.535984 0.016311
O O12 0.000000 0.000000 0.000000
O O13 0.846906 0.327387 0.490448
O O14 0.972083 0.781665 0.492634
O O15 0.645516 0.202498 0.286400
#
# Coordination Sequence:
#
# PCOD9011611 Si02
#       7
#     2   2   2   2   2   2   2
#     4  12  27  41  66  99 132 175 217 270 329 394
#     4  10  21  40  66  97 128 167 220 268 330 378
#     4  11  22  39  68  89 127 172 218 264 323 390
#     4  11  26  44  63  92 131 177 217 265 325 392
#     4  10  22  45  68  92 130 176 218 272 323 403
#     4  10  24  43  67  96 131 171 219 270 337 384
#     4  10  22  38  66  99 129 163 214 283 318 387
#
# _framework density 22.091567999999999
#
# number of rings (size 3 to 8) (size 9 to 14) (size 15 to 20)
#    0.000    1.429    0.000    4.286    6.000    1.714 
#    0.000    8.571    0.000    0.000    0.000    0.000 
#    0.000    0.000    0.000    0.000    0.000    0.000 
#
# Total GULP energy -78155.664954 kJ/mol
# GULP energy per Si atom -5582.547497 kJ/mol
# Density = 2.204129 g / cm^3
# Si number density = 22.091568 Si / 1000 Ang^3
#
#
#
# Elastic Constant Matrix: (Units=GPa)
#
#
# Indices 1 2 3 4 5 6 
#
# 1 106.4436 -12.9432 20.8978 -3.7981 -3.7913 19.8568
# 2 -12.9432 82.4502 39.1542 -21.5216 -19.6667 17.7109
# 3 20.8978 39.1542 75.7596 -9.1577 -14.6500 11.2482
# 4 -3.7981 -21.5216 -9.1577 36.9203 0.2932 -11.7270
# 5 -3.7913 -19.6667 -14.6500 0.2932 17.7326 -1.8686
# 6 19.8568 17.7109 11.2482 -11.7270 -1.8686 33.9016
#
#
#
# Elastic Compliance Matrix: (Units=1/GPa)
#
#
# Indices 1 2 3 4 5 6 
#
# 1 0.013782 0.009278 -0.005352 0.002284 0.007731 -0.009928
# 2 0.009278 0.030238 -0.009905 0.011989 0.025835 -0.012374
# 3 -0.005352 -0.009905 0.020421 -0.000814 0.004916 0.001523
# 4 0.002284 0.011989 -0.000814 0.035842 0.013130 0.005791
# 5 0.007731 0.025835 0.004916 0.013130 0.089470 -0.010183
# 6 -0.009928 -0.012374 0.001523 0.005791 -0.010183 0.042713
#
#
# Mechanical properties :
#
#
# Convention : Reuss Voigt Hill
#
# Bulk Modulus (GPa) = 19.05331 39.87455 29.46393
# Shear Modulus (GPa) = 19.08985 32.21387 25.65186
#
# Velocity S-wave (km/s) = 2.94279 3.82278 3.41128
# Velocity P-wave (km/s) = 4.49334 6.12974 5.37419
#
# Compressibility (1/GPa) = 0.05248432
#
# Stress axis : x y z
#
# Youngs Moduli (GPa) = 72.55670 33.07051 48.96941
#
# Poissons Ratio (x) = -0.30682 0.26207
# Poissons Ratio (y) = -0.67317 0.48503
# Poissons Ratio (z) = 0.38830 0.32756
#
# Static dielectric constant tensor:
#      x y z
#    x 1.918840 0.008180 0.049070 
#    y 0.008180 1.779470 -0.002710 
#    z 0.049070 -0.002710 1.806460 
# 
# From -- ./inp_files/564381.got.cif
#   From: 2010.05.17/outbox.cif.g08.bks.cpg/sg2_283_cif.got.tgz:564381.got - 2010.06.03 11:33:40.
