data_PCOD9011854
_publ_section_title
;
Structure prediction by ZEFSAII (Michael W. Deem and Ramdas Pophale) SiO2 
 PCOD9011854
Probable space group: P -1
;
_chemical_formula_sum "Si O2"
_cell_formula_units_Z 13
_cell_length_a 9.745694
_cell_length_b 9.106070
_cell_length_c 9.189535
_cell_angle_alpha 128.204630
_cell_angle_beta 106.236197
_cell_angle_gamma 63.779954
_cell_volume 574.881414
_symmetry_space_group_name_H-M "P -1"
_symmetry_group_IT_number 2
_symmetry_cell_setting 'triclinic'
loop_
_space_group_symop_operation_xyz
x,y,z
-x,-y,-z
loop_
_atom_site_type_symbol
_atom_site_label
_atom_site_fract_x
_atom_site_fract_y
_atom_site_fract_z
Si Si1 0.652141 0.674460 0.682810
Si Si2 0.185790 0.823217 0.301031
Si Si3 0.425789 0.947477 0.302175
Si Si4 0.500000 0.500000 0.000000
Si Si5 0.819548 0.593053 0.969601
Si Si6 0.820295 0.003650 0.286912
Si Si7 0.644867 0.354383 0.263918
O O1 0.788573 0.630588 0.811381
O O2 0.691428 0.518080 0.466763
O O3 0.513929 0.646299 0.714679
O O4 0.593251 0.894948 0.733968
O O5 0.259752 0.945004 0.297973
O O6 0.246441 0.587231 0.128294
O O7 0.232098 0.852958 0.499029
O O8 0.003935 0.911039 0.291115
O O9 0.500000 0.000000 0.500000
O O10 0.515349 0.719302 0.152915
O O11 0.387449 0.583973 0.872633
O O12 0.000000 0.500000 0.000000
O O13 0.765649 0.814209 0.158345
O O14 0.763740 0.136722 0.208607
#
# Coordination Sequence:
#
# PCOD9011854 Si02
#       7
#     2   2   2   1   2   2   2
#     4  11  23  43  68  95 136 174 218 273 336 384
#     4  10  22  41  67  99 135 169 223 275 322 395
#     4  12  25  42  65 100 137 171 219 279 328 388
#     4  12  26  42  66 102 128 170 226 268 330 390
#     4  10  21  40  67  96 127 172 219 269 324 391
#     4  10  21  41  71  96 130 181 218 267 336 390
#     4  11  23  43  69  96 131 177 220 275 326 394
#
# _framework density 22.613358000000002
#
# number of rings (size 3 to 8) (size 9 to 14) (size 15 to 20)
#    0.000    1.231    3.077    2.769    0.000    6.154 
#    0.000    9.231    0.000    0.000    0.000    0.000 
#    0.000    0.000    0.000    0.000    0.000    0.000 
#
# Total GULP energy -72497.211734 kJ/mol
# GULP energy per Si atom -5576.708595 kJ/mol
# Density = 2.256189 g / cm^3
# Si number density = 22.613358 Si / 1000 Ang^3
#
#
#
# Elastic Constant Matrix: (Units=GPa)
#
#
# Indices 1 2 3 4 5 6 
#
# 1 43.4792 21.2245 30.1413 1.4067 14.1286 12.8665
# 2 21.2245 186.0154 81.0871 -6.9367 13.9498 -0.9262
# 3 30.1413 81.0871 174.6321 4.7812 20.1807 -6.9639
# 4 1.4067 -6.9367 4.7812 60.5891 -0.2668 7.0414
# 5 14.1286 13.9498 20.1807 -0.2668 29.7040 1.1463
# 6 12.8665 -0.9262 -6.9639 7.0414 1.1463 27.1147
#
#
#
# Elastic Compliance Matrix: (Units=1/GPa)
#
#
# Indices 1 2 3 4 5 6 
#
# 1 0.036680 -0.001009 -0.005178 0.001551 -0.012722 -0.018635
# 2 -0.001009 0.006882 -0.002982 0.001079 -0.000705 -0.000302
# 3 -0.005178 -0.002982 0.008489 -0.001482 -0.002111 0.005010
# 4 0.001551 0.001079 -0.001482 0.017360 0.000135 -0.005594
# 5 -0.012722 -0.000705 -0.002111 0.000135 0.041341 0.003688
# 6 -0.018635 -0.000302 0.005010 -0.005594 0.003688 0.048296
#
#
# Mechanical properties :
#
#
# Convention : Reuss Voigt Hill
#
# Bulk Modulus (GPa) = 29.66125 74.33694 51.99910
# Shear Modulus (GPa) = 26.50803 41.59315 34.05059
#
# Velocity S-wave (km/s) = 3.42750 4.29338 3.88464
# Velocity P-wave (km/s) = 5.36738 7.58432 6.57003
#
# Compressibility (1/GPa) = 0.03371402
#
# Stress axis : x y z
#
# Youngs Moduli (GPa) = 27.26303 145.29872 117.80303
#
# Poissons Ratio (x) = 0.14661 0.60996
# Poissons Ratio (y) = 0.02751 0.35125
# Poissons Ratio (z) = 0.14116 0.43323
#
# Static dielectric constant tensor:
#      x y z
#    x 1.623950 -0.076410 0.056750 
#    y -0.076410 1.769300 0.055490 
#    z 0.056750 0.055490 1.834880 
# 
# From -- ./inp_files/189716.got.cif
#   From: 2010.05.17/outbox.cif.g08.bks.cpg/sg2_95_cif.got.tgz:189716.got - 2010.06.03 11:33:40.
