data_PCOD9011543
_publ_section_title
;
Structure prediction by ZEFSAII (Michael W. Deem and Ramdas Pophale) SiO2 
 PCOD9011543
Probable space group: P -1
;
_chemical_formula_sum "Si O2"
_cell_formula_units_Z 16
_cell_length_a 16.979891
_cell_length_b 11.968686
_cell_length_c 20.268749
_cell_angle_alpha 21.754096
_cell_angle_beta 150.012810
_cell_angle_gamma 148.970677
_cell_volume 731.807396
_symmetry_space_group_name_H-M "P -1"
_symmetry_group_IT_number 2
_symmetry_cell_setting 'triclinic'
loop_
_space_group_symop_operation_xyz
x,y,z
-x,-y,-z
loop_
_atom_site_type_symbol
_atom_site_label
_atom_site_fract_x
_atom_site_fract_y
_atom_site_fract_z
Si Si1 0.928645 0.646490 0.618132
Si Si2 0.110459 0.231905 0.045433
Si Si3 0.356535 0.173777 0.153049
Si Si4 0.340459 0.280428 0.940199
Si Si5 0.205644 0.182437 0.756000
Si Si6 0.336698 0.698747 0.054783
Si Si7 0.411628 0.587233 0.568896
Si Si8 0.043913 0.488786 0.644904
O O1 0.736065 0.574440 0.499992
O O2 0.011727 0.591616 0.639168
O O3 0.000000 0.000000 0.500000
O O4 0.977477 0.415867 0.832212
O O5 0.185951 0.162489 0.068934
O O6 0.257157 0.470257 0.062278
O O7 0.041497 0.888527 0.216248
O O8 0.474526 0.522911 0.047386
O O9 0.432081 0.951842 0.373829
O O10 0.338675 0.082242 0.113516
O O11 0.267419 0.128613 0.902410
O O12 0.232347 0.518796 0.749484
O O13 0.335270 0.457351 0.656582
O O14 0.044544 0.302107 0.576991
O O15 0.199370 0.861574 0.889231
O O16 0.417775 0.492126 0.274088
O O17 0.500000 0.000000 0.000000
#
# Coordination Sequence:
#
# PCOD9011543 Si02
#       8
#     2   2   2   2   2   2   2   2
#     4  11  21  37  65  97 131 163 212 272 318 371
#     4  12  21  39  73  95 123 167 229 268 299 379
#     4  11  22  39  64  96 123 168 214 267 315 374
#     4  11  24  38  61  93 139 163 203 267 332 381
#     4  10  21  41  63  89 129 168 209 260 318 379
#     4  10  22  39  63  99 129 165 214 270 322 371
#     4  10  21  40  66  95 124 162 231 258 309 379
#     4  11  22  40  65  98 121 170 220 261 315 381
#
# _framework density 21.863676000000002
#
# number of rings (size 3 to 8) (size 9 to 14) (size 15 to 20)
#    0.000    1.250    3.750    5.250    1.750    1.000 
#    0.000    1.250    2.750    0.000    0.000    0.000 
#    0.000    0.000    0.000    0.000    0.000    0.000 
#
# Total GULP energy -89265.989048 kJ/mol
# GULP energy per Si atom -5579.124316 kJ/mol
# Density = 2.181391 g / cm^3
# Si number density = 21.863676 Si / 1000 Ang^3
#
#
#
# Elastic Constant Matrix: (Units=GPa)
#
#
# Indices 1 2 3 4 5 6 
#
# 1 51.0709 14.1762 23.4557 -4.7686 -5.4199 -4.6952
# 2 14.1762 83.9689 6.8846 -0.6769 -0.1274 -11.2742
# 3 23.4557 6.8846 107.4101 8.1771 10.6462 -7.4058
# 4 -4.7686 -0.6769 8.1771 32.8561 -6.6324 5.7261
# 5 -5.4199 -0.1274 10.6462 -6.6324 17.6770 7.3673
# 6 -4.6952 -11.2742 -7.4058 5.7261 7.3673 32.6660
#
#
#
# Elastic Compliance Matrix: (Units=1/GPa)
#
#
# Indices 1 2 3 4 5 6 
#
# 1 0.027843 -0.004694 -0.009208 0.011635 0.021127 -0.006510
# 2 -0.004694 0.013374 0.001397 -0.002999 -0.005853 0.006103
# 3 -0.009208 0.001397 0.014465 -0.010199 -0.018889 0.008486
# 4 0.011635 -0.002999 -0.010199 0.044297 0.033381 -0.016968
# 5 0.021127 -0.005853 -0.018889 0.033381 0.100117 -0.031697
# 6 -0.006510 0.006103 0.008486 -0.016968 -0.031697 0.043831
#
#
# Mechanical properties :
#
#
# Convention : Reuss Voigt Hill
#
# Bulk Modulus (GPa) = 32.60345 36.83144 34.71745
# Shear Modulus (GPa) = 17.91094 29.83537 23.87316
#
# Velocity S-wave (km/s) = 2.86529 3.69807 3.30799
# Velocity P-wave (km/s) = 5.08832 5.92594 5.52304
#
# Compressibility (1/GPa) = 0.03067160
#
# Stress axis : x y z
#
# Youngs Moduli (GPa) = 35.91618 74.77463 69.13170
#
# Poissons Ratio (x) = 0.35098 0.63657
# Poissons Ratio (y) = 0.16859 -0.09658
# Poissons Ratio (z) = 0.33072 -0.10447
#
# Static dielectric constant tensor:
#      x y z
#    x 1.811960 0.007370 -0.005320 
#    y 0.007370 1.825260 0.017410 
#    z -0.005320 0.017410 1.856830 
# 
# From -- ./inp_files/599995.got.cif
#   From: 2010.05.17/outbox.cif.g08.bks.cpg/sg2_300_cif.got.tgz:599995.got - 2010.06.03 11:33:40.
