data_PCOD9011538
_publ_section_title
;
Structure prediction by ZEFSAII (Michael W. Deem and Ramdas Pophale) SiO2 
 PCOD9011538
Probable space group: P -1
;
_chemical_formula_sum "Si O2"
_cell_formula_units_Z 16
_cell_length_a 13.992035
_cell_length_b 18.162831
_cell_length_c 7.758898
_cell_angle_alpha 137.748510
_cell_angle_beta 145.167389
_cell_angle_gamma 43.861035
_cell_volume 723.486926
_symmetry_space_group_name_H-M "P -1"
_symmetry_group_IT_number 2
_symmetry_cell_setting 'triclinic'
loop_
_space_group_symop_operation_xyz
x,y,z
-x,-y,-z
loop_
_atom_site_type_symbol
_atom_site_label
_atom_site_fract_x
_atom_site_fract_y
_atom_site_fract_z
Si Si1 0.883500 0.175842 0.086235
Si Si2 0.477558 0.532178 0.320988
Si Si3 0.173653 0.945547 0.552202
Si Si4 0.151891 0.347950 0.281191
Si Si5 0.479959 0.714474 0.122041
Si Si6 0.811733 0.845644 0.253239
Si Si7 0.893010 0.398524 0.299229
Si Si8 0.477935 0.237660 0.129690
O O1 0.894898 0.300741 0.266272
O O2 0.043439 0.125915 0.363240
O O3 0.885763 0.110380 0.799323
O O4 0.696903 0.190927 0.925110
O O5 0.500000 0.500000 0.500000
O O6 0.547527 0.641806 0.598323
O O7 0.555859 0.409866 0.133792
O O8 0.278764 0.572804 0.027743
O O9 0.326506 0.845671 0.694481
O O10 0.251126 0.047592 0.784110
O O11 0.000000 0.000000 0.500000
O O12 0.358157 0.292909 0.526470
O O13 0.108390 0.482436 0.406756
O O14 0.054292 0.352808 0.327881
O O15 0.100060 0.268467 0.926347
O O16 0.537168 0.733605 0.045855
O O17 0.661602 0.820761 0.104270
#
# Coordination Sequence:
#
# PCOD9011538 Si02
#       8
#     2   2   2   2   2   2   2   2
#     4  12  25  43  69  99 134 171 232 266 337 401
#     4   9  20  37  68  96 135 175 219 260 337 396
#     4  12  26  48  72  93 130 180 228 277 334 394
#     4  10  23  41  64  98 137 172 221 275 336 387
#     4  10  23  42  68  99 137 177 216 275 335 403
#     4  12  27  42  67 100 137 175 227 276 329 390
#     4  10  21  40  66  94 136 178 218 275 332 396
#     4  11  23  44  67  98 135 175 227 276 333 390
#
# _framework density 22.115119
#
# number of rings (size 3 to 8) (size 9 to 14) (size 15 to 20)
#    0.000    1.250    1.250    3.750    5.250    2.500 
#    0.000    1.875    0.000    0.000    0.000    0.000 
#    0.000    0.000    0.000    0.000    0.000    0.000 
#
# Total GULP energy -89496.160279 kJ/mol
# GULP energy per Si atom -5593.510017 kJ/mol
# Density = 2.206478 g / cm^3
# Si number density = 22.115119 Si / 1000 Ang^3
#
#
#
# Elastic Constant Matrix: (Units=GPa)
#
#
# Indices 1 2 3 4 5 6 
#
# 1 73.8960 19.4096 8.8583 1.5675 12.3344 -5.9625
# 2 19.4096 64.6967 -1.4995 -7.2474 7.1167 13.6776
# 3 8.8583 -1.4995 37.3327 -3.0658 -2.1594 -11.2087
# 4 1.5675 -7.2474 -3.0658 31.5990 5.1405 7.7513
# 5 12.3344 7.1167 -2.1594 5.1405 33.5892 4.2098
# 6 -5.9625 13.6776 -11.2087 7.7513 4.2098 37.4854
#
#
#
# Elastic Compliance Matrix: (Units=1/GPa)
#
#
# Indices 1 2 3 4 5 6 
#
# 1 0.016842 -0.005937 -0.003259 -0.002889 -0.005329 0.005067
# 2 -0.005937 0.020400 -0.000205 0.007701 -0.002105 -0.009805
# 3 -0.003259 -0.000205 0.030192 0.000697 0.002046 0.008210
# 4 -0.002889 0.007701 0.000697 0.036910 -0.004903 -0.010143
# 5 -0.005329 -0.002105 0.002046 -0.004903 0.033332 -0.002197
# 6 0.005067 -0.009805 0.008210 -0.010143 -0.002197 0.035860
#
#
# Mechanical properties :
#
#
# Convention : Reuss Voigt Hill
#
# Bulk Modulus (GPa) = 20.56257 25.49581 23.02919
# Shear Modulus (GPa) = 23.97517 30.47851 27.22684
#
# Velocity S-wave (km/s) = 3.29615 3.71641 3.51257
# Velocity P-wave (km/s) = 4.87897 5.47442 5.18525
#
# Compressibility (1/GPa) = 0.04863206
#
# Stress axis : x y z
#
# Youngs Moduli (GPa) = 59.37446 49.01872 33.12142
#
# Poissons Ratio (x) = 0.29102 0.10795
# Poissons Ratio (y) = 0.35250 0.00679
# Poissons Ratio (z) = 0.19351 0.01006
#
# Static dielectric constant tensor:
#      x y z
#    x 1.794490 0.009490 0.019640 
#    y 0.009490 1.828840 0.024080 
#    z 0.019640 0.024080 1.792670 
# 
# From -- ./inp_files/318190.got.cif
#   From: 2010.05.17/outbox.cif.g08.bks.cpg/sg2_160_cif.got.tgz:318190.got - 2010.06.03 11:33:40.
