data_PCOD9011328
_publ_section_title
;
Structure prediction by ZEFSAII (Michael W. Deem and Ramdas Pophale) SiO2 
 PCOD9011328
Probable space group: P -1
;
_chemical_formula_sum "Si O2"
_cell_formula_units_Z 14
_cell_length_a 11.661448
_cell_length_b 7.744814
_cell_length_c 8.650174
_cell_angle_alpha 103.153187
_cell_angle_beta 119.486095
_cell_angle_gamma 110.427715
_cell_volume 555.697434
_symmetry_space_group_name_H-M "P -1"
_symmetry_group_IT_number 2
_symmetry_cell_setting 'triclinic'
loop_
_space_group_symop_operation_xyz
x,y,z
-x,-y,-z
loop_
_atom_site_type_symbol
_atom_site_label
_atom_site_fract_x
_atom_site_fract_y
_atom_site_fract_z
Si Si1 0.125174 0.253511 0.132023
Si Si2 0.175933 0.766450 0.022941
Si Si3 0.842650 0.998527 0.441092
Si Si4 0.662437 0.111755 0.535093
Si Si5 0.665601 0.467673 0.408794
Si Si6 0.686228 0.799229 0.972450
Si Si7 0.903098 0.555668 0.333444
O O1 0.266409 0.364414 0.371858
O O2 0.208035 0.290026 0.029809
O O3 0.008456 0.323375 0.118127
O O4 0.000000 0.000000 0.000000
O O5 0.203343 0.634691 0.889976
O O6 0.220871 0.752648 0.221819
O O7 0.270137 0.008692 0.076938
O O8 0.706110 0.947199 0.465153
O O9 0.952724 0.245532 0.613165
O O10 0.000000 0.000000 0.500000
O O11 0.743534 0.909039 0.198969
O O12 0.661737 0.262209 0.431290
O O13 0.500000 0.000000 0.500000
O O14 0.494618 0.378729 0.208574
O O15 0.790303 0.586209 0.376816
O O16 0.000000 0.500000 0.500000
#
# Coordination Sequence:
#
# PCOD9011328 Si02
#       7
#     2   2   2   2   2   2   2
#     4  10  21  40  65  98 133 177 230 283 344 416
#     4  11  22  41  71  98 136 189 236 282 349 422
#     4  12  27  49  73 102 143 189 241 293 352 424
#     4  12  26  43  69 109 146 179 234 304 351 410
#     4  12  24  43  71 104 138 185 241 288 354 424
#     4  11  23  42  70 100 139 186 228 293 355 415
#     4  12  22  46  72 101 133 191 246 280 344 435
#
# _framework density 25.193563000000001
#
# number of rings (size 3 to 8) (size 9 to 14) (size 15 to 20)
#    0.000    0.571    5.714    2.143    2.000    5.714 
#    2.571    0.714    0.000    0.000    0.000    0.000 
#    0.000    0.000    0.000    0.000    0.000    0.000 
#
# Total GULP energy -78106.523575 kJ/mol
# GULP energy per Si atom -5579.037398 kJ/mol
# Density = 2.513622 g / cm^3
# Si number density = 25.193563 Si / 1000 Ang^3
#
#
#
# Elastic Constant Matrix: (Units=GPa)
#
#
# Indices 1 2 3 4 5 6 
#
# 1 133.7465 3.4545 48.9357 4.6136 -9.2455 23.2086
# 2 3.4545 43.1445 10.3949 4.8126 15.0114 15.1158
# 3 48.9357 10.3949 162.0659 11.9428 4.0598 12.3996
# 4 4.6136 4.8126 11.9428 33.5505 1.4574 3.6663
# 5 -9.2455 15.0114 4.0598 1.4574 58.0800 8.6584
# 6 23.2086 15.1158 12.3996 3.6663 8.6584 33.0590
#
#
#
# Elastic Compliance Matrix: (Units=1/GPa)
#
#
# Indices 1 2 3 4 5 6 
#
# 1 0.009802 0.001528 -0.002566 0.000034 0.002426 -0.007257
# 2 0.001528 0.029928 -0.001093 -0.002495 -0.005469 -0.012638
# 3 -0.002566 -0.001093 0.007180 -0.002019 -0.000574 -0.000017
# 4 0.000034 -0.002495 -0.002019 0.031045 0.000256 -0.001636
# 5 0.002426 -0.005469 -0.000574 0.000256 0.019672 -0.004168
# 6 -0.007257 -0.012638 -0.000017 -0.001636 -0.004168 0.042401
#
#
# Mechanical properties :
#
#
# Convention : Reuss Voigt Hill
#
# Bulk Modulus (GPa) = 23.44801 51.61411 37.53106
# Shear Modulus (GPa) = 31.54455 43.34936 37.44696
#
# Velocity S-wave (km/s) = 3.54232 4.15257 3.85953
# Velocity P-wave (km/s) = 5.10471 6.59722 5.89837
#
# Compressibility (1/GPa) = 0.04264755
#
# Stress axis : x y z
#
# Youngs Moduli (GPa) = 102.02155 33.41378 139.28187
#
# Poissons Ratio (x) = -0.05106 0.35736
# Poissons Ratio (y) = -0.15589 0.15225
# Poissons Ratio (z) = 0.26176 0.03653
#
# Static dielectric constant tensor:
#      x y z
#    x 2.049410 -0.087840 0.005990 
#    y -0.087840 2.137100 -0.034370 
#    z 0.005990 -0.034370 1.888830 
# 
# From -- ./inp_files/158119.got.cif
#   From: 2010.05.17/outbox.cif.g08.bks.cpg/sg2_80_cif.got.tgz:158119.got - 2010.06.03 11:33:40.
