data_PCOD9011117
_publ_section_title
;
Structure prediction by ZEFSAII (Michael W. Deem and Ramdas Pophale) SiO2 
 PCOD9011117
Probable space group: P -1
;
_chemical_formula_sum "Si O2"
_cell_formula_units_Z 16
_cell_length_a 5.234162
_cell_length_b 18.213286
_cell_length_c 23.447805
_cell_angle_alpha 20.425855
_cell_angle_beta 76.247523
_cell_angle_gamma 76.802688
_cell_volume 757.646717
_symmetry_space_group_name_H-M "P -1"
_symmetry_group_IT_number 2
_symmetry_cell_setting 'triclinic'
loop_
_space_group_symop_operation_xyz
x,y,z
-x,-y,-z
loop_
_atom_site_type_symbol
_atom_site_label
_atom_site_fract_x
_atom_site_fract_y
_atom_site_fract_z
Si Si1 0.543095 0.068443 0.340369
Si Si2 0.851245 0.894339 0.030889
Si Si3 0.986696 0.678169 0.823815
Si Si4 0.048341 0.567751 0.667882
Si Si5 0.760170 0.657806 0.413963
Si Si6 0.497602 0.766812 0.241071
Si Si7 0.855675 0.212003 0.378576
Si Si8 0.390159 0.237643 0.533500
O O1 0.314137 0.246655 0.225015
O O2 0.825703 0.139765 0.294136
O O3 0.428499 0.877153 0.523705
O O4 0.560497 0.988008 0.333550
O O5 0.968280 0.686788 0.145919
O O6 0.608217 0.799196 0.148736
O O7 0.749993 0.073476 0.862423
O O8 0.000000 0.000000 0.000000
O O9 0.119667 0.629593 0.790949
O O10 0.000000 0.500000 0.000000
O O11 0.035650 0.676830 0.651396
O O12 0.326589 0.649213 0.567827
O O13 0.814171 0.643432 0.584093
O O14 0.681712 0.805868 0.257393
O O15 0.547110 0.479086 0.569778
O O16 0.754971 0.776371 0.387797
O O17 0.000000 0.500000 0.500000
O O18 0.000000 0.000000 0.500000
#
# Coordination Sequence:
#
# PCOD9011117 Si02
#       8
#     2   2   2   2   2   2   2   2
#     4  10  21  40  65  92 122 172 217 261 319 390
#     4  11  22  40  61  87 126 172 206 266 324 385
#     4  11  22  40  63  95 133 167 204 264 338 392
#     4  11  23  39  64  97 124 165 221 273 315 384
#     4  11  22  39  60  91 118 168 212 269 317 386
#     4  10  22  38  60  84 121 159 218 251 329 378
#     4   9  20  40  67  94 122 168 221 264 314 386
#     4  11  22  40  64  94 124 162 221 275 310 373
#
# _framework density 21.118022
#
# number of rings (size 3 to 8) (size 9 to 14) (size 15 to 20)
#    0.000    1.500    1.250    5.250    3.500    3.000 
#    2.250    1.250    0.000    0.000    0.000    0.000 
#    0.000    0.000    0.000    0.000    0.000    0.000 
#
# Total GULP energy -89125.496879 kJ/mol
# GULP energy per Si atom -5570.343555 kJ/mol
# Density = 2.106996 g / cm^3
# Si number density = 21.118022 Si / 1000 Ang^3
#
#
#
# Elastic Constant Matrix: (Units=GPa)
#
#
# Indices 1 2 3 4 5 6 
#
# 1 67.3208 5.5917 9.2885 -0.5069 11.0965 2.1511
# 2 5.5917 136.8373 25.4241 5.4317 11.3256 -9.1139
# 3 9.2885 25.4241 66.9679 11.4482 20.7223 8.9547
# 4 -0.5069 5.4317 11.4482 39.2348 9.2274 0.4406
# 5 11.0965 11.3256 20.7223 9.2274 28.4540 5.1896
# 6 2.1511 -9.1139 8.9547 0.4406 5.1896 17.3912
#
#
#
# Elastic Compliance Matrix: (Units=1/GPa)
#
#
# Indices 1 2 3 4 5 6 
#
# 1 0.016009 -0.000088 -0.000528 0.001891 -0.006460 0.000125
# 2 -0.000088 0.008609 -0.003572 0.000278 -0.002158 0.006998
# 3 -0.000528 -0.003572 0.021695 -0.003042 -0.011456 -0.009481
# 4 0.001891 0.000278 -0.003042 0.028302 -0.008407 0.003270
# 5 -0.006460 -0.002158 -0.011456 -0.008407 0.051332 -0.009538
# 6 0.000125 0.006998 -0.009481 0.003270 -0.009538 0.068797
#
#
# Mechanical properties :
#
#
# Convention : Reuss Voigt Hill
#
# Bulk Modulus (GPa) = 26.35979 39.08164 32.72072
# Shear Modulus (GPa) = 23.17333 32.40410 27.78871
#
# Velocity S-wave (km/s) = 3.31618 3.92143 3.63144
# Velocity P-wave (km/s) = 5.21268 6.24899 5.75421
#
# Compressibility (1/GPa) = 0.03793657
#
# Stress axis : x y z
#
# Youngs Moduli (GPa) = 62.46313 116.15986 46.09454
#
# Poissons Ratio (x) = 0.01024 0.02435
# Poissons Ratio (y) = 0.00551 0.16464
# Poissons Ratio (z) = 0.03299 0.41490
#
# Static dielectric constant tensor:
#      x y z
#    x 1.887710 0.006310 -0.030600 
#    y 0.006310 1.844420 0.044900 
#    z -0.030600 0.044900 1.634790 
# 
# From -- ./inp_files/564405.got.cif
#   From: 2010.05.17/outbox.cif.g08.bks.cpg/sg2_283_cif.got.tgz:564405.got - 2010.06.03 11:33:40.
