data_PCOD9011895
_publ_section_title
;
Structure prediction by ZEFSAII (Michael W. Deem and Ramdas Pophale) SiO2 
 PCOD9011895
Probable space group: P -1
;
_chemical_formula_sum "Si O2"
_cell_formula_units_Z 16
_cell_length_a 14.961328
_cell_length_b 9.856508
_cell_length_c 11.880388
_cell_angle_alpha 39.371038
_cell_angle_beta 48.608539
_cell_angle_gamma 48.322246
_cell_volume 788.995827
_symmetry_space_group_name_H-M "P -1"
_symmetry_group_IT_number 2
_symmetry_cell_setting 'triclinic'
loop_
_space_group_symop_operation_xyz
x,y,z
-x,-y,-z
loop_
_atom_site_type_symbol
_atom_site_label
_atom_site_fract_x
_atom_site_fract_y
_atom_site_fract_z
Si Si1 0.614632 0.839171 0.939190
Si Si2 0.061601 0.324181 0.889896
Si Si3 0.076382 0.460569 0.346560
Si Si4 0.453261 0.619855 0.079881
Si Si5 0.185310 0.529658 0.842209
Si Si6 0.779175 0.170060 0.999466
Si Si7 0.738772 0.036506 0.533344
Si Si8 0.576187 0.165214 0.366667
O O1 0.693138 0.982994 0.726510
O O2 0.548344 0.750258 0.950439
O O3 0.702616 0.633980 0.071043
O O4 0.500000 0.000000 0.000000
O O5 0.158300 0.389946 0.849103
O O6 0.019458 0.481750 0.715061
O O7 0.936481 0.377820 0.035506
O O8 0.116544 0.069028 0.961411
O O9 0.159489 0.631472 0.159712
O O10 0.000000 0.500000 0.500000
O O11 0.162190 0.200817 0.435400
O O12 0.311865 0.768148 0.074163
O O13 0.478466 0.418932 0.277373
O O14 0.500000 0.500000 0.000000
O O15 0.212313 0.752068 0.636214
O O16 0.691838 0.150865 0.191918
O O17 0.631729 0.104100 0.483241
O O18 0.500000 0.000000 0.500000
#
# Coordination Sequence:
#
# PCOD9011895 Si02
#       8
#     2   2   2   2   2   2   2   2
#     4  12  25  47  68 100 139 185 234 288 353 421
#     4  11  24  45  68  97 143 182 230 290 343 409
#     4  12  24  42  70 107 136 183 234 285 356 416
#     4  10  21  40  67  97 136 174 221 289 350 406
#     4  11  25  47  69  96 138 190 232 283 346 416
#     4  11  22  42  67 103 142 173 229 296 348 412
#     4  12  23  43  70  96 141 177 230 284 344 418
#     4  11  21  38  67 101 134 179 222 282 357 415
#
# _framework density 20.278943000000002
#
# number of rings (size 3 to 8) (size 9 to 14) (size 15 to 20)
#    0.000    0.750    2.500    7.125    0.000    1.000 
#    6.750    0.000    0.000    0.000    0.000    0.000 
#    0.000    0.000    0.000    0.000    0.000    0.000 
#
# Total GULP energy -89440.254861 kJ/mol
# GULP energy per Si atom -5590.015929 kJ/mol
# Density = 2.023279 g / cm^3
# Si number density = 20.278943 Si / 1000 Ang^3
#
#
#
# Elastic Constant Matrix: (Units=GPa)
#
#
# Indices 1 2 3 4 5 6 
#
# 1 91.5258 20.1442 11.8384 -8.2662 11.6590 -0.3347
# 2 20.1442 69.5542 51.2753 -9.7356 -4.5139 -5.5565
# 3 11.8384 51.2753 117.5540 -1.8310 1.5171 3.0043
# 4 -8.2662 -9.7356 -1.8310 33.7487 -6.7977 7.2108
# 5 11.6590 -4.5139 1.5171 -6.7977 36.3409 -11.5140
# 6 -0.3347 -5.5565 3.0043 7.2108 -11.5140 33.6861
#
#
#
# Elastic Compliance Matrix: (Units=1/GPa)
#
#
# Indices 1 2 3 4 5 6 
#
# 1 0.012638 -0.004767 0.000969 0.001306 -0.005347 -0.002854
# 2 -0.004767 0.025739 -0.010937 0.005913 0.008441 0.006793
# 3 0.000969 -0.010937 0.013294 -0.002151 -0.003841 -0.003832
# 4 0.001306 0.005913 -0.002151 0.033507 0.005354 -0.004162
# 5 -0.005347 0.008441 -0.003841 0.005354 0.035452 0.012653
# 6 -0.002854 0.006793 -0.003832 -0.004162 0.012653 0.036336
#
#
# Mechanical properties :
#
#
# Convention : Reuss Voigt Hill
#
# Bulk Modulus (GPa) = 45.04404 49.46108 47.25256
# Shear Modulus (GPa) = 25.79479 33.78021 29.78750
#
# Velocity S-wave (km/s) = 3.57038 4.08582 3.83677
# Velocity P-wave (km/s) = 6.26556 6.83388 6.55588
#
# Compressibility (1/GPa) = 0.02220049
#
# Stress axis : x y z
#
# Youngs Moduli (GPa) = 79.12412 38.85152 75.22239
#
# Poissons Ratio (x) = 0.18519 -0.07287
# Poissons Ratio (y) = 0.37716 0.82274
# Poissons Ratio (z) = -0.07665 0.42493
#
# Static dielectric constant tensor:
#      x y z
#    x 1.738360 -0.012040 -0.011060 
#    y -0.012040 1.696790 0.007140 
#    z -0.011060 0.007140 1.723390 
# 
# From -- ./inp_files/398880.got.cif
#   From: 2010.05.17/outbox.cif.g08.bks.cpg/sg2_200_cif.got.tgz:398880.got - 2010.06.03 11:33:40.
