data_PCOD9011210
_publ_section_title
;
Structure prediction by ZEFSAII (Michael W. Deem and Ramdas Pophale) SiO2 
 PCOD9011210
Probable space group: P -1
;
_chemical_formula_sum "Si O2"
_cell_formula_units_Z 12
_cell_length_a 11.392596
_cell_length_b 14.924851
_cell_length_c 11.699916
_cell_angle_alpha 156.416598
_cell_angle_beta 37.150700
_cell_angle_gamma 147.949734
_cell_volume 420.435030
_symmetry_space_group_name_H-M "P -1"
_symmetry_group_IT_number 2
_symmetry_cell_setting 'triclinic'
loop_
_space_group_symop_operation_xyz
x,y,z
-x,-y,-z
loop_
_atom_site_type_symbol
_atom_site_label
_atom_site_fract_x
_atom_site_fract_y
_atom_site_fract_z
Si Si1 0.738362 0.314728 0.673758
Si Si2 0.248336 0.732252 0.792856
Si Si3 0.577132 0.568398 0.245684
Si Si4 0.154211 0.976695 0.579119
Si Si5 0.102698 0.894418 0.897147
Si Si6 0.704377 0.463938 0.258419
O O1 0.692777 0.090516 0.537645
O O2 0.799778 0.253496 0.429285
O O3 0.985801 0.538732 0.776057
O O4 0.564707 0.407401 0.955089
O O5 0.356855 0.565020 0.459999
O O6 0.281533 0.951914 0.932755
O O7 0.309465 0.765054 0.918248
O O8 0.681847 0.468073 0.144615
O O9 0.732635 0.858968 0.427606
O O10 0.933435 0.720000 0.412108
O O11 0.087900 0.141042 0.907107
O O12 0.000000 0.000000 0.000000
O O13 0.500000 0.500000 0.500000
#
# Coordination Sequence:
#
# PCOD9011210 Si02
#       6
#     2   2   2   2   2   2
#     4  10  22  42  65  90 132 171 208 264 318 373
#     4  10  21  40  66  92 128 173 207 259 322 373
#     4  11  22  41  65  99 129 165 218 258 316 382
#     4  10  21  40  65  94 130 168 213 263 314 378
#     4  10  21  42  66  93 129 171 212 261 323 375
#     4   9  21  42  65  94 129 169 212 260 320 381
#
# _framework density 28.541864
#
# number of rings (size 3 to 8) (size 9 to 14) (size 15 to 20)
#    0.000    2.000    1.667    1.000    0.000    3.333 
#   15.000    3.333    0.000    0.000    0.000    0.000 
#    0.000    0.000    0.000    0.000    0.000    0.000 
#
# Total GULP energy -66805.316146 kJ/mol
# GULP energy per Si atom -5567.109679 kJ/mol
# Density = 2.847690 g / cm^3
# Si number density = 28.541864 Si / 1000 Ang^3
#
#
#
# Elastic Constant Matrix: (Units=GPa)
#
#
# Indices 1 2 3 4 5 6 
#
# 1 223.4581 56.4563 39.8490 13.1010 -12.4505 -55.5248
# 2 56.4563 132.7390 23.9601 0.5807 8.5979 -27.4616
# 3 39.8490 23.9601 163.1383 -42.5193 0.1553 -8.7852
# 4 13.1010 0.5807 -42.5193 40.8957 -7.3387 -8.3015
# 5 -12.4505 8.5979 0.1553 -7.3387 33.7838 0.0521
# 6 -55.5248 -27.4616 -8.7852 -8.3015 0.0521 56.5252
#
#
#
# Elastic Compliance Matrix: (Units=1/GPa)
#
#
# Indices 1 2 3 4 5 6 
#
# 1 0.006784 -0.001622 -0.001802 -0.002540 0.002361 0.005221
# 2 -0.001622 0.009138 -0.000969 -0.000639 -0.003062 0.002605
# 3 -0.001802 -0.000969 0.009675 0.011186 0.001967 0.000904
# 4 -0.002540 -0.000639 0.011186 0.039237 0.007691 0.004688
# 5 0.002361 -0.003062 0.001967 0.007691 0.032908 0.002237
# 6 0.005221 0.002605 0.000904 0.004688 0.002237 0.024912
#
#
# Mechanical properties :
#
#
# Convention : Reuss Voigt Hill
#
# Bulk Modulus (GPa) = 59.48648 84.42958 71.95803
# Shear Modulus (GPa) = 36.48475 52.84558 44.66517
#
# Velocity S-wave (km/s) = 3.57920 4.30759 3.96017
# Velocity P-wave (km/s) = 6.16181 7.37466 6.79535
#
# Compressibility (1/GPa) = 0.01681054
#
# Stress axis : x y z
#
# Youngs Moduli (GPa) = 147.40669 109.42889 103.36394
#
# Poissons Ratio (x) = 0.17747 0.18627
# Poissons Ratio (y) = 0.23907 0.10018
# Poissons Ratio (z) = 0.26564 0.10606
#
# Static dielectric constant tensor:
#      x y z
#    x 2.288860 -0.056710 0.005740 
#    y -0.056710 2.311890 0.128710 
#    z 0.005740 0.128710 2.203860 
# 
# From -- ./inp_files/203479.got.cif
#   From: 2010.05.17/outbox.cif.g08.bks.cpg/sg2_102_cif.got.tgz:203479.got - 2010.06.03 11:33:40.
