data_PCOD9011652
_publ_section_title
;
Structure prediction by ZEFSAII (Michael W. Deem and Ramdas Pophale) SiO2 
 PCOD9011652
Probable space group: P -1
;
_chemical_formula_sum "Si O2"
_cell_formula_units_Z 16
_cell_length_a 9.504402
_cell_length_b 10.569935
_cell_length_c 21.073917
_cell_angle_alpha 129.407490
_cell_angle_beta 26.783150
_cell_angle_gamma 120.478875
_cell_volume 726.262868
_symmetry_space_group_name_H-M "P -1"
_symmetry_group_IT_number 2
_symmetry_cell_setting 'triclinic'
loop_
_space_group_symop_operation_xyz
x,y,z
-x,-y,-z
loop_
_atom_site_type_symbol
_atom_site_label
_atom_site_fract_x
_atom_site_fract_y
_atom_site_fract_z
Si Si1 0.611856 0.000712 0.609754
Si Si2 0.342170 0.684081 0.639345
Si Si3 0.591615 0.426689 0.154675
Si Si4 0.963875 0.933562 0.316239
Si Si5 0.786252 0.736079 0.213157
Si Si6 0.508381 0.075864 0.813931
Si Si7 0.213970 0.759388 0.856079
Si Si8 0.796095 0.848031 0.817184
O O1 0.587969 0.809589 0.568827
O O2 0.792525 0.011325 0.473850
O O3 0.268294 0.106527 0.762077
O O4 0.684210 0.065009 0.671205
O O5 0.500000 0.500000 0.500000
O O6 0.269194 0.675277 0.739584
O O7 0.029914 0.776638 0.757579
O O8 0.534945 0.624091 0.252752
O O9 0.716485 0.359846 0.151281
O O10 0.329216 0.317687 0.208032
O O11 0.871226 0.373379 0.973884
O O12 0.301641 0.849661 0.183506
O O13 0.791008 0.806290 0.305116
O O14 0.017922 0.074015 0.288871
O O15 0.445562 0.896767 0.807280
O O16 0.154027 0.162783 0.970438
O O17 0.500000 0.000000 0.000000
#
# Coordination Sequence:
#
# PCOD9011652 Si02
#       8
#     2   2   2   2   2   2   2   2
#     4  11  23  44  63  95 141 179 222 278 358 412
#     4  11  26  44  67 102 142 177 224 288 347 409
#     4  11  23  43  67 100 133 170 233 291 331 400
#     4  12  23  39  72  94 129 184 228 280 339 408
#     4  11  24  42  66  97 136 175 220 291 350 394
#     4  10  21  40  66  99 125 176 235 278 331 414
#     4  10  21  40  69  91 133 177 220 286 347 390
#     4  12  23  45  75 102 129 178 247 281 320 417
#
# _framework density 22.030591000000001
#
# number of rings (size 3 to 8) (size 9 to 14) (size 15 to 20)
#    0.000    1.000    5.000    1.500    3.500    0.000 
#    6.750    1.875    0.000    0.000    0.000    0.000 
#    0.000    0.000    0.000    0.000    0.000    0.000 
#
# Total GULP energy -89236.835143 kJ/mol
# GULP energy per Si atom -5577.302196 kJ/mol
# Density = 2.198045 g / cm^3
# Si number density = 22.030591 Si / 1000 Ang^3
#
#
#
# Elastic Constant Matrix: (Units=GPa)
#
#
# Indices 1 2 3 4 5 6 
#
# 1 100.6537 13.2271 1.8538 10.5317 5.9143 15.0848
# 2 13.2271 83.0893 13.6634 15.1996 11.4868 20.8518
# 3 1.8538 13.6634 58.0781 1.6764 22.2442 0.8762
# 4 10.5317 15.1996 1.6764 31.1256 -3.4142 2.2473
# 5 5.9143 11.4868 22.2442 -3.4142 32.8093 -0.6949
# 6 15.0848 20.8518 0.8762 2.2473 -0.6949 32.3808
#
#
#
# Elastic Compliance Matrix: (Units=1/GPa)
#
#
# Indices 1 2 3 4 5 6 
#
# 1 0.011300 0.000667 0.001037 -0.004194 -0.003527 -0.005506
# 2 0.000667 0.017350 -0.001199 -0.008553 -0.006505 -0.010997
# 3 0.001037 -0.001199 0.023747 -0.002781 -0.016168 -0.000508
# 4 -0.004194 -0.008553 -0.002781 0.038578 0.009758 0.005069
# 5 -0.003527 -0.006505 -0.016168 0.009758 0.045508 0.006569
# 6 -0.005506 -0.010997 -0.000508 0.005069 0.006569 0.040332
#
#
# Mechanical properties :
#
#
# Convention : Reuss Voigt Hill
#
# Bulk Modulus (GPa) = 18.72363 33.25665 25.99014
# Shear Modulus (GPa) = 25.82554 33.46825 29.64689
#
# Velocity S-wave (km/s) = 3.42754 3.90188 3.67238
# Velocity P-wave (km/s) = 4.91746 5.95215 5.45937
#
# Compressibility (1/GPa) = 0.05340844
#
# Stress axis : x y z
#
# Youngs Moduli (GPa) = 88.49880 57.63752 42.10984
#
# Poissons Ratio (x) = -0.03847 -0.04368
# Poissons Ratio (y) = -0.05906 0.05048
# Poissons Ratio (z) = -0.09180 0.06910
#
# Static dielectric constant tensor:
#      x y z
#    x 1.815350 0.048950 -0.048500 
#    y 0.048950 1.862750 -0.001510 
#    z -0.048500 -0.001510 1.960480 
# 
# From -- ./inp_files/589059.got.cif
#   From: 2010.05.17/outbox.cif.g08.bks.cpg/sg2_295_cif.got.tgz:589059.got - 2010.06.03 11:33:40.
