data_PCOD9011478
_publ_section_title
;
Structure prediction by ZEFSAII (Michael W. Deem and Ramdas Pophale) SiO2 
 PCOD9011478
Probable space group: P -1
;
_chemical_formula_sum "Si O2"
_cell_formula_units_Z 16
_cell_length_a 25.289302
_cell_length_b 6.515746
_cell_length_c 9.581162
_cell_angle_alpha 97.859272
_cell_angle_beta 144.155717
_cell_angle_gamma 60.653441
_cell_volume 692.986318
_symmetry_space_group_name_H-M "P -1"
_symmetry_group_IT_number 2
_symmetry_cell_setting 'triclinic'
loop_
_space_group_symop_operation_xyz
x,y,z
-x,-y,-z
loop_
_atom_site_type_symbol
_atom_site_label
_atom_site_fract_x
_atom_site_fract_y
_atom_site_fract_z
Si Si1 0.869655 0.471174 0.013189
Si Si2 0.652334 0.929000 0.934489
Si Si3 0.789994 0.315150 0.080036
Si Si4 0.130337 0.079915 0.534473
Si Si5 0.347653 0.885740 0.325035
Si Si6 0.611325 0.886023 0.131834
Si Si7 0.790933 0.313666 0.581890
Si Si8 0.388655 0.720000 0.686492
O O1 0.860531 0.313167 0.102064
O O2 0.000029 0.379008 0.293956
O O3 0.760683 0.794887 0.835111
O O4 0.858873 0.373455 0.831369
O O5 0.710097 0.622822 0.994027
O O6 0.760615 0.923532 0.207632
O O7 0.572491 0.011942 0.906735
O O8 0.592921 0.110732 0.685865
O O9 0.860556 0.105430 0.340184
O O10 0.710034 0.247320 0.846350
O O11 0.141019 0.949993 0.395572
O O12 0.427474 0.729342 0.616677
O O13 0.704698 0.562062 0.311884
O O14 0.672134 0.991797 0.344283
O O15 0.500000 0.000000 0.000000
O O16 0.704729 0.323803 0.506953
O O17 0.500000 0.500000 0.000000
#
# Coordination Sequence:
#
# PCOD9011478 Si02
#       8
#     2   2   2   2   2   2   2   2
#     4  11  23  39  65 100 135 179 221 262 325 391
#     4  10  23  43  67  97 138 171 219 277 322 391
#     4  10  21  40  66  92 142 178 216 266 325 382
#     4  11  23  39  65 100 135 179 221 262 325 391
#     4  10  23  43  67  97 138 171 219 277 322 391
#     4  12  24  44  72  95 123 174 224 274 339 392
#     4  12  23  42  66  96 140 166 221 278 324 388
#     4  12  24  44  72  95 123 174 224 274 339 392
#
# _framework density 23.088479
#
# number of rings (size 3 to 8) (size 9 to 14) (size 15 to 20)
#    0.000    1.000    6.250    0.750    0.000    5.500 
#    0.000    2.500    2.750    0.000    0.000    0.000 
#    0.000    0.000    0.000    0.000    0.000    0.000 
#
# Total GULP energy -89465.653417 kJ/mol
# GULP energy per Si atom -5591.603339 kJ/mol
# Density = 2.303593 g / cm^3
# Si number density = 23.088479 Si / 1000 Ang^3
#
#
#
# Elastic Constant Matrix: (Units=GPa)
#
#
# Indices 1 2 3 4 5 6 
#
# 1 118.2677 21.2327 71.6413 -11.9872 -46.2456 2.9374
# 2 21.2327 86.6476 16.2185 12.3207 -3.0233 8.6103
# 3 71.6413 16.2185 74.9736 -0.5583 -24.8414 -3.9137
# 4 -11.9872 12.3207 -0.5583 24.4621 -5.0198 -8.4708
# 5 -46.2456 -3.0233 -24.8414 -5.0198 45.5063 3.1174
# 6 2.9374 8.6103 -3.9137 -8.4708 3.1174 26.9809
#
#
#
# Elastic Compliance Matrix: (Units=1/GPa)
#
#
# Indices 1 2 3 4 5 6 
#
# 1 0.041183 -0.008124 -0.027589 0.029711 0.029527 0.000023
# 2 -0.008124 0.016276 0.001074 -0.016706 -0.007850 -0.008492
# 3 -0.027589 0.001074 0.036314 -0.013614 -0.009974 0.004807
# 4 0.029711 -0.016706 -0.013614 0.076656 0.028678 0.020875
# 5 0.029527 -0.007850 -0.009974 0.028678 0.049099 0.001174
# 6 0.000023 -0.008492 0.004807 0.020875 0.001174 0.046886
#
#
# Mechanical properties :
#
#
# Convention : Reuss Voigt Hill
#
# Bulk Modulus (GPa) = 40.82778 55.34155 48.08467
# Shear Modulus (GPa) = 14.54088 30.77630 22.65859
#
# Velocity S-wave (km/s) = 2.51228 3.65495 3.13610
# Velocity P-wave (km/s) = 5.11244 6.46784 5.82966
#
# Compressibility (1/GPa) = 0.02449313
#
# Stress axis : x y z
#
# Youngs Moduli (GPa) = 24.28182 61.43897 27.53790
#
# Poissons Ratio (x) = 0.49916 0.75975
# Poissons Ratio (y) = 0.19728 -0.02957
# Poissons Ratio (z) = 0.66992 -0.06597
#
# Static dielectric constant tensor:
#      x y z
#    x 1.890700 -0.002550 -0.030020 
#    y -0.002550 1.879150 0.011320 
#    z -0.030020 0.011320 1.877830 
# 
# From -- ./inp_files/356025.got.cif
#   From: 2010.05.17/outbox.cif.g08.bks.cpg/sg2_179_cif.got.tgz:356025.got - 2010.06.03 11:33:40.
