data_PCOD9011851
_publ_section_title
;
Structure prediction by ZEFSAII (Michael W. Deem and Ramdas Pophale) SiO2 
 PCOD9011851
Probable space group: P -1
;
_chemical_formula_sum "Si O2"
_cell_formula_units_Z 16
_cell_length_a 9.134398
_cell_length_b 9.161981
_cell_length_c 15.328808
_cell_angle_alpha 84.990805
_cell_angle_beta 47.782480
_cell_angle_gamma 111.625907
_cell_volume 771.626151
_symmetry_space_group_name_H-M "P -1"
_symmetry_group_IT_number 2
_symmetry_cell_setting 'triclinic'
loop_
_space_group_symop_operation_xyz
x,y,z
-x,-y,-z
loop_
_atom_site_type_symbol
_atom_site_label
_atom_site_fract_x
_atom_site_fract_y
_atom_site_fract_z
Si Si1 0.638169 0.242260 0.635931
Si Si2 0.377895 0.091480 0.352976
Si Si3 0.993322 0.941325 0.359289
Si Si4 0.784615 0.791753 0.086270
Si Si5 0.946240 0.592026 0.405082
Si Si6 0.152775 0.505718 0.857702
Si Si7 0.743875 0.762106 0.897360
Si Si8 0.203678 0.550061 0.147325
O O1 0.456219 0.237717 0.777037
O O2 0.899666 0.323167 0.571735
O O3 0.710779 0.390688 0.525297
O O4 0.536507 0.039646 0.661735
O O5 0.200044 0.054093 0.505739
O O6 0.591921 0.300897 0.255006
O O7 0.229836 0.037079 0.323618
O O8 0.897564 0.737140 0.389507
O O9 0.068210 0.050366 0.234049
O O10 0.822913 0.657299 0.129807
O O11 0.769499 0.752161 0.991297
O O12 0.000000 0.000000 0.000000
O O13 0.125680 0.588159 0.267038
O O14 0.001119 0.485229 0.835023
O O15 0.000000 0.500000 0.000000
O O16 0.777716 0.618154 0.846734
O O17 0.471399 0.707481 0.998332
#
# Coordination Sequence:
#
# PCOD9011851 Si02
#       8
#     2   2   2   2   2   2   2   2
#     4  10  21  42  67  92 128 169 214 262 319 378
#     4  10  22  42  67  97 129 171 215 262 324 381
#     4  10  22  40  68  97 129 170 216 265 315 384
#     4  12  26  43  64  97 132 169 211 263 324 383
#     4  10  21  40  67  96 125 166 217 267 311 376
#     4  12  24  43  65  95 133 169 213 264 325 378
#     4  11  24  43  66  95 130 170 216 260 317 388
#     4  11  24  42  65  97 126 172 214 265 319 377
#
# _framework density 20.735427999999999
#
# number of rings (size 3 to 8) (size 9 to 14) (size 15 to 20)
#    0.000    1.250    2.500    3.000    3.500    3.500 
#    2.250    2.500    0.000    0.000    0.000    0.000 
#    0.000    0.000    0.000    0.000    0.000    0.000 
#
# Total GULP energy -89396.146693 kJ/mol
# GULP energy per Si atom -5587.259168 kJ/mol
# Density = 2.068823 g / cm^3
# Si number density = 20.735428 Si / 1000 Ang^3
#
#
#
# Elastic Constant Matrix: (Units=GPa)
#
#
# Indices 1 2 3 4 5 6 
#
# 1 46.7094 14.0036 16.2544 -9.9769 -0.3700 -0.9380
# 2 14.0036 100.0825 30.0355 -3.7113 11.3575 -15.8304
# 3 16.2544 30.0355 97.9214 -8.9788 15.8641 -14.5232
# 4 -9.9769 -3.7113 -8.9788 43.0082 -2.7201 -1.8528
# 5 -0.3700 11.3575 15.8641 -2.7201 16.0619 -8.8901
# 6 -0.9380 -15.8304 -14.5232 -1.8528 -8.8901 23.0091
#
#
#
# Elastic Compliance Matrix: (Units=1/GPa)
#
#
# Indices 1 2 3 4 5 6 
#
# 1 0.024825 -0.002969 -0.003966 0.005122 0.007287 -0.000306
# 2 -0.002969 0.012287 -0.001812 -0.000001 -0.003801 0.005720
# 3 -0.003966 -0.001812 0.013708 0.001282 -0.010259 0.003383
# 4 0.005122 -0.000001 0.001282 0.025330 0.006149 0.005433
# 5 0.007287 -0.003801 -0.010259 0.006149 0.091199 0.026938
# 6 -0.000306 0.005720 0.003383 0.005433 0.026938 0.060365
#
#
# Mechanical properties :
#
#
# Convention : Reuss Voigt Hill
#
# Bulk Modulus (GPa) = 30.00663 40.58894 35.29778
# Shear Modulus (GPa) = 19.50709 28.71050 24.10879
#
# Velocity S-wave (km/s) = 3.07051 3.72507 3.41352
# Velocity P-wave (km/s) = 5.20320 6.17404 5.70929
#
# Compressibility (1/GPa) = 0.03332597
#
# Stress axis : x y z
#
# Youngs Moduli (GPa) = 40.28221 81.38690 72.95041
#
# Poissons Ratio (x) = 0.24160 0.28936
# Poissons Ratio (y) = 0.11958 0.13218
# Poissons Ratio (z) = 0.15978 0.14747
#
# Static dielectric constant tensor:
#      x y z
#    x 1.077400 -0.141230 -0.377730 
#    y -0.141230 1.708850 -0.110330 
#    z -0.377730 -0.110330 1.494010 
# 
# From -- ./inp_files/206870.got.cif
#   From: 2010.05.17/outbox.cif.g08.bks.cpg/sg2_104_cif.got.tgz:206870.got - 2010.06.03 11:33:40.
