data_PCOD9011840
_publ_section_title
;
Structure prediction by ZEFSAII (Michael W. Deem and Ramdas Pophale) SiO2 
 PCOD9011840
Probable space group: P -1
;
_chemical_formula_sum "Si O2"
_cell_formula_units_Z 14
_cell_length_a 11.470309
_cell_length_b 11.968256
_cell_length_c 14.840134
_cell_angle_alpha 154.292083
_cell_angle_beta 135.163548
_cell_angle_gamma 53.503136
_cell_volume 616.574727
_symmetry_space_group_name_H-M "P -1"
_symmetry_group_IT_number 2
_symmetry_cell_setting 'triclinic'
loop_
_space_group_symop_operation_xyz
x,y,z
-x,-y,-z
loop_
_atom_site_type_symbol
_atom_site_label
_atom_site_fract_x
_atom_site_fract_y
_atom_site_fract_z
Si Si1 0.339428 0.300947 0.788913
Si Si2 0.106999 0.396477 0.577747
Si Si3 0.315487 0.577866 0.452203
Si Si4 0.452963 0.797153 0.515325
Si Si5 0.228859 0.427916 0.482521
Si Si6 0.961833 0.799185 0.084690
Si Si7 0.779587 0.598506 0.009544
O O1 0.191402 0.383487 0.709910
O O2 0.395674 0.027615 0.594695
O O3 0.500000 0.500000 0.000000
O O4 0.286252 0.298626 0.860762
O O5 0.242805 0.484207 0.637838
O O6 0.972236 0.595879 0.650224
O O7 0.025725 0.091272 0.297415
O O8 0.500000 0.500000 0.500000
O O9 0.351074 0.791586 0.549274
O O10 0.276976 0.629676 0.573078
O O11 0.172406 0.356923 0.172137
O O12 0.651316 0.790845 0.629059
O O13 0.376164 0.535568 0.232282
O O14 0.104837 0.617157 0.051308
O O15 0.880368 0.800629 0.141521
#
# Coordination Sequence:
#
# PCOD9011840 Si02
#       7
#     2   2   2   2   2   2   2
#     4  12  26  41  69  99 125 171 219 261 328 381
#     4  11  24  42  64  97 130 173 214 263 318 385
#     4   9  20  42  63  93 126 171 213 256 323 381
#     4  10  22  45  67  95 131 165 213 277 314 377
#     4  10  23  43  63  89 138 169 211 261 319 383
#     4  10  21  40  67  95 131 167 213 270 320 372
#     4  10  22  41  66  99 129 165 214 268 326 376
#
# _framework density 22.70609
#
# number of rings (size 3 to 8) (size 9 to 14) (size 15 to 20)
#    0.000    1.714    1.429    1.714    4.000    2.286 
#   15.429    2.143    0.000    0.000    0.000    0.000 
#    0.000    0.000    0.000    0.000    0.000    0.000 
#
# Total GULP energy -77966.675679 kJ/mol
# GULP energy per Si atom -5569.048263 kJ/mol
# Density = 2.265441 g / cm^3
# Si number density = 22.706090 Si / 1000 Ang^3
#
#
#
# Elastic Constant Matrix: (Units=GPa)
#
#
# Indices 1 2 3 4 5 6 
#
# 1 152.3535 24.9730 21.9501 -3.0990 -13.9268 15.4681
# 2 24.9730 79.7838 32.7260 -22.4353 -7.1330 15.2840
# 3 21.9501 32.7260 39.9811 -3.0477 10.2850 5.8010
# 4 -3.0990 -22.4353 -3.0477 -4.4970 -4.3713 -3.5901
# 5 -13.9268 -7.1330 10.2850 -4.3713 19.2592 -13.1484
# 6 15.4681 15.2840 5.8010 -3.5901 -13.1484 31.4529
#
#
#
# Elastic Compliance Matrix: (Units=1/GPa)
#
#
# Indices 1 2 3 4 5 6 
#
# 1 0.008206 -0.000799 -0.006351 -0.005339 0.007993 0.000256
# 2 -0.000799 0.008785 -0.006118 -0.026919 -0.005794 -0.008242
# 3 -0.006351 -0.006118 0.045317 0.039780 -0.028652 -0.009699
# 4 -0.005339 -0.026919 0.039780 -0.039065 -0.057754 -0.020233
# 5 0.007993 -0.005794 -0.028652 -0.057754 0.078499 0.030392
# 6 0.000256 -0.008242 -0.009699 -0.020233 0.030392 0.047857
#
#
# Mechanical properties :
#
#
# Convention : Reuss Voigt Hill
#
# Bulk Modulus (GPa) = 27.95554 47.93518 37.94536
# Shear Modulus (GPa) = 26.58752 22.07429 24.33090
#
# Velocity S-wave (km/s) = 3.42562 3.12135 3.27702
# Velocity P-wave (km/s) = 5.29009 5.84358 5.57371
#
# Compressibility (1/GPa) = 0.03577108
#
# Stress axis : x y z
#
# Youngs Moduli (GPa) = 121.86578 113.83380 22.06698
#
# Poissons Ratio (x) = 0.09094 0.14016
# Poissons Ratio (y) = 0.09736 0.13500
# Poissons Ratio (z) = 0.77402 0.69640
#
# Static dielectric constant tensor:
#      x y z
#    x 1.899230 0.039190 -0.000280 
#    y 0.039190 1.863830 -0.011800 
#    z -0.000280 -0.011800 1.837790 
# 
# From -- ./inp_files/69665.got.cif
#   From: 2010.05.17/outbox.cif.g08.bks.cpg/sg2_35_cif.got.tgz:69665.got - 2010.06.03 11:33:40.
