data_PCOD9011149
_publ_section_title
;
Structure prediction by ZEFSAII (Michael W. Deem and Ramdas Pophale) SiO2 
 PCOD9011149
Probable space group: P -1
;
_chemical_formula_sum "Si O2"
_cell_formula_units_Z 12
_cell_length_a 20.282955
_cell_length_b 5.135540
_cell_length_c 7.412477
_cell_angle_alpha 137.087331
_cell_angle_beta 59.344482
_cell_angle_gamma 106.425459
_cell_volume 446.798001
_symmetry_space_group_name_H-M "P -1"
_symmetry_group_IT_number 2
_symmetry_cell_setting 'triclinic'
loop_
_space_group_symop_operation_xyz
x,y,z
-x,-y,-z
loop_
_atom_site_type_symbol
_atom_site_label
_atom_site_fract_x
_atom_site_fract_y
_atom_site_fract_z
Si Si1 0.050169 0.156393 0.109381
Si Si2 0.930121 0.764220 0.517851
Si Si3 0.786739 0.775694 0.144478
Si Si4 0.555930 0.184717 0.648394
Si Si5 0.236382 0.306274 0.291594
Si Si6 0.661975 0.670290 0.529371
O O1 0.099721 0.017970 0.145633
O O2 0.000000 0.500000 0.500000
O O3 0.966937 0.292089 0.168268
O O4 0.120308 0.315075 0.990686
O O5 0.845486 0.789710 0.560304
O O6 0.000000 0.000000 0.500000
O O7 0.767279 0.231257 0.443119
O O8 0.738171 0.554839 0.239670
O O9 0.763006 0.716712 0.939368
O O10 0.616057 0.356328 0.521730
O O11 0.500000 0.000000 0.500000
O O12 0.603745 0.918844 0.598261
O O13 0.500000 0.500000 0.000000
O O14 0.306595 0.128452 0.234217
#
# Coordination Sequence:
#
# PCOD9011149 Si02
#       6
#     2   2   2   2   2   2
#     4  10  21  40  65  92 146 197 265 315 374 435
#     4  10  23  40  63 101 142 204 262 325 372 440
#     4  11  26  46  74 112 153 210 262 322 385 450
#     4  12  30  55  87 122 155 201 249 312 396 484
#     4  11  26  46  73 112 158 206 265 319 389 447
#     4  12  28  54  86 116 166 199 256 320 390 473
#
# _framework density 26.857776000000001
#
# number of rings (size 3 to 8) (size 9 to 14) (size 15 to 20)
#    0.000    1.000    3.333    1.000    4.667    7.333 
#    0.000    0.000    0.000    0.000    0.000    0.000 
#    0.000    0.000    0.000    0.000    0.000    0.000 
#
# Total GULP energy -66885.488943 kJ/mol
# GULP energy per Si atom -5573.790745 kJ/mol
# Density = 2.679665 g / cm^3
# Si number density = 26.857776 Si / 1000 Ang^3
#
#
#
# Elastic Constant Matrix: (Units=GPa)
#
#
# Indices 1 2 3 4 5 6 
#
# 1 255.0643 88.4782 82.5144 -3.2526 20.6606 17.8710
# 2 88.4782 183.9769 34.3491 -13.9770 4.3758 15.6236
# 3 82.5144 34.3491 138.5596 -6.2119 23.1995 1.9316
# 4 -3.2526 -13.9770 -6.2119 41.9515 1.1824 -5.0740
# 5 20.6606 4.3758 23.1995 1.1824 64.8916 -1.6325
# 6 17.8710 15.6236 1.9316 -5.0740 -1.6325 62.6114
#
#
#
# Elastic Compliance Matrix: (Units=1/GPa)
#
#
# Indices 1 2 3 4 5 6 
#
# 1 0.005686 -0.002174 -0.002753 -0.000802 -0.000692 -0.001079
# 2 -0.002174 0.006757 -0.000332 0.001917 0.000298 -0.000892
# 3 -0.002753 -0.000332 0.009398 0.001211 -0.002468 0.000612
# 4 -0.000802 0.001917 0.001211 0.024819 -0.000716 0.001706
# 5 -0.000692 0.000298 -0.002468 -0.000716 0.016520 0.000572
# 6 -0.001079 -0.000892 0.000612 0.001706 0.000572 0.016636
#
#
# Mechanical properties :
#
#
# Convention : Reuss Voigt Hill
#
# Bulk Modulus (GPa) = 88.30345 109.80937 99.05641
# Shear Modulus (GPa) = 53.12992 58.70816 55.91904
#
# Velocity S-wave (km/s) = 4.45252 4.68042 4.56789
# Velocity P-wave (km/s) = 7.70602 8.37751 8.04877
#
# Compressibility (1/GPa) = 0.01132459
#
# Stress axis : x y z
#
# Youngs Moduli (GPa) = 175.85530 147.99052 106.41094
#
# Poissons Ratio (x) = 0.32168 0.29290
# Poissons Ratio (y) = 0.38225 0.03534
# Poissons Ratio (z) = 0.48404 0.04915
#
# Static dielectric constant tensor:
#      x y z
#    x 1.403030 0.282110 0.028090 
#    y 0.282110 2.310130 -0.052050 
#    z 0.028090 -0.052050 2.244440 
# 
# From -- ./inp_files/339182.got.cif
#   From: 2010.05.17/outbox.cif.g08.bks.cpg/sg2_170_cif.got.tgz:339182.got - 2010.06.03 11:33:40.
