data_PCOD9011384
_publ_section_title
;
Structure prediction by ZEFSAII (Michael W. Deem and Ramdas Pophale) SiO2 
 PCOD9011384
Probable space group: P -1
;
_chemical_formula_sum "Si O2"
_cell_formula_units_Z 16
_cell_length_a 10.311047
_cell_length_b 9.487898
_cell_length_c 10.586119
_cell_angle_alpha 120.135078
_cell_angle_beta 92.124236
_cell_angle_gamma 65.693195
_cell_volume 797.153618
_symmetry_space_group_name_H-M "P -1"
_symmetry_group_IT_number 2
_symmetry_cell_setting 'triclinic'
loop_
_space_group_symop_operation_xyz
x,y,z
-x,-y,-z
loop_
_atom_site_type_symbol
_atom_site_label
_atom_site_fract_x
_atom_site_fract_y
_atom_site_fract_z
Si Si1 0.363425 0.107980 0.634425
Si Si2 0.431666 0.646271 0.950340
Si Si3 0.050202 0.489510 0.138439
Si Si4 0.086965 0.619918 0.537110
Si Si5 0.203604 0.547253 0.775557
Si Si6 0.677638 0.614212 0.755795
Si Si7 0.531717 0.006693 0.853181
Si Si8 0.922234 0.874196 0.449932
O O1 0.292863 0.326568 0.700388
O O2 0.410547 0.069896 0.766211
O O3 0.244464 0.041575 0.559561
O O4 0.500000 0.000000 0.500000
O O5 0.287182 0.637828 0.895399
O O6 0.544529 0.599078 0.813814
O O7 0.500000 0.500000 0.000000
O O8 0.405568 0.846317 0.085497
O O9 0.220770 0.379099 0.122518
O O10 0.960444 0.400563 0.165139
O O11 0.994275 0.694480 0.282023
O O12 0.000000 0.500000 0.000000
O O13 0.179175 0.609072 0.658245
O O14 0.209244 0.548857 0.399549
O O15 0.000000 0.500000 0.500000
O O16 0.955716 0.804951 0.564182
O O17 0.630609 0.790333 0.743004
O O18 0.500000 0.000000 0.000000
O O19 0.000000 0.000000 0.500000
#
# Coordination Sequence:
#
# PCOD9011384 Si02
#       8
#     2   2   2   2   2   2   2   2
#     4  11  22  38  64  90 124 168 205 250 321 383
#     4  11  22  40  61  93 128 158 207 260 307 376
#     4  10  21  40  66  86 123 172 210 245 318 382
#     4  11  20  43  65  87 123 165 212 254 311 376
#     4  11  22  39  65  90 122 167 206 259 315 372
#     4  10  22  39  65  88 120 167 205 256 314 369
#     4  10  23  39  62  92 129 163 205 259 318 376
#     4  10  24  41  64  94 126 160 208 269 310 366
#
# _framework density 20.071414000000001
#
# number of rings (size 3 to 8) (size 9 to 14) (size 15 to 20)
#    0.000    1.500    5.000    1.500    5.250    4.500 
#    2.250    0.625    0.000    0.000    0.000    0.000 
#    0.000    0.000    0.000    0.000    0.000    0.000 
#
# Total GULP energy -89123.071026 kJ/mol
# GULP energy per Si atom -5570.191939 kJ/mol
# Density = 2.002573 g / cm^3
# Si number density = 20.071414 Si / 1000 Ang^3
#
#
#
# Elastic Constant Matrix: (Units=GPa)
#
#
# Indices 1 2 3 4 5 6 
#
# 1 109.2981 31.6628 23.3366 7.2523 34.6309 11.9893
# 2 31.6628 88.6866 21.9061 -25.2845 28.6785 3.9040
# 3 23.3366 21.9061 60.0746 -28.4519 18.1387 -7.4828
# 4 7.2523 -25.2845 -28.4519 28.9040 -10.3430 9.3576
# 5 34.6309 28.6785 18.1387 -10.3430 43.4419 -6.3029
# 6 11.9893 3.9040 -7.4828 9.3576 -6.3029 37.8693
#
#
#
# Elastic Compliance Matrix: (Units=1/GPa)
#
#
# Indices 1 2 3 4 5 6 
#
# 1 0.023015 -0.009515 -0.019299 -0.036785 -0.013234 -0.003232
# 2 -0.009515 0.024115 0.013185 0.036498 -0.006153 -0.006911
# 3 -0.019299 0.013185 0.050509 0.067099 0.001330 -0.001628
# 4 -0.036785 0.036498 0.067099 0.150310 0.010943 -0.014179
# 5 -0.013234 -0.006153 0.001330 0.010943 0.041018 0.009210
# 6 -0.003232 -0.006911 -0.001628 -0.014179 0.009210 0.032857
#
#
# Mechanical properties :
#
#
# Convention : Reuss Voigt Hill
#
# Bulk Modulus (GPa) = 15.06448 45.76337 30.41393
# Shear Modulus (GPa) = 13.32588 34.11996 23.72292
#
# Velocity S-wave (km/s) = 2.57947 4.12749 3.44164
# Velocity P-wave (km/s) = 4.04886 6.75016 5.56588
#
# Compressibility (1/GPa) = 0.06638130
#
# Stress axis : x y z
#
# Youngs Moduli (GPa) = 43.44987 41.46731 19.79841
#
# Poissons Ratio (x) = 0.39458 0.38209
# Poissons Ratio (y) = 0.41344 -0.26105
# Poissons Ratio (z) = 0.83855 -0.54677
#
# Static dielectric constant tensor:
#      x y z
#    x 1.634690 -0.058660 -0.012730 
#    y -0.058660 1.777050 -0.015180 
#    z -0.012730 -0.015180 1.796140 
# 
# From -- ./inp_files/379967.got.cif
#   From: 2010.05.17/outbox.cif.g08.bks.cpg/sg2_190_cif.got.tgz:379967.got - 2010.06.03 11:33:40.
