data_PCOD9011827
_publ_section_title
;
Structure prediction by ZEFSAII (Michael W. Deem and Ramdas Pophale) SiO2 
 PCOD9011827
Probable space group: P -1
;
_chemical_formula_sum "Si O2"
_cell_formula_units_Z 16
_cell_length_a 11.041789
_cell_length_b 9.483643
_cell_length_c 12.810633
_cell_angle_alpha 33.630875
_cell_angle_beta 103.114980
_cell_angle_gamma 101.671949
_cell_volume 723.365713
_symmetry_space_group_name_H-M "P -1"
_symmetry_group_IT_number 2
_symmetry_cell_setting 'triclinic'
loop_
_space_group_symop_operation_xyz
x,y,z
-x,-y,-z
loop_
_atom_site_type_symbol
_atom_site_label
_atom_site_fract_x
_atom_site_fract_y
_atom_site_fract_z
Si Si1 0.548721 0.987306 0.900161
Si Si2 0.601404 0.424592 0.983129
Si Si3 0.014595 0.796990 0.284611
Si Si4 0.703297 0.250928 0.610125
Si Si5 0.695779 0.896930 0.626050
Si Si6 0.780675 0.662510 0.206569
Si Si7 0.793627 0.272549 0.269149
Si Si8 0.017402 0.205768 0.217142
O O1 0.601624 0.226590 0.696451
O O2 0.438221 0.845052 0.904325
O O3 0.668704 0.806957 0.041782
O O4 0.500000 0.000000 0.000000
O O5 0.612881 0.642314 0.763851
O O6 0.500000 0.500000 0.000000
O O7 0.730435 0.424394 0.070065
O O8 0.902607 0.825163 0.163514
O O9 0.000000 0.500000 0.500000
O O10 0.161115 0.818614 0.273921
O O11 0.995246 0.004339 0.243571
O O12 0.724379 0.515390 0.388346
O O13 0.670894 0.047647 0.636307
O O14 0.841685 0.832209 0.695896
O O15 0.688051 0.079357 0.412828
O O16 0.825675 0.451403 0.263354
O O17 0.914663 0.153061 0.317942
O O18 0.000000 0.500000 0.000000
#
# Coordination Sequence:
#
# PCOD9011827 Si02
#       8
#     2   2   2   2   2   2   2   2
#     4  12  27  42  60  90 126 168 220 269 320 383
#     4  12  23  43  64  88 128 169 224 271 320 388
#     4   9  21  42  67  96 134 172 208 265 340 396
#     4   9  20  43  65  89 126 164 208 268 320 385
#     4  10  21  40  67  95 125 168 213 264 331 389
#     4  10  22  42  67  92 125 170 213 260 333 393
#     4  11  23  41  68  97 129 170 216 271 330 393
#     4  11  22  40  70 101 137 167 215 280 329 387
#
# _framework density 22.118825000000001
#
# number of rings (size 3 to 8) (size 9 to 14) (size 15 to 20)
#    0.000    1.500    3.750    1.125    3.500    2.500 
#    6.750    0.000    0.000    0.000    0.000    0.000 
#    0.000    0.000    0.000    0.000    0.000    0.000 
#
# Total GULP energy -89355.775562 kJ/mol
# GULP energy per Si atom -5584.735973 kJ/mol
# Density = 2.206848 g / cm^3
# Si number density = 22.118825 Si / 1000 Ang^3
#
#
#
# Elastic Constant Matrix: (Units=GPa)
#
#
# Indices 1 2 3 4 5 6 
#
# 1 67.5162 24.4764 10.8641 2.3181 -28.6137 -5.1982
# 2 24.4764 81.8193 14.2037 -2.6018 -21.7306 -2.3262
# 3 10.8641 14.2037 76.2106 2.0838 -20.6418 -0.4637
# 4 2.3181 -2.6018 2.0838 25.6521 -2.9654 -2.7331
# 5 -28.6137 -21.7306 -20.6418 -2.9654 47.0254 2.7374
# 6 -5.1982 -2.3262 -0.4637 -2.7331 2.7374 27.2204
#
#
#
# Elastic Compliance Matrix: (Units=1/GPa)
#
#
# Indices 1 2 3 4 5 6 
#
# 1 0.020915 -0.003330 0.000740 -0.000711 0.011322 0.002512
# 2 -0.003330 0.014668 -0.001136 0.002430 0.004384 0.000401
# 3 0.000740 -0.001136 0.015002 -0.000695 0.006492 -0.000423
# 4 -0.000711 0.002430 -0.000695 0.040068 0.002690 0.003812
# 5 0.011322 0.004384 0.006492 0.002690 0.033223 -0.000424
# 6 0.002512 0.000401 -0.000423 0.003812 -0.000424 0.037669
#
#
# Mechanical properties :
#
#
# Convention : Reuss Voigt Hill
#
# Bulk Modulus (GPa) = 23.18284 36.07050 29.62667
# Shear Modulus (GPa) = 27.26648 31.71302 29.48975
#
# Velocity S-wave (km/s) = 3.51483 3.79061 3.65532
# Velocity P-wave (km/s) = 5.19383 5.95829 5.58915
#
# Compressibility (1/GPa) = 0.04313536
#
# Stress axis : x y z
#
# Youngs Moduli (GPa) = 47.81211 68.17452 66.65595
#
# Poissons Ratio (x) = 0.22699 -0.04934
# Poissons Ratio (y) = 0.15920 0.07571
# Poissons Ratio (z) = -0.03539 0.07744
#
# Static dielectric constant tensor:
#      x y z
#    x 1.794250 0.028930 -0.046940 
#    y 0.028930 1.792020 0.017330 
#    z -0.046940 0.017330 1.798320 
# 
# From -- ./inp_files/416151.got.cif
#   From: 2010.05.17/outbox.cif.g08.bks.cpg/sg2_209_cif.got.tgz:416151.got - 2010.06.03 11:33:40.
