data_PCOD9011535
_publ_section_title
;
Structure prediction by ZEFSAII (Michael W. Deem and Ramdas Pophale) SiO2 
 PCOD9011535
Probable space group: P -1
;
_chemical_formula_sum "Si O2"
_cell_formula_units_Z 16
_cell_length_a 15.777070
_cell_length_b 9.287132
_cell_length_c 11.521779
_cell_angle_alpha 72.171092
_cell_angle_beta 47.779889
_cell_angle_gamma 38.513265
_cell_volume 684.556419
_symmetry_space_group_name_H-M "P -1"
_symmetry_group_IT_number 2
_symmetry_cell_setting 'triclinic'
loop_
_space_group_symop_operation_xyz
x,y,z
-x,-y,-z
loop_
_atom_site_type_symbol
_atom_site_label
_atom_site_fract_x
_atom_site_fract_y
_atom_site_fract_z
Si Si1 0.483370 0.096713 0.366348
Si Si2 0.685854 0.327132 0.954092
Si Si3 0.251305 0.283272 0.313214
Si Si4 0.989164 0.832348 0.451029
Si Si5 0.986187 0.754837 0.876831
Si Si6 0.548834 0.762611 0.055585
Si Si7 0.157460 0.390543 0.005953
Si Si8 0.231185 0.647937 0.499852
O O1 0.317236 0.204096 0.406062
O O2 0.423842 0.338274 0.371209
O O3 0.500000 0.000000 0.500000
O O4 0.686177 0.841695 0.175419
O O5 0.855983 0.233980 0.750527
O O6 0.788920 0.065339 0.967472
O O7 0.500000 0.500000 0.000000
O O8 0.604118 0.529536 0.075351
O O9 0.042402 0.602303 0.418568
O O10 0.331469 0.046992 0.230546
O O11 0.409672 0.230942 0.117040
O O12 0.066407 0.766838 0.528023
O O13 0.789246 0.148218 0.541264
O O14 0.031106 0.652747 0.990386
O O15 0.162189 0.666153 0.684931
O O16 0.970690 0.618972 0.847165
O O17 0.718046 0.671581 0.991214
#
# Coordination Sequence:
#
# PCOD9011535 Si02
#       8
#     2   2   2   2   2   2   2   2
#     4  10  17  29  53  79 105 145 188 213 263 332
#     4  10  21  32  53  85 109 139 186 230 272 325
#     4   8  16  28  51  76 101 137 174 220 260 321
#     4   8  16  30  49  76 105 139 175 219 274 313
#     4  10  21  34  51  85 112 137 187 230 268 318
#     4   9  18  33  52  78 111 147 176 226 279 324
#     4  10  21  35  54  82 112 147 179 228 275 317
#     4   9  16  30  50  76 109 138 176 226 262 320
#
# _framework density 23.372800000000002
#
# number of rings (size 3 to 8) (size 9 to 14) (size 15 to 20)
#    0.000    2.750    1.250    0.000   10.500    0.500 
#    0.000    0.000    0.000    6.750   16.250    4.375 
#    0.000    0.000    0.000    0.000    0.000    0.000 
#
# Total GULP energy -89237.578021 kJ/mol
# GULP energy per Si atom -5577.348626 kJ/mol
# Density = 2.331960 g / cm^3
# Si number density = 23.372800 Si / 1000 Ang^3
#
#
#
# Elastic Constant Matrix: (Units=GPa)
#
#
# Indices 1 2 3 4 5 6 
#
# 1 55.6222 35.8924 -3.9496 -3.7611 14.8908 1.8841
# 2 35.8924 204.6253 18.7187 6.7500 21.7443 13.5028
# 3 -3.9496 18.7187 56.6772 2.2613 18.6968 -3.1315
# 4 -3.7611 6.7500 2.2613 41.1274 3.4283 5.8473
# 5 14.8908 21.7443 18.6968 3.4283 19.4923 6.0646
# 6 1.8841 13.5028 -3.1315 5.8473 6.0646 41.8809
#
#
#
# Elastic Compliance Matrix: (Units=1/GPa)
#
#
# Indices 1 2 3 4 5 6 
#
# 1 0.031946 -0.003521 0.016321 0.005008 -0.038830 0.005842
# 2 -0.003521 0.005971 -0.001703 -0.000848 -0.001714 -0.001527
# 3 0.016321 -0.001703 0.035558 0.002525 -0.047939 0.009063
# 4 0.005008 -0.000848 0.002525 0.025830 -0.009211 -0.002036
# 5 -0.038830 -0.001714 -0.047939 -0.009211 0.136636 -0.019785
# 6 0.005842 -0.001527 0.009063 -0.002036 -0.019785 0.027934
#
#
# Mechanical properties :
#
#
# Convention : Reuss Voigt Hill
#
# Bulk Modulus (GPa) = 10.45261 46.47197 28.46229
# Shear Modulus (GPa) = 18.27693 38.25100 28.26396
#
# Velocity S-wave (km/s) = 2.79941 4.04983 3.48122
# Velocity P-wave (km/s) = 3.86404 6.46485 5.32565
#
# Compressibility (1/GPa) = 0.09566990
#
# Stress axis : x y z
#
# Youngs Moduli (GPa) = 31.30331 167.47027 28.12325
#
# Poissons Ratio (x) = 0.58965 -0.45901
# Poissons Ratio (y) = 0.11022 0.04789
# Poissons Ratio (z) = -0.51091 0.28515
#
# Static dielectric constant tensor:
#      x y z
#    x 1.934040 0.068210 -0.054690 
#    y 0.068210 1.944810 0.012700 
#    z -0.054690 0.012700 1.985400 
# 
# From -- ./inp_files/447340.got.cif
#   From: 2010.05.17/outbox.cif.g08.bks.cpg/sg2_224_cif.got.tgz:447340.got - 2010.06.03 11:33:40.
