data_PCOD9011708
_publ_section_title
;
Structure prediction by ZEFSAII (Michael W. Deem and Ramdas Pophale) SiO2 
 PCOD9011708
Probable space group: P -1
;
_chemical_formula_sum "Si O2"
_cell_formula_units_Z 14
_cell_length_a 21.015113
_cell_length_b 4.881511
_cell_length_c 8.854770
_cell_angle_alpha 81.452707
_cell_angle_beta 47.425041
_cell_angle_gamma 101.780830
_cell_volume 600.790030
_symmetry_space_group_name_H-M "P -1"
_symmetry_group_IT_number 2
_symmetry_cell_setting 'triclinic'
loop_
_space_group_symop_operation_xyz
x,y,z
-x,-y,-z
loop_
_atom_site_type_symbol
_atom_site_label
_atom_site_fract_x
_atom_site_fract_y
_atom_site_fract_z
Si Si1 0.804301 0.857327 0.743977
Si Si2 0.282015 0.287664 0.409239
Si Si3 0.690937 0.192248 0.037081
Si Si4 0.599673 0.023819 0.896348
Si Si5 0.217524 0.798509 0.809032
Si Si6 0.956229 0.716102 0.984658
Si Si7 0.061342 0.409303 0.294346
O O1 0.802014 0.849881 0.567712
O O2 0.712249 0.545726 0.959918
O O3 0.776850 0.126269 0.824870
O O4 0.883357 0.774186 0.704508
O O5 0.320438 0.651087 0.318287
O O6 0.369275 0.224690 0.204701
O O7 0.250074 0.086908 0.626810
O O8 0.606311 0.019908 0.069215
O O9 0.698367 0.149296 0.208653
O O10 0.500000 0.000000 0.000000
O O11 0.159474 0.484896 0.830379
O O12 0.129602 0.724086 0.072021
O O13 0.000000 0.500000 0.000000
O O14 0.990783 0.788613 0.750722
O O15 0.000000 0.000000 0.000000
O O16 0.000000 0.500000 0.500000
#
# Coordination Sequence:
#
# PCOD9011708 Si02
#       7
#     2   2   2   2   2   2   2
#     4   9  19  38  62  86 124 170 227 260 323 398
#     4  10  21  40  67  96 126 175 213 264 326 394
#     4   9  19  38  64  92 123 179 211 262 319 409
#     4  10  21  40  67 102 135 163 210 263 328 401
#     4   9  22  42  66  92 131 172 234 267 328 402
#     4  10  24  44  64  90 131 171 224 293 345 376
#     4   9  21  44  67  93 127 177 231 286 335 390
#
# _framework density 23.30265
#
# number of rings (size 3 to 8) (size 9 to 14) (size 15 to 20)
#    0.857    1.714    0.000    0.429    2.000    3.429 
#   15.429    5.714    0.000    0.000    0.000    2.000 
#    0.000    0.000    0.000    0.000    0.000    0.000 
#
# Total GULP energy -77988.612863 kJ/mol
# GULP energy per Si atom -5570.615205 kJ/mol
# Density = 2.324961 g / cm^3
# Si number density = 23.302650 Si / 1000 Ang^3
#
#
#
# Elastic Constant Matrix: (Units=GPa)
#
#
# Indices 1 2 3 4 5 6 
#
# 1 207.5427 33.4984 45.8897 16.7047 26.4220 16.8287
# 2 33.4984 108.2702 10.6326 7.2527 5.9961 -4.0890
# 3 45.8897 10.6326 57.5949 -3.7433 29.4304 4.1433
# 4 16.7047 7.2527 -3.7433 18.6036 -7.6381 3.9974
# 5 26.4220 5.9961 29.4304 -7.6381 50.7574 1.7970
# 6 16.8287 -4.0890 4.1433 3.9974 1.7970 40.3052
#
#
#
# Elastic Compliance Matrix: (Units=1/GPa)
#
#
# Indices 1 2 3 4 5 6 
#
# 1 0.007014 -0.001190 -0.004824 -0.007133 -0.001724 -0.001769
# 2 -0.001190 0.010062 -0.000970 -0.003747 -0.000642 0.002018
# 3 -0.004824 -0.000970 0.028466 0.005284 -0.013051 -0.000953
# 4 -0.007133 -0.003747 0.005284 0.068574 0.011597 -0.005263
# 5 -0.001724 -0.000642 -0.013051 0.011597 0.030005 -0.000492
# 6 -0.001769 0.002018 -0.000953 -0.005263 -0.000492 0.026396
#
#
# Mechanical properties :
#
#
# Convention : Reuss Voigt Hill
#
# Bulk Modulus (GPa) = 31.67140 61.49435 46.58288
# Shear Modulus (GPa) = 25.63966 40.82572 33.23269
#
# Velocity S-wave (km/s) = 3.32066 4.19020 3.78052
# Velocity P-wave (km/s) = 5.32196 7.06096 6.25221
#
# Compressibility (1/GPa) = 0.03157423
#
# Stress axis : x y z
#
# Youngs Moduli (GPa) = 142.57083 99.38081 35.12931
#
# Poissons Ratio (x) = 0.11825 0.16947
# Poissons Ratio (y) = 0.16964 0.03408
# Poissons Ratio (z) = 0.68779 0.09641
#
# Static dielectric constant tensor:
#      x y z
#    x 1.959770 0.057090 -0.068800 
#    y 0.057090 1.974830 0.050710 
#    z -0.068800 0.050710 2.011530 
# 
# From -- ./inp_files/350384.got.cif
#   From: 2010.05.17/outbox.cif.g08.bks.cpg/sg2_176_cif.got.tgz:350384.got - 2010.06.03 11:33:40.
