data_PCOD9011401
_publ_section_title
;
Structure prediction by ZEFSAII (Michael W. Deem and Ramdas Pophale) SiO2 
 PCOD9011401
Probable space group: P -1
;
_chemical_formula_sum "Si O2"
_cell_formula_units_Z 12
_cell_length_a 8.065499
_cell_length_b 11.934168
_cell_length_c 8.081251
_cell_angle_alpha 137.675570
_cell_angle_beta 74.724031
_cell_angle_gamma 86.406156
_cell_volume 463.858846
_symmetry_space_group_name_H-M "P -1"
_symmetry_group_IT_number 2
_symmetry_cell_setting 'triclinic'
loop_
_space_group_symop_operation_xyz
x,y,z
-x,-y,-z
loop_
_atom_site_type_symbol
_atom_site_label
_atom_site_fract_x
_atom_site_fract_y
_atom_site_fract_z
Si Si1 0.749912 0.036123 0.488082
Si Si2 0.610631 0.741957 0.345126
Si Si3 0.605758 0.229469 0.061010
Si Si4 0.736834 0.541141 0.442484
Si Si5 0.079449 0.529549 0.192095
Si Si6 0.056971 0.052971 0.218052
O O1 0.604776 0.126412 0.476444
O O2 0.956375 0.979130 0.303865
O O3 0.716702 0.870311 0.399738
O O4 0.678773 0.192320 0.815039
O O5 0.654253 0.655154 0.419807
O O6 0.700459 0.577148 0.010797
O O7 0.680437 0.370696 0.276905
O O8 0.382098 0.317190 0.232330
O O9 0.719999 0.040886 0.918469
O O10 0.959777 0.469139 0.289242
O O11 0.024881 0.735263 0.486285
O O12 0.000000 0.500000 0.000000
O O13 0.000000 0.000000 0.000000
#
# Coordination Sequence:
#
# PCOD9011401 Si02
#       6
#     2   2   2   2   2   2
#     4  11  23  40  64  92 126 167 212 259 313 376
#     4  10  22  40  63  92 125 164 210 260 312 370
#     4  11  23  40  64  92 126 167 212 259 313 376
#     4  10  22  40  63  92 125 164 210 260 312 370
#     4  10  21  40  66  89 122 167 207 253 309 370
#     4  12  26  42  65  95 129 165 209 265 316 372
#
# _framework density 25.869941000000001
#
# number of rings (size 3 to 8) (size 9 to 14) (size 15 to 20)
#    0.000    1.333    0.000    6.500    0.000   10.667 
#    0.000    2.500    0.000    0.000    0.000    0.000 
#    0.000    0.000    0.000    0.000    0.000    0.000 
#
# Total GULP energy -67114.898350 kJ/mol
# GULP energy per Si atom -5592.908196 kJ/mol
# Density = 2.581106 g / cm^3
# Si number density = 25.869941 Si / 1000 Ang^3
#
#
#
# Elastic Constant Matrix: (Units=GPa)
#
#
# Indices 1 2 3 4 5 6 
#
# 1 29.0800 4.4843 17.5355 -4.0544 -13.8306 4.9446
# 2 4.4843 52.1765 32.6768 -9.7846 -0.6486 -7.9022
# 3 17.5355 32.6768 161.0202 -6.0140 -3.0927 3.8795
# 4 -4.0544 -9.7846 -6.0140 55.5323 5.9973 3.2060
# 5 -13.8306 -0.6486 -3.0927 5.9973 42.7561 -7.9028
# 6 4.9446 -7.9022 3.8795 3.2060 -7.9028 37.2537
#
#
#
# Elastic Compliance Matrix: (Units=1/GPa)
#
#
# Indices 1 2 3 4 5 6 
#
# 1 0.044060 -0.001214 -0.004178 0.001297 0.013198 -0.002982
# 2 -0.001214 0.023623 -0.004668 0.003236 0.000175 0.005417
# 3 -0.004178 -0.004668 0.007623 -0.000096 -0.001127 -0.001460
# 4 0.001297 0.003236 -0.000096 0.019028 -0.002512 -0.001646
# 5 0.013198 0.000175 -0.001127 -0.002512 0.028805 0.004730
# 6 -0.002982 0.005417 -0.001460 -0.001646 0.004730 0.029685
#
#
# Mechanical properties :
#
#
# Convention : Reuss Voigt Hill
#
# Bulk Modulus (GPa) = 18.12100 39.07443 28.59771
# Shear Modulus (GPa) = 26.13153 39.61376 32.87264
#
# Velocity S-wave (km/s) = 3.18167 3.91738 3.56854
# Velocity P-wave (km/s) = 4.52960 5.96642 5.29695
#
# Compressibility (1/GPa) = 0.05518459
#
# Stress axis : x y z
#
# Youngs Moduli (GPa) = 22.69646 42.33156 131.18825
#
# Poissons Ratio (x) = 0.05141 0.54810
# Poissons Ratio (y) = 0.02756 0.61238
# Poissons Ratio (z) = 0.09482 0.19760
#
# Static dielectric constant tensor:
#      x y z
#    x 2.119680 -0.006220 0.008690 
#    y -0.006220 2.017520 0.016020 
#    z 0.008690 0.016020 2.064120 
# 
# From -- ./inp_files/191046.got.cif
#   From: 2010.05.17/outbox.cif.g08.bks.cpg/sg2_96_cif.got.tgz:191046.got - 2010.06.03 11:33:40.
