data_PCOD9011303
_publ_section_title
;
Structure prediction by ZEFSAII (Michael W. Deem and Ramdas Pophale) SiO2 
 PCOD9011303
Probable space group: P -1
;
_chemical_formula_sum "Si O2"
_cell_formula_units_Z 14
_cell_length_a 9.621947
_cell_length_b 14.425046
_cell_length_c 11.255300
_cell_angle_alpha 33.304897
_cell_angle_beta 120.422088
_cell_angle_gamma 100.404428
_cell_volume 635.221412
_symmetry_space_group_name_H-M "P -1"
_symmetry_group_IT_number 2
_symmetry_cell_setting 'triclinic'
loop_
_space_group_symop_operation_xyz
x,y,z
-x,-y,-z
loop_
_atom_site_type_symbol
_atom_site_label
_atom_site_fract_x
_atom_site_fract_y
_atom_site_fract_z
Si Si1 0.838279 0.683544 0.493720
Si Si2 0.514244 0.005934 0.358621
Si Si3 0.197683 0.022462 0.652186
Si Si4 0.145106 0.676076 0.981527
Si Si5 0.236317 0.608263 0.678813
Si Si6 0.434027 0.384964 0.244998
Si Si7 0.222565 0.352717 0.748187
O O1 0.742409 0.872819 0.334980
O O2 0.724904 0.682772 0.329363
O O3 0.017561 0.695267 0.511196
O O4 0.903614 0.471720 0.811007
O O5 0.650421 0.071981 0.287794
O O6 0.610784 0.786193 0.588591
O O7 0.500000 0.000000 0.500000
O O8 0.307755 0.140801 0.071388
O O9 0.009286 0.200711 0.319190
O O10 0.160973 0.850434 0.866235
O O11 0.342548 0.524386 0.167969
O O12 0.342472 0.720114 0.566135
O O13 0.296742 0.453164 0.763721
O O14 0.331333 0.508497 0.950948
O O15 0.000000 0.500000 0.500000
#
# Coordination Sequence:
#
# PCOD9011303 Si02
#       7
#     2   2   2   2   2   2   2
#     4  11  22  45  66  91 142 178 213 272 340 387
#     4  12  24  41  68  99 131 174 231 275 327 394
#     4  11  24  40  69 100 134 170 234 270 324 402
#     4  11  23  41  67 102 131 178 219 278 333 386
#     4  10  21  40  65  97 130 174 220 275 323 393
#     4  11  21  39  69  96 133 170 225 280 328 375
#     4  10  24  44  64  95 136 176 218 272 335 403
#
# _framework density 22.039560000000002
#
# number of rings (size 3 to 8) (size 9 to 14) (size 15 to 20)
#    0.000    1.143    4.286    2.143    4.000    0.571 
#    2.571    2.857    0.000    0.000    0.000    0.000 
#    0.000    0.000    0.000    0.000    0.000    0.000 
#
# Total GULP energy -77964.415784 kJ/mol
# GULP energy per Si atom -5568.886842 kJ/mol
# Density = 2.198940 g / cm^3
# Si number density = 22.039560 Si / 1000 Ang^3
#
#
#
# Elastic Constant Matrix: (Units=GPa)
#
#
# Indices 1 2 3 4 5 6 
#
# 1 90.4376 44.0865 27.5938 14.9442 18.3270 24.8191
# 2 44.0865 -413.2987 -290.5447 -216.2453 -143.9972 -448.4426
# 3 27.5938 -290.5447 -103.3927 -132.8460 -73.4936 -263.6053
# 4 14.9442 -216.2453 -132.8460 -58.0810 -48.6760 -177.6370
# 5 18.3270 -143.9972 -73.4936 -48.6760 -10.2918 -110.1786
# 6 24.8191 -448.4426 -263.6053 -177.6370 -110.1786 -330.9077
#
#
#
# Elastic Compliance Matrix: (Units=1/GPa)
#
#
# Indices 1 2 3 4 5 6 
#
# 1 0.011400 -0.000686 0.000130 0.001268 -0.004782 0.002593
# 2 -0.000686 0.007209 -0.004499 -0.004512 0.003033 -0.004825
# 3 0.000130 -0.004499 0.012957 0.001876 -0.006896 -0.002926
# 4 0.001268 -0.004512 0.001876 0.033158 -0.013743 -0.008509
# 5 -0.004782 0.003033 -0.006896 -0.013743 0.048283 -0.007674
# 6 0.002593 -0.004825 -0.002926 -0.008509 -0.007674 0.013164
#
#
# Mechanical properties :
#
#
# Convention : Reuss Voigt Hill
#
# Bulk Modulus (GPa) = 46.60817 -95.99806 -24.69495
# Shear Modulus (GPa) = 34.85910 -93.68205 -29.41148
#
# Velocity S-wave (km/s) = 3.98132 -6.52676 -3.65702
# Velocity P-wave (km/s) = 6.50600 10.02247 5.39082
#
# Compressibility (1/GPa) = 0.02145546
#
# Stress axis : x y z
#
# Youngs Moduli (GPa) = 87.71831 138.71834 77.17593
#
# Poissons Ratio (x) = 0.09523 -0.01005
# Poissons Ratio (y) = 0.06022 0.34723
# Poissons Ratio (z) = -0.01143 0.62413
#
# Static dielectric constant tensor:
#      x y z
#    x 1.921460 0.018970 -0.024880 
#    y 0.018970 1.864880 -0.017040 
#    z -0.024880 -0.017040 1.813310 
# 
# From -- ./inp_files/433691.got.cif
#   From: 2010.05.17/outbox.cif.g08.bks.cpg/sg2_217_cif.got.tgz:433691.got - 2010.06.03 11:33:40.
