data_PCOD9011349
_publ_section_title
;
Structure prediction by ZEFSAII (Michael W. Deem and Ramdas Pophale) SiO2 
 PCOD9011349
Probable space group: P -1
;
_chemical_formula_sum "Si O2"
_cell_formula_units_Z 16
_cell_length_a 15.810029
_cell_length_b 11.265427
_cell_length_c 11.835268
_cell_angle_alpha 129.483600
_cell_angle_beta 28.157575
_cell_angle_gamma 120.749572
_cell_volume 760.670311
_symmetry_space_group_name_H-M "P -1"
_symmetry_group_IT_number 2
_symmetry_cell_setting 'triclinic'
loop_
_space_group_symop_operation_xyz
x,y,z
-x,-y,-z
loop_
_atom_site_type_symbol
_atom_site_label
_atom_site_fract_x
_atom_site_fract_y
_atom_site_fract_z
Si Si1 0.378344 0.902683 0.757420
Si Si2 0.728717 0.312357 0.436119
Si Si3 0.022691 0.999518 0.661833
Si Si4 0.410183 0.334830 0.196228
Si Si5 0.325571 0.885312 0.409228
Si Si6 0.011374 0.248038 0.631466
Si Si7 0.073741 0.425690 0.986899
Si Si8 0.537239 0.667822 0.600513
O O1 0.380993 0.778446 0.578930
O O2 0.402683 0.804511 0.785675
O O3 0.537759 0.007624 0.631353
O O4 0.178820 0.998123 0.050470
O O5 0.623303 0.483540 0.685818
O O6 0.755508 0.211912 0.456383
O O7 0.918938 0.339162 0.171459
O O8 0.170188 0.979981 0.574064
O O9 0.061268 0.857131 0.442235
O O10 0.019673 0.153753 0.682474
O O11 0.217111 0.271830 0.374980
O O12 0.460692 0.323697 0.262317
O O13 0.554203 0.233487 0.887781
O O14 0.904203 0.420476 0.872988
O O15 0.262576 0.323331 0.678903
O O16 0.000000 0.500000 0.000000
O O17 0.500000 0.500000 0.500000
#
# Coordination Sequence:
#
# PCOD9011349 Si02
#       8
#     2   2   2   2   2   2   2   2
#     4  12  26  45  70 103 137 181 232 292 339 408
#     4  11  25  48  71  97 140 185 229 286 336 415
#     4  11  25  42  67 101 142 177 225 286 346 407
#     4  11  23  45  70 102 137 179 228 290 339 410
#     4  12  28  46  68  99 142 192 228 268 354 418
#     4  10  21  40  66 100 137 174 223 293 338 398
#     4  11  21  42  71 100 134 174 234 286 341 397
#     4  12  23  40  72 109 135 174 230 292 353 391
#
# _framework density 21.034079999999999
#
# number of rings (size 3 to 8) (size 9 to 14) (size 15 to 20)
#    0.000    0.750    5.000    3.000    7.000    1.500 
#    2.250    2.500    0.000    0.000    0.000    0.000 
#    0.000    0.000    0.000    0.000    0.000    0.000 
#
# Total GULP energy -89576.748189 kJ/mol
# GULP energy per Si atom -5598.546762 kJ/mol
# Density = 2.098621 g / cm^3
# Si number density = 21.034080 Si / 1000 Ang^3
#
#
#
# Elastic Constant Matrix: (Units=GPa)
#
#
# Indices 1 2 3 4 5 6 
#
# 1 81.0305 61.8513 30.6194 -6.3915 -9.1615 4.5086
# 2 61.8513 129.1309 45.4961 -9.3856 4.9018 2.4541
# 3 30.6194 45.4961 84.6616 -12.9371 -20.3365 2.9058
# 4 -6.3915 -9.3856 -12.9371 25.8039 -0.1695 6.3198
# 5 -9.1615 4.9018 -20.3365 -0.1695 28.3431 0.5047
# 6 4.5086 2.4541 2.9058 6.3198 0.5047 35.9930
#
#
#
# Elastic Compliance Matrix: (Units=1/GPa)
#
#
# Indices 1 2 3 4 5 6 
#
# 1 0.021709 -0.010758 0.000662 0.002497 0.009414 -0.002610
# 2 -0.010758 0.015970 -0.007746 -0.001123 -0.011826 0.001247
# 3 0.000662 -0.007746 0.021258 0.008866 0.016914 -0.003065
# 4 0.002497 -0.001123 0.008866 0.045685 0.007798 -0.009083
# 5 0.009414 -0.011826 0.016914 0.007798 0.052621 -0.003845
# 6 -0.002610 0.001247 -0.003065 -0.009083 -0.003845 0.029921
#
#
# Mechanical properties :
#
#
# Convention : Reuss Voigt Hill
#
# Bulk Modulus (GPa) = 43.00554 63.41740 53.21147
# Shear Modulus (GPa) = 21.68274 28.48508 25.08391
#
# Velocity S-wave (km/s) = 3.21415 3.68399 3.45706
# Velocity P-wave (km/s) = 5.85358 6.95061 6.42555
#
# Compressibility (1/GPa) = 0.02325282
#
# Stress axis : x y z
#
# Youngs Moduli (GPa) = 46.06432 62.61897 47.04124
#
# Poissons Ratio (x) = 0.67363 -0.03115
# Poissons Ratio (y) = 0.49554 0.36439
# Poissons Ratio (z) = -0.03050 0.48506
#
# Static dielectric constant tensor:
#      x y z
#    x 1.726560 0.032720 -0.001980 
#    y 0.032720 1.763200 0.004380 
#    z -0.001980 0.004380 1.777590 
# 
# From -- ./inp_files/451720.got.cif
#   From: 2010.05.17/outbox.cif.g08.bks.cpg/sg2_226_cif.got.tgz:451720.got - 2010.06.03 11:33:40.
