data_PCOD9011731
_publ_section_title
;
Structure prediction by ZEFSAII (Michael W. Deem and Ramdas Pophale) SiO2 
 PCOD9011731
Probable space group: P -1
;
_chemical_formula_sum "Si O2"
_cell_formula_units_Z 16
_cell_length_a 9.583151
_cell_length_b 11.018505
_cell_length_c 15.453642
_cell_angle_alpha 118.234182
_cell_angle_beta 62.102870
_cell_angle_gamma 64.698551
_cell_volume 702.670293
_symmetry_space_group_name_H-M "P -1"
_symmetry_group_IT_number 2
_symmetry_cell_setting 'triclinic'
loop_
_space_group_symop_operation_xyz
x,y,z
-x,-y,-z
loop_
_atom_site_type_symbol
_atom_site_label
_atom_site_fract_x
_atom_site_fract_y
_atom_site_fract_z
Si Si1 0.883752 0.916251 0.098665
Si Si2 0.456689 0.228089 0.776996
Si Si3 0.423967 0.476241 0.427531
Si Si4 0.023476 0.426318 0.372660
Si Si5 0.568744 0.423725 0.726068
Si Si6 0.105677 0.577114 0.261373
Si Si7 0.436071 0.096672 0.905653
Si Si8 0.133454 0.228977 0.782723
O O1 0.796570 0.843437 0.043820
O O2 0.791032 0.949972 0.235856
O O3 0.685107 0.188232 0.222940
O O4 0.222248 0.693361 0.921423
O O5 0.623089 0.233883 0.688522
O O6 0.588225 0.049527 0.759592
O O7 0.348184 0.198880 0.727093
O O8 0.168117 0.500129 0.996494
O O9 0.500000 0.500000 0.500000
O O10 0.346069 0.621984 0.414600
O O11 0.171139 0.564331 0.564520
O O12 0.943697 0.598424 0.384078
O O13 0.000000 0.500000 0.500000
O O14 0.350323 0.142569 0.177035
O O15 0.724744 0.427905 0.738677
O O16 0.916322 0.769476 0.301781
O O17 0.310195 0.317018 0.067544
#
# Coordination Sequence:
#
# PCOD9011731 Si02
#       8
#     2   2   2   2   2   2   2   2
#     4  10  21  42  64  88 120 155 201 244 287 355
#     4   8  17  35  60  89 119 149 195 245 288 346
#     4  12  28  42  59  86 121 162 197 244 302 346
#     4  12  24  44  59  82 125 159 198 245 291 355
#     4  11  22  39  62  92 122 151 196 251 295 344
#     4  11  22  37  65  93 116 156 198 244 296 347
#     4  10  21  40  67  89 114 161 200 238 293 352
#     4   8  17  35  62  88 114 154 197 241 291 344
#
# _framework density 22.770282000000002
#
# number of rings (size 3 to 8) (size 9 to 14) (size 15 to 20)
#    0.000    1.750    2.500    3.000    5.250    4.500 
#    0.000    2.500    0.000    0.000    0.000    0.000 
#    0.000    0.000    0.000    0.000    0.000    0.000 
#
# Total GULP energy -89398.084370 kJ/mol
# GULP energy per Si atom -5587.380273 kJ/mol
# Density = 2.271846 g / cm^3
# Si number density = 22.770282 Si / 1000 Ang^3
#
#
#
# Elastic Constant Matrix: (Units=GPa)
#
#
# Indices 1 2 3 4 5 6 
#
# 1 167.7053 68.8335 22.8794 -48.8621 4.2226 -14.1439
# 2 68.8335 125.9605 23.1668 -40.0852 -6.1177 3.1998
# 3 22.8794 23.1668 53.5459 -13.6382 3.2890 -6.6094
# 4 -48.8621 -40.0852 -13.6382 38.0823 6.1229 0.5497
# 5 4.2226 -6.1177 3.2890 6.1229 25.3139 -4.4911
# 6 -14.1439 3.1998 -6.6094 0.5497 -4.4911 31.2421
#
#
#
# Elastic Compliance Matrix: (Units=1/GPa)
#
#
# Indices 1 2 3 4 5 6 
#
# 1 0.011027 -0.002509 0.000347 0.012321 -0.004684 0.004432
# 2 -0.002509 0.012861 -0.002569 0.009267 0.001086 -0.003003
# 3 0.000347 -0.002569 0.022033 0.006257 -0.004282 0.004356
# 4 0.012321 0.009267 0.006257 0.056221 -0.013696 0.002994
# 5 -0.004684 0.001086 -0.004282 -0.013696 0.045052 0.003579
# 6 0.004432 -0.003003 0.004356 0.002994 0.003579 0.035706
#
#
# Mechanical properties :
#
#
# Convention : Reuss Voigt Hill
#
# Bulk Modulus (GPa) = 27.42899 64.10790 45.76844
# Shear Modulus (GPa) = 24.44819 34.41646 29.43232
#
# Velocity S-wave (km/s) = 3.28027 3.89197 3.59914
# Velocity P-wave (km/s) = 5.13995 6.95787 6.11682
#
# Compressibility (1/GPa) = 0.03645778
#
# Stress axis : x y z
#
# Youngs Moduli (GPa) = 90.68922 77.75725 45.38576
#
# Poissons Ratio (x) = 0.19507 -0.01574
# Poissons Ratio (y) = 0.22752 0.11662
# Poissons Ratio (z) = -0.03145 0.19979
#
# Static dielectric constant tensor:
#      x y z
#    x 1.605040 -0.032100 -0.338210 
#    y -0.032100 1.868730 -0.074210 
#    z -0.338210 -0.074210 1.302020 
# 
# From -- ./inp_files/272991.got.cif
#   From: 2010.05.17/outbox.cif.g08.bks.cpg/sg2_137_cif.got.tgz:272991.got - 2010.06.03 11:33:40.
