data_PCOD9011606
_publ_section_title
;
Structure prediction by ZEFSAII (Michael W. Deem and Ramdas Pophale) SiO2 
 PCOD9011606
Probable space group: P -1
;
_chemical_formula_sum "Si O2"
_cell_formula_units_Z 14
_cell_length_a 10.189110
_cell_length_b 8.200952
_cell_length_c 7.707773
_cell_angle_alpha 93.894274
_cell_angle_beta 96.790606
_cell_angle_gamma 123.870040
_cell_volume 523.977357
_symmetry_space_group_name_H-M "P -1"
_symmetry_group_IT_number 2
_symmetry_cell_setting 'triclinic'
loop_
_space_group_symop_operation_xyz
x,y,z
-x,-y,-z
loop_
_atom_site_type_symbol
_atom_site_label
_atom_site_fract_x
_atom_site_fract_y
_atom_site_fract_z
Si Si1 0.510232 0.466962 0.210816
Si Si2 0.910971 0.177650 0.489603
Si Si3 0.758559 0.744986 0.552290
Si Si4 0.167751 0.038400 0.871931
Si Si5 0.442930 0.079269 0.145308
Si Si6 0.805384 0.304225 0.758916
Si Si7 0.903156 0.678146 0.002252
O O1 0.630286 0.654771 0.366171
O O2 0.500000 0.500000 0.000000
O O3 0.561085 0.310677 0.224715
O O4 0.831097 0.764374 0.123916
O O5 0.808671 0.061302 0.295620
O O6 0.862611 0.316113 0.572832
O O7 0.097673 0.277981 0.480003
O O8 0.850919 0.985273 0.590651
O O9 0.653573 0.639603 0.702070
O O10 0.991899 0.854973 0.889929
O O11 0.296182 0.075137 0.034853
O O12 0.500000 0.000000 0.000000
O O13 0.362889 0.909574 0.265083
O O14 0.796705 0.468457 0.871973
O O15 0.954411 0.319011 0.880333
#
# Coordination Sequence:
#
# PCOD9011606 Si02
#       7
#     2   2   2   2   2   2   2
#     4  11  24  45  71 104 144 195 246 285 363 448
#     4  11  21  41  70 106 143 181 230 312 363 412
#     4  10  23  41  70 108 147 186 239 304 357 431
#     4  10  22  39  70 102 134 177 244 294 351 433
#     4  11  25  45  66  94 138 190 239 295 362 438
#     4  10  21  40  66  96 143 181 223 293 371 411
#     4   9  20  38  63 100 135 176 230 292 347 430
#
# _framework density 26.718715
#
# number of rings (size 3 to 8) (size 9 to 14) (size 15 to 20)
#    0.000    1.714    1.429    2.571    4.000    6.286 
#    2.571    1.429    0.000    0.000    0.000    0.000 
#    0.000    0.000    0.000    0.000    0.000    0.000 
#
# Total GULP energy -78167.562153 kJ/mol
# GULP energy per Si atom -5583.397297 kJ/mol
# Density = 2.665790 g / cm^3
# Si number density = 26.718715 Si / 1000 Ang^3
#
#
#
# Elastic Constant Matrix: (Units=GPa)
#
#
# Indices 1 2 3 4 5 6 
#
# 1 68.8162 23.5417 31.3245 -0.4252 -21.1846 6.1903
# 2 23.5417 122.2219 46.2192 13.7002 -15.4087 4.6561
# 3 31.3245 46.2192 164.0971 6.6475 -29.7013 5.1689
# 4 -0.4252 13.7002 6.6475 47.8811 5.7154 -13.4241
# 5 -21.1846 -15.4087 -29.7013 5.7154 49.0492 1.2058
# 6 6.1903 4.6561 5.1689 -13.4241 1.2058 45.2945
#
#
#
# Elastic Compliance Matrix: (Units=1/GPa)
#
#
# Indices 1 2 3 4 5 6 
#
# 1 0.018108 -0.001910 -0.001680 -0.000486 0.006319 -0.002399
# 2 -0.001910 0.009900 -0.001977 -0.003178 0.001496 -0.001513
# 3 -0.001680 -0.001977 0.007673 -0.001175 0.003458 -0.000883
# 4 -0.000486 -0.003178 -0.001175 0.024796 -0.005006 0.008009
# 5 0.006319 0.001496 0.003458 -0.005006 0.026353 -0.003597
# 6 -0.002399 -0.001513 -0.000883 0.008009 -0.003597 0.025131
#
#
# Mechanical properties :
#
#
# Convention : Reuss Voigt Hill
#
# Bulk Modulus (GPa) = 40.73740 61.92286 51.33013
# Shear Modulus (GPa) = 38.08794 45.38162 41.73478
#
# Velocity S-wave (km/s) = 3.77970 4.12575 3.95651
# Velocity P-wave (km/s) = 5.85901 6.77657 6.33443
#
# Compressibility (1/GPa) = 0.02454746
#
# Stress axis : x y z
#
# Youngs Moduli (GPa) = 55.22555 101.01440 130.33279
#
# Poissons Ratio (x) = 0.19294 0.21889
# Poissons Ratio (y) = 0.10548 0.25762
# Poissons Ratio (z) = 0.09275 0.19967
#
# Static dielectric constant tensor:
#      x y z
#    x 2.093740 0.031970 -0.005910 
#    y 0.031970 2.195120 -0.061820 
#    z -0.005910 -0.061820 2.213670 
# 
# From -- ./inp_files/187790.got.cif
#   From: 2010.05.17/outbox.cif.g08.bks.cpg/sg2_94_cif.got.tgz:187790.got - 2010.06.03 11:33:40.
