data_PCOD9011325
_publ_section_title
;
Structure prediction by ZEFSAII (Michael W. Deem and Ramdas Pophale) SiO2 
 PCOD9011325
Probable space group: P -1
;
_chemical_formula_sum "Si O2"
_cell_formula_units_Z 14
_cell_length_a 19.661014
_cell_length_b 8.954461
_cell_length_c 9.371552
_cell_angle_alpha 136.611212
_cell_angle_beta 143.433397
_cell_angle_gamma 35.913514
_cell_volume 562.672336
_symmetry_space_group_name_H-M "P -1"
_symmetry_group_IT_number 2
_symmetry_cell_setting 'triclinic'
loop_
_space_group_symop_operation_xyz
x,y,z
-x,-y,-z
loop_
_atom_site_type_symbol
_atom_site_label
_atom_site_fract_x
_atom_site_fract_y
_atom_site_fract_z
Si Si1 0.909581 0.060546 0.748181
Si Si2 0.162372 0.494509 0.269645
Si Si3 0.896986 0.372763 0.427898
Si Si4 0.344225 0.680085 0.316318
Si Si5 0.733127 0.089689 0.948590
Si Si6 0.456838 0.255777 0.701086
Si Si7 0.629252 0.761038 0.134467
O O1 0.909124 0.287914 0.819403
O O2 0.755602 0.180181 0.623535
O O3 0.974030 0.807958 0.580610
O O4 0.000000 0.000000 0.000000
O O5 0.079124 0.585358 0.340348
O O6 0.307430 0.462569 0.527835
O O7 0.200184 0.206710 0.098195
O O8 0.784925 0.659197 0.374362
O O9 0.826115 0.205197 0.201700
O O10 0.500000 0.500000 0.500000
O O11 0.310157 0.881644 0.271386
O O12 0.323467 0.473971 0.059925
O O13 0.588166 0.270480 0.909538
O O14 0.435655 0.226747 0.811790
O O15 0.500000 0.000000 0.500000
O O16 0.500000 0.000000 0.000000
#
# Coordination Sequence:
#
# PCOD9011325 Si02
#       7
#     2   2   2   2   2   2   2
#     4  12  23  45  67  94 137 179 212 282 351 387
#     4  10  23  39  70  91 129 182 224 267 335 405
#     4  10  23  43  65  94 135 175 226 276 327 403
#     4  11  25  40  68  99 139 170 219 284 336 393
#     4  10  21  40  65  98 130 172 229 270 326 401
#     4   9  20  36  63  93 128 170 222 269 325 392
#     4  10  22  37  64  96 133 173 218 271 335 392
#
# _framework density 24.881266
#
# number of rings (size 3 to 8) (size 9 to 14) (size 15 to 20)
#    0.000    1.714    2.857    1.286   10.000    6.857 
#    0.000    0.714    6.286    0.000    0.000    0.000 
#    0.000    0.000    0.000    0.000    0.000    0.000 
#
# Total GULP energy -78217.729147 kJ/mol
# GULP energy per Si atom -5586.980653 kJ/mol
# Density = 2.482464 g / cm^3
# Si number density = 24.881266 Si / 1000 Ang^3
#
#
#
# Elastic Constant Matrix: (Units=GPa)
#
#
# Indices 1 2 3 4 5 6 
#
# 1 129.5101 66.0793 18.3613 -9.6811 -17.8662 -44.6215
# 2 66.0793 176.7321 35.6342 -16.6074 -23.3714 -8.9713
# 3 18.3613 35.6342 50.6282 -21.7817 -1.5968 0.7101
# 4 -9.6811 -16.6074 -21.7817 51.9386 2.2465 -10.9718
# 5 -17.8662 -23.3714 -1.5968 2.2465 44.5804 -5.3573
# 6 -44.6215 -8.9713 0.7101 -10.9718 -5.3573 65.1926
#
#
#
# Elastic Compliance Matrix: (Units=1/GPa)
#
#
# Indices 1 2 3 4 5 6 
#
# 1 0.014057 -0.003579 -0.001358 0.002814 0.004770 0.010009
# 2 -0.003579 0.008152 -0.004463 -0.000279 0.002560 -0.001116
# 3 -0.001358 -0.004463 0.027578 0.009911 -0.002441 -0.000377
# 4 0.002814 -0.000279 0.009911 0.025093 0.000802 0.006069
# 5 0.004770 0.002560 -0.002441 0.000802 0.026271 0.005937
# 6 0.010009 -0.001116 -0.000377 0.006069 0.005937 0.023550
#
#
# Mechanical properties :
#
#
# Convention : Reuss Voigt Hill
#
# Bulk Modulus (GPa) = 32.27207 66.33555 49.30381
# Shear Modulus (GPa) = 32.50344 48.12868 40.31606
#
# Velocity S-wave (km/s) = 3.61826 4.40288 4.02971
# Velocity P-wave (km/s) = 5.51854 7.25023 6.44283
#
# Compressibility (1/GPa) = 0.03098655
#
# Stress axis : x y z
#
# Youngs Moduli (GPa) = 71.13974 122.67069 36.26031
#
# Poissons Ratio (x) = 0.43899 0.04926
# Poissons Ratio (y) = 0.25458 0.16184
# Poissons Ratio (z) = 0.09664 0.54752
#
# Static dielectric constant tensor:
#      x y z
#    x 1.963000 0.258020 0.577600 
#    y 0.258020 -6.310290 -18.995860 
#    z 0.577600 -18.995860 -41.529290 
# 
# From -- ./inp_files/245329.got.cif
#   From: 2010.05.17/outbox.cif.g08.bks.cpg/sg2_123_cif.got.tgz:245329.got - 2010.06.03 11:33:40.
