data_PCOD9011100
_publ_section_title
;
Structure prediction by ZEFSAII (Michael W. Deem and Ramdas Pophale) SiO2 
 PCOD9011100
Probable space group: P -1
;
_chemical_formula_sum "Si O2"
_cell_formula_units_Z 16
_cell_length_a 13.864596
_cell_length_b 13.406900
_cell_length_c 5.270348
_cell_angle_alpha 84.629581
_cell_angle_beta 98.462882
_cell_angle_gamma 42.317729
_cell_volume 621.497294
_symmetry_space_group_name_H-M "P -1"
_symmetry_group_IT_number 2
_symmetry_cell_setting 'triclinic'
loop_
_space_group_symop_operation_xyz
x,y,z
-x,-y,-z
loop_
_atom_site_type_symbol
_atom_site_label
_atom_site_fract_x
_atom_site_fract_y
_atom_site_fract_z
Si Si1 0.360916 0.184813 0.169261
Si Si2 0.185458 0.627189 0.998984
Si Si3 0.982366 0.101869 0.770517
Si Si4 0.105197 0.155361 0.483381
Si Si5 0.395078 0.933989 0.352361
Si Si6 0.679057 0.337584 0.316763
Si Si7 0.445894 0.379806 0.461160
Si Si8 0.830764 0.675518 0.417135
O O1 0.512735 0.120944 0.333779
O O2 0.246808 0.278145 0.347855
O O3 0.407636 0.030394 0.196697
O O4 0.273771 0.284285 0.858421
O O5 0.288570 0.642144 0.951677
O O6 0.068690 0.691254 0.716647
O O7 0.076668 0.754238 0.140325
O O8 0.302513 0.460095 0.213167
O O9 0.845170 0.179999 0.517034
O O10 0.115239 0.045309 0.672128
O O11 0.000000 0.000000 0.000000
O O12 0.153742 0.216746 0.632994
O O13 0.220376 0.053697 0.318856
O O14 0.476232 0.771233 0.320348
O O15 0.569690 0.332466 0.335240
O O16 0.614491 0.485023 0.410161
O O17 0.000000 0.500000 0.500000
#
# Coordination Sequence:
#
# PCOD9011100 Si02
#       8
#     2   2   2   2   2   2   2   2
#     4  10  25  48  68 110 142 180 238 291 349 429
#     4  10  22  40  60  90 135 167 228 281 326 419
#     4  10  23  38  63  93 133 177 221 287 345 409
#     4  10  25  41  63 102 129 177 232 281 343 426
#     4  10  24  44  69  98 138 183 224 294 349 417
#     4   9  21  40  58  94 126 169 231 275 333 411
#     4  10  21  40  65  91 128 179 223 276 344 408
#     4  11  25  46  77 103 145 185 230 294 356 418
#
# _framework density 25.744281000000001
#
# number of rings (size 3 to 8) (size 9 to 14) (size 15 to 20)
#    0.000    2.000    0.000    0.750    8.750    8.500 
#    4.500    0.000    0.000    0.000    0.000    0.000 
#    0.000    0.000    0.000    0.000    0.000    0.000 
#
# Total GULP energy -89528.719820 kJ/mol
# GULP energy per Si atom -5595.544989 kJ/mol
# Density = 2.568569 g / cm^3
# Si number density = 25.744281 Si / 1000 Ang^3
#
#
#
# Elastic Constant Matrix: (Units=GPa)
#
#
# Indices 1 2 3 4 5 6 
#
# 1 109.3273 31.6908 10.8151 -1.5373 -4.0490 -10.3538
# 2 31.6908 97.8460 20.3855 -14.6928 -11.7904 -0.2838
# 3 10.8151 20.3855 89.6746 -8.3532 4.3541 -3.8428
# 4 -1.5373 -14.6928 -8.3532 41.7453 0.3249 -0.8285
# 5 -4.0490 -11.7904 4.3541 0.3249 33.5445 -2.6459
# 6 -10.3538 -0.2838 -3.8428 -0.8285 -2.6459 34.6753
#
#
#
# Elastic Compliance Matrix: (Units=1/GPa)
#
#
# Indices 1 2 3 4 5 6 
#
# 1 0.010459 -0.003360 -0.000463 -0.000833 0.000391 0.003054
# 2 -0.003360 0.012917 -0.002412 0.003892 0.004352 -0.000740
# 3 -0.000463 -0.002412 0.012064 0.001587 -0.002403 0.001033
# 4 -0.000833 0.003892 0.001587 0.025617 0.000863 0.000637
# 5 0.000391 0.004352 -0.002403 0.000863 0.031876 0.002339
# 6 0.003054 -0.000740 0.001033 0.000637 0.002339 0.030053
#
#
# Mechanical properties :
#
#
# Convention : Reuss Voigt Hill
#
# Bulk Modulus (GPa) = 43.53385 46.95897 45.24641
# Shear Modulus (GPa) = 34.93729 37.59011 36.26370
#
# Velocity S-wave (km/s) = 3.68787 3.82532 3.75722
# Velocity P-wave (km/s) = 5.92289 6.14743 6.03620
#
# Compressibility (1/GPa) = 0.02297063
#
# Stress axis : x y z
#
# Youngs Moduli (GPa) = 95.61505 77.41453 82.88851
#
# Poissons Ratio (x) = 0.26011 0.03839
# Poissons Ratio (y) = 0.32127 0.19991
# Poissons Ratio (z) = 0.04429 0.18670
#
# Static dielectric constant tensor:
#      x y z
#    x 2.022490 0.001040 -0.016660 
#    y 0.001040 2.040720 0.026040 
#    z -0.016660 0.026040 2.078980 
# 
# From -- ./inp_files/97984.got.cif
#   From: 2010.05.17/outbox.cif.g08.bks.cpg/sg2_49_cif.got.tgz:97984.got - 2010.06.03 11:33:40.
