data_PCOD9011724
_publ_section_title
;
Structure prediction by ZEFSAII (Michael W. Deem and Ramdas Pophale) SiO2 
 PCOD9011724
Probable space group: P -1
;
_chemical_formula_sum "Si O2"
_cell_formula_units_Z 16
_cell_length_a 9.192440
_cell_length_b 26.442536
_cell_length_c 5.603536
_cell_angle_alpha 55.944349
_cell_angle_beta 42.477329
_cell_angle_gamma 46.343317
_cell_volume 661.849651
_symmetry_space_group_name_H-M "P -1"
_symmetry_group_IT_number 2
_symmetry_cell_setting 'triclinic'
loop_
_space_group_symop_operation_xyz
x,y,z
-x,-y,-z
loop_
_atom_site_type_symbol
_atom_site_label
_atom_site_fract_x
_atom_site_fract_y
_atom_site_fract_z
Si Si1 0.347207 0.966175 0.392033
Si Si2 0.182029 0.153946 0.696230
Si Si3 0.872768 0.098973 0.536125
Si Si4 0.944796 0.293491 0.848112
Si Si5 0.760691 0.221200 0.640103
Si Si6 0.864900 0.512515 0.881081
Si Si7 0.467033 0.649663 0.175937
Si Si8 0.681144 0.427185 0.105241
O O1 0.539132 0.910317 0.495125
O O2 0.279465 0.924932 0.384531
O O3 0.081595 0.032102 0.606681
O O4 0.500000 0.000000 0.000000
O O5 0.175702 0.219203 0.678190
O O6 0.018701 0.182220 0.579490
O O7 0.026506 0.125593 0.114653
O O8 0.711552 0.163393 0.734948
O O9 0.795322 0.323762 0.704535
O O10 0.802517 0.264804 0.265788
O O11 0.902872 0.363322 0.856292
O O12 0.545077 0.278950 0.915707
O O13 0.000000 0.500000 0.500000
O O14 0.664534 0.594793 0.904170
O O15 0.772146 0.455944 0.136582
O O16 0.000000 0.500000 0.000000
O O17 0.481625 0.604193 0.507199
O O18 0.500000 0.500000 0.000000
#
# Coordination Sequence:
#
# PCOD9011724 Si02
#       8
#     2   2   2   2   2   2   2   2
#     4   9  18  35  60  87 126 157 201 255 314 380
#     4   9  18  36  56  86 120 158 207 259 310 379
#     4   9  18  36  59  87 119 166 200 250 319 383
#     4   9  19  36  63  83 114 160 222 257 310 384
#     4   9  19  36  62  84 116 159 216 259 316 381
#     4  12  27  41  60  96 136 161 212 285 344 388
#     4  10  21  40  67  86 118 172 218 262 325 397
#     4  11  21  39  68  89 117 172 225 260 324 409
#
# _framework density 24.174676000000002
#
# number of rings (size 3 to 8) (size 9 to 14) (size 15 to 20)
#    0.000    2.250    1.250    1.125    3.500    0.500 
#    2.250    9.375    0.000    0.000    0.000    0.000 
#    0.000    0.000    0.000    0.000    0.000    0.000 
#
# Total GULP energy -89249.701417 kJ/mol
# GULP energy per Si atom -5578.106339 kJ/mol
# Density = 2.411965 g / cm^3
# Si number density = 24.174676 Si / 1000 Ang^3
#
#
#
# Elastic Constant Matrix: (Units=GPa)
#
#
# Indices 1 2 3 4 5 6 
#
# 1 72.3724 46.3750 6.9903 -23.9618 -1.1716 22.1627
# 2 46.3750 174.0298 19.9599 -15.7137 1.5168 28.9252
# 3 6.9903 19.9599 56.6712 -23.6038 4.5116 0.1388
# 4 -23.9618 -15.7137 -23.6038 17.6153 2.9437 10.8250
# 5 -1.1716 1.5168 4.5116 2.9437 26.0600 -7.8402
# 6 22.1627 28.9252 0.1388 10.8250 -7.8402 53.4764
#
#
#
# Elastic Compliance Matrix: (Units=1/GPa)
#
#
# Indices 1 2 3 4 5 6 
#
# 1 -0.006532 -0.004292 -0.023813 -0.059434 0.016679 0.019567
# 2 -0.004292 0.007421 -0.002538 -0.001231 -0.000672 -0.002078
# 3 -0.023813 -0.002538 -0.002828 -0.055684 0.013215 0.024459
# 4 -0.059434 -0.001231 -0.055684 -0.144033 0.041569 0.060692
# 5 0.016679 -0.000672 0.013215 0.041569 0.028943 -0.010755
# 6 0.019567 -0.002078 0.024459 0.060692 -0.010755 -0.002211
#
#
# Mechanical properties :
#
#
# Convention : Reuss Voigt Hill
#
# Bulk Modulus (GPa) = -15.81646 49.96930 17.07642
# Shear Modulus (GPa) = -63.26842 34.74690 -14.26076
#
# Velocity S-wave (km/s) = -5.12135 3.79532 -2.43143
# Velocity P-wave (km/s) = 6.44420 6.31830 0.89631
#
# Compressibility (1/GPa) = -0.06322528
#
# Stress axis : x y z
#
# Youngs Moduli (GPa) = -153.09061 134.75014 -353.65493
#
# Poissons Ratio (x) = 0.57838 -8.42149
# Poissons Ratio (y) = -0.65710 -0.89772
# Poissons Ratio (z) = -3.64551 0.34205
#
# Static dielectric constant tensor:
#      x y z
#    x 2.641460 0.877730 -1.087830 
#    y 0.877730 3.069900 -1.296780 
#    z -1.087830 -1.296780 3.582510 
# 
# From -- ./inp_files/56128.got.cif
#   From: 2010.05.17/outbox.cif.g08.bks.cpg/sg2_29_cif.got.tgz:56128.got - 2010.06.03 11:33:40.
