data_PCOD9011774
_publ_section_title
;
Structure prediction by ZEFSAII (Michael W. Deem and Ramdas Pophale) SiO2 
 PCOD9011774
Probable space group: P -1
;
_chemical_formula_sum "Si O2"
_cell_formula_units_Z 16
_cell_length_a 5.879244
_cell_length_b 14.620949
_cell_length_c 22.970944
_cell_angle_alpha 159.081912
_cell_angle_beta 72.302716
_cell_angle_gamma 105.620700
_cell_volume 671.002569
_symmetry_space_group_name_H-M "P -1"
_symmetry_group_IT_number 2
_symmetry_cell_setting 'triclinic'
loop_
_space_group_symop_operation_xyz
x,y,z
-x,-y,-z
loop_
_atom_site_type_symbol
_atom_site_label
_atom_site_fract_x
_atom_site_fract_y
_atom_site_fract_z
Si Si1 0.783447 0.808714 0.654993
Si Si2 0.646066 0.088888 0.485043
Si Si3 0.183461 0.711883 0.128882
Si Si4 0.888600 0.460165 0.745515
Si Si5 0.550355 0.387119 0.835915
Si Si6 0.798819 0.204509 0.290256
Si Si7 0.297778 0.023527 0.957382
Si Si8 0.368817 0.624003 0.817111
O O1 0.820333 0.508153 0.460714
O O2 0.488085 0.836772 0.698840
O O3 0.978621 0.867304 0.726257
O O4 0.870002 0.995541 0.709271
O O5 0.894040 0.191658 0.551408
O O6 0.527655 0.363637 0.637408
O O7 0.500000 0.000000 0.500000
O O8 0.619228 0.853325 0.303962
O O9 0.252556 0.690605 0.177872
O O10 0.406712 0.623101 0.017135
O O11 0.000000 0.500000 0.000000
O O12 0.677608 0.454350 0.805775
O O13 0.127970 0.507685 0.788623
O O14 0.848447 0.711416 0.856322
O O15 0.824142 0.060087 0.141395
O O16 0.337656 0.789961 0.859344
O O17 0.551237 0.158088 0.014690
#
# Coordination Sequence:
#
# PCOD9011774 Si02
#       8
#     2   2   2   2   2   2   2   2
#     4  10  24  45  68  99 135 173 238 276 344 408
#     4   9  21  41  60  92 128 166 217 269 324 400
#     4  11  26  42  66  97 132 176 226 285 340 412
#     4  10  21  40  67  92 129 171 218 268 331 410
#     4  10  24  42  63  95 131 173 223 274 335 398
#     4  10  23  44  70  99 133 183 221 287 340 410
#     4  10  22  38  61  96 131 165 217 271 340 391
#     4  10  22  39  63  96 130 167 217 271 329 408
#
# _framework density 23.844918
#
# number of rings (size 3 to 8) (size 9 to 14) (size 15 to 20)
#    0.000    2.000    0.000    1.125    8.750    6.000 
#    0.000    0.000    0.000    0.000    0.000    0.000 
#    0.000    0.000    0.000    0.000    0.000    0.000 
#
# Total GULP energy -89098.200581 kJ/mol
# GULP energy per Si atom -5568.637536 kJ/mol
# Density = 2.379065 g / cm^3
# Si number density = 23.844918 Si / 1000 Ang^3
#
#
#
# Elastic Constant Matrix: (Units=GPa)
#
#
# Indices 1 2 3 4 5 6 
#
# 1 100.3475 23.5456 31.8726 8.5525 35.3629 -5.7114
# 2 23.5456 65.1116 51.8420 19.7455 15.9885 -13.9409
# 3 31.8726 51.8420 101.7162 9.3601 29.8112 -6.7182
# 4 8.5525 19.7455 9.3601 32.7700 0.3318 8.3289
# 5 35.3629 15.9885 29.8112 0.3318 42.9635 -10.4761
# 6 -5.7114 -13.9409 -6.7182 8.3289 -10.4761 25.1004
#
#
#
# Elastic Compliance Matrix: (Units=1/GPa)
#
#
# Indices 1 2 3 4 5 6 
#
# 1 0.014681 -0.002590 0.000167 -0.001572 -0.011825 -0.002467
# 2 -0.002590 0.046881 -0.020154 -0.030273 0.006950 0.033001
# 3 0.000167 -0.020154 0.021492 0.009380 -0.010798 -0.013023
# 4 -0.001572 -0.030273 0.009380 0.055180 -0.002688 -0.034093
# 5 -0.011825 0.006950 -0.010798 -0.002688 0.042009 0.016704
# 6 -0.002467 0.033001 -0.013023 -0.034093 0.016704 0.072407
#
#
# Mechanical properties :
#
#
# Convention : Reuss Voigt Hill
#
# Bulk Modulus (GPa) = 26.38438 53.52174 39.95306
# Shear Modulus (GPa) = 16.10635 30.82781 23.46708
#
# Velocity S-wave (km/s) = 2.60179 3.59952 3.14053
# Velocity P-wave (km/s) = 4.48495 6.30634 5.47196
#
# Compressibility (1/GPa) = 0.03790121
#
# Stress axis : x y z
#
# Youngs Moduli (GPa) = 68.11634 21.33055 46.52835
#
# Poissons Ratio (x) = 0.05524 -0.00778
# Poissons Ratio (y) = 0.17639 0.93773
# Poissons Ratio (z) = -0.01139 0.42990
#
# Static dielectric constant tensor:
#      x y z
#    x 2.194730 -0.011910 -0.013710 
#    y -0.011910 1.891800 -0.007950 
#    z -0.013710 -0.007950 1.876770 
# 
# From -- ./inp_files/604790.got.cif
#   From: 2010.05.17/outbox.cif.g08.bks.cpg/sg2_303_cif.got.tgz:604790.got - 2010.06.03 11:33:40.
