data_PCOD9011197
_publ_section_title
;
Structure prediction by ZEFSAII (Michael W. Deem and Ramdas Pophale) SiO2 
 PCOD9011197
Probable space group: P -1
;
_chemical_formula_sum "Si O2"
_cell_formula_units_Z 12
_cell_length_a 20.166531
_cell_length_b 8.776243
_cell_length_c 8.153219
_cell_angle_alpha 34.361373
_cell_angle_beta 37.530664
_cell_angle_gamma 43.536179
_cell_volume 485.669790
_symmetry_space_group_name_H-M "P -1"
_symmetry_group_IT_number 2
_symmetry_cell_setting 'triclinic'
loop_
_space_group_symop_operation_xyz
x,y,z
-x,-y,-z
loop_
_atom_site_type_symbol
_atom_site_label
_atom_site_fract_x
_atom_site_fract_y
_atom_site_fract_z
Si Si1 0.869519 0.154200 0.730310
Si Si2 0.167033 0.390063 0.872995
Si Si3 0.519365 0.936891 0.824418
Si Si4 0.652697 0.375764 0.148799
Si Si5 0.065171 0.882573 0.815237
Si Si6 0.686446 0.289716 0.539987
O O1 0.871170 0.419387 0.380487
O O2 0.776520 0.237904 0.977046
O O3 0.986193 0.024997 0.698520
O O4 0.831386 0.918005 0.906588
O O5 0.087556 0.550714 0.031638
O O6 0.284296 0.461957 0.632141
O O7 0.565159 0.188230 0.436149
O O8 0.617292 0.667545 0.871371
O O9 0.405616 0.851242 0.071702
O O10 0.500000 0.000000 0.000000
O O11 0.648793 0.396162 0.336527
O O12 0.193370 0.919042 0.532207
O O13 0.000000 0.000000 0.000000
#
# Coordination Sequence:
#
# PCOD9011197 Si02
#       6
#     2   2   2   2   2   2
#     4  12  22  45  60 101 125 170 199 258 323 367
#     4  10  25  39  67  89 136 162 205 253 322 374
#     4  10  21  40  65  94 124 165 210 265 307 357
#     4  11  22  40  68  92 127 163 214 259 305 373
#     4  10  21  44  68  94 126 162 216 261 303 381
#     4   9  21  41  63  95 121 167 213 257 309 364
#
# _framework density 24.708145999999999
#
# number of rings (size 3 to 8) (size 9 to 14) (size 15 to 20)
#    1.000    0.667    1.667    4.000    0.000    4.000 
#    0.000    8.333    0.000    0.000    0.000    0.000 
#    0.000    0.000    0.000    0.000    0.000    0.000 
#
# Total GULP energy -67119.107670 kJ/mol
# GULP energy per Si atom -5593.258972 kJ/mol
# Density = 2.465191 g / cm^3
# Si number density = 24.708146 Si / 1000 Ang^3
#
#
#
# Elastic Constant Matrix: (Units=GPa)
#
#
# Indices 1 2 3 4 5 6 
#
# 1 98.0237 2.3163 11.2311 0.8343 -15.0328 -14.3656
# 2 2.3163 61.7016 2.4774 -8.7252 -1.6499 -23.2595
# 3 11.2311 2.4774 41.2193 -12.6589 -5.8913 0.9755
# 4 0.8343 -8.7252 -12.6589 31.0627 -3.0415 -7.7162
# 5 -15.0328 -1.6499 -5.8913 -3.0415 35.2652 11.1314
# 6 -14.3656 -23.2595 0.9755 -7.7162 11.1314 34.2672
#
#
#
# Elastic Compliance Matrix: (Units=1/GPa)
#
#
# Indices 1 2 3 4 5 6 
#
# 1 0.011731 0.001941 -0.002791 0.000754 0.002945 0.005528
# 2 0.001941 0.026513 0.000775 0.013040 -0.003939 0.023004
# 3 -0.002791 0.000775 0.029619 0.012795 0.004967 -0.000220
# 4 0.000754 0.013040 0.012795 0.045818 0.001098 0.018763
# 5 0.002945 -0.003939 0.004967 0.001098 0.034289 -0.012472
# 6 0.005528 0.023004 -0.000220 0.018763 -0.012472 0.055397
#
#
# Mechanical properties :
#
#
# Convention : Reuss Voigt Hill
#
# Bulk Modulus (GPa) = 14.76838 25.88825 20.32832
# Shear Modulus (GPa) = 22.11520 32.44701 27.28110
#
# Velocity S-wave (km/s) = 2.99500 3.62776 3.32646
# Velocity P-wave (km/s) = 4.23676 5.29602 4.79573
#
# Compressibility (1/GPa) = 0.06771222
#
# Stress axis : x y z
#
# Youngs Moduli (GPa) = 85.24459 37.71695 33.76202
#
# Poissons Ratio (x) = -0.07320 0.09424
# Poissons Ratio (y) = -0.16545 -0.02616
# Poissons Ratio (z) = 0.23794 -0.02923
#
# Static dielectric constant tensor:
#      x y z
#    x 1.992630 -0.008800 -0.003720 
#    y -0.008800 1.977450 0.024390 
#    z -0.003720 0.024390 2.001260 
# 
# From -- ./inp_files/30269.got.cif
#   From: 2010.05.17/outbox.cif.g08.bks.cpg/sg2_16_cif.got.tgz:30269.got - 2010.06.03 11:33:40.
