data_PCOD9011785
_publ_section_title
;
Structure prediction by ZEFSAII (Michael W. Deem and Ramdas Pophale) SiO2 
 PCOD9011785
Probable space group: P -1
;
_chemical_formula_sum "Si O2"
_cell_formula_units_Z 16
_cell_length_a 20.443736
_cell_length_b 27.420121
_cell_length_c 5.211135
_cell_angle_alpha 88.085687
_cell_angle_beta 80.036851
_cell_angle_gamma 16.947517
_cell_volume 744.630896
_symmetry_space_group_name_H-M "P -1"
_symmetry_group_IT_number 2
_symmetry_cell_setting 'triclinic'
loop_
_space_group_symop_operation_xyz
x,y,z
-x,-y,-z
loop_
_atom_site_type_symbol
_atom_site_label
_atom_site_fract_x
_atom_site_fract_y
_atom_site_fract_z
Si Si1 0.837012 0.379650 0.028200
Si Si2 0.265624 0.283011 0.880210
Si Si3 0.933032 0.111040 0.295113
Si Si4 0.214341 0.681281 0.621035
Si Si5 0.816687 0.910449 0.528264
Si Si6 0.321759 0.751756 0.054132
Si Si7 0.324302 0.175225 0.358937
Si Si8 0.857311 0.781093 0.831879
O O1 0.106433 0.168234 0.777090
O O2 0.753774 0.392821 0.249590
O O3 0.624466 0.537410 0.928220
O O4 0.888202 0.393005 0.142518
O O5 0.286510 0.227274 0.649941
O O6 0.520590 0.135848 0.699747
O O7 0.279986 0.247032 0.153991
O O8 0.000000 0.500000 0.000000
O O9 0.953199 0.153490 0.202744
O O10 0.804306 0.193157 0.647504
O O11 0.758967 0.209866 0.175932
O O12 0.195439 0.894362 0.154551
O O13 0.500000 0.500000 0.500000
O O14 0.046467 0.784597 0.465811
O O15 0.829228 0.854409 0.713499
O O16 0.142411 0.259591 0.381099
O O17 0.609341 0.950836 0.153949
#
# Coordination Sequence:
#
# PCOD9011785 Si02
#       8
#     2   2   2   2   2   2   2   2
#     4  11  21  37  64  93 128 164 216 275 317 374
#     4  11  23  43  67  90 132 173 210 255 327 393
#     4  10  22  41  58  87 119 168 211 257 319 380
#     4  11  22  38  62  92 126 173 216 262 319 386
#     4  10  23  38  61  94 129 160 212 274 316 375
#     4  10  22  39  63  82 123 162 212 266 317 369
#     4  10  21  40  67  93 120 168 207 261 322 391
#     4   9  21  37  62  95 126 152 212 271 325 372
#
# _framework density 21.487155000000001
#
# number of rings (size 3 to 8) (size 9 to 14) (size 15 to 20)
#    0.000    1.750    2.500    1.125    5.250    2.500 
#    2.250    0.000    0.000    0.000    0.000    0.000 
#    0.000    0.000    0.000    0.000    0.000    0.000 
#
# Total GULP energy -89159.279753 kJ/mol
# GULP energy per Si atom -5572.454985 kJ/mol
# Density = 2.143825 g / cm^3
# Si number density = 21.487155 Si / 1000 Ang^3
#
#
#
# Elastic Constant Matrix: (Units=GPa)
#
#
# Indices 1 2 3 4 5 6 
#
# 1 96.4330 26.8967 10.2780 6.5335 7.3584 -23.0022
# 2 26.8967 99.8949 14.7398 8.5503 -3.4782 -6.3958
# 3 10.2780 14.7398 64.5747 0.3065 5.5134 -5.3515
# 4 6.5335 8.5503 0.3065 28.2243 -2.1615 2.0554
# 5 7.3584 -3.4782 5.5134 -2.1615 18.9562 6.0575
# 6 -23.0022 -6.3958 -5.3515 2.0554 6.0575 33.9214
#
#
#
# Elastic Compliance Matrix: (Units=1/GPa)
#
#
# Indices 1 2 3 4 5 6 
#
# 1 0.015262 -0.003407 0.000294 -0.004213 -0.010938 0.011962
# 2 -0.003407 0.011575 -0.002552 -0.002276 0.004300 -0.001161
# 3 0.000294 -0.002552 0.016890 -0.000250 -0.006670 0.003589
# 4 -0.004213 -0.002276 -0.000250 0.038217 0.007902 -0.007052
# 5 -0.010938 0.004300 -0.006670 0.007902 0.067056 -0.020112
# 6 0.011962 -0.001161 0.003589 -0.007052 -0.020112 0.041957
#
#
# Mechanical properties :
#
#
# Convention : Reuss Voigt Hill
#
# Bulk Modulus (GPa) = 30.86857 40.52572 35.69715
# Shear Modulus (GPa) = 23.46470 30.15293 26.80881
#
# Velocity S-wave (km/s) = 3.30818 3.75013 3.53606
# Velocity P-wave (km/s) = 5.38417 6.13618 5.77243
#
# Compressibility (1/GPa) = 0.03239541
#
# Stress axis : x y z
#
# Youngs Moduli (GPa) = 65.52164 86.39529 59.20707
#
# Poissons Ratio (x) = 0.29435 -0.01739
# Poissons Ratio (y) = 0.22324 0.15111
# Poissons Ratio (z) = -0.01924 0.22050
#
# Static dielectric constant tensor:
#      x y z
#    x 1.817280 -0.040610 -0.033340 
#    y -0.040610 1.809420 -0.012740 
#    z -0.033340 -0.012740 1.861630 
# 
# From -- ./inp_files/98293.got.cif
#   From: 2010.05.17/outbox.cif.g08.bks.cpg/sg2_50_cif.got.tgz:98293.got - 2010.06.03 11:33:40.
