data_PCOD9011415
_publ_section_title
;
Structure prediction by ZEFSAII (Michael W. Deem and Ramdas Pophale) SiO2 
 PCOD9011415
Probable space group: P -1
;
_chemical_formula_sum "Si O2"
_cell_formula_units_Z 16
_cell_length_a 8.926849
_cell_length_b 13.629156
_cell_length_c 9.573645
_cell_angle_alpha 46.884624
_cell_angle_beta 101.467959
_cell_angle_gamma 79.794392
_cell_volume 749.266335
_symmetry_space_group_name_H-M "P -1"
_symmetry_group_IT_number 2
_symmetry_cell_setting 'triclinic'
loop_
_space_group_symop_operation_xyz
x,y,z
-x,-y,-z
loop_
_atom_site_type_symbol
_atom_site_label
_atom_site_fract_x
_atom_site_fract_y
_atom_site_fract_z
Si Si1 0.652317 0.806546 0.490040
Si Si2 0.020930 0.282305 0.197669
Si Si3 0.978701 0.970810 0.185165
Si Si4 0.316483 0.807464 0.543581
Si Si5 0.873979 0.620326 0.155511
Si Si6 0.139405 0.288815 0.627051
Si Si7 0.684335 0.470905 0.121289
Si Si8 0.223694 0.960550 0.661823
O O1 0.827246 0.700801 0.705933
O O2 0.493799 0.794303 0.537298
O O3 0.687580 0.761265 0.379814
O O4 0.641465 0.971618 0.348764
O O5 0.048803 0.311596 0.014313
O O6 0.838157 0.395143 0.112274
O O7 0.068378 0.110840 0.419167
O O8 0.932968 0.829220 0.314087
O O9 0.838597 0.078865 0.165484
O O10 0.158260 0.940845 0.314460
O O11 0.000000 0.000000 0.000000
O O12 0.290661 0.662682 0.638395
O O13 0.297768 0.836859 0.677436
O O14 0.833219 0.711337 0.202887
O O15 0.716176 0.599691 0.077787
O O16 0.009424 0.453332 0.389504
O O17 0.500000 0.500000 0.000000
#
# Coordination Sequence:
#
# PCOD9011415 Si02
#       8
#     2   2   2   2   2   2   2   2
#     4   9  20  40  63  90 123 163 202 261 307 369
#     4  10  21  40  66  90 121 164 216 245 318 365
#     4  11  23  40  63  91 125 165 203 261 323 360
#     4  12  21  39  64  94 127 155 212 270 306 358
#     4  11  21  40  64  88 121 174 208 243 307 389
#     4  10  22  42  61  85 129 168 206 245 312 385
#     4  12  24  37  62 100 127 156 210 268 305 361
#     4   9  21  41  63  91 122 159 210 254 310 375
#
# _framework density 21.354223999999999
#
# number of rings (size 3 to 8) (size 9 to 14) (size 15 to 20)
#    0.750    0.750    3.750    1.875    3.500    0.000 
#    0.000    6.875    0.000    0.000    0.000    0.000 
#    0.000    0.000    0.000    0.000    0.000    0.000 
#
# Total GULP energy -89232.218874 kJ/mol
# GULP energy per Si atom -5577.013680 kJ/mol
# Density = 2.130562 g / cm^3
# Si number density = 21.354224 Si / 1000 Ang^3
#
#
#
# Elastic Constant Matrix: (Units=GPa)
#
#
# Indices 1 2 3 4 5 6 
#
# 1 159.8368 52.0552 27.9207 20.9946 -10.4696 -19.7138
# 2 52.0552 103.0637 20.9909 31.9070 -4.0168 -9.2323
# 3 27.9207 20.9909 59.1467 27.4224 -21.3223 -9.7760
# 4 20.9946 31.9070 27.4224 40.8510 -3.2329 -11.6089
# 5 -10.4696 -4.0168 -21.3223 -3.2329 30.5856 7.0507
# 6 -19.7138 -9.2323 -9.7760 -11.6089 7.0507 27.6905
#
#
#
# Elastic Compliance Matrix: (Units=1/GPa)
#
#
# Indices 1 2 3 4 5 6 
#
# 1 0.008269 -0.003789 -0.002866 0.001881 -0.000511 0.004530
# 2 -0.003789 0.014557 0.001935 -0.011245 0.001282 -0.002202
# 3 -0.002866 0.001935 0.036123 -0.023730 0.022970 -0.004440
# 4 0.001881 -0.011245 -0.023730 0.051149 -0.015326 0.014558
# 5 -0.000511 0.001282 0.022970 -0.015326 0.049590 -0.010878
# 6 0.004530 -0.002202 -0.004440 0.014558 -0.010878 0.045910
#
#
# Mechanical properties :
#
#
# Convention : Reuss Voigt Hill
#
# Bulk Modulus (GPa) = 20.19913 58.22007 39.20960
# Shear Modulus (GPa) = 21.59435 34.56412 28.07924
#
# Velocity S-wave (km/s) = 3.18346 4.02756 3.63013
# Velocity P-wave (km/s) = 4.79501 6.99653 5.99765
#
# Compressibility (1/GPa) = 0.04950708
#
# Stress axis : x y z
#
# Youngs Moduli (GPa) = 120.92758 68.69722 27.68355
#
# Poissons Ratio (x) = 0.26031 0.07934
# Poissons Ratio (y) = 0.45823 -0.05356
# Poissons Ratio (z) = 0.34659 -0.13290
#
# Static dielectric constant tensor:
#      x y z
#    x 1.785780 0.012340 0.007670 
#    y 0.012340 1.811770 -0.040620 
#    z 0.007670 -0.040620 1.858660 
# 
# From -- ./inp_files/199589.got.cif
#   From: 2010.05.17/outbox.cif.g08.bks.cpg/sg2_100_cif.got.tgz:199589.got - 2010.06.03 11:33:40.
