data_PCOD9011993
_publ_section_title
;
Structure prediction by ZEFSAII (Michael W. Deem and Ramdas Pophale) SiO2 
 PCOD9011993
Probable space group: P -1
;
_chemical_formula_sum "Si O2"
_cell_formula_units_Z 16
_cell_length_a 5.464920
_cell_length_b 8.440942
_cell_length_c 24.853578
_cell_angle_alpha 52.163712
_cell_angle_beta 87.446164
_cell_angle_gamma 57.618528
_cell_volume 691.888285
_symmetry_space_group_name_H-M "P -1"
_symmetry_group_IT_number 2
_symmetry_cell_setting 'triclinic'
loop_
_space_group_symop_operation_xyz
x,y,z
-x,-y,-z
loop_
_atom_site_type_symbol
_atom_site_label
_atom_site_fract_x
_atom_site_fract_y
_atom_site_fract_z
Si Si1 0.242449 0.727864 0.320477
Si Si2 0.313697 0.291877 0.461514
Si Si3 0.353965 0.494158 0.948038
Si Si4 0.415428 0.263755 0.586970
Si Si5 0.702250 0.312844 0.872233
Si Si6 0.685952 0.945546 0.812714
Si Si7 0.523447 0.159210 0.262949
Si Si8 0.561832 0.988213 0.090364
O O1 0.335814 0.448451 0.382508
O O2 0.330503 0.767243 0.370288
O O3 0.403196 0.785399 0.262943
O O4 0.863755 0.956155 0.272120
O O5 0.459762 0.279332 0.520477
O O6 0.934642 0.478079 0.442044
O O7 0.500000 0.000000 0.500000
O O8 0.584370 0.415084 0.912463
O O9 0.016785 0.765434 0.879110
O O10 0.500000 0.500000 0.000000
O O11 0.327948 0.268731 0.004841
O O12 0.449892 0.007559 0.652840
O O13 0.561210 0.566474 0.783806
O O14 0.555848 0.174606 0.886929
O O15 0.083351 0.135261 0.904784
O O16 0.720901 0.799779 0.787953
O O17 0.443945 0.987430 0.850030
#
# Coordination Sequence:
#
# PCOD9011993 Si02
#       8
#     2   2   2   2   2   2   2   2
#     4  10  21  42  70  93 135 181 234 281 343 426
#     4  10  21  40  68 103 136 177 226 288 353 423
#     4  12  25  48  74  98 132 191 241 290 358 437
#     4   9  21  41  66 100 139 179 230 284 348 427
#     4  12  26  46  68 102 146 178 231 301 368 412
#     4  11  24  45  69  95 133 187 242 282 353 435
#     4  10  22  43  69  93 135 191 230 280 347 428
#     4  12  28  43  68 106 141 177 235 310 361 416
#
# _framework density 23.125119000000002
#
# number of rings (size 3 to 8) (size 9 to 14) (size 15 to 20)
#    0.000    1.250    1.250    3.750    3.500    3.500 
#    4.500    0.000    0.000    0.000    0.000    0.000 
#    0.000    0.000    0.000    0.000    0.000    0.000 
#
# Total GULP energy -89500.517657 kJ/mol
# GULP energy per Si atom -5593.782354 kJ/mol
# Density = 2.307249 g / cm^3
# Si number density = 23.125119 Si / 1000 Ang^3
#
#
#
# Elastic Constant Matrix: (Units=GPa)
#
#
# Indices 1 2 3 4 5 6 
#
# 1 74.0486 20.7083 21.9019 -8.5547 0.8524 12.2533
# 2 20.7083 73.7087 34.0916 -12.0220 -2.3941 3.2537
# 3 21.9019 34.0916 117.6425 -17.5116 -8.5402 8.7218
# 4 -8.5547 -12.0220 -17.5116 38.1515 13.7600 -19.6914
# 5 0.8524 -2.3941 -8.5402 13.7600 47.2777 3.0246
# 6 12.2533 3.2537 8.7218 -19.6914 3.0246 26.3562
#
#
#
# Elastic Compliance Matrix: (Units=1/GPa)
#
#
# Indices 1 2 3 4 5 6 
#
# 1 0.016191 -0.003900 -0.001650 -0.003298 0.000751 -0.009050
# 2 -0.003900 0.017214 -0.003873 0.006785 -0.002135 0.006284
# 3 -0.001650 -0.003873 0.010422 0.002697 0.000950 -0.000298
# 4 -0.003298 0.006785 0.002697 0.060215 -0.019645 0.047046
# 5 0.000751 -0.002135 0.000950 -0.019645 0.028090 -0.018301
# 6 -0.009050 0.006284 -0.000298 0.047046 -0.018301 0.078722
#
#
# Mechanical properties :
#
#
# Convention : Reuss Voigt Hill
#
# Bulk Modulus (GPa) = 40.02842 46.53371 43.28107
# Shear Modulus (GPa) = 21.00602 34.93695 27.97148
#
# Velocity S-wave (km/s) = 3.01718 3.89109 3.48166
# Velocity P-wave (km/s) = 5.43000 6.35246 5.90926
#
# Compressibility (1/GPa) = 0.02498225
#
# Stress axis : x y z
#
# Youngs Moduli (GPa) = 61.76217 58.09230 95.94727
#
# Poissons Ratio (x) = 0.22655 0.15827
# Poissons Ratio (y) = 0.24086 0.37162
# Poissons Ratio (z) = 0.10188 0.22500
#
# Static dielectric constant tensor:
#      x y z
#    x 1.941730 0.033090 -0.023790 
#    y 0.033090 1.873990 -0.026830 
#    z -0.023790 -0.026830 1.866800 
# 
# From -- ./inp_files/603983.got.cif
#   From: 2010.05.17/outbox.cif.g08.bks.cpg/sg2_302_cif.got.tgz:603983.got - 2010.06.03 11:33:40.
