data_PCOD9011589
_publ_section_title
;
Structure prediction by ZEFSAII (Michael W. Deem and Ramdas Pophale) SiO2 
 PCOD9011589
Probable space group: P -1
;
_chemical_formula_sum "Si O2"
_cell_formula_units_Z 14
_cell_length_a 16.405369
_cell_length_b 15.972029
_cell_length_c 5.417685
_cell_angle_alpha 90.888885
_cell_angle_beta 78.437151
_cell_angle_gamma 153.603052
_cell_volume 572.797792
_symmetry_space_group_name_H-M "P -1"
_symmetry_group_IT_number 2
_symmetry_cell_setting 'triclinic'
loop_
_space_group_symop_operation_xyz
x,y,z
-x,-y,-z
loop_
_atom_site_type_symbol
_atom_site_label
_atom_site_fract_x
_atom_site_fract_y
_atom_site_fract_z
Si Si1 0.288951 0.966174 0.489142
Si Si2 0.754002 0.190916 0.112626
Si Si3 0.908390 0.827914 0.136315
Si Si4 0.981161 0.237740 0.762702
Si Si5 0.600375 0.349531 0.627980
Si Si6 0.341410 0.419400 0.208947
Si Si7 0.366332 0.770496 0.083179
O O1 0.398800 0.123069 0.635484
O O2 0.472351 0.119517 0.199031
O O3 0.102821 0.840706 0.469056
O O4 0.225264 0.815637 0.616825
O O5 0.880504 0.230806 0.920060
O O6 0.513961 0.957133 0.188029
O O7 0.788195 0.312056 0.974016
O O8 0.769281 0.709590 0.468918
O O9 0.062402 0.894655 0.115535
O O10 0.803730 0.701274 0.941890
O O11 0.000000 0.000000 0.000000
O O12 0.221109 0.466904 0.663805
O O13 0.560421 0.400644 0.784215
O O14 0.708971 0.378247 0.730056
O O15 0.500000 0.500000 0.000000
#
# Coordination Sequence:
#
# PCOD9011589 Si02
#       7
#     2   2   2   2   2   2   2
#     4  10  21  40  66  96 132 188 226 282 349 414
#     4   9  19  37  62  97 135 179 232 283 341 413
#     4  11  26  50  75 106 145 184 236 300 362 435
#     4  10  24  42  68  97 139 177 232 289 352 417
#     4  10  24  42  68  97 139 177 232 289 352 417
#     4  11  26  50  75 106 145 184 236 300 362 435
#     4   9  19  37  62  97 135 179 232 283 341 413
#
# _framework density 24.441437000000001
#
# number of rings (size 3 to 8) (size 9 to 14) (size 15 to 20)
#    0.000    2.000    0.000    1.286    8.000    5.143 
#    5.143    1.429    0.000    0.000    0.000    0.000 
#    0.000    0.000    0.000    0.000    0.000    0.000 
#
# Total GULP energy -78057.355124 kJ/mol
# GULP energy per Si atom -5575.525366 kJ/mol
# Density = 2.438581 g / cm^3
# Si number density = 24.441437 Si / 1000 Ang^3
#
#
#
# Elastic Constant Matrix: (Units=GPa)
#
#
# Indices 1 2 3 4 5 6 
#
# 1 147.9324 25.9126 43.4726 -9.0090 13.3882 -8.9394
# 2 25.9126 63.3841 27.5272 -0.6272 6.5989 -5.2507
# 3 43.4726 27.5272 113.1397 0.0600 12.7015 -6.0491
# 4 -9.0090 -0.6272 0.0600 27.5730 -1.6181 7.0953
# 5 13.3882 6.5989 12.7015 -1.6181 63.6973 -2.7284
# 6 -8.9394 -5.2507 -6.0491 7.0953 -2.7284 34.9010
#
#
#
# Elastic Compliance Matrix: (Units=1/GPa)
#
#
# Indices 1 2 3 4 5 6 
#
# 1 0.008122 -0.002062 -0.002476 0.002355 -0.000906 0.000791
# 2 -0.002062 0.018349 -0.003500 -0.000733 -0.000715 0.001719
# 3 -0.002476 -0.003500 0.010831 -0.001209 -0.001270 0.000863
# 4 0.002355 -0.000733 -0.001209 0.039010 0.000487 -0.007609
# 5 -0.000906 -0.000715 -0.001270 0.000487 0.016256 0.000612
# 6 0.000791 0.001719 0.000863 -0.007609 0.000612 0.030858
#
#
# Mechanical properties :
#
#
# Convention : Reuss Voigt Hill
#
# Bulk Modulus (GPa) = 47.11081 57.58680 52.34880
# Shear Modulus (GPa) = 34.11188 40.40384 37.25786
#
# Velocity S-wave (km/s) = 3.73990 4.07023 3.90856
# Velocity P-wave (km/s) = 6.16165 6.76027 6.46789
#
# Compressibility (1/GPa) = 0.02122655
#
# Stress axis : x y z
#
# Youngs Moduli (GPa) = 123.12282 54.49844 92.32732
#
# Poissons Ratio (x) = 0.11236 0.22864
# Poissons Ratio (y) = 0.25385 0.32311
# Poissons Ratio (z) = 0.30490 0.19073
#
# Static dielectric constant tensor:
#      x y z
#    x 1.944310 -0.021020 0.021740 
#    y -0.021020 1.979990 0.043320 
#    z 0.021740 0.043320 2.105510 
# 
# From -- ./inp_files/97961.got.cif
#   From: 2010.05.17/outbox.cif.g08.bks.cpg/sg2_49_cif.got.tgz:97961.got - 2010.06.03 11:33:40.
