data_PCOD9011391
_publ_section_title
;
Structure prediction by ZEFSAII (Michael W. Deem and Ramdas Pophale) SiO2 
 PCOD9011391
Probable space group: P -1
;
_chemical_formula_sum "Si O2"
_cell_formula_units_Z 15
_cell_length_a 12.421275
_cell_length_b 8.514658
_cell_length_c 9.275313
_cell_angle_alpha 106.918355
_cell_angle_beta 123.270737
_cell_angle_gamma 66.416755
_cell_volume 748.404373
_symmetry_space_group_name_H-M "P -1"
_symmetry_group_IT_number 2
_symmetry_cell_setting 'triclinic'
loop_
_space_group_symop_operation_xyz
x,y,z
-x,-y,-z
loop_
_atom_site_type_symbol
_atom_site_label
_atom_site_fract_x
_atom_site_fract_y
_atom_site_fract_z
Si Si1 0.873193 0.656618 0.997551
Si Si2 0.247258 0.790504 0.487174
Si Si3 0.615497 0.920464 0.351167
Si Si4 0.939273 0.263174 0.409254
Si Si5 0.016039 0.944788 0.162839
Si Si6 0.372571 0.195928 0.350928
Si Si7 0.806533 0.621403 0.262221
Si Si8 0.500000 0.500000 0.500000
O O1 0.817483 0.611630 0.095757
O O2 0.922649 0.824334 0.094938
O O3 0.758050 0.699236 0.804087
O O4 0.000000 0.500000 0.000000
O O5 0.136890 0.785228 0.523797
O O6 0.167833 0.835612 0.289268
O O7 0.361075 0.609356 0.510582
O O8 0.310737 0.942752 0.610430
O O9 0.661365 0.860029 0.531727
O O10 0.665051 0.752798 0.243968
O O11 0.457751 0.025479 0.280266
O O12 0.841647 0.434338 0.309236
O O13 0.074381 0.303647 0.572766
O O14 0.977594 0.110979 0.281053
O O15 0.000000 0.000000 0.000000
O O16 0.469918 0.315879 0.466893
#
# Coordination Sequence:
#
# PCOD9011391 Si02
#       8
#     2   2   2   2   2   2   2   1
#     4  12  25  39  61  95 131 161 201 264 317 361
#     4  11  20  39  62  92 121 163 211 248 304 371
#     4  10  21  40  66  87 122 166 211 249 301 376
#     4  11  23  39  62  93 125 166 212 252 308 374
#     4  12  23  38  62  94 130 159 202 260 314 368
#     4  10  23  41  62  94 123 164 209 253 311 371
#     4  11  23  39  63  90 127 167 208 258 307 369
#     4  10  22  38  66  86 120 166 208 250 296 380
#
# _framework density 20.042641
#
# number of rings (size 3 to 8) (size 9 to 14) (size 15 to 20)
#    0.000    1.067    2.667    4.400    3.733    0.533 
#    0.000    0.000    0.000    5.600    0.000    0.000 
#    0.000    0.000    0.000    0.000    0.000    0.000 
#
# Total GULP energy -83613.046618 kJ/mol
# GULP energy per Si atom -5574.203108 kJ/mol
# Density = 1.999702 g / cm^3
# Si number density = 20.042641 Si / 1000 Ang^3
#
#
#
# Elastic Constant Matrix: (Units=GPa)
#
#
# Indices 1 2 3 4 5 6 
#
# 1 67.1103 31.3642 18.8901 -1.1118 -20.7373 -10.7552
# 2 31.3642 116.4063 23.0768 -2.0327 -23.1138 -17.0567
# 3 18.8901 23.0768 51.5414 -13.2527 -17.5774 -6.5676
# 4 -1.1118 -2.0327 -13.2527 29.6020 4.1387 2.1362
# 5 -20.7373 -23.1138 -17.5774 4.1387 21.5761 11.4591
# 6 -10.7552 -17.0567 -6.5676 2.1362 11.4591 42.4891
#
#
#
# Elastic Compliance Matrix: (Units=1/GPa)
#
#
# Indices 1 2 3 4 5 6 
#
# 1 0.021818 -0.002054 -0.001588 -0.002545 0.018127 -0.000308
# 2 -0.002054 0.011312 -0.001646 -0.001300 0.008190 0.001623
# 3 -0.001588 -0.001646 0.030145 0.010629 0.020546 -0.002479
# 4 -0.002545 -0.001300 0.010629 0.038718 -0.002130 -0.000895
# 5 0.018127 0.008190 0.020546 -0.002130 0.097767 -0.015208
# 6 -0.000308 0.001623 -0.002479 -0.000895 -0.015208 0.027872
#
#
# Mechanical properties :
#
#
# Convention : Reuss Voigt Hill
#
# Bulk Modulus (GPa) = 18.97613 42.41335 30.69474
# Shear Modulus (GPa) = 19.54849 29.51524 24.53187
#
# Velocity S-wave (km/s) = 3.12644 3.84164 3.50234
# Velocity P-wave (km/s) = 4.74566 6.39414 5.63056
#
# Compressibility (1/GPa) = 0.05269779
#
# Stress axis : x y z
#
# Youngs Moduli (GPa) = 45.83474 88.40409 33.17289
#
# Poissons Ratio (x) = 0.18157 0.05269
# Poissons Ratio (y) = 0.09414 0.05461
# Poissons Ratio (z) = 0.07280 0.14552
#
# Static dielectric constant tensor:
#      x y z
#    x 1.706620 -0.020720 0.017050 
#    y -0.020720 1.714380 -0.010100 
#    z 0.017050 -0.010100 1.697450 
# 
# From -- ./inp_files/171235.got.cif
#   From: 2010.05.17/outbox.cif.g08.bks.cpg/sg2_86_cif.got.tgz:171235.got - 2010.06.03 11:33:40.
