data_PCOD9011810
_publ_section_title
;
Structure prediction by ZEFSAII (Michael W. Deem and Ramdas Pophale) SiO2 
 PCOD9011810
Probable space group: P -1
;
_chemical_formula_sum "Si O2"
_cell_formula_units_Z 16
_cell_length_a 18.829089
_cell_length_b 8.344957
_cell_length_c 17.036166
_cell_angle_alpha 60.316410
_cell_angle_beta 158.757779
_cell_angle_gamma 131.363082
_cell_volume 652.251085
_symmetry_space_group_name_H-M "P -1"
_symmetry_group_IT_number 2
_symmetry_cell_setting 'triclinic'
loop_
_space_group_symop_operation_xyz
x,y,z
-x,-y,-z
loop_
_atom_site_type_symbol
_atom_site_label
_atom_site_fract_x
_atom_site_fract_y
_atom_site_fract_z
Si Si1 0.438704 0.713641 0.321713
Si Si2 0.152057 0.267389 0.064724
Si Si3 0.820426 0.164153 0.427349
Si Si4 0.846735 0.813663 0.458882
Si Si5 0.923294 0.227729 0.148127
Si Si6 0.979045 0.886022 0.199974
Si Si7 0.680557 0.471617 0.242287
Si Si8 0.275564 0.718007 0.323677
O O1 0.733774 0.930553 0.580758
O O2 0.305568 0.676540 0.275435
O O3 0.405293 0.482521 0.315964
O O4 0.309852 0.774310 0.110248
O O5 0.968688 0.309744 0.901276
O O6 0.179196 0.279991 0.996326
O O7 0.000000 0.000000 0.000000
O O8 0.637738 0.228153 0.242205
O O9 0.029009 0.340085 0.534070
O O10 0.716450 0.904053 0.351961
O O11 0.986825 0.221769 0.662771
O O12 0.042132 0.834777 0.714784
O O13 0.676224 0.553660 0.305639
O O14 0.000000 0.000000 0.500000
O O15 0.897098 0.038542 0.108114
O O16 0.192476 0.492328 0.344918
O O17 0.500000 0.500000 0.000000
O O18 0.500000 0.000000 0.500000
#
# Coordination Sequence:
#
# PCOD9011810 Si02
#       8
#     2   2   2   2   2   2   2   2
#     4  11  24  41  63  92 124 176 212 261 339 383
#     4  11  23  39  62  91 122 168 215 267 319 384
#     4   9  22  41  60  97 128 163 220 272 314 402
#     4   9  20  41  65  89 129 172 205 277 328 373
#     4  10  23  42  61  94 128 162 225 271 316 406
#     4  11  23  42  63  91 132 165 216 272 319 386
#     4  10  21  40  67  94 128 172 214 265 338 393
#     4  11  22  39  61  89 128 169 211 267 322 386
#
# _framework density 24.530432000000001
#
# number of rings (size 3 to 8) (size 9 to 14) (size 15 to 20)
#    0.000    1.750    1.250    3.000    5.250    4.500 
#    4.500    0.000    0.000    0.000    0.000    0.000 
#    0.000    0.000    0.000    0.000    0.000    0.000 
#
# Total GULP energy -89325.091364 kJ/mol
# GULP energy per Si atom -5582.818210 kJ/mol
# Density = 2.447460 g / cm^3
# Si number density = 24.530432 Si / 1000 Ang^3
#
#
#
# Elastic Constant Matrix: (Units=GPa)
#
#
# Indices 1 2 3 4 5 6 
#
# 1 121.1957 46.2771 28.9808 -1.2868 -36.2782 -24.1109
# 2 46.2771 120.8768 34.7206 -6.7230 -12.7068 -23.4524
# 3 28.9808 34.7206 70.6777 -10.5530 -10.4004 -27.4448
# 4 -1.2868 -6.7230 -10.5530 37.8070 -7.5134 1.6025
# 5 -36.2782 -12.7068 -10.4004 -7.5134 43.8857 3.3089
# 6 -24.1109 -23.4524 -27.4448 1.6025 3.3089 59.0722
#
#
#
# Elastic Compliance Matrix: (Units=1/GPa)
#
#
# Indices 1 2 3 4 5 6 
#
# 1 0.013245 -0.003049 -0.001066 0.001432 0.009824 0.003111
# 2 -0.003049 0.010707 -0.003369 0.000760 -0.000196 0.001432
# 3 -0.001066 -0.003369 0.020405 0.005414 0.003350 0.007373
# 4 0.001432 0.000760 0.005414 0.029560 0.007583 0.002175
# 5 0.009824 -0.000196 0.003350 0.007583 0.032683 0.003452
# 6 0.003111 0.001432 0.007373 0.002175 0.003452 0.021940
#
#
# Mechanical properties :
#
#
# Convention : Reuss Voigt Hill
#
# Bulk Modulus (GPa) = 34.02514 59.18968 46.60741
# Shear Modulus (GPa) = 32.61488 41.67109 37.14299
#
# Velocity S-wave (km/s) = 3.65028 4.12606 3.89544
# Velocity P-wave (km/s) = 5.62732 6.84694 6.26687
#
# Compressibility (1/GPa) = 0.02939004
#
# Stress axis : x y z
#
# Youngs Moduli (GPa) = 75.50036 93.39469 49.00701
#
# Poissons Ratio (x) = 0.28472 0.05223
# Poissons Ratio (y) = 0.23017 0.16512
# Poissons Ratio (z) = 0.08046 0.31468
#
# Static dielectric constant tensor:
#      x y z
#    x 1.920570 0.020490 0.008210 
#    y 0.020490 2.191670 0.110080 
#    z 0.008210 0.110080 2.028650 
# 
# From -- ./inp_files/577313.got.cif
#   From: 2010.05.17/outbox.cif.g08.bks.cpg/sg2_289_cif.got.tgz:577313.got - 2010.06.03 11:33:40.
