data_PCOD9011444
_publ_section_title
;
Structure prediction by ZEFSAII (Michael W. Deem and Ramdas Pophale) SiO2 
 PCOD9011444
Probable space group: P -1
;
_chemical_formula_sum "Si O2"
_cell_formula_units_Z 16
_cell_length_a 5.908007
_cell_length_b 25.987494
_cell_length_c 9.144798
_cell_angle_alpha 138.576205
_cell_angle_beta 100.171507
_cell_angle_gamma 57.124612
_cell_volume 709.934856
_symmetry_space_group_name_H-M "P -1"
_symmetry_group_IT_number 2
_symmetry_cell_setting 'triclinic'
loop_
_space_group_symop_operation_xyz
x,y,z
-x,-y,-z
loop_
_atom_site_type_symbol
_atom_site_label
_atom_site_fract_x
_atom_site_fract_y
_atom_site_fract_z
Si Si1 0.642298 0.894817 0.215850
Si Si2 0.405832 0.271610 0.129373
Si Si3 0.449756 0.226908 0.538555
Si Si4 0.186648 0.626770 0.091442
Si Si5 0.761628 0.240325 0.825307
Si Si6 0.301327 0.105318 0.118889
Si Si7 0.813891 0.458450 0.372901
Si Si8 0.638444 0.304099 0.507713
O O1 0.930895 0.821467 0.190776
O O2 0.500000 0.000000 0.500000
O O3 0.493481 0.840055 0.077866
O O4 0.708094 0.903326 0.074146
O O5 0.525892 0.305606 0.338031
O O6 0.051041 0.349584 0.244088
O O7 0.523603 0.278374 0.004359
O O8 0.728373 0.177558 0.571618
O O9 0.463364 0.150876 0.274338
O O10 0.420221 0.306023 0.596283
O O11 0.161800 0.286317 0.734030
O O12 0.294443 0.672135 0.091875
O O13 0.321647 0.618932 0.250556
O O14 0.221532 0.546026 0.816609
O O15 0.962663 0.192796 0.319140
O O16 0.500000 0.000000 0.000000
O O17 0.500000 0.500000 0.500000
O O18 0.000000 0.500000 0.500000
#
# Coordination Sequence:
#
# PCOD9011444 Si02
#       8
#     2   2   2   2   2   2   2   2
#     4  12  27  40  64 102 141 186 246 298 360 427
#     4  12  24  47  69 103 141 188 239 306 359 434
#     4  10  21  40  66  91 125 185 229 278 365 415
#     4  10  22  43  70 102 134 181 233 285 364 433
#     4  11  21  41  70  92 138 182 239 291 354 419
#     4  11  25  39  58  96 141 178 244 296 352 429
#     4  12  27  46  79 114 146 188 242 304 375 446
#     4  10  23  42  69  93 133 195 229 289 368 425
#
# _framework density 22.537275999999999
#
# number of rings (size 3 to 8) (size 9 to 14) (size 15 to 20)
#    0.000    1.000    5.000    0.750    8.750    2.000 
#    0.000    1.250    0.000    0.000    0.000    0.000 
#    0.000    0.000    0.000    0.000    0.000    0.000 
#
# Total GULP energy -89188.508872 kJ/mol
# GULP energy per Si atom -5574.281805 kJ/mol
# Density = 2.248598 g / cm^3
# Si number density = 22.537276 Si / 1000 Ang^3
#
#
#
# Elastic Constant Matrix: (Units=GPa)
#
#
# Indices 1 2 3 4 5 6 
#
# 1 82.3187 13.3434 47.8163 -8.9131 14.6924 -1.1546
# 2 13.3434 66.3066 33.7270 -30.0219 10.5343 -16.2954
# 3 47.8163 33.7270 152.1495 -30.2035 25.1994 -12.1913
# 4 -8.9131 -30.0219 -30.2035 51.7969 -5.5175 8.0594
# 5 14.6924 10.5343 25.1994 -5.5175 40.7369 -17.5498
# 6 -1.1546 -16.2954 -12.1913 8.0594 -17.5498 35.7388
#
#
#
# Elastic Compliance Matrix: (Units=1/GPa)
#
#
# Indices 1 2 3 4 5 6 
#
# 1 0.015483 -0.001388 -0.004250 -0.000516 -0.004183 -0.003520
# 2 -0.001388 0.023073 -0.002003 0.010839 0.000516 0.007602
# 3 -0.004250 -0.002003 0.009584 0.003362 -0.003543 -0.000279
# 4 -0.000516 0.010839 0.003362 0.027439 -0.001306 -0.000757
# 5 -0.004183 0.000516 -0.003543 -0.001306 0.034989 0.016368
# 6 -0.003520 0.007602 -0.000279 -0.000757 0.016368 0.039446
#
#
# Mechanical properties :
#
#
# Convention : Reuss Voigt Hill
#
# Bulk Modulus (GPa) = 30.43459 54.50536 42.46997
# Shear Modulus (GPa) = 28.36898 39.38040 33.87469
#
# Velocity S-wave (km/s) = 3.55175 4.18466 3.88113
# Velocity P-wave (km/s) = 5.50938 6.89823 6.24255
#
# Compressibility (1/GPa) = 0.03285735
#
# Stress axis : x y z
#
# Youngs Moduli (GPa) = 64.58782 43.33990 104.34113
#
# Poissons Ratio (x) = 0.06017 0.44344
# Poissons Ratio (y) = 0.08968 0.20900
# Poissons Ratio (z) = 0.27449 0.08681
#
# Static dielectric constant tensor:
#      x y z
#    x 1.870060 -0.004940 0.069740 
#    y -0.004940 1.830180 0.021430 
#    z 0.069740 0.021430 1.894770 
# 
# From -- ./inp_files/56895.got.cif
#   From: 2010.05.17/outbox.cif.g08.bks.cpg/sg2_29_cif.got.tgz:56895.got - 2010.06.03 11:33:40.
