data_PCOD9011920
_publ_section_title
;
Structure prediction by ZEFSAII (Michael W. Deem and Ramdas Pophale) SiO2 
 PCOD9011920
Probable space group: P -1
;
_chemical_formula_sum "Si O2"
_cell_formula_units_Z 16
_cell_length_a 8.438127
_cell_length_b 5.789905
_cell_length_c 17.525079
_cell_angle_alpha 129.109758
_cell_angle_beta 70.542742
_cell_angle_gamma 96.228183
_cell_volume 620.346977
_symmetry_space_group_name_H-M "P -1"
_symmetry_group_IT_number 2
_symmetry_cell_setting 'triclinic'
loop_
_space_group_symop_operation_xyz
x,y,z
-x,-y,-z
loop_
_atom_site_type_symbol
_atom_site_label
_atom_site_fract_x
_atom_site_fract_y
_atom_site_fract_z
Si Si1 0.420468 0.969166 0.315720
Si Si2 0.574918 0.949329 0.121738
Si Si3 0.003572 0.793816 0.760813
Si Si4 0.315385 0.366669 0.182275
Si Si5 0.739619 0.033050 0.346825
Si Si6 0.019429 0.143880 0.443588
Si Si7 0.170449 0.520122 0.068429
Si Si8 0.154533 0.634986 0.867259
O O1 0.429716 0.609000 0.242235
O O2 0.535230 0.094999 0.389444
O O3 0.503189 0.045601 0.237134
O O4 0.217465 0.058600 0.368874
O O5 0.414023 0.033747 0.110310
O O6 0.709714 0.140167 0.101318
O O7 0.679491 0.616051 0.040594
O O8 0.853348 0.599067 0.731539
O O9 0.063389 0.734737 0.823728
O O10 0.909960 0.134375 0.840644
O O11 0.170181 0.739107 0.671931
O O12 0.258542 0.438344 0.119826
O O13 0.772026 0.711951 0.231281
O O14 0.864332 0.019829 0.396345
O O15 0.000000 0.500000 0.500000
O O16 0.000000 0.000000 0.500000
O O17 0.002376 0.357630 0.048255
#
# Coordination Sequence:
#
# PCOD9011920 Si02
#       8
#     2   2   2   2   2   2   2   2
#     4  12  27  47  79 108 142 198 251 304 382 462
#     4  12  23  39  66 102 144 192 257 313 360 438
#     4  10  21  42  67  96 145 199 241 305 366 432
#     4  11  23  41  66  99 144 196 251 304 372 428
#     4  11  24  49  78 109 146 191 250 299 375 465
#     4  12  32  54  86 121 156 189 239 318 401 478
#     4  10  23  38  60  99 146 200 253 309 369 422
#     4  10  21  40  67  98 143 199 242 305 364 429
#
# _framework density 25.792019
#
# number of rings (size 3 to 8) (size 9 to 14) (size 15 to 20)
#    0.000    1.000    2.500    4.500    5.250    5.500 
#    0.000    0.000    0.000    0.000    0.000    0.000 
#    0.000    0.000    0.000    0.000    0.000    0.000 
#
# Total GULP energy -89355.397460 kJ/mol
# GULP energy per Si atom -5584.712341 kJ/mol
# Density = 2.573331 g / cm^3
# Si number density = 25.792019 Si / 1000 Ang^3
#
#
#
# Elastic Constant Matrix: (Units=GPa)
#
#
# Indices 1 2 3 4 5 6 
#
# 1 168.5917 40.8870 25.8757 -11.3106 -2.8467 26.7110
# 2 40.8870 88.8567 22.3911 -14.3786 -2.4978 8.1839
# 3 25.8757 22.3911 61.6897 1.2576 -10.9934 1.9849
# 4 -11.3106 -14.3786 1.2576 39.9299 -7.9825 -1.4291
# 5 -2.8467 -2.4978 -10.9934 -7.9825 34.2506 4.9241
# 6 26.7110 8.1839 1.9849 -1.4291 4.9241 55.6616
#
#
#
# Elastic Compliance Matrix: (Units=1/GPa)
#
#
# Indices 1 2 3 4 5 6 
#
# 1 0.007423 -0.002374 -0.002082 0.001307 0.000533 -0.003152
# 2 -0.002374 0.014233 -0.004113 0.004700 0.000724 -0.000750
# 3 -0.002082 -0.004113 0.019554 -0.001598 0.005375 0.000390
# 4 0.001307 0.004700 -0.001598 0.028463 0.006734 -0.001126
# 5 0.000533 0.000724 0.005375 0.006734 0.033064 -0.003306
# 6 -0.003152 -0.000750 0.000390 -0.001126 -0.003306 0.019838
#
#
# Mechanical properties :
#
#
# Convention : Reuss Voigt Hill
#
# Bulk Modulus (GPa) = 41.54215 55.27174 48.40694
# Shear Modulus (GPa) = 33.84395 41.30071 37.57233
#
# Velocity S-wave (km/s) = 3.62634 4.00596 3.82087
# Velocity P-wave (km/s) = 5.80305 6.54777 6.18663
#
# Compressibility (1/GPa) = 0.02407194
#
# Stress axis : x y z
#
# Youngs Moduli (GPa) = 134.71677 70.25967 51.14016
#
# Poissons Ratio (x) = 0.16681 0.10647
# Poissons Ratio (y) = 0.31984 0.21033
# Poissons Ratio (z) = 0.28048 0.28897
#
# Static dielectric constant tensor:
#      x y z
#    x 2.099610 0.033090 -0.026320 
#    y 0.033090 2.103290 0.009600 
#    z -0.026320 0.009600 2.104750 
# 
# From -- ./inp_files/585715.got.cif
#   From: 2010.05.17/outbox.cif.g08.bks.cpg/sg2_293_cif.got.tgz:585715.got - 2010.06.03 11:33:40.
