data_PCOD9011014
_publ_section_title
;
Structure prediction by ZEFSAII (Michael W. Deem and Ramdas Pophale) SiO2 
 PCOD9011014
Probable space group: P -1
;
_chemical_formula_sum "Si O2"
_cell_formula_units_Z 16
_cell_length_a 5.492558
_cell_length_b 16.441498
_cell_length_c 15.985838
_cell_angle_alpha 144.986349
_cell_angle_beta 120.711494
_cell_angle_gamma 50.234725
_cell_volume 636.410978
_symmetry_space_group_name_H-M "P -1"
_symmetry_group_IT_number 2
_symmetry_cell_setting 'triclinic'
loop_
_space_group_symop_operation_xyz
x,y,z
-x,-y,-z
loop_
_atom_site_type_symbol
_atom_site_label
_atom_site_fract_x
_atom_site_fract_y
_atom_site_fract_z
Si Si1 0.892078 0.489484 0.165574
Si Si2 0.636477 0.313406 0.352312
Si Si3 0.892484 0.148191 0.544267
Si Si4 0.831623 0.670778 0.157069
Si Si5 0.187642 0.235873 0.506980
Si Si6 0.206636 0.796067 0.074253
Si Si7 0.519907 0.039740 0.135334
Si Si8 0.617111 0.236582 0.093423
O O1 0.714854 0.634564 0.193865
O O2 0.888936 0.583675 0.328088
O O3 0.266804 0.370927 0.121342
O O4 0.752515 0.367948 0.018391
O O5 0.500000 0.500000 0.500000
O O6 0.682768 0.271462 0.227186
O O7 0.965013 0.237324 0.394788
O O8 0.435296 0.224472 0.278129
O O9 0.542730 0.173147 0.482574
O O10 0.907950 0.277544 0.720296
O O11 0.096769 0.154726 0.503904
O O12 0.000000 0.000000 0.500000
O O13 0.534026 0.798089 0.159730
O O14 0.000000 0.500000 0.000000
O O15 0.875160 0.945640 0.157438
O O16 0.169437 0.755935 0.937046
O O17 0.347725 0.941726 0.061340
O O18 0.500000 0.000000 0.000000
#
# Coordination Sequence:
#
# PCOD9011014 Si02
#       8
#     2   2   2   2   2   2   2   2
#     4  10  21  40  65 102 142 174 227 290 351 414
#     4  11  23  44  71  99 137 188 240 290 357 429
#     4  11  27  49  72 103 145 189 232 297 357 426
#     4  11  22  40  69 102 133 178 233 284 355 420
#     4  11  25  47  72 102 148 184 240 291 356 428
#     4  11  22  39  72  97 138 179 230 293 355 422
#     4   9  23  43  63  96 134 175 232 289 350 413
#     4  10  21  43  67  98 138 178 229 288 354 416
#
# _framework density 25.140989000000001
#
# number of rings (size 3 to 8) (size 9 to 14) (size 15 to 20)
#    0.000    1.500    2.500    1.500    3.500    4.000 
#    6.750    1.250    0.000    0.000    0.000    0.000 
#    0.000    0.000    0.000    0.000    0.000    0.000 
#
# Total GULP energy -89218.414165 kJ/mol
# GULP energy per Si atom -5576.150885 kJ/mol
# Density = 2.508377 g / cm^3
# Si number density = 25.140989 Si / 1000 Ang^3
#
#
#
# Elastic Constant Matrix: (Units=GPa)
#
#
# Indices 1 2 3 4 5 6 
#
# 1 53.7484 28.8043 10.0132 -11.1425 8.3319 -5.2389
# 2 28.8043 114.4858 44.7026 -17.1810 15.9703 4.8246
# 3 10.0132 44.7026 132.3745 -4.3310 17.8949 8.9105
# 4 -11.1425 -17.1810 -4.3310 55.4451 2.4135 8.1692
# 5 8.3319 15.9703 17.8949 2.4135 27.7769 -5.1104
# 6 -5.2389 4.8246 8.9105 8.1692 -5.1104 23.6579
#
#
#
# Elastic Compliance Matrix: (Units=1/GPa)
#
#
# Indices 1 2 3 4 5 6 
#
# 1 0.022809 -0.005173 0.000275 0.002506 -0.003455 0.004391
# 2 -0.005173 0.012567 -0.002693 0.003616 -0.005184 -0.005063
# 3 0.000275 -0.002693 0.009526 0.000868 -0.005571 -0.004481
# 4 0.002506 0.003616 0.000868 0.021419 -0.006982 -0.009414
# 5 -0.003455 -0.005184 -0.005571 -0.006982 0.046964 0.014946
# 6 0.004391 -0.005063 -0.004481 -0.009414 0.014946 0.052441
#
#
# Mechanical properties :
#
#
# Convention : Reuss Voigt Hill
#
# Bulk Modulus (GPa) = 33.64675 51.96099 42.80387
# Shear Modulus (GPa) = 26.20358 35.84856 31.02607
#
# Velocity S-wave (km/s) = 3.23192 3.78021 3.51676
# Velocity P-wave (km/s) = 5.22870 6.30603 5.79247
#
# Compressibility (1/GPa) = 0.02972056
#
# Stress axis : x y z
#
# Youngs Moduli (GPa) = 43.84174 79.57471 104.97667
#
# Poissons Ratio (x) = 0.41166 -0.02887
# Poissons Ratio (y) = 0.22681 0.28265
# Poissons Ratio (z) = -0.01206 0.21426
#
# Static dielectric constant tensor:
#      x y z
#    x 2.432150 -0.038720 0.220900 
#    y -0.038720 2.088540 -0.056430 
#    z 0.220900 -0.056430 2.148300 
# 
# From -- ./inp_files/550584.got.cif
#   From: 2010.05.17/outbox.cif.g08.bks.cpg/sg2_276_cif.got.tgz:550584.got - 2010.06.03 11:33:40.
