data_PCOD9011537
_publ_section_title
;
Structure prediction by ZEFSAII (Michael W. Deem and Ramdas Pophale) SiO2 
 PCOD9011537
Probable space group: P -1
;
_chemical_formula_sum "Si O2"
_cell_formula_units_Z 16
_cell_length_a 9.375706
_cell_length_b 19.486856
_cell_length_c 8.447102
_cell_angle_alpha 67.825878
_cell_angle_beta 106.282384
_cell_angle_gamma 49.197911
_cell_volume 713.362934
_symmetry_space_group_name_H-M "P -1"
_symmetry_group_IT_number 2
_symmetry_cell_setting 'triclinic'
loop_
_space_group_symop_operation_xyz
x,y,z
-x,-y,-z
loop_
_atom_site_type_symbol
_atom_site_label
_atom_site_fract_x
_atom_site_fract_y
_atom_site_fract_z
Si Si1 0.759208 0.745502 0.601091
Si Si2 0.614726 0.602839 0.345847
Si Si3 0.329715 0.356713 0.176913
Si Si4 0.709701 0.703585 0.111679
Si Si5 0.305825 0.037089 0.027436
Si Si6 0.277362 0.708197 0.465196
Si Si7 0.677706 0.465635 0.221963
Si Si8 0.694927 0.858945 0.788938
O O1 0.580908 0.750192 0.593821
O O2 0.850031 0.748446 0.791278
O O3 0.043205 0.615526 0.699082
O O4 0.534341 0.887322 0.308813
O O5 0.590709 0.701670 0.217318
O O6 0.441736 0.653599 0.401858
O O7 0.525250 0.590245 0.178887
O O8 0.949180 0.439555 0.624178
O O9 0.519530 0.344908 0.290344
O O10 0.341594 0.327085 0.027685
O O11 0.000000 0.500000 0.000000
O O12 0.597850 0.831517 0.901206
O O13 0.173506 0.142658 0.038292
O O14 0.031806 0.121624 0.780721
O O15 0.500000 0.000000 0.000000
O O16 0.227549 0.643083 0.542220
O O17 0.500000 0.500000 0.000000
O O18 0.500000 0.000000 0.500000
#
# Coordination Sequence:
#
# PCOD9011537 Si02
#       8
#     2   2   2   2   2   2   2   2
#     4  10  23  42  67  90 129 181 213 266 335 386
#     4  11  24  38  63 104 134 173 213 269 345 387
#     4  11  21  42  64  95 133 170 213 272 335 393
#     4  10  21  40  66  94 135 173 212 271 336 402
#     4  11  23  44  64  94 130 174 222 274 320 386
#     4  12  25  40  66  97 136 174 225 272 326 394
#     4  12  25  39  64 100 136 172 219 276 330 400
#     4   9  21  41  68  91 121 178 227 261 322 391
#
# _framework density 22.428975999999999
#
# number of rings (size 3 to 8) (size 9 to 14) (size 15 to 20)
#    0.000    1.250    2.500    3.375    5.250    0.500 
#    0.000    0.000    0.000    3.750    0.000    0.000 
#    0.000    0.000    0.000    0.000    0.000    0.000 
#
# Total GULP energy -89215.790009 kJ/mol
# GULP energy per Si atom -5575.986876 kJ/mol
# Density = 2.237793 g / cm^3
# Si number density = 22.428976 Si / 1000 Ang^3
#
#
#
# Elastic Constant Matrix: (Units=GPa)
#
#
# Indices 1 2 3 4 5 6 
#
# 1 86.2795 5.0982 33.8229 12.5579 -15.1288 -2.5018
# 2 5.0982 51.5826 9.0812 10.9293 6.7511 -1.3036
# 3 33.8229 9.0812 97.5665 15.3390 -9.0759 2.4052
# 4 12.5579 10.9293 15.3390 18.2995 -3.6186 -2.4630
# 5 -15.1288 6.7511 -9.0759 -3.6186 52.4126 4.1813
# 6 -2.5018 -1.3036 2.4052 -2.4630 4.1813 33.4158
#
#
#
# Elastic Compliance Matrix: (Units=1/GPa)
#
#
# Indices 1 2 3 4 5 6 
#
# 1 0.014524 0.000164 -0.003805 -0.006202 0.003042 0.000530
# 2 0.000164 0.022991 -0.000328 -0.014307 -0.003989 0.000377
# 3 -0.003805 -0.000328 0.013009 -0.008203 0.000785 -0.001937
# 4 -0.006202 -0.014307 -0.008203 0.075645 0.003479 0.004708
# 5 0.003042 -0.003989 0.000785 0.003479 0.021036 -0.002360
# 6 0.000530 0.000377 -0.001937 0.004708 -0.002360 0.030762
#
#
# Mechanical properties :
#
#
# Convention : Reuss Voigt Hill
#
# Bulk Modulus (GPa) = 23.48200 36.82590 30.15395
# Shear Modulus (GPa) = 24.98753 33.32066 29.15409
#
# Velocity S-wave (km/s) = 3.34139 3.85854 3.60924
# Velocity P-wave (km/s) = 5.03774 6.02542 5.55358
#
# Compressibility (1/GPa) = 0.04258581
#
# Stress axis : x y z
#
# Youngs Moduli (GPa) = 68.85299 43.49572 76.86716
#
# Poissons Ratio (x) = -0.00713 0.29249
# Poissons Ratio (y) = -0.01128 0.02520
# Poissons Ratio (z) = 0.26199 0.01426
#
# Static dielectric constant tensor:
#      x y z
#    x 2.001000 0.091160 -0.091560 
#    y 0.091160 1.864710 -0.042230 
#    z -0.091560 -0.042230 1.948170 
# 
# From -- ./inp_files/223459.got.cif
#   From: 2010.05.17/outbox.cif.g08.bks.cpg/sg2_112_cif.got.tgz:223459.got - 2010.06.03 11:33:40.
