data_PCOD9011897
_publ_section_title
;
Structure prediction by ZEFSAII (Michael W. Deem and Ramdas Pophale) SiO2 
 PCOD9011897
Probable space group: P -1
;
_chemical_formula_sum "Si O2"
_cell_formula_units_Z 10
_cell_length_a 9.612230
_cell_length_b 6.738775
_cell_length_c 14.545224
_cell_angle_alpha 70.356180
_cell_angle_beta 40.053457
_cell_angle_gamma 49.065495
_cell_volume 430.716275
_symmetry_space_group_name_H-M "P -1"
_symmetry_group_IT_number 2
_symmetry_cell_setting 'triclinic'
loop_
_space_group_symop_operation_xyz
x,y,z
-x,-y,-z
loop_
_atom_site_type_symbol
_atom_site_label
_atom_site_fract_x
_atom_site_fract_y
_atom_site_fract_z
Si Si1 0.767387 0.115502 0.199982
Si Si2 0.161581 0.562685 0.341307
Si Si3 0.205699 0.805643 0.619538
Si Si4 0.701566 0.819214 0.835490
Si Si5 0.800215 0.807192 0.087625
O O1 0.483588 0.385452 0.248832
O O2 0.734358 0.139483 0.319631
O O3 0.800931 0.856986 0.186270
O O4 0.054324 0.070648 0.043618
O O5 0.213902 0.447360 0.225966
O O6 0.000000 0.500000 0.500000
O O7 0.960207 0.897598 0.393862
O O8 0.500000 0.500000 0.500000
O O9 0.982597 0.758427 0.731455
O O10 0.510777 0.042924 0.816159
O O11 0.500000 0.000000 0.000000
O O12 0.000000 0.500000 0.000000
#
# Coordination Sequence:
#
# PCOD9011897 Si02
#       5
#     2   2   2   2   2
#     4  10  23  42  65 102 135 180 231 285 346 420
#     4  11  27  48  70 103 149 191 239 294 357 429
#     4  12  27  45  75 104 143 191 243 290 355 431
#     4  11  24  44  71 108 138 182 237 300 355 420
#     4  10  21  40  67  97 140 176 220 289 357 412
#
# _framework density 23.217141999999999
#
# number of rings (size 3 to 8) (size 9 to 14) (size 15 to 20)
#    0.000    1.200    2.000    2.400    2.800   10.400 
#    0.000    0.000    0.000    0.000    0.000    0.000 
#    0.000    0.000    0.000    0.000    0.000    0.000 
#
# Total GULP energy -55670.819203 kJ/mol
# GULP energy per Si atom -5567.081920 kJ/mol
# Density = 2.316430 g / cm^3
# Si number density = 23.217142 Si / 1000 Ang^3
#
#
#
# Elastic Constant Matrix: (Units=GPa)
#
#
# Indices 1 2 3 4 5 6 
#
# 1 149.2505 29.9546 38.0731 17.3698 -6.5484 4.7349
# 2 29.9546 100.7645 25.7443 33.7486 -17.2942 -7.0675
# 3 38.0731 25.7443 102.6130 26.8630 -32.4929 -10.0612
# 4 17.3698 33.7486 26.8630 31.9856 -11.0084 -1.0095
# 5 -6.5484 -17.2942 -32.4929 -11.0084 38.4532 10.8143
# 6 4.7349 -7.0675 -10.0612 -1.0095 10.8143 26.4749
#
#
#
# Elastic Compliance Matrix: (Units=1/GPa)
#
#
# Indices 1 2 3 4 5 6 
#
# 1 0.007921 -0.001900 -0.003113 -0.000283 -0.001514 -0.002499
# 2 -0.001900 0.016401 0.002437 -0.017111 0.003174 0.003695
# 3 -0.003113 0.002437 0.016966 -0.011295 0.010888 0.002777
# 4 -0.000283 -0.017111 -0.011295 0.059327 0.001737 -0.007257
# 5 -0.001514 0.003174 0.010888 0.001737 0.039967 -0.011004
# 6 -0.002499 0.003695 0.002777 -0.007257 -0.011004 0.044478
#
#
# Mechanical properties :
#
#
# Convention : Reuss Voigt Hill
#
# Bulk Modulus (GPa) = 27.67271 60.01911 43.84591
# Shear Modulus (GPa) = 24.72098 36.63978 30.68038
#
# Velocity S-wave (km/s) = 3.26663 3.97688 3.63912
# Velocity P-wave (km/s) = 5.11593 6.85528 6.04845
#
# Compressibility (1/GPa) = 0.03613668
#
# Stress axis : x y z
#
# Youngs Moduli (GPa) = 126.24193 60.97104 58.94268
#
# Poissons Ratio (x) = 0.11584 0.18348
# Poissons Ratio (y) = 0.23986 -0.14365
# Poissons Ratio (z) = 0.39298 -0.14859
#
# Static dielectric constant tensor:
#      x y z
#    x 1.766420 0.196130 0.228640 
#    y 0.196130 1.810990 -0.138760 
#    z 0.228640 -0.138760 1.779750 
# 
# From -- ./inp_files/18254.got.cif
#   From: 2010.05.17/outbox.cif.g08.bks.cpg/sg2_10_cif.got.tgz:18254.got - 2010.06.03 11:33:40.
