data_PCOD9011278
_publ_section_title
;
Structure prediction by ZEFSAII (Michael W. Deem and Ramdas Pophale) SiO2 
 PCOD9011278
Probable space group: P -1
;
_chemical_formula_sum "Si O2"
_cell_formula_units_Z 14
_cell_length_a 12.736868
_cell_length_b 14.510683
_cell_length_c 9.915492
_cell_angle_alpha 149.783216
_cell_angle_beta 40.589432
_cell_angle_gamma 147.990607
_cell_volume 486.423905
_symmetry_space_group_name_H-M "P -1"
_symmetry_group_IT_number 2
_symmetry_cell_setting 'triclinic'
loop_
_space_group_symop_operation_xyz
x,y,z
-x,-y,-z
loop_
_atom_site_type_symbol
_atom_site_label
_atom_site_fract_x
_atom_site_fract_y
_atom_site_fract_z
Si Si1 0.308960 0.612536 0.357901
Si Si2 0.494744 0.716569 0.776340
Si Si3 0.217833 0.634488 0.179483
Si Si4 0.798492 0.930065 0.035177
Si Si5 0.162430 0.445034 0.561038
Si Si6 0.281116 0.168862 0.726054
Si Si7 0.067353 0.883443 0.131719
O O1 0.151302 0.517028 0.511519
O O2 0.508606 0.760588 0.443813
O O3 0.275477 0.696454 0.358060
O O4 0.300634 0.398240 0.036708
O O5 0.500000 0.500000 0.500000
O O6 0.414996 0.734942 0.024023
O O7 0.312064 0.647343 0.769224
O O8 0.715346 0.925796 0.779520
O O9 0.070237 0.357697 0.966886
O O10 0.068625 0.692006 0.342793
O O11 0.749933 0.702223 0.725968
O O12 0.854525 0.104657 0.083082
O O13 0.686348 0.898951 0.241438
O O14 0.000000 0.000000 0.000000
O O15 0.089621 0.055517 0.671638
#
# Coordination Sequence:
#
# PCOD9011278 Si02
#       7
#     2   2   2   2   2   2   2
#     4   9  18  35  66  96 128 167 223 264 332 393
#     4  12  26  44  69  98 134 182 231 272 330 411
#     4  11  25  44  69  98 140 178 218 282 346 394
#     4   9  17  35  61  95 130 170 219 273 326 391
#     4  11  23  42  65 100 141 178 215 282 347 390
#     4   8  16  31  61  95 127 165 213 277 318 377
#     4  10  21  40  65  96 128 175 229 274 319 402
#
# _framework density 28.781482
#
# number of rings (size 3 to 8) (size 9 to 14) (size 15 to 20)
#    0.000    2.000    1.429    2.571    6.000    1.143 
#    0.000    2.857    0.000   17.143    0.000    0.000 
#    0.000    0.000    0.000    0.000    0.000    0.000 
#
# Total GULP energy -78089.309055 kJ/mol
# GULP energy per Si atom -5577.807790 kJ/mol
# Density = 2.871597 g / cm^3
# Si number density = 28.781482 Si / 1000 Ang^3
#
#
#
# Elastic Constant Matrix: (Units=GPa)
#
#
# Indices 1 2 3 4 5 6 
#
# 1 112.9088 32.5406 38.5201 8.9349 -1.8842 29.6750
# 2 32.5406 127.4129 24.3323 -14.7718 -14.2919 37.5423
# 3 38.5201 24.3323 63.4476 -8.1334 -8.1674 -10.1454
# 4 8.9349 -14.7718 -8.1334 51.9167 -9.5313 -6.9322
# 5 -1.8842 -14.2919 -8.1674 -9.5313 51.6587 12.4922
# 6 29.6750 37.5423 -10.1454 -6.9322 12.4922 79.3156
#
#
#
# Elastic Compliance Matrix: (Units=1/GPa)
#
#
# Indices 1 2 3 4 5 6 
#
# 1 0.014996 -0.000292 -0.010916 -0.005437 -0.000506 -0.007264
# 2 -0.000292 0.011409 -0.004299 0.002601 0.004474 -0.006318
# 3 -0.010916 -0.004299 0.026617 0.006402 0.001418 0.009860
# 4 -0.005437 0.002601 0.006402 0.023263 0.005137 0.002846
# 5 -0.000506 0.004474 0.001418 0.005137 0.022936 -0.004910
# 6 -0.007264 -0.006318 0.009860 0.002846 -0.004910 0.020600
#
#
# Mechanical properties :
#
#
# Convention : Reuss Voigt Hill
#
# Bulk Modulus (GPa) = 45.43883 54.95058 50.19470
# Shear Modulus (GPa) = 31.61132 50.46997 41.04065
#
# Velocity S-wave (km/s) = 3.31769 4.19209 3.78026
# Velocity P-wave (km/s) = 5.52249 6.52421 6.04414
#
# Compressibility (1/GPa) = 0.02200761
#
# Stress axis : x y z
#
# Youngs Moduli (GPa) = 66.68487 87.64948 37.57028
#
# Poissons Ratio (x) = 0.02559 0.41011
# Poissons Ratio (y) = 0.01947 0.16152
# Poissons Ratio (z) = 0.72793 0.37682
#
# Static dielectric constant tensor:
#      x y z
#    x 2.585260 -0.672300 0.186070 
#    y -0.672300 3.813040 -0.393130 
#    z 0.186070 -0.393130 2.516810 
# 
# From -- ./inp_files/456538.got.cif
#   From: 2010.05.17/outbox.cif.g08.bks.cpg/sg2_229_cif.got.tgz:456538.got - 2010.06.03 11:33:40.
