data_PCOD9011043
_publ_section_title
;
Structure prediction by ZEFSAII (Michael W. Deem and Ramdas Pophale) SiO2 
 PCOD9011043
Probable space group: P -1
;
_chemical_formula_sum "Si O2"
_cell_formula_units_Z 14
_cell_length_a 7.767849
_cell_length_b 12.286406
_cell_length_c 11.351466
_cell_angle_alpha 96.274805
_cell_angle_beta 103.864871
_cell_angle_gamma 36.865409
_cell_volume 624.668364
_symmetry_space_group_name_H-M "P -1"
_symmetry_group_IT_number 2
_symmetry_cell_setting 'triclinic'
loop_
_space_group_symop_operation_xyz
x,y,z
-x,-y,-z
loop_
_atom_site_type_symbol
_atom_site_label
_atom_site_fract_x
_atom_site_fract_y
_atom_site_fract_z
Si Si1 0.437788 0.995343 0.206264
Si Si2 0.592060 0.244047 0.780912
Si Si3 0.811808 0.768818 0.028145
Si Si4 0.757141 0.084411 0.130216
Si Si5 0.359392 0.688395 0.462405
Si Si6 0.673764 0.073912 0.383490
Si Si7 0.583166 0.580791 0.998298
O O1 0.405472 0.889753 0.240784
O O2 0.465745 0.072092 0.322228
O O3 0.207594 0.146701 0.083798
O O4 0.740309 0.850584 0.156466
O O5 0.570697 0.320056 0.664700
O O6 0.364177 0.389009 0.862671
O O7 0.915645 0.115756 0.870966
O O8 0.524437 0.834943 0.966137
O O9 0.874246 0.443460 0.949792
O O10 0.731442 0.092714 0.265513
O O11 0.697418 0.234420 0.095170
O O12 0.500000 0.500000 0.500000
O O13 0.001492 0.868319 0.451487
O O14 0.452226 0.759514 0.546311
O O15 0.500000 0.500000 0.000000
#
# Coordination Sequence:
#
# PCOD9011043 Si02
#       7
#     2   2   2   2   2   2   2
#     4  10  21  40  66  88 136 170 215 260 328 392
#     4  11  24  41  63  97 130 173 217 270 322 381
#     4  10  22  38  60  95 135 177 204 256 329 393
#     4  10  21  40  65  87 132 174 211 255 329 392
#     4  10  23  45  68  91 126 171 224 272 324 382
#     4   9  22  42  68  92 119 179 216 264 332 385
#     4  12  25  34  59 101 135 165 217 269 319 389
#
# _framework density 22.411892000000002
#
# number of rings (size 3 to 8) (size 9 to 14) (size 15 to 20)
#    0.000    1.714    1.429    1.714   10.000    0.571 
#    5.143    0.714    0.000    0.000    0.000    0.000 
#    0.000    0.000    0.000    0.000    0.000    0.000 
#
# Total GULP energy -77999.315400 kJ/mol
# GULP energy per Si atom -5571.379671 kJ/mol
# Density = 2.236088 g / cm^3
# Si number density = 22.411892 Si / 1000 Ang^3
#
#
#
# Elastic Constant Matrix: (Units=GPa)
#
#
# Indices 1 2 3 4 5 6 
#
# 1 86.6259 26.6749 19.5510 -6.2664 0.7124 24.7437
# 2 26.6749 113.3064 60.9275 3.7612 -4.4173 22.9428
# 3 19.5510 60.9275 66.1695 -6.9139 4.0834 11.3879
# 4 -6.2664 3.7612 -6.9139 30.9116 16.0711 -15.1339
# 5 0.7124 -4.4173 4.0834 16.0711 31.2259 2.4429
# 6 24.7437 22.9428 11.3879 -15.1339 2.4429 48.0497
#
#
#
# Elastic Compliance Matrix: (Units=1/GPa)
#
#
# Indices 1 2 3 4 5 6 
#
# 1 0.014219 0.000373 -0.003676 -0.002957 0.002332 -0.007679
# 2 0.000373 0.032864 -0.032387 -0.037021 0.029602 -0.021374
# 3 -0.003676 -0.032387 0.048955 0.042066 -0.034173 0.020742
# 4 -0.002957 -0.037021 0.042066 0.102421 -0.066896 0.044890
# 5 0.002332 0.029602 -0.034173 -0.066896 0.077580 -0.032250
# 6 -0.007679 -0.021374 0.020742 0.044890 -0.032250 0.045834
#
#
# Mechanical properties :
#
#
# Convention : Reuss Voigt Hill
#
# Bulk Modulus (GPa) = 40.55574 53.37872 46.96723
# Shear Modulus (GPa) = 12.45413 32.63400 22.54407
#
# Velocity S-wave (km/s) = 2.35987 3.82003 3.17503
# Velocity P-wave (km/s) = 5.05571 6.58223 5.86881
#
# Compressibility (1/GPa) = 0.02465742
#
# Stress axis : x y z
#
# Youngs Moduli (GPa) = 70.32834 30.42853 20.42688
#
# Poissons Ratio (x) = -0.01136 0.07510
# Poissons Ratio (y) = -0.02626 0.66157
# Poissons Ratio (z) = 0.25855 0.98550
#
# Static dielectric constant tensor:
#      x y z
#    x 1.930530 0.088600 0.024460 
#    y 0.088600 1.994410 0.016320 
#    z 0.024460 0.016320 1.821010 
# 
# From -- ./inp_files/387606.got.cif
#   From: 2010.05.17/outbox.cif.g08.bks.cpg/sg2_194_cif.got.tgz:387606.got - 2010.06.03 11:33:40.
