data_PCOD9011596
_publ_section_title
;
Structure prediction by ZEFSAII (Michael W. Deem and Ramdas Pophale) SiO2 
 PCOD9011596
Probable space group: P -1
;
_chemical_formula_sum "Si O2"
_cell_formula_units_Z 16
_cell_length_a 16.404132
_cell_length_b 5.089300
_cell_length_c 15.947518
_cell_angle_alpha 112.198613
_cell_angle_beta 149.255985
_cell_angle_gamma 59.987097
_cell_volume 585.255517
_symmetry_space_group_name_H-M "P -1"
_symmetry_group_IT_number 2
_symmetry_cell_setting 'triclinic'
loop_
_space_group_symop_operation_xyz
x,y,z
-x,-y,-z
loop_
_atom_site_type_symbol
_atom_site_label
_atom_site_fract_x
_atom_site_fract_y
_atom_site_fract_z
Si Si1 0.485285 0.280159 0.583006
Si Si2 0.586973 0.813622 0.304465
Si Si3 0.002840 0.469614 0.266194
Si Si4 0.127053 0.022653 0.474312
Si Si5 0.351418 0.093677 0.998728
Si Si6 0.859915 0.970834 0.935864
Si Si7 0.692559 0.169777 0.238015
Si Si8 0.150045 0.549714 0.241204
O O1 0.408639 0.244991 0.601472
O O2 0.335108 0.555413 0.433363
O O3 0.500000 0.000000 0.500000
O O4 0.678193 0.239835 0.780197
O O5 0.676443 0.051970 0.390913
O O6 0.680292 0.503521 0.296386
O O7 0.400105 0.943224 0.114271
O O8 0.801277 0.588623 0.087344
O O9 0.036336 0.278733 0.357572
O O10 0.098394 0.372023 0.250419
O O11 0.056417 0.758331 0.368242
O O12 0.149484 0.070170 0.598788
O O13 0.299964 0.886039 0.860923
O O14 0.516863 0.136552 0.109700
O O15 0.822159 0.666600 0.841041
O O16 0.981718 0.858119 0.113800
O O17 0.000000 0.000000 0.000000
#
# Coordination Sequence:
#
# PCOD9011596 Si02
#       8
#     2   2   2   2   2   2   2   2
#     4  10  21  40  66  96 135 180 226 280 352 411
#     4  11  21  45  68  97 137 184 233 283 345 422
#     4  12  25  43  67 104 133 185 224 292 342 414
#     4  11  24  43  68  96 138 176 228 280 344 411
#     4  10  25  40  70  99 139 179 235 283 350 411
#     4  10  23  39  63  97 132 172 228 292 339 416
#     4  10  22  46  66 100 134 189 225 288 342 423
#     4  10  22  42  62  91 135 174 230 278 351 410
#
# _framework density 27.338484999999999
#
# number of rings (size 3 to 8) (size 9 to 14) (size 15 to 20)
#    0.000    1.500    2.500    1.125    3.500    2.500 
#    0.000    5.000    0.000    0.000    0.000    0.000 
#    0.000    0.000    0.000    0.000    0.000    0.000 
#
# Total GULP energy -89344.523662 kJ/mol
# GULP energy per Si atom -5584.032729 kJ/mol
# Density = 2.727626 g / cm^3
# Si number density = 27.338485 Si / 1000 Ang^3
#
#
#
# Elastic Constant Matrix: (Units=GPa)
#
#
# Indices 1 2 3 4 5 6 
#
# 1 61.9798 17.6041 51.7201 -0.8947 8.9007 4.5470
# 2 17.6041 81.7752 49.3825 5.1731 -12.8812 16.4049
# 3 51.7201 49.3825 238.8386 -47.1609 -24.6558 1.4140
# 4 -0.8947 5.1731 -47.1609 60.6137 -2.7191 -4.5939
# 5 8.9007 -12.8812 -24.6558 -2.7191 37.1783 -3.7991
# 6 4.5470 16.4049 1.4140 -4.5939 -3.7991 36.2453
#
#
#
# Elastic Compliance Matrix: (Units=1/GPa)
#
#
# Indices 1 2 3 4 5 6 
#
# 1 0.024873 -0.001484 -0.007572 -0.006275 -0.012383 -0.004247
# 2 -0.001484 0.017199 -0.003915 -0.005013 0.002553 -0.007813
# 3 -0.007572 -0.003915 0.008911 0.007799 0.007359 0.004134
# 4 -0.006275 -0.005013 0.007799 0.023725 0.007340 0.006528
# 5 -0.012383 0.002553 0.007359 0.007340 0.036663 0.004884
# 6 -0.004247 -0.007813 0.004134 0.006528 0.004884 0.032837
#
#
# Mechanical properties :
#
#
# Convention : Reuss Voigt Hill
#
# Bulk Modulus (GPa) = 39.93211 68.88967 54.41089
# Shear Modulus (GPa) = 28.01167 44.39991 36.20579
#
# Velocity S-wave (km/s) = 3.20445 4.03436 3.64311
# Velocity P-wave (km/s) = 5.32255 6.85237 6.13533
#
# Compressibility (1/GPa) = 0.02504250
#
# Stress axis : x y z
#
# Youngs Moduli (GPa) = 40.20367 58.14323 112.21807
#
# Poissons Ratio (x) = 0.08628 0.84968
# Poissons Ratio (y) = 0.05966 0.43932
# Poissons Ratio (z) = 0.30441 0.22762
#
# Static dielectric constant tensor:
#      x y z
#    x 2.109890 -0.065480 0.006600 
#    y -0.065480 2.216570 -0.055360 
#    z 0.006600 -0.055360 2.248850 
# 
# From -- ./inp_files/576652.got.cif
#   From: 2010.05.17/outbox.cif.g08.bks.cpg/sg2_289_cif.got.tgz:576652.got - 2010.06.03 11:33:40.
