data_PCOD9011095
_publ_section_title
;
Structure prediction by ZEFSAII (Michael W. Deem and Ramdas Pophale) SiO2 
 PCOD9011095
Probable space group: P -1
;
_chemical_formula_sum "Si O2"
_cell_formula_units_Z 13
_cell_length_a 6.900212
_cell_length_b 16.773341
_cell_length_c 8.266697
_cell_angle_alpha 131.675757
_cell_angle_beta 89.186913
_cell_angle_gamma 61.614560
_cell_volume 543.526247
_symmetry_space_group_name_H-M "P -1"
_symmetry_group_IT_number 2
_symmetry_cell_setting 'triclinic'
loop_
_space_group_symop_operation_xyz
x,y,z
-x,-y,-z
loop_
_atom_site_type_symbol
_atom_site_label
_atom_site_fract_x
_atom_site_fract_y
_atom_site_fract_z
Si Si1 0.000000 0.000000 0.000000
Si Si2 0.107921 0.406502 0.213169
Si Si3 0.638994 0.239199 0.580877
Si Si4 0.308010 0.014837 0.645443
Si Si5 0.875896 0.661255 0.381015
Si Si6 0.090411 0.705627 0.135385
Si Si7 0.438988 0.142056 0.054658
O O1 0.157192 0.852532 0.689318
O O2 0.274834 0.935938 0.998856
O O3 0.112776 0.501784 0.213988
O O4 0.000000 0.500000 0.500000
O O5 0.357169 0.252818 0.059665
O O6 0.914480 0.386023 0.119858
O O7 0.355539 0.336280 0.648874
O O8 0.681723 0.325152 0.809040
O O9 0.673706 0.116820 0.515177
O O10 0.037404 0.150462 0.765700
O O11 0.500000 0.000000 0.500000
O O12 0.377851 0.046169 0.856796
O O13 0.764723 0.766098 0.675532
O O14 0.920710 0.716758 0.298472
#
# Coordination Sequence:
#
# PCOD9011095 Si02
#       7
#     1   2   2   2   2   2   2
#     4  10  22  38  62 100 128 158 214 258 312 380
#     4   9  20  42  67  89 124 170 211 262 319 370
#     4  11  24  37  63  98 130 166 212 258 314 380
#     4  11  21  39  61  92 130 174 204 260 321 373
#     4  10  21  40  65  91 126 171 211 264 307 375
#     4  11  22  38  65  95 125 171 210 260 319 372
#     4   9  21  38  66  91 129 168 210 260 320 369
#
# _framework density 23.917885999999999
#
# number of rings (size 3 to 8) (size 9 to 14) (size 15 to 20)
#    0.000    1.846    1.538    1.846    2.154    1.846 
#    0.000    0.000    3.385    4.615    0.000    0.000 
#    0.000    0.000    0.000    0.000    0.000    0.000 
#
# Total GULP energy -72371.640291 kJ/mol
# GULP energy per Si atom -5567.049253 kJ/mol
# Density = 2.386345 g / cm^3
# Si number density = 23.917886 Si / 1000 Ang^3
#
#
#
# Elastic Constant Matrix: (Units=GPa)
#
#
# Indices 1 2 3 4 5 6 
#
# 1 98.9130 38.4536 46.3899 -9.6616 24.8090 -31.3777
# 2 38.4536 123.0259 30.0827 20.7150 10.8410 6.0528
# 3 46.3899 30.0827 96.0567 -23.5087 18.6035 -16.1072
# 4 -9.6616 20.7150 -23.5087 38.0906 -17.2081 15.0097
# 5 24.8090 10.8410 18.6035 -17.2081 32.2136 -9.4309
# 6 -31.3777 6.0528 -16.1072 15.0097 -9.4309 24.0166
#
#
#
# Elastic Compliance Matrix: (Units=1/GPa)
#
#
# Indices 1 2 3 4 5 6 
#
# 1 0.031150 -0.006001 -0.007389 -0.016287 -0.014143 0.041880
# 2 -0.006001 0.013987 -0.004630 -0.010752 -0.006129 -0.010158
# 3 -0.007389 -0.004630 0.017606 0.015015 0.003759 -0.004587
# 4 -0.016287 -0.010752 0.015015 0.066469 0.032030 -0.037463
# 5 -0.014143 -0.006129 0.003759 0.032030 0.055203 -0.012753
# 6 0.041880 -0.010158 -0.004587 -0.037463 -0.012753 0.114244
#
#
# Mechanical properties :
#
#
# Convention : Reuss Voigt Hill
#
# Bulk Modulus (GPa) = 37.44805 60.87201 49.16003
# Shear Modulus (GPa) = 14.55183 32.40214 23.47698
#
# Velocity S-wave (km/s) = 2.46927 3.68465 3.13639
# Velocity P-wave (km/s) = 4.88064 6.60363 5.80640
#
# Compressibility (1/GPa) = 0.02670366
#
# Stress axis : x y z
#
# Youngs Moduli (GPa) = 32.10259 71.49744 56.79741
#
# Poissons Ratio (x) = 0.42909 0.41965
# Poissons Ratio (y) = 0.19266 0.26295
# Poissons Ratio (z) = 0.23719 0.33101
#
# Static dielectric constant tensor:
#      x y z
#    x 1.898960 0.015490 -0.006290 
#    y 0.015490 1.968930 0.000360 
#    z -0.006290 0.000360 1.959770 
# 
# From -- ./inp_files/123984.got.cif
#   From: 2010.05.17/outbox.cif.g08.bks.cpg/sg2_62_cif.got.tgz:123984.got - 2010.06.03 11:33:40.
