data_PCOD9011407
_publ_section_title
;
Structure prediction by ZEFSAII (Michael W. Deem and Ramdas Pophale) SiO2 
 PCOD9011407
Probable space group: P -1
;
_chemical_formula_sum "Si O2"
_cell_formula_units_Z 10
_cell_length_a 11.679147
_cell_length_b 9.660543
_cell_length_c 15.217225
_cell_angle_alpha 143.419306
_cell_angle_beta 148.724215
_cell_angle_gamma 58.382054
_cell_volume 452.491336
_symmetry_space_group_name_H-M "P -1"
_symmetry_group_IT_number 2
_symmetry_cell_setting 'triclinic'
loop_
_space_group_symop_operation_xyz
x,y,z
-x,-y,-z
loop_
_atom_site_type_symbol
_atom_site_label
_atom_site_fract_x
_atom_site_fract_y
_atom_site_fract_z
Si Si1 0.861912 0.284628 0.083789
Si Si2 0.405537 0.337414 0.447291
Si Si3 0.265903 0.214785 0.977451
Si Si4 0.075465 0.817435 0.400931
Si Si5 0.592891 0.155261 0.011542
O O1 0.777984 0.349880 0.155186
O O2 0.140887 0.318044 0.293086
O O3 0.892095 0.501227 0.142523
O O4 0.669468 0.973042 0.769999
O O5 0.500000 0.500000 0.500000
O O6 0.620167 0.520103 0.752402
O O7 0.467101 0.261407 0.053580
O O8 0.990397 0.139246 0.718428
O O9 0.266365 0.977510 0.913276
O O10 0.000000 0.000000 0.500000
O O11 0.353220 0.918262 0.676935
#
# Coordination Sequence:
#
# PCOD9011407 Si02
#       5
#     2   2   2   2   2
#     4  11  22  40  67  88 127 168 199 259 308 360
#     4  11  22  42  64  90 128 164 207 254 307 367
#     4  10  21  40  66  89 126 168 195 259 312 354
#     4  10  22  41  61  95 128 157 204 261 305 360
#     4  10  21  43  62  93 128 156 211 255 301 367
#
# _framework density 22.099871
#
# number of rings (size 3 to 8) (size 9 to 14) (size 15 to 20)
#    0.000    1.600    4.000    0.000    0.000    4.800 
#    3.600    4.000    0.000    0.000    0.000    0.000 
#    0.000    0.000    0.000    0.000    0.000    0.000 
#
# Total GULP energy -55801.611034 kJ/mol
# GULP energy per Si atom -5580.161103 kJ/mol
# Density = 2.204957 g / cm^3
# Si number density = 22.099871 Si / 1000 Ang^3
#
#
#
# Elastic Constant Matrix: (Units=GPa)
#
#
# Indices 1 2 3 4 5 6 
#
# 1 68.6302 -3.1395 18.6346 -11.1409 -1.1671 6.5587
# 2 -3.1395 96.4176 25.2380 -6.0741 -12.7233 11.1393
# 3 18.6346 25.2380 80.4900 0.8098 -37.8035 18.2987
# 4 -11.1409 -6.0741 0.8098 22.0908 15.8712 -21.0077
# 5 -1.1671 -12.7233 -37.8035 15.8712 24.7492 2.1246
# 6 6.5587 11.1393 18.2987 -21.0077 2.1246 21.4486
#
#
#
# Elastic Compliance Matrix: (Units=1/GPa)
#
#
# Indices 1 2 3 4 5 6 
#
# 1 0.015141 0.001896 -0.000235 -0.002941 0.003961 -0.008687
# 2 0.001896 0.011755 -0.003236 0.001284 0.000600 -0.002726
# 3 -0.000235 -0.003236 0.005976 0.020445 -0.007151 0.017388
# 4 -0.002941 0.001284 0.020445 0.000405 0.033217 -0.020104
# 5 0.003961 0.000600 -0.007151 0.033217 0.005538 0.036563
# 6 -0.008687 -0.002726 0.017388 -0.020104 0.036563 0.012548
#
#
# Mechanical properties :
#
#
# Convention : Reuss Voigt Hill
#
# Bulk Modulus (GPa) = 33.64587 36.33377 34.98982
# Shear Modulus (GPa) = 77.61255 27.31139 52.46197
#
# Velocity S-wave (km/s) = 5.93256 3.51923 4.87751
# Velocity P-wave (km/s) = 7.88572 5.74367 6.89834
#
# Compressibility (1/GPa) = 0.02972133
#
# Stress axis : x y z
#
# Youngs Moduli (GPa) = 66.04374 85.06768 167.33975
#
# Poissons Ratio (x) = -0.16125 0.03932
# Poissons Ratio (y) = -0.12519 0.54157
# Poissons Ratio (z) = 0.01552 0.27531
#
# Static dielectric constant tensor:
#      x y z
#    x 1.717570 -0.174040 0.170500 
#    y -0.174040 1.607440 0.131680 
#    z 0.170500 0.131680 1.711700 
# 
# From -- ./inp_files/15576.got.cif
#   From: 2010.05.17/outbox.cif.g08.bks.cpg/sg2_8_cif.got.tgz:15576.got - 2010.06.03 11:33:40.
