data_PCOD9011265
_publ_section_title
;
Structure prediction by ZEFSAII (Michael W. Deem and Ramdas Pophale) SiO2 
 PCOD9011265
Probable space group: P -1
;
_chemical_formula_sum "Si O2"
_cell_formula_units_Z 12
_cell_length_a 5.132386
_cell_length_b 14.332911
_cell_length_c 7.711737
_cell_angle_alpha 68.244079
_cell_angle_beta 114.870869
_cell_angle_gamma 78.875155
_cell_volume 435.134112
_symmetry_space_group_name_H-M "P -1"
_symmetry_group_IT_number 2
_symmetry_cell_setting 'triclinic'
loop_
_space_group_symop_operation_xyz
x,y,z
-x,-y,-z
loop_
_atom_site_type_symbol
_atom_site_label
_atom_site_fract_x
_atom_site_fract_y
_atom_site_fract_z
Si Si1 0.105425 0.848365 0.651834
Si Si2 0.649158 0.062266 0.658278
Si Si3 0.617730 0.891487 0.987008
Si Si4 0.551579 0.450215 0.743914
Si Si5 0.100299 0.616247 0.788680
Si Si6 0.423727 0.259640 0.687118
O O1 0.170476 0.911124 0.463793
O O2 0.334380 0.866461 0.844411
O O3 0.723392 0.896139 0.519114
O O4 0.208735 0.717547 0.743323
O O5 0.662459 0.144104 0.756117
O O6 0.759775 0.937626 0.841199
O O7 0.797653 0.781545 0.227278
O O8 0.500000 0.000000 0.000000
O O9 0.500000 0.500000 0.500000
O O10 0.711548 0.473956 0.243464
O O11 0.535736 0.334535 0.781281
O O12 0.857708 0.422579 0.972018
O O13 0.749491 0.669809 0.577971
#
# Coordination Sequence:
#
# PCOD9011265 Si02
#       6
#     2   2   2   2   2   2
#     4  11  21  45  65 102 135 183 228 286 341 412
#     4  10  23  40  71  97 139 181 231 278 344 409
#     4  10  21  40  65  95 138 177 228 281 341 412
#     4  11  22  41  66  96 137 179 237 285 357 413
#     4  10  23  41  67  96 138 181 230 292 347 419
#     4  10  21  43  63  99 138 177 231 282 349 408
#
# _framework density 27.577705999999999
#
# number of rings (size 3 to 8) (size 9 to 14) (size 15 to 20)
#    0.000    1.667    1.667    2.500    0.000    0.667 
#    6.000   22.500    0.000    0.000    0.000    0.000 
#    0.000    0.000    0.000    0.000    0.000    0.000 
#
# Total GULP energy -67100.902791 kJ/mol
# GULP energy per Si atom -5591.741899 kJ/mol
# Density = 2.751494 g / cm^3
# Si number density = 27.577706 Si / 1000 Ang^3
#
#
#
# Elastic Constant Matrix: (Units=GPa)
#
#
# Indices 1 2 3 4 5 6 
#
# 1 86.1864 31.5287 49.3053 8.3676 -12.9027 15.6176
# 2 31.5287 197.1919 69.4687 32.5900 -15.0322 1.2993
# 3 49.3053 69.4687 236.5489 15.8737 -23.0117 3.4665
# 4 8.3676 32.5900 15.8737 63.1566 6.9693 -4.7343
# 5 -12.9027 -15.0322 -23.0117 6.9693 46.3175 1.9664
# 6 15.6176 1.2993 3.4665 -4.7343 1.9664 30.5664
#
#
#
# Elastic Compliance Matrix: (Units=1/GPa)
#
#
# Indices 1 2 3 4 5 6 
#
# 1 0.015494 -0.001015 -0.002347 -0.001930 0.003457 -0.008129
# 2 -0.001015 0.006299 -0.001282 -0.002981 0.001580 -0.000167
# 3 -0.002347 -0.001282 0.005276 -0.000495 0.001605 0.000475
# 4 -0.001930 -0.002981 -0.000495 0.018601 -0.004735 0.004355
# 5 0.003457 0.001580 0.001605 -0.004735 0.024760 -0.004342
# 6 -0.008129 -0.000167 0.000475 0.004355 -0.004342 0.037776
#
#
# Mechanical properties :
#
#
# Convention : Reuss Voigt Hill
#
# Bulk Modulus (GPa) = 56.23615 91.17029 73.70322
# Shear Modulus (GPa) = 40.51182 52.64973 46.58078
#
# Velocity S-wave (km/s) = 3.83692 4.37411 4.11429
# Velocity P-wave (km/s) = 6.32973 7.65778 7.02521
#
# Compressibility (1/GPa) = 0.01778215
#
# Stress axis : x y z
#
# Youngs Moduli (GPa) = 64.53998 158.74601 189.55214
#
# Poissons Ratio (x) = 0.16106 0.44482
# Poissons Ratio (y) = 0.06548 0.24306
# Poissons Ratio (z) = 0.15146 0.20356
#
# Static dielectric constant tensor:
#      x y z
#    x 2.280590 -0.015580 -0.065420 
#    y -0.015580 2.154570 -0.024340 
#    z -0.065420 -0.024340 2.359660 
# 
# From -- ./inp_files/140114.got.cif
#   From: 2010.05.17/outbox.cif.g08.bks.cpg/sg2_71_cif.got.tgz:140114.got - 2010.06.03 11:33:40.
