data_PCOD9011972
_publ_section_title
;
Structure prediction by ZEFSAII (Michael W. Deem and Ramdas Pophale) SiO2 
 PCOD9011972
Probable space group: P -1
;
_chemical_formula_sum "Si O2"
_cell_formula_units_Z 9
_cell_length_a 4.765382
_cell_length_b 14.222310
_cell_length_c 17.188609
_cell_angle_alpha 156.158762
_cell_angle_beta 117.692176
_cell_angle_gamma 77.710209
_cell_volume 335.747329
_symmetry_space_group_name_H-M "P -1"
_symmetry_group_IT_number 2
_symmetry_cell_setting 'triclinic'
loop_
_space_group_symop_operation_xyz
x,y,z
-x,-y,-z
loop_
_atom_site_type_symbol
_atom_site_label
_atom_site_fract_x
_atom_site_fract_y
_atom_site_fract_z
Si Si1 0.945643 0.280488 0.762051
Si Si2 0.299312 0.471383 0.193044
Si Si3 0.000000 0.500000 0.500000
Si Si4 0.199719 0.037578 0.721870
Si Si5 0.451029 0.666888 0.520133
O O1 0.964337 0.425344 0.792945
O O2 0.500000 0.000000 0.500000
O O3 0.213559 0.182307 0.750729
O O4 0.000000 0.500000 0.000000
O O5 0.248422 0.419867 0.239883
O O6 0.755318 0.748321 0.452996
O O7 0.259068 0.241546 0.954765
O O8 0.188417 0.574292 0.492669
O O9 0.153185 0.295520 0.379194
O O10 0.477520 0.935953 0.690779
#
# Coordination Sequence:
#
# PCOD9011972 Si02
#       5
#     2   2   1   2   2
#     4   8  16  33  60  98 137 173 217 264 324 400
#     4  10  21  40  68 101 138 179 221 273 334 407
#     4  10  24  46  70 102 130 178 228 304 332 410
#     4  10  21  40  68 101 138 179 221 273 334 407
#     4  11  22  45  72  98 138 173 236 277 356 390
#
# _framework density 26.805872999999998
#
# number of rings (size 3 to 8) (size 9 to 14) (size 15 to 20)
#    0.000    2.222    2.222    0.000    0.000    2.667 
#    0.000    6.667    0.000   16.000    0.000    0.000 
#    0.000    0.000    0.000    0.000    0.000    0.000 
#
# Total GULP energy -50192.006948 kJ/mol
# GULP energy per Si atom -5576.889661 kJ/mol
# Density = 2.674486 g / cm^3
# Si number density = 26.805873 Si / 1000 Ang^3
#
#
#
# Elastic Constant Matrix: (Units=GPa)
#
#
# Indices 1 2 3 4 5 6 
#
# 1 158.7727 59.0833 48.9316 3.7596 -38.5015 3.0668
# 2 59.0833 111.1465 20.7827 81.8654 -32.7906 -3.6186
# 3 48.9316 20.7827 169.1008 0.2087 -15.0049 -4.8565
# 4 3.7596 81.8654 0.2087 9.5010 -8.6578 -43.0952
# 5 -38.5015 -32.7906 -15.0049 -8.6578 41.3489 3.5436
# 6 3.0668 -3.6186 -4.8565 -43.0952 3.5436 58.8830
#
#
#
# Elastic Compliance Matrix: (Units=1/GPa)
#
#
# Indices 1 2 3 4 5 6 
#
# 1 0.008958 -0.000867 -0.001966 -0.002223 0.006708 -0.002712
# 2 -0.000867 0.003150 0.000359 0.010125 0.003300 0.007480
# 3 -0.001966 0.000359 0.006510 -0.000427 0.000701 0.000307
# 4 -0.002223 0.010125 -0.000427 -0.010677 0.004200 -0.007364
# 5 0.006708 0.003300 0.000701 0.004200 0.034101 0.000933
# 6 -0.002712 0.007480 0.000307 -0.007364 0.000933 0.012163
#
#
# Mechanical properties :
#
#
# Convention : Reuss Voigt Hill
#
# Bulk Modulus (GPa) = 73.14595 77.40170 75.27383
# Shear Modulus (GPa) = 78.48009 42.62805 60.55407
#
# Velocity S-wave (km/s) = 5.41671 3.99212 4.75803
# Velocity P-wave (km/s) = 8.15276 7.08428 7.63723
#
# Compressibility (1/GPa) = 0.01367130
#
# Stress axis : x y z
#
# Youngs Moduli (GPa) = 111.62879 317.41433 153.61348
#
# Poissons Ratio (x) = 0.27515 0.30194
# Poissons Ratio (y) = 0.09676 -0.05512
# Poissons Ratio (z) = 0.21942 -0.11390
#
# Static dielectric constant tensor:
#      x y z
#    x 2.092670 -0.034340 0.127650 
#    y -0.034340 2.179100 0.024300 
#    z 0.127650 0.024300 2.144820 
# 
# From -- ./inp_files/477968.got.cif
#   From: 2010.05.17/outbox.cif.g08.bks.cpg/sg2_239_cif.got.tgz:477968.got - 2010.06.03 11:33:40.
