data_PCOD9011276
_publ_section_title
;
Structure prediction by ZEFSAII (Michael W. Deem and Ramdas Pophale) SiO2 
 PCOD9011276
Probable space group: P -1
;
_chemical_formula_sum "Si O2"
_cell_formula_units_Z 16
_cell_length_a 9.197750
_cell_length_b 5.002541
_cell_length_c 17.450750
_cell_angle_alpha 83.425473
_cell_angle_beta 99.188431
_cell_angle_gamma 96.634749
_cell_volume 783.548567
_symmetry_space_group_name_H-M "P -1"
_symmetry_group_IT_number 2
_symmetry_cell_setting 'triclinic'
loop_
_space_group_symop_operation_xyz
x,y,z
-x,-y,-z
loop_
_atom_site_type_symbol
_atom_site_label
_atom_site_fract_x
_atom_site_fract_y
_atom_site_fract_z
Si Si1 0.143889 0.562239 0.957293
Si Si2 0.585551 0.053606 0.426087
Si Si3 0.151511 0.433199 0.360959
Si Si4 0.128905 0.889353 0.465451
Si Si5 0.478025 0.572856 0.333011
Si Si6 0.657573 0.897251 0.036836
Si Si7 0.123200 0.603772 0.770557
Si Si8 0.319744 0.152912 0.779307
O O1 0.273972 0.361811 0.985244
O O2 0.104187 0.563429 0.862499
O O3 0.217280 0.857933 0.974252
O O4 0.000000 0.500000 0.000000
O O5 0.574179 0.762255 0.395372
O O6 0.500000 0.000000 0.500000
O O7 0.748074 0.171594 0.460602
O O8 0.515718 0.267506 0.358860
O O9 0.304805 0.576865 0.335375
O O10 0.096915 0.633238 0.415162
O O11 0.028223 0.366695 0.287632
O O12 0.186073 0.150413 0.410679
O O13 0.000000 0.000000 0.500000
O O14 0.535114 0.712280 0.254901
O O15 0.649546 0.844974 0.128353
O O16 0.500000 0.000000 0.000000
O O17 0.189931 0.344702 0.749672
O O18 0.248248 0.855187 0.760523
#
# Coordination Sequence:
#
# PCOD9011276 Si02
#       8
#     2   2   2   2   2   2   2   2
#     4  10  21  40  65  96 128 170 210 249 314 372
#     4  12  23  43  62  85 120 156 200 259 310 357
#     4  12  24  43  60  90 122 155 204 258 302 366
#     4  12  27  41  61  90 117 155 208 253 309 365
#     4  12  24  40  65  88 118 161 203 251 312 367
#     4  10  21  40  65  96 131 163 210 262 302 368
#     4  10  23  41  62  89 129 163 202 256 302 365
#     4  10  23  41  62  92 123 166 206 245 313 367
#
# _framework density 20.419923000000001
#
# number of rings (size 3 to 8) (size 9 to 14) (size 15 to 20)
#    0.000    1.000    2.500    3.750    5.250    1.000 
#    0.000    2.500    0.000    0.000    0.000    0.000 
#    0.000    0.000    0.000    0.000    0.000    0.000 
#
# Total GULP energy -89367.355717 kJ/mol
# GULP energy per Si atom -5585.459732 kJ/mol
# Density = 2.037345 g / cm^3
# Si number density = 20.419923 Si / 1000 Ang^3
#
#
#
# Elastic Constant Matrix: (Units=GPa)
#
#
# Indices 1 2 3 4 5 6 
#
# 1 87.9690 -7.4355 40.5678 -11.4967 -1.0813 3.7578
# 2 -7.4355 62.1866 16.4369 -12.4420 -13.1343 -13.2806
# 3 40.5678 16.4369 44.8176 -16.9602 -4.7028 10.1973
# 4 -11.4967 -12.4420 -16.9602 27.3991 8.8151 -1.0755
# 5 -1.0813 -13.1343 -4.7028 8.8151 32.7149 -10.1444
# 6 3.7578 -13.2806 10.1973 -1.0755 -10.1444 29.4077
#
#
#
# Elastic Compliance Matrix: (Units=1/GPa)
#
#
# Indices 1 2 3 4 5 6 
#
# 1 0.031706 0.022382 -0.044058 -0.007177 0.013625 0.025771
# 2 0.022382 0.044026 -0.045133 -0.005370 0.026253 0.041533
# 3 -0.044058 -0.045133 0.100831 0.031397 -0.032028 -0.059616
# 4 -0.007177 -0.005370 0.031397 0.055626 -0.018007 -0.016573
# 5 0.013625 0.026253 -0.032028 -0.018007 0.053953 0.039174
# 6 0.025771 0.041533 -0.059616 -0.016573 0.039174 0.083048
#
#
# Mechanical properties :
#
#
# Convention : Reuss Voigt Hill
#
# Bulk Modulus (GPa) = 23.28610 32.67909 27.98259
# Shear Modulus (GPa) = 9.66889 27.59792 18.63341
#
# Velocity S-wave (km/s) = 2.17837 3.68029 3.02406
# Velocity P-wave (km/s) = 4.21372 5.83932 5.09181
#
# Compressibility (1/GPa) = 0.04294408
#
# Stress axis : x y z
#
# Youngs Moduli (GPa) = 31.54004 22.71361 9.91763
#
# Poissons Ratio (x) = -0.50837 0.43695
# Poissons Ratio (y) = -0.70592 0.44762
# Poissons Ratio (z) = 1.38958 1.02514
#
# Static dielectric constant tensor:
#      x y z
#    x 1.742070 -0.013500 -0.022990 
#    y -0.013500 1.721920 -0.023810 
#    z -0.022990 -0.023810 1.724570 
# 
# From -- ./inp_files/553364.got.cif
#   From: 2010.05.17/outbox.cif.g08.bks.cpg/sg2_277_cif.got.tgz:553364.got - 2010.06.03 11:33:40.
