data_PCOD9011179
_publ_section_title
;
Structure prediction by ZEFSAII (Michael W. Deem and Ramdas Pophale) SiO2 
 PCOD9011179
Probable space group: P -1
;
_chemical_formula_sum "Si O2"
_cell_formula_units_Z 16
_cell_length_a 5.234700
_cell_length_b 14.859447
_cell_length_c 16.857882
_cell_angle_alpha 43.296593
_cell_angle_beta 117.099961
_cell_angle_gamma 127.103526
_cell_volume 716.865959
_symmetry_space_group_name_H-M "P -1"
_symmetry_group_IT_number 2
_symmetry_cell_setting 'triclinic'
loop_
_space_group_symop_operation_xyz
x,y,z
-x,-y,-z
loop_
_atom_site_type_symbol
_atom_site_label
_atom_site_fract_x
_atom_site_fract_y
_atom_site_fract_z
Si Si1 0.790464 0.624358 0.913000
Si Si2 0.929057 0.832441 0.108091
Si Si3 0.486585 0.740237 0.259844
Si Si4 0.610746 0.980631 0.418380
Si Si5 0.111901 0.441704 0.332179
Si Si6 0.318674 0.606594 0.089487
Si Si7 0.497439 0.211684 0.328488
Si Si8 0.840255 0.830406 0.418556
O O1 0.790959 0.531999 0.895265
O O2 0.706378 0.749457 0.787950
O O3 0.500000 0.500000 0.000000
O O4 0.102749 0.680325 0.976315
O O5 0.746684 0.778673 0.201372
O O6 0.685024 0.726607 0.074092
O O7 0.254983 0.816224 0.162169
O O8 0.000000 0.000000 0.000000
O O9 0.248968 0.566020 0.338321
O O10 0.661739 0.789268 0.336429
O O11 0.685192 0.906193 0.553739
O O12 0.723735 0.931038 0.387987
O O13 0.221931 0.909886 0.406969
O O14 0.705093 0.147963 0.348266
O O15 0.226780 0.533478 0.209100
O O16 0.225230 0.317445 0.446950
O O17 0.731687 0.353812 0.320264
#
# Coordination Sequence:
#
# PCOD9011179 Si02
#       8
#     2   2   2   2   2   2   2   2
#     4  11  21  39  62  96 128 162 222 276 320 385
#     4  11  25  46  69  91 134 176 217 269 328 392
#     4  11  24  44  68 100 126 169 227 269 323 392
#     4  10  24  41  65  94 137 176 213 262 330 404
#     4  10  21  41  69  91 132 169 212 275 326 388
#     4  10  23  39  64  96 124 172 219 269 332 390
#     4  10  21  40  65  93 131 175 215 265 332 390
#     4  11  23  43  65 100 131 169 217 269 327 384
#
# _framework density 22.319375999999998
#
# number of rings (size 3 to 8) (size 9 to 14) (size 15 to 20)
#    0.000    1.500    1.250    3.000    1.750    9.500 
#    4.500    6.250    0.000    0.000    0.000    0.000 
#    0.000    0.000    0.000    0.000    0.000    0.000 
#
# Total GULP energy -89449.429234 kJ/mol
# GULP energy per Si atom -5590.589327 kJ/mol
# Density = 2.226858 g / cm^3
# Si number density = 22.319376 Si / 1000 Ang^3
#
#
#
# Elastic Constant Matrix: (Units=GPa)
#
#
# Indices 1 2 3 4 5 6 
#
# 1 67.0482 16.1505 11.1986 11.3530 5.7385 -14.5649
# 2 16.1505 119.4079 27.5274 20.1014 -6.9052 -1.2443
# 3 11.1986 27.5274 94.1235 16.8888 10.6679 7.2474
# 4 11.3530 20.1014 16.8888 48.3291 -0.4242 0.9415
# 5 5.7385 -6.9052 10.6679 -0.4242 24.3064 0.5439
# 6 -14.5649 -1.2443 7.2474 0.9415 0.5439 30.0184
#
#
#
# Elastic Compliance Matrix: (Units=1/GPa)
#
#
# Indices 1 2 3 4 5 6 
#
# 1 0.018585 -0.001818 -0.001275 -0.003388 -0.004615 0.009440
# 2 -0.001818 0.009964 -0.002722 -0.002731 0.004402 0.000194
# 3 -0.001275 -0.002722 0.013122 -0.003137 -0.006203 -0.003689
# 4 -0.003388 -0.002731 -0.003137 0.023771 0.001855 -0.001779
# 5 -0.004615 0.004402 -0.006203 0.001855 0.046269 -0.001455
# 6 0.009440 0.000194 -0.003689 -0.001779 -0.001455 0.038874
#
#
# Mechanical properties :
#
#
# Convention : Reuss Voigt Hill
#
# Bulk Modulus (GPa) = 33.28727 43.37030 38.32878
# Shear Modulus (GPa) = 29.03118 35.57764 32.30441
#
# Velocity S-wave (km/s) = 3.61046 3.99686 3.80856
# Velocity P-wave (km/s) = 5.68568 6.38543 6.04569
#
# Compressibility (1/GPa) = 0.03004152
#
# Stress axis : x y z
#
# Youngs Moduli (GPa) = 53.80720 100.35735 76.20785
#
# Poissons Ratio (x) = 0.18242 0.09720
# Poissons Ratio (y) = 0.09781 0.20742
# Poissons Ratio (z) = 0.06863 0.27314
#
# Static dielectric constant tensor:
#      x y z
#    x 1.826550 0.109710 0.066730 
#    y 0.109710 1.695090 -0.075710 
#    z 0.066730 -0.075710 1.795280 
# 
# From -- ./inp_files/549571.got.cif
#   From: 2010.05.17/outbox.cif.g08.bks.cpg/sg2_275_cif.got.tgz:549571.got - 2010.06.03 11:33:40.
