data_PCOD9011121
_publ_section_title
;
Structure prediction by ZEFSAII (Michael W. Deem and Ramdas Pophale) SiO2 
 PCOD9011121
Probable space group: P -1
;
_chemical_formula_sum "Si O2"
_cell_formula_units_Z 16
_cell_length_a 20.900226
_cell_length_b 21.574177
_cell_length_c 8.533961
_cell_angle_alpha 52.003477
_cell_angle_beta 43.368918
_cell_angle_gamma 17.376898
_cell_volume 729.615725
_symmetry_space_group_name_H-M "P -1"
_symmetry_group_IT_number 2
_symmetry_cell_setting 'triclinic'
loop_
_space_group_symop_operation_xyz
x,y,z
-x,-y,-z
loop_
_atom_site_type_symbol
_atom_site_label
_atom_site_fract_x
_atom_site_fract_y
_atom_site_fract_z
Si Si1 0.266422 0.612937 0.564747
Si Si2 0.408441 0.910450 0.487304
Si Si3 0.607375 0.349763 0.922698
Si Si4 0.792323 0.960520 0.660827
Si Si5 0.703814 0.773922 0.422400
Si Si6 0.844671 0.354425 0.950592
Si Si7 0.252958 0.396923 0.130844
Si Si8 0.670414 0.188378 0.321128
O O1 0.260585 0.706744 0.366245
O O2 0.238417 0.629235 0.774041
O O3 0.522088 0.365421 0.425616
O O4 0.021043 0.762445 0.684055
O O5 0.288284 0.035392 0.340509
O O6 0.601437 0.816789 0.376949
O O7 0.514075 0.738888 0.525699
O O8 0.151672 0.098800 0.760311
O O9 0.349867 0.511606 0.054138
O O10 0.500000 0.500000 0.000000
O O11 0.761980 0.164093 0.043504
O O12 0.871651 0.976352 0.394636
O O13 0.523248 0.191281 0.873300
O O14 0.710774 0.699098 0.654907
O O15 0.999930 0.574711 0.198317
O O16 0.500000 0.000000 0.500000
O O17 0.809524 0.472531 0.875994
#
# Coordination Sequence:
#
# PCOD9011121 Si02
#       8
#     2   2   2   2   2   2   2   2
#     4  11  22  42  63  93 132 165 217 265 306 371
#     4  10  21  40  65  92 124 171 207 253 321 372
#     4  10  22  39  63  94 128 168 211 271 307 365
#     4  10  23  41  64  93 122 175 209 250 318 375
#     4  11  23  42  66  98 126 159 209 264 312 376
#     4  12  21  41  68  92 127 172 211 258 319 377
#     4  11  24  42  67  92 129 164 208 259 317 375
#     4   9  21  42  62  90 129 170 210 260 311 375
#
# _framework density 21.929352000000002
#
# number of rings (size 3 to 8) (size 9 to 14) (size 15 to 20)
#    0.750    0.750    2.500    3.375    0.000    1.000 
#    2.250    1.875    0.000    0.000    0.000    0.000 
#    0.000    0.000    0.000    0.000    0.000    0.000 
#
# Total GULP energy -89302.991105 kJ/mol
# GULP energy per Si atom -5581.436944 kJ/mol
# Density = 2.187944 g / cm^3
# Si number density = 21.929352 Si / 1000 Ang^3
#
#
#
# Elastic Constant Matrix: (Units=GPa)
#
#
# Indices 1 2 3 4 5 6 
#
# 1 95.1769 -6.4452 2.6590 3.0433 -4.4346 -19.6935
# 2 -6.4452 33.0453 16.9538 -0.5041 7.4863 -10.4056
# 3 2.6590 16.9538 55.9321 -6.2452 3.5309 1.6647
# 4 3.0433 -0.5041 -6.2452 27.9853 -0.6053 0.7141
# 5 -4.4346 7.4863 3.5309 -0.6053 31.2932 1.1658
# 6 -19.6935 -10.4056 1.6647 0.7141 1.1658 31.7207
#
#
#
# Elastic Compliance Matrix: (Units=1/GPa)
#
#
# Indices 1 2 3 4 5 6 
#
# 1 0.013581 0.008099 -0.003707 -0.002449 -0.000065 0.011340
# 2 0.008099 0.049169 -0.015823 -0.004310 -0.009749 0.022443
# 3 -0.003707 -0.015823 0.023682 0.005652 0.001029 -0.008900
# 4 -0.002449 -0.004310 0.005652 0.037308 0.000921 -0.004105
# 5 -0.000065 -0.009749 0.001029 0.000921 0.034351 -0.004575
# 6 0.011340 0.022443 -0.008900 -0.004105 -0.004575 0.046656
#
#
# Mechanical properties :
#
#
# Convention : Reuss Voigt Hill
#
# Bulk Modulus (GPa) = 15.73075 23.38773 19.55924
# Shear Modulus (GPa) = 20.09662 29.59896 24.84779
#
# Velocity S-wave (km/s) = 3.03054 3.67787 3.36978
# Velocity P-wave (km/s) = 4.40846 5.35946 4.90705
#
# Compressibility (1/GPa) = 0.06356978
#
# Stress axis : x y z
#
# Youngs Moduli (GPa) = 73.63469 20.33806 42.22576
#
# Poissons Ratio (x) = -0.16472 0.15655
# Poissons Ratio (y) = -0.59637 0.66812
# Poissons Ratio (z) = 0.27300 0.32180
#
# Static dielectric constant tensor:
#      x y z
#    x 1.818810 -0.029100 -0.022680 
#    y -0.029100 1.798110 -0.026040 
#    z -0.022680 -0.026040 1.836530 
# 
# From -- ./inp_files/349472.got.cif
#   From: 2010.05.17/outbox.cif.g08.bks.cpg/sg2_175_cif.got.tgz:349472.got - 2010.06.03 11:33:40.
