data_PCOD9011761
_publ_section_title
;
Structure prediction by ZEFSAII (Michael W. Deem and Ramdas Pophale) SiO2 
 PCOD9011761
Probable space group: P -1
;
_chemical_formula_sum "Si O2"
_cell_formula_units_Z 16
_cell_length_a 10.030411
_cell_length_b 8.617347
_cell_length_c 16.557531
_cell_angle_alpha 55.059199
_cell_angle_beta 93.800495
_cell_angle_gamma 132.819309
_cell_volume 725.832389
_symmetry_space_group_name_H-M "P -1"
_symmetry_group_IT_number 2
_symmetry_cell_setting 'triclinic'
loop_
_space_group_symop_operation_xyz
x,y,z
-x,-y,-z
loop_
_atom_site_type_symbol
_atom_site_label
_atom_site_fract_x
_atom_site_fract_y
_atom_site_fract_z
Si Si1 0.142555 0.553461 0.166626
Si Si2 0.589513 0.391651 0.536161
Si Si3 0.581046 0.833172 0.066843
Si Si4 0.610214 0.178191 0.367322
Si Si5 0.928281 0.794307 0.280171
Si Si6 0.803684 0.669344 0.629176
Si Si7 0.131617 0.829463 0.872060
Si Si8 0.636983 0.757607 0.740342
O O1 0.344435 0.664846 0.097443
O O2 0.126656 0.436453 0.286256
O O3 0.925576 0.277105 0.191145
O O4 0.237825 0.869462 0.069838
O O5 0.500000 0.500000 0.500000
O O6 0.775014 0.602742 0.411269
O O7 0.667719 0.448232 0.613540
O O8 0.406157 0.038359 0.612911
O O9 0.549365 0.576992 0.127534
O O10 0.657471 0.948574 0.128893
O O11 0.828614 0.532966 0.290884
O O12 0.455013 0.148050 0.321666
O O13 0.500000 0.000000 0.500000
O O14 0.919394 0.998498 0.181746
O O15 0.163675 0.010594 0.259808
O O16 0.703472 0.707653 0.678228
O O17 0.000000 0.000000 0.500000
O O18 0.000000 0.500000 0.000000
#
# Coordination Sequence:
#
# PCOD9011761 Si02
#       8
#     2   2   2   2   2   2   2   2
#     4   9  18  30  48  84 116 151 197 239 292 335
#     4  11  24  40  57  82 117 155 197 240 299 359
#     4   9  17  29  53  80 116 150 193 247 283 332
#     4  10  23  39  58  82 115 156 200 242 292 351
#     4  11  20  38  57  87 120 150 196 245 290 350
#     4  11  19  35  55  83 122 155 186 242 294 350
#     4  10  17  29  53  86 115 145 189 246 289 324
#     4  11  20  36  60  85 120 151 194 242 299 345
#
# _framework density 22.043655000000001
#
# number of rings (size 3 to 8) (size 9 to 14) (size 15 to 20)
#    0.000    1.750    5.000    1.500    1.750    2.000 
#    2.250    0.000    0.000    0.750    0.000    1.750 
#    0.000    0.125    0.000    0.000    0.000    0.000 
#
# Total GULP energy -89145.433967 kJ/mol
# GULP energy per Si atom -5571.589623 kJ/mol
# Density = 2.199348 g / cm^3
# Si number density = 22.043655 Si / 1000 Ang^3
#
#
#
# Elastic Constant Matrix: (Units=GPa)
#
#
# Indices 1 2 3 4 5 6 
#
# 1 52.1199 44.2913 43.2007 -6.1562 21.8209 2.4882
# 2 44.2913 180.6279 68.9156 -13.6955 14.7783 1.2190
# 3 43.2007 68.9156 141.7923 -11.6190 38.3990 -2.3108
# 4 -6.1562 -13.6955 -11.6190 47.1887 -0.8067 15.2999
# 5 21.8209 14.7783 38.3990 -0.8067 31.4572 -3.7032
# 6 2.4882 1.2190 -2.3108 15.2999 -3.7032 25.2776
#
#
#
# Elastic Compliance Matrix: (Units=1/GPa)
#
#
# Indices 1 2 3 4 5 6 
#
# 1 0.035396 -0.005702 -0.002328 0.005110 -0.020013 -0.009447
# 2 -0.005702 0.007854 -0.003120 0.000841 0.004095 -0.000012
# 3 -0.002328 -0.003120 0.012912 0.002307 -0.012824 -0.001715
# 4 0.005110 0.000841 0.002307 0.028652 -0.008244 -0.018883
# 5 -0.020013 0.004095 -0.012824 -0.008244 0.060899 0.014512
# 6 -0.009447 -0.000012 -0.001715 -0.018883 0.014512 0.053889
#
#
# Mechanical properties :
#
#
# Convention : Reuss Voigt Hill
#
# Bulk Modulus (GPa) = 29.53269 76.37281 52.95275
# Shear Modulus (GPa) = 21.44186 35.32688 28.38437
#
# Velocity S-wave (km/s) = 3.12220 4.00758 3.59227
# Velocity P-wave (km/s) = 5.14042 7.49237 6.42493
#
# Compressibility (1/GPa) = 0.03386078
#
# Stress axis : x y z
#
# Youngs Moduli (GPa) = 28.25214 127.32838 77.44665
#
# Poissons Ratio (x) = 0.72608 0.18030
# Poissons Ratio (y) = 0.16111 0.24163
# Poissons Ratio (z) = 0.06577 0.39725
#
# Static dielectric constant tensor:
#      x y z
#    x 1.814050 0.008330 0.004440 
#    y 0.008330 1.849070 0.003790 
#    z 0.004440 0.003790 1.894490 
# 
# From -- ./inp_files/514608.got.cif
#   From: 2010.05.17/outbox.cif.g08.bks.cpg/sg2_258_cif.got.tgz:514608.got - 2010.06.03 11:33:40.
