data_PCOD9011906
_publ_section_title
;
Structure prediction by ZEFSAII (Michael W. Deem and Ramdas Pophale) SiO2 
 PCOD9011906
Probable space group: P -1
;
_chemical_formula_sum "Si O2"
_cell_formula_units_Z 16
_cell_length_a 9.102997
_cell_length_b 11.345670
_cell_length_c 7.716505
_cell_angle_alpha 119.202661
_cell_angle_beta 112.943078
_cell_angle_gamma 71.543066
_cell_volume 632.661994
_symmetry_space_group_name_H-M "P -1"
_symmetry_group_IT_number 2
_symmetry_cell_setting 'triclinic'
loop_
_space_group_symop_operation_xyz
x,y,z
-x,-y,-z
loop_
_atom_site_type_symbol
_atom_site_label
_atom_site_fract_x
_atom_site_fract_y
_atom_site_fract_z
Si Si1 0.409945 0.289797 0.787551
Si Si2 0.075276 0.815608 0.837172
Si Si3 0.402686 0.848418 0.523317
Si Si4 0.375744 0.953508 0.098186
Si Si5 0.177698 0.177370 0.967279
Si Si6 0.144415 0.106966 0.523940
Si Si7 0.659739 0.554387 0.827009
Si Si8 0.692620 0.357571 0.409351
O O1 0.534321 0.270203 0.671373
O O2 0.501305 0.185146 0.900971
O O3 0.255103 0.222769 0.613437
O O4 0.349907 0.432148 0.958934
O O5 0.992182 0.883968 0.674616
O O6 0.176693 0.677101 0.705811
O O7 0.945194 0.805031 0.916633
O O8 0.206259 0.904959 0.029117
O O9 0.254704 0.959447 0.473981
O O10 0.357134 0.780292 0.630905
O O11 0.548561 0.935319 0.675370
O O12 0.320978 0.047880 0.972049
O O13 0.256271 0.314813 0.091418
O O14 0.093591 0.147277 0.726698
O O15 0.747581 0.434230 0.658369
O O16 0.472752 0.565823 0.692451
#
# Coordination Sequence:
#
# PCOD9011906 Si02
#       8
#     2   2   2   2   2   2   2   2
#     4  10  21  40  67  98 133 168 223 273 328 396
#     4  12  25  42  66 104 139 171 213 277 335 398
#     4  11  22  40  69  98 135 175 211 275 335 388
#     4  11  21  38  66  99 129 174 212 257 332 407
#     4  11  23  41  70  91 143 176 212 269 347 379
#     4  10  24  40  64 105 139 169 215 267 337 417
#     4  10  23  45  66  95 120 178 236 273 305 400
#     4  11  24  42  69  92 127 172 240 266 317 389
#
# _framework density 25.289964999999999
#
# number of rings (size 3 to 8) (size 9 to 14) (size 15 to 20)
#    0.000    1.250    2.500    4.125    0.000    6.000 
#    0.000    3.750    0.000    0.000    0.000    0.000 
#    0.000    0.000    0.000    0.000    0.000    0.000 
#
# Total GULP energy -89462.848040 kJ/mol
# GULP energy per Si atom -5591.428002 kJ/mol
# Density = 2.523240 g / cm^3
# Si number density = 25.289965 Si / 1000 Ang^3
#
#
#
# Elastic Constant Matrix: (Units=GPa)
#
#
# Indices 1 2 3 4 5 6 
#
# 1 106.2838 22.6667 52.0101 -4.6941 -8.9966 2.7734
# 2 22.6667 43.8514 24.0401 -4.7580 0.2940 2.9541
# 3 52.0101 24.0401 150.5504 14.2271 -24.8809 -5.9919
# 4 -4.6941 -4.7580 14.2271 42.6405 -1.5991 -0.7853
# 5 -8.9966 0.2940 -24.8809 -1.5991 54.5051 -7.0959
# 6 2.7734 2.9541 -5.9919 -0.7853 -7.0959 25.8426
#
#
#
# Elastic Compliance Matrix: (Units=1/GPa)
#
#
# Indices 1 2 3 4 5 6 
#
# 1 0.012283 -0.003874 -0.003878 0.002188 0.000125 -0.001674
# 2 -0.003874 0.027839 -0.004175 0.003871 -0.003166 -0.004486
# 3 -0.003878 -0.004175 0.009910 -0.003958 0.004345 0.004264
# 4 0.002188 0.003871 -0.003958 0.025393 -0.000859 -0.001059
# 5 0.000125 -0.003166 0.004345 -0.000859 0.021277 0.007172
# 6 -0.001674 -0.004486 0.004264 -0.001059 0.007172 0.042314
#
#
# Mechanical properties :
#
#
# Convention : Reuss Voigt Hill
#
# Bulk Modulus (GPa) = 38.19717 55.34661 46.77189
# Shear Modulus (GPa) = 29.13818 38.06220 33.60019
#
# Velocity S-wave (km/s) = 3.39804 3.88368 3.64895
# Velocity P-wave (km/s) = 5.52558 6.48406 6.02391
#
# Compressibility (1/GPa) = 0.02617995
#
# Stress axis : x y z
#
# Youngs Moduli (GPa) = 81.41105 35.92100 100.90452
#
# Poissons Ratio (x) = 0.13916 0.39127
# Poissons Ratio (y) = 0.31540 0.42123
# Poissons Ratio (z) = 0.31568 0.14995
#
# Static dielectric constant tensor:
#      x y z
#    x 1.987570 0.002430 -0.062140 
#    y 0.002430 1.999610 0.016560 
#    z -0.062140 0.016560 2.066180 
# 
# From -- ./inp_files/178958.got.cif
#   From: 2010.05.17/outbox.cif.g08.bks.cpg/sg2_90_cif.got.tgz:178958.got - 2010.06.03 11:33:40.
