data_PCOD9011373
_publ_section_title
;
Structure prediction by ZEFSAII (Michael W. Deem and Ramdas Pophale) SiO2 
 PCOD9011373
Probable space group: P -1
;
_chemical_formula_sum "Si O2"
_cell_formula_units_Z 16
_cell_length_a 23.694750
_cell_length_b 8.838856
_cell_length_c 20.175738
_cell_angle_alpha 150.287936
_cell_angle_beta 161.673106
_cell_angle_gamma 30.724204
_cell_volume 641.557044
_symmetry_space_group_name_H-M "P -1"
_symmetry_group_IT_number 2
_symmetry_cell_setting 'triclinic'
loop_
_space_group_symop_operation_xyz
x,y,z
-x,-y,-z
loop_
_atom_site_type_symbol
_atom_site_label
_atom_site_fract_x
_atom_site_fract_y
_atom_site_fract_z
Si Si1 0.801562 0.560676 0.267698
Si Si2 0.715958 0.236764 0.919680
Si Si3 0.095238 0.841006 0.420725
Si Si4 0.401074 0.410666 0.207015
Si Si5 0.319401 0.351827 0.584332
Si Si6 0.311861 0.770022 0.862404
Si Si7 0.287551 0.677937 0.315839
Si Si8 0.805131 0.536112 0.733741
O O1 0.680270 0.449989 0.147823
O O2 0.000000 0.500000 0.500000
O O3 0.766851 0.921454 0.342907
O O4 0.808126 0.353019 0.130489
O O5 0.685495 0.483624 0.920297
O O6 0.512981 0.220607 0.713440
O O7 0.812435 0.895921 0.870942
O O8 0.180924 0.554985 0.455079
O O9 0.070189 0.705471 0.268659
O O10 0.901851 0.036296 0.305931
O O11 0.267280 0.584699 0.182000
O O12 0.596949 0.506750 0.469015
O O13 0.420964 0.042103 0.098465
O O14 0.345231 0.580657 0.759454
O O15 0.258237 0.050083 0.429546
O O16 0.500000 0.500000 0.500000
O O17 0.177819 0.556029 0.205321
#
# Coordination Sequence:
#
# PCOD9011373 Si02
#       8
#     2   2   2   2   2   2   2   2
#     4  10  25  47  66  95 139 181 231 281 341 411
#     4  12  23  41  72 103 134 182 230 286 346 399
#     4  11  24  46  67  99 145 184 224 279 344 410
#     4  11  22  41  67 104 139 173 231 282 334 404
#     4  12  23  40  69 103 138 178 231 283 339 403
#     4  11  26  43  65  98 139 188 228 277 339 409
#     4  10  21  40  66 103 140 169 222 290 336 395
#     4  11  22  42  71 102 138 176 228 283 338 405
#
# _framework density 24.939326999999999
#
# number of rings (size 3 to 8) (size 9 to 14) (size 15 to 20)
#    0.000    1.000    3.750    3.750    3.500    2.500 
#    0.000   10.625    0.000    0.000    0.000    0.000 
#    0.000    0.000    0.000    0.000    0.000    0.000 
#
# Total GULP energy -89732.862515 kJ/mol
# GULP energy per Si atom -5608.303907 kJ/mol
# Density = 2.488256 g / cm^3
# Si number density = 24.939327 Si / 1000 Ang^3
#
#
#
# Elastic Constant Matrix: (Units=GPa)
#
#
# Indices 1 2 3 4 5 6 
#
# 1 92.4883 -1.5651 9.8127 3.1033 -16.5550 12.6611
# 2 -1.5651 112.2389 11.3439 20.9651 -2.9632 14.6987
# 3 9.8127 11.3439 70.9581 11.7164 -5.5704 14.2755
# 4 3.1033 20.9651 11.7164 46.0078 -5.1501 -4.5702
# 5 -16.5550 -2.9632 -5.5704 -5.1501 40.9060 1.7115
# 6 12.6611 14.6987 14.2755 -4.5702 1.7115 46.0808
#
#
#
# Elastic Compliance Matrix: (Units=1/GPa)
#
#
# Indices 1 2 3 4 5 6 
#
# 1 0.012348 0.001049 -0.000543 -0.000991 0.005036 -0.003844
# 2 0.001049 0.010453 -0.000080 -0.005147 0.000696 -0.004134
# 3 -0.000543 -0.000080 0.016099 -0.004370 0.001638 -0.005307
# 4 -0.000991 -0.005147 -0.004370 0.026022 0.001665 0.005787
# 5 0.005036 0.000696 0.001638 0.001665 0.027091 -0.002954
# 6 -0.003844 -0.004134 -0.005307 0.005787 -0.002954 0.026404
#
#
# Mechanical properties :
#
#
# Convention : Reuss Voigt Hill
#
# Bulk Modulus (GPa) = 25.15646 34.98537 30.07092
# Shear Modulus (GPa) = 38.22161 43.67183 40.94672
#
# Velocity S-wave (km/s) = 3.91907 4.18918 4.05637
# Velocity P-wave (km/s) = 5.53062 6.12026 5.83290
#
# Compressibility (1/GPa) = 0.03975122
#
# Stress axis : x y z
#
# Youngs Moduli (GPa) = 80.98218 95.66315 62.11726
#
# Poissons Ratio (x) = -0.10030 0.03373
# Poissons Ratio (y) = -0.08491 0.00497
# Poissons Ratio (z) = 0.04397 0.00766
#
# Static dielectric constant tensor:
#      x y z
#    x 1.931520 -0.013970 0.063230 
#    y -0.013970 1.944800 -0.054650 
#    z 0.063230 -0.054650 2.041970 
# 
# From -- ./inp_files/601974.got.cif
#   From: 2010.05.17/outbox.cif.g08.bks.cpg/sg2_301_cif.got.tgz:601974.got - 2010.06.03 11:33:40.
