data_PCOD9011454
_publ_section_title
;
Structure prediction by ZEFSAII (Michael W. Deem and Ramdas Pophale) SiO2 
 PCOD9011454
Probable space group: P -1
;
_chemical_formula_sum "Si O2"
_cell_formula_units_Z 16
_cell_length_a 7.974467
_cell_length_b 11.077710
_cell_length_c 17.848977
_cell_angle_alpha 33.319972
_cell_angle_beta 47.217892
_cell_angle_gamma 59.637763
_cell_volume 628.107867
_symmetry_space_group_name_H-M "P -1"
_symmetry_group_IT_number 2
_symmetry_cell_setting 'triclinic'
loop_
_space_group_symop_operation_xyz
x,y,z
-x,-y,-z
loop_
_atom_site_type_symbol
_atom_site_label
_atom_site_fract_x
_atom_site_fract_y
_atom_site_fract_z
Si Si1 0.209215 0.811806 0.275422
Si Si2 0.611828 0.128468 0.044040
Si Si3 0.147785 0.635299 0.766927
Si Si4 0.977843 0.908610 0.452241
Si Si5 0.040068 0.456088 0.728550
Si Si6 0.664314 0.475616 0.082436
Si Si7 0.250968 0.358325 0.569698
Si Si8 0.521707 0.992119 0.691213
O O1 0.077923 0.882280 0.352615
O O2 0.271148 0.569021 0.399600
O O3 0.006427 0.782037 0.291811
O O4 0.444648 0.985084 0.109769
O O5 0.873649 0.221891 0.898864
O O6 0.503982 0.352184 0.975869
O O7 0.583448 0.999808 0.197510
O O8 0.317756 0.551766 0.819051
O O9 0.118578 0.510725 0.761174
O O10 0.183557 0.901903 0.603143
O O11 0.904360 0.577375 0.916256
O O12 0.205307 0.999620 0.385372
O O13 0.908682 0.658597 0.633850
O O14 0.241801 0.449014 0.610291
O O15 0.586512 0.232782 0.198746
O O16 0.437128 0.204998 0.570496
#
# Coordination Sequence:
#
# PCOD9011454 Si02
#       8
#     2   2   2   2   2   2   2   2
#     4   9  20  41  64  87 120 163 213 242 295 366
#     4  11  22  39  64  94 120 159 205 258 306 360
#     4  11  21  39  64  92 126 161 200 259 309 359
#     4  10  21  40  66  92 122 161 207 257 302 358
#     4  11  24  40  59  93 131 159 197 256 316 356
#     4  11  22  38  67  93 119 159 214 250 301 372
#     4  10  23  41  63  91 123 167 205 248 300 367
#     4  11  21  39  67  89 120 165 214 244 295 373
#
# _framework density 25.473333
#
# number of rings (size 3 to 8) (size 9 to 14) (size 15 to 20)
#    0.000    1.500    3.750    2.250    1.750    5.500 
#    0.000    8.750    0.000    0.000    0.000    0.000 
#    0.000    0.000    0.000    0.000    0.000    0.000 
#
# Total GULP energy -89620.161800 kJ/mol
# GULP energy per Si atom -5601.260112 kJ/mol
# Density = 2.541535 g / cm^3
# Si number density = 25.473333 Si / 1000 Ang^3
#
#
#
# Elastic Constant Matrix: (Units=GPa)
#
#
# Indices 1 2 3 4 5 6 
#
# 1 56.4891 38.5186 24.1650 2.5405 5.7208 11.2682
# 2 38.5186 81.8106 24.2042 -13.5826 18.3442 7.6329
# 3 24.1650 24.2042 81.4255 -2.3989 -23.3875 5.0072
# 4 2.5405 -13.5826 -2.3989 44.5579 7.1778 10.5808
# 5 5.7208 18.3442 -23.3875 7.1778 41.2040 -3.9970
# 6 11.2682 7.6329 5.0072 10.5808 -3.9970 45.4790
#
#
#
# Elastic Compliance Matrix: (Units=1/GPa)
#
#
# Indices 1 2 3 4 5 6 
#
# 1 0.029579 -0.012630 -0.005219 -0.004808 -0.000958 -0.003600
# 2 -0.012630 0.027560 -0.009029 0.012804 -0.018366 -0.005095
# 3 -0.005219 -0.009029 0.021352 -0.004971 0.018040 0.003200
# 4 -0.004808 0.012804 -0.004971 0.030703 -0.014055 -0.008789
# 5 -0.000958 -0.018366 0.018040 -0.014055 0.046107 0.008656
# 6 -0.003600 -0.005095 0.003200 -0.008789 0.008656 0.026188
#
#
# Mechanical properties :
#
#
# Convention : Reuss Voigt Hill
#
# Bulk Modulus (GPa) = 40.42804 43.72230 42.07517
# Shear Modulus (GPa) = 20.53463 35.10402 27.81932
#
# Velocity S-wave (km/s) = 2.84231 3.71626 3.30827
# Velocity P-wave (km/s) = 5.16496 5.96786 5.58087
#
# Compressibility (1/GPa) = 0.02473531
#
# Stress axis : x y z
#
# Youngs Moduli (GPa) = 33.80833 36.28402 46.83304
#
# Poissons Ratio (x) = 0.45826 0.24443
# Poissons Ratio (y) = 0.42699 0.42285
# Poissons Ratio (z) = 0.17645 0.32760
#
# Static dielectric constant tensor:
#      x y z
#    x 2.008850 0.030980 -0.021990 
#    y 0.030980 1.986980 0.054740 
#    z -0.021990 0.054740 2.029210 
# 
# From -- ./inp_files/558824.got.cif
#   From: 2010.05.17/outbox.cif.g08.bks.cpg/sg2_280_cif.got.tgz:558824.got - 2010.06.03 11:33:40.
