data_PCOD9011102
_publ_section_title
;
Structure prediction by ZEFSAII (Michael W. Deem and Ramdas Pophale) SiO2 
 PCOD9011102
Probable space group: P -1
;
_chemical_formula_sum "Si O2"
_cell_formula_units_Z 16
_cell_length_a 9.341637
_cell_length_b 5.912992
_cell_length_c 15.158095
_cell_angle_alpha 78.625409
_cell_angle_beta 67.518446
_cell_angle_gamma 78.431947
_cell_volume 751.191371
_symmetry_space_group_name_H-M "P -1"
_symmetry_group_IT_number 2
_symmetry_cell_setting 'triclinic'
loop_
_space_group_symop_operation_xyz
x,y,z
-x,-y,-z
loop_
_atom_site_type_symbol
_atom_site_label
_atom_site_fract_x
_atom_site_fract_y
_atom_site_fract_z
Si Si1 0.783027 0.704863 0.598601
Si Si2 0.871461 0.853418 0.752264
Si Si3 0.117172 0.765522 0.006415
Si Si4 0.034987 0.256245 0.608094
Si Si5 0.315796 0.052077 0.033256
Si Si6 0.191184 0.416704 0.882364
Si Si7 0.806321 0.470912 0.313435
Si Si8 0.483519 0.730701 0.551932
O O1 0.777613 0.820828 0.686828
O O2 0.877861 0.841536 0.494275
O O3 0.615526 0.677178 0.600181
O O4 0.894290 0.458165 0.600124
O O5 0.765751 0.859782 0.863124
O O6 0.018688 0.652573 0.736356
O O7 0.955476 0.081793 0.700964
O O8 0.994548 0.598768 0.077975
O O9 0.243092 0.819231 0.042643
O O10 0.198943 0.667490 0.904910
O O11 0.000000 0.000000 0.000000
O O12 0.168752 0.365809 0.622384
O O13 0.268979 0.232209 0.949947
O O14 0.500000 0.000000 0.000000
O O15 0.254640 0.390903 0.770982
O O16 0.692596 0.280588 0.372669
O O17 0.500000 0.500000 0.500000
O O18 0.500000 0.000000 0.500000
#
# Coordination Sequence:
#
# PCOD9011102 Si02
#       8
#     2   2   2   2   2   2   2   2
#     4  10  23  41  65  99 135 182 227 284 351 418
#     4  11  23  40  67  96 131 184 237 282 353 430
#     4   9  18  37  62  88 123 164 218 281 335 397
#     4  10  21  41  68  96 138 173 235 281 344 420
#     4  11  25  42  61  95 138 177 226 293 354 414
#     4  10  21  40  65  91 129 172 233 279 342 415
#     4  11  23  40  69 100 129 183 229 288 351 425
#     4  12  27  47  70 105 150 186 231 297 360 422
#
# _framework density 21.299499999999998
#
# number of rings (size 3 to 8) (size 9 to 14) (size 15 to 20)
#    0.000    1.500    1.250    4.125    1.750    4.500 
#    0.000    0.000    0.000    0.000    0.000    0.000 
#    0.000    0.000    0.000    0.000    0.000    0.000 
#
# Total GULP energy -89246.725288 kJ/mol
# GULP energy per Si atom -5577.920331 kJ/mol
# Density = 2.125102 g / cm^3
# Si number density = 21.299500 Si / 1000 Ang^3
#
#
#
# Elastic Constant Matrix: (Units=GPa)
#
#
# Indices 1 2 3 4 5 6 
#
# 1 162.8787 37.6680 61.6235 11.3724 15.7403 20.1633
# 2 37.6680 59.9267 31.5200 -0.2879 13.9672 12.4364
# 3 61.6235 31.5200 115.6507 -3.0926 19.8073 4.4612
# 4 11.3724 -0.2879 -3.0926 29.2140 -1.5688 5.0514
# 5 15.7403 13.9672 19.8073 -1.5688 25.1252 2.8462
# 6 20.1633 12.4364 4.4612 5.0514 2.8462 29.0878
#
#
#
# Elastic Compliance Matrix: (Units=1/GPa)
#
#
# Indices 1 2 3 4 5 6 
#
# 1 0.009009 -0.002633 -0.003868 -0.003323 -0.000901 -0.003861
# 2 -0.002633 0.023415 -0.003313 0.001732 -0.007830 -0.007212
# 3 -0.003868 -0.003313 0.012565 0.002082 -0.005779 0.002375
# 4 -0.003323 0.001732 0.002082 0.036820 0.002387 -0.005384
# 5 -0.000901 -0.007830 -0.005779 0.002387 0.049468 -0.000396
# 6 -0.003861 -0.007212 0.002375 -0.005384 -0.000396 0.040748
#
#
# Mechanical properties :
#
#
# Convention : Reuss Voigt Hill
#
# Bulk Modulus (GPa) = 39.43290 66.67546 53.05418
# Shear Modulus (GPa) = 24.98669 30.52837 27.75753
#
# Velocity S-wave (km/s) = 3.42879 3.78999 3.61390
# Velocity P-wave (km/s) = 5.85057 7.10801 6.50972
#
# Compressibility (1/GPa) = 0.02535954
#
# Stress axis : x y z
#
# Youngs Moduli (GPa) = 110.99943 42.70840 79.58720
#
# Poissons Ratio (x) = 0.11245 0.30788
# Poissons Ratio (y) = 0.29225 0.26368
# Poissons Ratio (z) = 0.42940 0.14150
#
# Static dielectric constant tensor:
#      x y z
#    x 1.754000 0.020570 0.015120 
#    y 0.020570 1.856080 -0.003350 
#    z 0.015120 -0.003350 1.833490 
# 
# From -- ./inp_files/56861.got.cif
#   From: 2010.05.17/outbox.cif.g08.bks.cpg/sg2_29_cif.got.tgz:56861.got - 2010.06.03 11:33:40.
