data_PCOD9011758
_publ_section_title
;
Structure prediction by ZEFSAII (Michael W. Deem and Ramdas Pophale) SiO2 
 PCOD9011758
Probable space group: P -1
;
_chemical_formula_sum "Si O2"
_cell_formula_units_Z 16
_cell_length_a 17.976687
_cell_length_b 8.310457
_cell_length_c 14.466891
_cell_angle_alpha 125.241715
_cell_angle_beta 24.650476
_cell_angle_gamma 113.061397
_cell_volume 678.035464
_symmetry_space_group_name_H-M "P -1"
_symmetry_group_IT_number 2
_symmetry_cell_setting 'triclinic'
loop_
_space_group_symop_operation_xyz
x,y,z
-x,-y,-z
loop_
_atom_site_type_symbol
_atom_site_label
_atom_site_fract_x
_atom_site_fract_y
_atom_site_fract_z
Si Si1 0.590934 0.231923 0.580680
Si Si2 0.901501 0.781617 0.375587
Si Si3 0.868233 0.554598 0.849592
Si Si4 0.514838 0.270034 0.376996
Si Si5 0.871321 0.171845 0.627514
Si Si6 0.157995 0.001537 0.946508
Si Si7 0.540305 0.695006 0.767867
Si Si8 0.179603 0.144431 0.709450
O O1 0.699621 0.059521 0.322376
O O2 0.640928 0.438408 0.577934
O O3 0.663502 0.104128 0.551824
O O4 0.362086 0.318625 0.854539
O O5 0.696989 0.791430 0.650590
O O6 0.892521 0.728584 0.262102
O O7 0.066798 0.602396 0.187345
O O8 0.907520 0.016916 0.447912
O O9 0.921232 0.381525 0.648220
O O10 0.943691 0.744227 0.837111
O O11 0.500000 0.500000 0.500000
O O12 0.705345 0.102726 0.154915
O O13 0.519739 0.247821 0.252754
O O14 0.319028 0.250591 0.628596
O O15 0.649840 0.240217 0.933099
O O16 0.000000 0.000000 0.500000
O O17 0.009643 0.888687 0.054116
#
# Coordination Sequence:
#
# PCOD9011758 Si02
#       8
#     2   2   2   2   2   2   2   2
#     4  11  22  43  60  95 129 171 209 257 316 385
#     4  10  22  43  64  95 124 165 217 269 313 371
#     4  10  22  41  68  90 126 173 214 256 321 382
#     4  11  24  43  62  98 129 170 210 263 314 375
#     4   9  20  38  68  93 120 165 215 260 321 376
#     4  12  24  41  66  90 135 172 209 260 319 378
#     4  10  21  40  67  91 129 164 214 258 319 382
#     4  11  26  40  64  94 131 163 220 261 312 376
#
# _framework density 23.597584000000001
#
# number of rings (size 3 to 8) (size 9 to 14) (size 15 to 20)
#    0.000    1.500    2.500    1.875    5.250    0.500 
#    0.000    3.125    2.750    0.000    0.000    0.000 
#    0.000    0.000    0.000    0.000    0.000    0.000 
#
# Total GULP energy -89315.177142 kJ/mol
# GULP energy per Si atom -5582.198571 kJ/mol
# Density = 2.354387 g / cm^3
# Si number density = 23.597584 Si / 1000 Ang^3
#
#
#
# Elastic Constant Matrix: (Units=GPa)
#
#
# Indices 1 2 3 4 5 6 
#
# 1 58.2909 19.3899 20.2540 10.3961 -31.5230 -3.0890
# 2 19.3899 147.9946 29.2209 12.4084 -1.3948 21.3970
# 3 20.2540 29.2209 70.7149 2.4535 -24.2392 9.9297
# 4 10.3961 12.4084 2.4535 40.3370 0.6952 -5.4084
# 5 -31.5230 -1.3948 -24.2392 0.6952 32.9499 9.3403
# 6 -3.0890 21.3970 9.9297 -5.4084 9.3403 38.5486
#
#
#
# Elastic Compliance Matrix: (Units=1/GPa)
#
#
# Indices 1 2 3 4 5 6 
#
# 1 0.047435 -0.004762 0.009598 -0.013846 0.055788 -0.011488
# 2 -0.004762 0.008626 -0.003865 -0.001471 -0.006187 -0.002881
# 3 0.009598 -0.003865 0.025585 -0.004986 0.031338 -0.011968
# 4 -0.013846 -0.001471 -0.004986 0.030850 -0.020546 0.010298
# 5 0.055788 -0.006187 0.031338 -0.020546 0.115762 -0.031099
# 6 -0.011488 -0.002881 -0.011968 0.010298 -0.031099 0.038683
#
#
# Mechanical properties :
#
#
# Convention : Reuss Voigt Hill
#
# Bulk Modulus (GPa) = 11.96377 46.08113 29.02245
# Shear Modulus (GPa) = 17.07294 36.24280 26.65787
#
# Velocity S-wave (km/s) = 2.69272 3.92327 3.36473
# Velocity P-wave (km/s) = 3.84039 6.33190 5.23649
#
# Compressibility (1/GPa) = 0.08358571
#
# Stress axis : x y z
#
# Youngs Moduli (GPa) = 21.08165 115.93296 39.08576
#
# Poissons Ratio (x) = 0.55210 -0.37514
# Poissons Ratio (y) = 0.10040 0.15108
# Poissons Ratio (z) = -0.20234 0.44812
#
# Static dielectric constant tensor:
#      x y z
#    x 2.024690 0.015390 0.020480 
#    y 0.015390 1.977690 -0.016640 
#    z 0.020480 -0.016640 1.886730 
# 
# From -- ./inp_files/577399.got.cif
#   From: 2010.05.17/outbox.cif.g08.bks.cpg/sg2_289_cif.got.tgz:577399.got - 2010.06.03 11:33:40.
