data_PCOD9011085
_publ_section_title
;
Structure prediction by ZEFSAII (Michael W. Deem and Ramdas Pophale) SiO2 
 PCOD9011085
Probable space group: P -1
;
_chemical_formula_sum "Si O2"
_cell_formula_units_Z 13
_cell_length_a 12.773212
_cell_length_b 10.920868
_cell_length_c 17.195201
_cell_angle_alpha 32.938653
_cell_angle_beta 154.350783
_cell_angle_gamma 146.734520
_cell_volume 531.299482
_symmetry_space_group_name_H-M "P -1"
_symmetry_group_IT_number 2
_symmetry_cell_setting 'triclinic'
loop_
_space_group_symop_operation_xyz
x,y,z
-x,-y,-z
loop_
_atom_site_type_symbol
_atom_site_label
_atom_site_fract_x
_atom_site_fract_y
_atom_site_fract_z
Si Si1 0.182020 0.244191 0.451922
Si Si2 0.457332 0.635044 0.163500
Si Si3 0.911265 0.119474 0.175048
Si Si4 0.557422 0.024260 0.769985
Si Si5 0.799872 0.460050 0.128794
Si Si6 0.587082 0.874219 0.554161
Si Si7 0.000000 0.000000 0.000000
O O1 0.461971 0.220129 0.646519
O O2 0.091189 0.230819 0.309427
O O3 0.083752 0.437022 0.324654
O O4 0.000000 0.000000 0.500000
O O5 0.522804 0.410916 0.357995
O O6 0.707352 0.867372 0.198696
O O7 0.257296 0.711500 0.042301
O O8 0.328592 0.573056 0.025216
O O9 0.107548 0.073776 0.270495
O O10 0.503429 0.039635 0.632685
O O11 0.856795 0.065098 0.947094
O O12 0.379565 0.768717 0.820744
O O13 0.830044 0.715088 0.048285
O O14 0.500000 0.000000 0.500000
#
# Coordination Sequence:
#
# PCOD9011085 Si02
#       7
#     2   2   2   2   2   2   1
#     4   8  17  38  63  89 118 154 203 251 295 353
#     4  10  21  40  65  91 118 159 208 248 300 362
#     4   9  20  39  64  88 123 162 197 253 305 350
#     4  10  23  41  61  88 122 158 204 254 300 358
#     4  10  22  41  63  89 122 159 204 250 300 363
#     4  11  23  38  59  92 125 158 201 247 301 368
#     4  12  24  38  62  88 122 164 198 246 306 358
#
# _framework density 24.468309000000001
#
# number of rings (size 3 to 8) (size 9 to 14) (size 15 to 20)
#    0.000    2.154    0.000    1.846    0.000    7.385 
#    0.000   10.769    0.000    0.000    0.000    0.000 
#    0.000    0.000    0.000    0.000    0.000    0.000 
#
# Total GULP energy -72476.171638 kJ/mol
# GULP energy per Si atom -5575.090126 kJ/mol
# Density = 2.441262 g / cm^3
# Si number density = 24.468309 Si / 1000 Ang^3
#
#
#
# Elastic Constant Matrix: (Units=GPa)
#
#
# Indices 1 2 3 4 5 6 
#
# 1 95.6991 19.8934 85.5339 28.5492 16.4680 60.5251
# 2 19.8934 100.9943 43.2188 -17.8064 3.4220 16.6752
# 3 85.5339 43.2188 89.7607 -29.3888 -10.3801 -25.5849
# 4 28.5492 -17.8064 -29.3888 32.3942 -0.5159 -19.3491
# 5 16.4680 3.4220 -10.3801 -0.5159 60.6576 2.4822
# 6 60.5251 16.6752 -25.5849 -19.3491 2.4822 -20.6371
#
#
#
# Elastic Compliance Matrix: (Units=1/GPa)
#
#
# Indices 1 2 3 4 5 6 
#
# 1 0.004475 -0.002355 -0.000079 0.000845 -0.001512 0.010346
# 2 -0.002355 0.012499 -0.001848 0.006743 -0.000289 -0.000874
# 3 -0.000079 -0.001848 0.008809 -0.000206 0.002131 -0.012197
# 4 0.000845 0.006743 -0.000206 0.024709 0.000177 -0.014964
# 5 -0.001512 -0.000289 0.002131 0.000177 0.017499 -0.005370
# 6 0.010346 -0.000874 -0.012197 -0.014964 -0.005370 0.009686
#
#
# Mechanical properties :
#
#
# Convention : Reuss Voigt Hill
#
# Bulk Modulus (GPa) = 58.08473 64.86071 61.47272
# Shear Modulus (GPa) = 54.35806 23.67015 39.01411
#
# Velocity S-wave (km/s) = 4.71847 3.11365 3.99742
# Velocity P-wave (km/s) = 7.31270 6.28427 6.81790
#
# Compressibility (1/GPa) = 0.01721623
#
# Stress axis : x y z
#
# Youngs Moduli (GPa) = 223.46345 80.00338 113.52525
#
# Poissons Ratio (x) = 0.18845 0.00902
# Poissons Ratio (y) = 0.52636 0.20985
# Poissons Ratio (z) = 0.01776 0.14789
#
# Static dielectric constant tensor:
#      x y z
#    x 1.936420 0.050170 0.043000 
#    y 0.050170 1.900400 0.087400 
#    z 0.043000 0.087400 1.978390 
# 
# From -- ./inp_files/502502.got.cif
#   From: 2010.05.17/outbox.cif.g08.bks.cpg/sg2_252_cif.got.tgz:502502.got - 2010.06.03 11:33:40.
