data_PCOD9011865
_publ_section_title
;
Structure prediction by ZEFSAII (Michael W. Deem and Ramdas Pophale) SiO2 
 PCOD9011865
Probable space group: P -1
;
_chemical_formula_sum "Si O2"
_cell_formula_units_Z 16
_cell_length_a 6.419728
_cell_length_b 12.934068
_cell_length_c 10.472907
_cell_angle_alpha 54.589147
_cell_angle_beta 72.531084
_cell_angle_gamma 95.136039
_cell_volume 636.047865
_symmetry_space_group_name_H-M "P -1"
_symmetry_group_IT_number 2
_symmetry_cell_setting 'triclinic'
loop_
_space_group_symop_operation_xyz
x,y,z
-x,-y,-z
loop_
_atom_site_type_symbol
_atom_site_label
_atom_site_fract_x
_atom_site_fract_y
_atom_site_fract_z
Si Si1 0.384062 0.286346 0.071754
Si Si2 0.617696 0.397545 0.597784
Si Si3 0.870054 0.100976 0.281016
Si Si4 0.940724 0.526060 0.684974
Si Si5 0.526991 0.588045 0.774986
Si Si6 0.176067 0.765989 0.064970
Si Si7 0.392853 0.865039 0.197669
Si Si8 0.468699 0.837573 0.494692
O O1 0.521881 0.346700 0.133008
O O2 0.558205 0.226898 0.010697
O O3 0.139000 0.169930 0.220334
O O4 0.381443 0.428163 0.907875
O O5 0.500000 0.500000 0.500000
O O6 0.763027 0.470487 0.640815
O O7 0.467493 0.242695 0.759088
O O8 0.818082 0.384035 0.477842
O O9 0.873760 0.145114 0.099948
O O10 0.719697 0.155921 0.369222
O O11 0.720512 0.942242 0.416585
O O12 0.795950 0.597469 0.740320
O O13 0.969135 0.389652 0.827506
O O14 0.497101 0.689742 0.601237
O O15 0.164416 0.797350 0.195784
O O16 0.399175 0.886400 0.334687
O O17 0.500000 0.000000 0.000000
#
# Coordination Sequence:
#
# PCOD9011865 Si02
#       8
#     2   2   2   2   2   2   2   2
#     4  10  23  43  70 100 137 185 223 290 354 406
#     4  10  21  40  67  96 132 179 223 275 346 411
#     4  11  24  43  68  96 140 188 224 284 355 413
#     4   9  21  38  65  96 133 170 216 287 341 397
#     4  10  21  43  67 107 138 168 242 294 331 419
#     4  10  21  45  67  95 140 177 226 280 351 418
#     4  11  23  42  69  95 140 181 226 289 341 406
#     4  11  24  43  68 103 137 183 241 285 340 424
#
# _framework density 25.155339000000001
#
# number of rings (size 3 to 8) (size 9 to 14) (size 15 to 20)
#    0.000    1.750    2.500    0.750    1.750    5.000 
#    2.250    1.875    0.000    0.000    0.000    0.000 
#    0.000    0.000    0.000    0.000    0.000    0.000 
#
# Total GULP energy -89185.464801 kJ/mol
# GULP energy per Si atom -5574.091550 kJ/mol
# Density = 2.509808 g / cm^3
# Si number density = 25.155339 Si / 1000 Ang^3
#
#
#
# Elastic Constant Matrix: (Units=GPa)
#
#
# Indices 1 2 3 4 5 6 
#
# 1 55.7766 14.4201 33.4041 1.3517 11.2073 23.0866
# 2 14.4201 68.8232 17.8674 -7.6782 6.7975 8.7217
# 3 33.4041 17.8674 103.3401 -8.8375 17.8084 3.6327
# 4 1.3517 -7.6782 -8.8375 37.2711 -3.9237 2.2623
# 5 11.2073 6.7975 17.8084 -3.9237 46.8754 -3.6098
# 6 23.0866 8.7217 3.6327 2.2623 -3.6098 23.0662
#
#
#
# Elastic Compliance Matrix: (Units=1/GPa)
#
#
# Indices 1 2 3 4 5 6 
#
# 1 0.045832 -0.000130 -0.011675 -0.002783 -0.010226 -0.045312
# 2 -0.000130 0.016405 -0.001992 0.003106 -0.001820 -0.006349
# 3 -0.011675 -0.001992 0.013882 0.002581 -0.001222 0.009808
# 4 -0.002783 0.003106 0.002581 0.028424 0.001510 -0.001346
# 5 -0.010226 -0.001820 -0.001222 0.001510 0.025788 0.015003
# 6 -0.045312 -0.006349 0.009808 -0.001346 0.015003 0.092041
#
#
# Mechanical properties :
#
#
# Convention : Reuss Voigt Hill
#
# Bulk Modulus (GPa) = 20.60844 39.92478 30.26661
# Shear Modulus (GPa) = 18.78700 32.25910 25.52305
#
# Velocity S-wave (km/s) = 2.73580 3.58494 3.18876
# Velocity P-wave (km/s) = 4.26494 5.74817 5.06119
#
# Compressibility (1/GPa) = 0.04852380
#
# Stress axis : x y z
#
# Youngs Moduli (GPa) = 21.81883 60.95647 72.03718
#
# Poissons Ratio (x) = 0.00793 0.84107
# Poissons Ratio (y) = 0.00284 0.14350
# Poissons Ratio (z) = 0.25474 0.12142
#
# Static dielectric constant tensor:
#      x y z
#    x 1.981070 0.049510 0.056580 
#    y 0.049510 2.147620 0.010120 
#    z 0.056580 0.010120 2.159660 
# 
# From -- ./inp_files/367467.got.cif
#   From: 2010.05.17/outbox.cif.g08.bks.cpg/sg2_184_cif.got.tgz:367467.got - 2010.06.03 11:33:40.
