data_PCOD9011722
_publ_section_title
;
Structure prediction by ZEFSAII (Michael W. Deem and Ramdas Pophale) SiO2 
 PCOD9011722
Probable space group: P -1
;
_chemical_formula_sum "Si O2"
_cell_formula_units_Z 16
_cell_length_a 9.347759
_cell_length_b 13.557213
_cell_length_c 9.009447
_cell_angle_alpha 42.890518
_cell_angle_beta 68.183991
_cell_angle_gamma 90.980317
_cell_volume 641.321082
_symmetry_space_group_name_H-M "P -1"
_symmetry_group_IT_number 2
_symmetry_cell_setting 'triclinic'
loop_
_space_group_symop_operation_xyz
x,y,z
-x,-y,-z
loop_
_atom_site_type_symbol
_atom_site_label
_atom_site_fract_x
_atom_site_fract_y
_atom_site_fract_z
Si Si1 0.428102 0.136722 0.605051
Si Si2 0.545602 0.189130 0.804060
Si Si3 0.185349 0.147646 0.091684
Si Si4 0.089045 0.938892 0.905234
Si Si5 0.028825 0.230169 0.336068
Si Si6 0.796736 0.405156 0.713502
Si Si7 0.243637 0.820884 0.737068
Si Si8 0.317289 0.396952 0.265620
O O1 0.541285 0.246424 0.575264
O O2 0.564687 0.113284 0.476156
O O3 0.320269 0.227429 0.485102
O O4 0.262098 0.967594 0.899296
O O5 0.706847 0.305323 0.710798
O O6 0.380462 0.188331 0.948237
O O7 0.500000 0.000000 0.000000
O O8 0.156575 0.214523 0.183291
O O9 0.093306 0.200474 0.938912
O O10 0.075920 0.948939 0.351585
O O11 0.190349 0.951410 0.688685
O O12 0.000000 0.000000 0.000000
O O13 0.150091 0.356539 0.271323
O O14 0.889626 0.258422 0.260991
O O15 0.706537 0.515409 0.677880
O O16 0.000000 0.500000 0.500000
O O17 0.772874 0.296531 0.990630
O O18 0.500000 0.500000 0.000000
#
# Coordination Sequence:
#
# PCOD9011722 Si02
#       8
#     2   2   2   2   2   2   2   2
#     4  12  25  44  76 107 146 200 243 307 373 441
#     4  12  27  46  74 110 152 187 249 310 375 432
#     4  10  21  40  67 110 143 182 237 303 368 434
#     4  11  22  41  72 110 146 187 241 308 370 433
#     4  10  23  41  75 103 144 189 243 302 363 441
#     4  12  31  48  73 106 150 198 249 311 368 443
#     4  11  26  46  71 107 144 196 249 302 371 446
#     4  12  26  48  72 102 151 196 250 299 375 444
#
# _framework density 24.948502000000001
#
# number of rings (size 3 to 8) (size 9 to 14) (size 15 to 20)
#    0.000    0.750    3.750    2.625    5.250    2.000 
#    0.000    0.000    0.000    0.000    0.000    0.000 
#    0.000    0.000    0.000    0.000    0.000    0.000 
#
# Total GULP energy -89173.886456 kJ/mol
# GULP energy per Si atom -5573.367904 kJ/mol
# Density = 2.489172 g / cm^3
# Si number density = 24.948502 Si / 1000 Ang^3
#
#
#
# Elastic Constant Matrix: (Units=GPa)
#
#
# Indices 1 2 3 4 5 6 
#
# 1 148.0989 59.0720 44.1005 4.9302 -38.6209 21.8362
# 2 59.0720 141.9614 32.5747 8.4630 -17.0838 21.1072
# 3 44.1005 32.5747 70.1036 25.1983 -41.6138 -7.5791
# 4 4.9302 8.4630 25.1983 29.6027 -7.4916 -11.5854
# 5 -38.6209 -17.0838 -41.6138 -7.4916 55.4576 6.4892
# 6 21.8362 21.1072 -7.5791 -11.5854 6.4892 61.0821
#
#
#
# Elastic Compliance Matrix: (Units=1/GPa)
#
#
# Indices 1 2 3 4 5 6 
#
# 1 0.010506 -0.002551 -0.004143 0.002216 0.004120 -0.003406
# 2 -0.002551 0.009189 -0.003589 -0.000544 -0.001401 -0.002663
# 3 -0.004143 -0.003589 0.043948 -0.029383 0.025024 -0.000057
# 4 0.002216 -0.000544 -0.029383 0.058335 -0.013761 0.008276
# 5 0.004120 -0.001401 0.025024 -0.013761 0.037917 -0.004522
# 6 -0.003406 -0.002663 -0.000057 0.008276 -0.004522 0.020552
#
#
# Mechanical properties :
#
#
# Convention : Reuss Voigt Hill
#
# Bulk Modulus (GPa) = 23.21392 70.18427 46.69909
# Shear Modulus (GPa) = 23.21558 44.18958 33.70258
#
# Velocity S-wave (km/s) = 3.05378 4.21317 3.67943
# Velocity P-wave (km/s) = 4.66466 7.20142 6.06710
#
# Compressibility (1/GPa) = 0.04307760
#
# Stress axis : x y z
#
# Youngs Moduli (GPa) = 95.18182 108.82572 22.75405
#
# Poissons Ratio (x) = 0.27762 0.09427
# Poissons Ratio (y) = 0.24281 0.08166
# Poissons Ratio (z) = 0.39434 0.39056
#
# Static dielectric constant tensor:
#      x y z
#    x 2.253240 -0.172760 0.514320 
#    y -0.172760 2.501270 -0.867930 
#    z 0.514320 -0.867930 3.489270 
# 
# From -- ./inp_files/205537.got.cif
#   From: 2010.05.17/outbox.cif.g08.bks.cpg/sg2_103_cif.got.tgz:205537.got - 2010.06.03 11:33:40.
