data_PCOD9011885
_publ_section_title
;
Structure prediction by ZEFSAII (Michael W. Deem and Ramdas Pophale) SiO2 
 PCOD9011885
Probable space group: P -1
;
_chemical_formula_sum "Si O2"
_cell_formula_units_Z 14
_cell_length_a 13.990892
_cell_length_b 6.991778
_cell_length_c 11.612169
_cell_angle_alpha 120.116200
_cell_angle_beta 144.902301
_cell_angle_gamma 58.118240
_cell_volume 548.922921
_symmetry_space_group_name_H-M "P -1"
_symmetry_group_IT_number 2
_symmetry_cell_setting 'triclinic'
loop_
_space_group_symop_operation_xyz
x,y,z
-x,-y,-z
loop_
_atom_site_type_symbol
_atom_site_label
_atom_site_fract_x
_atom_site_fract_y
_atom_site_fract_z
Si Si1 0.899885 0.978433 0.634782
Si Si2 0.649238 0.655383 0.232661
Si Si3 0.220588 0.392101 0.903511
Si Si4 0.275700 0.716256 0.250560
Si Si5 0.167014 0.599889 0.475982
Si Si6 0.280664 0.968486 0.008441
Si Si7 0.658818 0.717954 0.644263
O O1 0.857667 0.092629 0.753420
O O2 0.839427 0.177351 0.539644
O O3 0.785811 0.801547 0.446448
O O4 0.103290 0.893350 0.795983
O O5 0.669560 0.622783 0.107059
O O6 0.710485 0.430645 0.302864
O O7 0.460648 0.790956 0.121243
O O8 0.026060 0.396863 0.680177
O O9 0.225775 0.612284 0.051871
O O10 0.280528 0.168643 0.975057
O O11 0.456418 0.785021 0.442109
O O12 0.308602 0.497315 0.301878
O O13 0.240270 0.384079 0.400435
O O14 0.275926 0.090887 0.165165
#
# Coordination Sequence:
#
# PCOD9011885 Si02
#       7
#     2   2   2   2   2   2   2
#     4  10  22  44  71  94 128 174 219 266 330 382
#     4  12  24  44  65  97 138 169 213 275 323 385
#     4  10  22  41  65  93 135 173 215 266 324 393
#     4   9  17  37  68  93 122 177 214 262 330 378
#     4  10  23  41  66  96 130 173 218 268 322 390
#     4  10  21  40  67  97 129 170 220 268 323 389
#     4   9  17  36  65  95 126 165 220 269 317 384
#
# _framework density 25.504491000000002
#
# number of rings (size 3 to 8) (size 9 to 14) (size 15 to 20)
#    0.000    2.000    1.429    1.714    2.000    6.286 
#    5.143    2.143    0.000    0.000    0.000    0.000 
#    0.000    0.000    0.000    0.000    0.000    0.000 
#
# Total GULP energy -78573.714607 kJ/mol
# GULP energy per Si atom -5612.408186 kJ/mol
# Density = 2.544644 g / cm^3
# Si number density = 25.504491 Si / 1000 Ang^3
#
#
#
# Elastic Constant Matrix: (Units=GPa)
#
#
# Indices 1 2 3 4 5 6 
#
# 1 92.7785 51.1515 36.7700 -4.1718 -2.5087 -9.2065
# 2 51.1515 79.5514 47.0095 -11.9210 3.8155 -0.0991
# 3 36.7700 47.0095 119.8747 -4.4217 4.8018 9.7204
# 4 -4.1718 -11.9210 -4.4217 46.9911 1.8043 3.5661
# 5 -2.5087 3.8155 4.8018 1.8043 47.9390 3.9913
# 6 -9.2065 -0.0991 9.7204 3.5661 3.9913 46.5492
#
#
#
# Elastic Compliance Matrix: (Units=1/GPa)
#
#
# Indices 1 2 3 4 5 6 
#
# 1 0.017697 -0.010723 -0.001661 -0.001659 0.001691 0.003806
# 2 -0.010723 0.023576 -0.005618 0.004658 -0.001960 -0.001086
# 3 -0.001661 -0.005618 0.011279 -0.000291 -0.000540 -0.002627
# 4 -0.001659 0.004658 -0.000291 0.022473 -0.001117 -0.001883
# 5 0.001691 -0.001960 -0.000540 -0.001117 0.021309 -0.001298
# 6 0.003806 -0.001086 -0.002627 -0.001883 -0.001298 0.023037
#
#
# Mechanical properties :
#
#
# Convention : Reuss Voigt Hill
#
# Bulk Modulus (GPa) = 60.42981 62.45186 61.44083
# Shear Modulus (GPa) = 31.07709 38.78077 34.92893
#
# Velocity S-wave (km/s) = 3.49448 3.90365 3.70472
# Velocity P-wave (km/s) = 6.32670 6.69759 6.51478
#
# Compressibility (1/GPa) = 0.01654812
#
# Stress axis : x y z
#
# Youngs Moduli (GPa) = 56.50579 42.41653 88.66424
#
# Poissons Ratio (x) = 0.45483 0.14727
# Poissons Ratio (y) = 0.60590 0.49810
# Poissons Ratio (z) = 0.09386 0.23829
#
# Static dielectric constant tensor:
#      x y z
#    x 1.963690 0.049460 -0.038030 
#    y 0.049460 2.018530 0.005090 
#    z -0.038030 0.005090 1.945160 
# 
# From -- ./inp_files/445094.got.cif
#   From: 2010.05.17/outbox.cif.g08.bks.cpg/sg2_223_cif.got.tgz:445094.got - 2010.06.03 11:33:40.
