data_PCOD9011485
_publ_section_title
;
Structure prediction by ZEFSAII (Michael W. Deem and Ramdas Pophale) SiO2 
 PCOD9011485
Probable space group: P -1
;
_chemical_formula_sum "Si O2"
_cell_formula_units_Z 14
_cell_length_a 13.359536
_cell_length_b 12.976047
_cell_length_c 18.704687
_cell_angle_alpha 28.685243
_cell_angle_beta 151.777436
_cell_angle_gamma 140.819969
_cell_volume 735.987430
_symmetry_space_group_name_H-M "P -1"
_symmetry_group_IT_number 2
_symmetry_cell_setting 'triclinic'
loop_
_space_group_symop_operation_xyz
x,y,z
-x,-y,-z
loop_
_atom_site_type_symbol
_atom_site_label
_atom_site_fract_x
_atom_site_fract_y
_atom_site_fract_z
Si Si1 0.942204 0.760082 0.632184
Si Si2 0.063620 0.419648 0.011122
Si Si3 0.693809 0.643172 0.409906
Si Si4 0.511298 0.813419 0.412372
Si Si5 0.650229 0.977771 0.540942
Si Si6 0.941041 0.717745 0.372437
Si Si7 0.686926 0.106917 0.913548
O O1 0.858772 0.647365 0.576773
O O2 0.747846 0.775842 0.555417
O O3 0.111815 0.618037 0.867639
O O4 0.000000 0.000000 0.500000
O O5 0.868990 0.284389 0.936413
O O6 0.248916 0.255474 0.242018
O O7 0.000000 0.500000 0.000000
O O8 0.580278 0.412681 0.480538
O O9 0.817404 0.676976 0.393621
O O10 0.516660 0.821619 0.210433
O O11 0.526176 0.975495 0.389219
O O12 0.382773 0.883852 0.218529
O O13 0.500000 0.000000 0.500000
O O14 0.841721 0.149660 0.556894
O O15 0.000000 0.500000 0.500000
O O16 0.787247 0.878476 0.134554
#
# Coordination Sequence:
#
# PCOD9011485 Si02
#       7
#     2   2   2   2   2   2   2
#     4  11  21  36  60  99 126 155 200 260 305 358
#     4  11  20  39  66  92 123 163 206 248 309 367
#     4  11  20  39  67  91 126 155 205 255 307 364
#     4  11  20  42  64  92 126 158 203 256 310 367
#     4  11  24  43  64  87 125 169 208 249 306 370
#     4  11  25  43  61  92 126 162 208 254 304 366
#     4  10  21  40  66  93 122 163 204 249 313 364
#
# _framework density 19.022064
#
# number of rings (size 3 to 8) (size 9 to 14) (size 15 to 20)
#    0.000    1.143    4.286    3.000    2.000    0.000 
#   12.857    2.857    0.000    0.000    0.000    0.000 
#    0.000    0.000    0.000    0.000    0.000    0.000 
#
# Total GULP energy -78188.605146 kJ/mol
# GULP energy per Si atom -5584.900368 kJ/mol
# Density = 1.897877 g / cm^3
# Si number density = 19.022064 Si / 1000 Ang^3
#
#
#
# Elastic Constant Matrix: (Units=GPa)
#
#
# Indices 1 2 3 4 5 6 
#
# 1 168.2152 68.7881 69.9549 -4.0555 -1.8095 -6.8954
# 2 68.7881 106.9725 47.6777 -7.6725 -11.7009 -4.9894
# 3 69.9549 47.6777 100.9220 -16.5697 -5.9093 -11.7455
# 4 -4.0555 -7.6725 -16.5697 32.0236 -1.9195 -7.5901
# 5 -1.8095 -11.7009 -5.9093 -1.9195 27.6667 -2.0293
# 6 -6.8954 -4.9894 -11.7455 -7.5901 -2.0293 43.3436
#
#
#
# Elastic Compliance Matrix: (Units=1/GPa)
#
#
# Indices 1 2 3 4 5 6 
#
# 1 0.009950 -0.004487 -0.005583 -0.003134 -0.002739 -0.001124
# 2 -0.004487 0.014291 -0.002953 0.001810 0.005297 0.000696
# 3 -0.005583 -0.002953 0.017450 0.009041 0.003124 0.005230
# 4 -0.003134 0.001810 0.009041 0.038465 0.005833 0.009169
# 5 -0.002739 0.005297 0.003124 0.005833 0.039563 0.003894
# 6 -0.001124 0.000696 0.005230 0.009169 0.003894 0.026178
#
#
# Mechanical properties :
#
#
# Convention : Reuss Voigt Hill
#
# Bulk Modulus (GPa) = 63.91757 83.21677 73.56717
# Shear Modulus (GPa) = 28.22337 33.25272 30.73804
#
# Velocity S-wave (km/s) = 3.85608 4.18558 4.02421
# Velocity P-wave (km/s) = 7.31441 8.19764 7.76859
#
# Compressibility (1/GPa) = 0.01564515
#
# Stress axis : x y z
#
# Youngs Moduli (GPa) = 100.49861 69.97254 57.30750
#
# Poissons Ratio (x) = 0.31396 0.31996
# Poissons Ratio (y) = 0.45093 0.16923
# Poissons Ratio (z) = 0.56111 0.20663
#
# Static dielectric constant tensor:
#      x y z
#    x 1.605160 0.019560 -0.020650 
#    y 0.019560 1.678120 0.008320 
#    z -0.020650 0.008320 1.677910 
# 
# From -- ./inp_files/150661.got.cif
#   From: 2010.05.17/outbox.cif.g08.bks.cpg/sg2_76_cif.got.tgz:150661.got - 2010.06.03 11:33:40.
