data_PCOD9011452
_publ_section_title
;
Structure prediction by ZEFSAII (Michael W. Deem and Ramdas Pophale) SiO2 
 PCOD9011452
Probable space group: P -1
;
_chemical_formula_sum "Si O2"
_cell_formula_units_Z 14
_cell_length_a 7.735198
_cell_length_b 5.674785
_cell_length_c 18.091441
_cell_angle_alpha 80.337404
_cell_angle_beta 50.579775
_cell_angle_gamma 104.818608
_cell_volume 531.931646
_symmetry_space_group_name_H-M "P -1"
_symmetry_group_IT_number 2
_symmetry_cell_setting 'triclinic'
loop_
_space_group_symop_operation_xyz
x,y,z
-x,-y,-z
loop_
_atom_site_type_symbol
_atom_site_label
_atom_site_fract_x
_atom_site_fract_y
_atom_site_fract_z
Si Si1 0.879265 0.691090 0.634314
Si Si2 0.178354 0.001744 0.236753
Si Si3 0.629808 0.988029 0.590399
Si Si4 0.175464 0.063267 0.057996
Si Si5 0.382516 0.208459 0.754022
Si Si6 0.272936 0.644592 0.958460
Si Si7 0.686775 0.493554 0.387169
O O1 0.935578 0.849792 0.687893
O O2 0.770621 0.842053 0.600645
O O3 0.629974 0.402670 0.722658
O O4 0.139123 0.738313 0.521089
O O5 0.179792 0.058060 0.146205
O O6 0.478346 0.150371 0.165870
O O7 0.982290 0.681669 0.317200
O O8 0.438096 0.814600 0.587803
O O9 0.456236 0.017718 0.697089
O O10 0.310818 0.382555 0.983432
O O11 0.260264 0.848286 0.013890
O O12 0.877524 0.937226 0.123130
O O13 0.338259 0.373845 0.690389
O O14 0.000000 0.500000 0.000000
O O15 0.500000 0.500000 0.500000
#
# Coordination Sequence:
#
# PCOD9011452 Si02
#       7
#     2   2   2   2   2   2   2
#     4  10  21  41  63 102 135 186 237 288 363 427
#     4  11  24  45  72 104 142 191 236 302 368 430
#     4  10  21  40  66  91 145 181 236 295 347 437
#     4  11  27  49  73 108 149 186 246 305 366 430
#     4  10  23  39  66  96 137 190 235 298 359 428
#     4  12  27  51  77 107 145 190 247 305 366 435
#     4  10  21  42  62  97 138 182 235 290 361 434
#
# _framework density 26.319171000000001
#
# number of rings (size 3 to 8) (size 9 to 14) (size 15 to 20)
#    0.000    1.429    1.429    2.571    8.000    0.571 
#    5.143    0.000    0.000    0.000    0.000    0.000 
#    0.000    0.000    0.000    0.000    0.000    0.000 
#
# Total GULP energy -78303.343038 kJ/mol
# GULP energy per Si atom -5593.095931 kJ/mol
# Density = 2.625927 g / cm^3
# Si number density = 26.319171 Si / 1000 Ang^3
#
#
#
# Elastic Constant Matrix: (Units=GPa)
#
#
# Indices 1 2 3 4 5 6 
#
# 1 91.2760 35.1304 30.1126 -11.2251 -6.1346 10.2558
# 2 35.1304 150.5691 58.2941 -7.0009 8.7558 23.3454
# 3 30.1126 58.2941 149.4763 -14.2733 -9.5686 -0.0124
# 4 -11.2251 -7.0009 -14.2733 42.1206 -9.3915 15.5951
# 5 -6.1346 8.7558 -9.5686 -9.3915 46.6941 2.2995
# 6 10.2558 23.3454 -0.0124 15.5951 2.2995 30.5446
#
#
#
# Elastic Compliance Matrix: (Units=1/GPa)
#
#
# Indices 1 2 3 4 5 6 
#
# 1 0.013771 -0.001517 -0.001364 0.006284 0.003419 -0.006931
# 2 -0.001517 0.009813 -0.003373 0.002748 -0.001771 -0.008262
# 3 -0.001364 -0.003373 0.008616 0.001845 0.002496 0.001910
# 4 0.006284 0.002748 0.001845 0.037510 0.009418 -0.024070
# 5 0.003419 -0.001771 0.002496 0.009418 0.024922 -0.006478
# 6 -0.006931 -0.008262 0.001910 -0.024070 -0.006478 0.054158
#
#
# Mechanical properties :
#
#
# Convention : Reuss Voigt Hill
#
# Bulk Modulus (GPa) = 50.78186 70.93285 60.85736
# Shear Modulus (GPa) = 29.78622 41.72415 35.75519
#
# Velocity S-wave (km/s) = 3.36777 3.98592 3.68981
# Velocity P-wave (km/s) = 5.87018 6.94211 6.42853
#
# Compressibility (1/GPa) = 0.01969207
#
# Stress axis : x y z
#
# Youngs Moduli (GPa) = 72.61597 101.90561 116.05707
#
# Poissons Ratio (x) = 0.15458 0.15834
# Poissons Ratio (y) = 0.11015 0.39147
# Poissons Ratio (z) = 0.09907 0.34373
#
# Static dielectric constant tensor:
#      x y z
#    x 2.206170 -0.116730 -0.042970 
#    y -0.116730 2.179440 -0.005440 
#    z -0.042970 -0.005440 1.985490 
# 
# From -- ./inp_files/131537.got.cif
#   From: 2010.05.17/outbox.cif.g08.bks.cpg/sg2_66_cif.got.tgz:131537.got - 2010.06.03 11:33:40.
