data_PCOD9011580
_publ_section_title
;
Structure prediction by ZEFSAII (Michael W. Deem and Ramdas Pophale) SiO2 
 PCOD9011580
Probable space group: P -1
;
_chemical_formula_sum "Si O2"
_cell_formula_units_Z 16
_cell_length_a 12.179457
_cell_length_b 13.739418
_cell_length_c 12.311296
_cell_angle_alpha 70.427127
_cell_angle_beta 24.216955
_cell_angle_gamma 73.002252
_cell_volume 795.766557
_symmetry_space_group_name_H-M "P -1"
_symmetry_group_IT_number 2
_symmetry_cell_setting 'triclinic'
loop_
_space_group_symop_operation_xyz
x,y,z
-x,-y,-z
loop_
_atom_site_type_symbol
_atom_site_label
_atom_site_fract_x
_atom_site_fract_y
_atom_site_fract_z
Si Si1 0.323932 0.950313 0.001593
Si Si2 0.813072 0.594554 0.765608
Si Si3 0.029843 0.725169 0.699444
Si Si4 0.871169 0.177914 0.957058
Si Si5 0.244354 0.638959 0.174262
Si Si6 0.101728 0.105840 0.423358
Si Si7 0.457967 0.121829 0.517306
Si Si8 0.609037 0.815136 0.194285
O O1 0.263365 0.922320 0.943167
O O2 0.078582 0.895463 0.306614
O O3 0.592284 0.901124 0.818528
O O4 0.361977 0.073481 0.934764
O O5 0.771139 0.472164 0.830108
O O6 0.932629 0.619609 0.767501
O O7 0.020117 0.635418 0.471423
O O8 0.530707 0.645818 0.974194
O O9 0.343151 0.748630 0.426538
O O10 0.949063 0.805014 0.648277
O O11 0.863336 0.752944 0.946911
O O12 0.805428 0.273348 0.902560
O O13 0.184232 0.158470 0.694858
O O14 0.715413 0.182019 0.210056
O O15 0.000000 0.000000 0.500000
O O16 0.423251 0.152584 0.663199
O O17 0.500000 0.000000 0.500000
#
# Coordination Sequence:
#
# PCOD9011580 Si02
#       8
#     2   2   2   2   2   2   2   2
#     4  12  22  35  54  82 115 154 193 236 293 357
#     4  10  21  40  66  96 127 154 195 243 306 378
#     4  12  23  37  58  84 124 161 191 237 303 366
#     4  12  24  40  65  86 119 156 206 265 301 347
#     4  10  21  41  67  96 122 155 198 251 304 362
#     4  12  21  33  51  81 119 154 187 227 285 367
#     4  12  26  42  61  85 118 165 215 257 299 343
#     4  12  24  38  56  81 118 161 203 240 295 353
#
# _framework density 20.106399
#
# number of rings (size 3 to 8) (size 9 to 14) (size 15 to 20)
#    0.000    0.500    3.750    6.000    1.750    0.000 
#    0.000    0.000    0.000    4.500    0.000    0.000 
#    0.000    0.000    0.000    0.000    0.000    0.000 
#
# Total GULP energy -89424.432328 kJ/mol
# GULP energy per Si atom -5589.027021 kJ/mol
# Density = 2.006064 g / cm^3
# Si number density = 20.106399 Si / 1000 Ang^3
#
#
#
# Elastic Constant Matrix: (Units=GPa)
#
#
# Indices 1 2 3 4 5 6 
#
# 1 65.5287 17.4144 28.9367 0.3400 0.5614 12.7891
# 2 17.4144 78.6002 4.1271 -7.2284 1.8695 7.1742
# 3 28.9367 4.1271 176.0919 0.0700 -11.1319 0.2131
# 4 0.3400 -7.2284 0.0700 12.4231 3.2727 -4.7288
# 5 0.5614 1.8695 -11.1319 3.2727 48.2873 0.5209
# 6 12.7891 7.1742 0.2131 -4.7288 0.5209 33.4730
#
#
#
# Elastic Compliance Matrix: (Units=1/GPa)
#
#
# Indices 1 2 3 4 5 6 
#
# 1 0.019082 -0.003902 -0.003054 -0.005428 -0.000329 -0.007197
# 2 -0.003902 0.014427 0.000234 0.008634 -0.001040 -0.000367
# 3 -0.003054 0.000234 0.006265 0.000217 0.001444 0.001085
# 4 -0.005428 0.008634 0.000217 0.092513 -0.006636 0.013395
# 5 -0.000329 -0.001040 0.001444 -0.006636 0.021546 -0.000933
# 6 -0.007197 -0.000367 0.001085 0.013395 -0.000933 0.034603
#
#
# Mechanical properties :
#
#
# Convention : Reuss Voigt Hill
#
# Bulk Modulus (GPa) = 37.97875 46.79747 42.38811
# Shear Modulus (GPa) = 23.73535 36.81952 30.27743
#
# Velocity S-wave (km/s) = 3.43955 4.28393 3.88475
# Velocity P-wave (km/s) = 5.89100 6.91339 6.42257
#
# Compressibility (1/GPa) = 0.02633051
#
# Stress axis : x y z
#
# Youngs Moduli (GPa) = 52.40659 69.31421 159.61321
#
# Poissons Ratio (x) = 0.27045 0.48748
# Poissons Ratio (y) = 0.20448 -0.03739
# Poissons Ratio (z) = 0.16006 -0.01624
#
# Static dielectric constant tensor:
#      x y z
#    x 1.722970 0.047880 0.059850 
#    y 0.047880 1.762980 0.028750 
#    z 0.059850 0.028750 1.788580 
# 
# From -- ./inp_files/433915.got.cif
#   From: 2010.05.17/outbox.cif.g08.bks.cpg/sg2_217_cif.got.tgz:433915.got - 2010.06.03 11:33:40.
