data_PCOD9011357
_publ_section_title
;
Structure prediction by ZEFSAII (Michael W. Deem and Ramdas Pophale) SiO2 
 PCOD9011357
Probable space group: P -1
;
_chemical_formula_sum "Si O2"
_cell_formula_units_Z 16
_cell_length_a 12.156751
_cell_length_b 8.554006
_cell_length_c 7.423378
_cell_angle_alpha 84.085282
_cell_angle_beta 87.387307
_cell_angle_gamma 117.036969
_cell_volume 680.193155
_symmetry_space_group_name_H-M "P -1"
_symmetry_group_IT_number 2
_symmetry_cell_setting 'triclinic'
loop_
_space_group_symop_operation_xyz
x,y,z
-x,-y,-z
loop_
_atom_site_type_symbol
_atom_site_label
_atom_site_fract_x
_atom_site_fract_y
_atom_site_fract_z
Si Si1 0.059869 0.689222 0.135824
Si Si2 0.453117 0.788561 0.744640
Si Si3 0.230742 0.238989 0.142869
Si Si4 0.015666 0.061510 0.694337
Si Si5 0.204772 0.559770 0.976564
Si Si6 0.561749 0.536745 0.687547
Si Si7 0.501608 0.153921 0.690376
Si Si8 0.231836 0.028681 0.856640
O O1 0.033199 0.795280 0.282275
O O2 0.923746 0.536530 0.113544
O O3 0.157623 0.611881 0.158574
O O4 0.131995 0.831458 0.951896
O O5 0.317643 0.715454 0.849167
O O6 0.497110 0.637238 0.789461
O O7 0.452647 0.804803 0.524575
O O8 0.530054 0.995378 0.775874
O O9 0.296506 0.310093 0.320981
O O10 0.085250 0.111336 0.175172
O O11 0.248481 0.413097 0.021908
O O12 0.282182 0.133356 0.028496
O O13 0.150013 0.109096 0.755884
O O14 0.000000 0.000000 0.500000
O O15 0.500000 0.500000 0.500000
O O16 0.549971 0.344364 0.762920
O O17 0.351199 0.067288 0.723887
#
# Coordination Sequence:
#
# PCOD9011357 Si02
#       8
#     2   2   2   2   2   2   2   2
#     4  10  21  40  66 101 128 173 216 277 335 408
#     4  10  22  40  65  99 131 182 220 277 335 396
#     4  11  23  43  68  98 131 174 228 277 332 408
#     4  11  24  40  68 100 132 176 218 280 343 401
#     4  11  20  39  69  95 136 170 224 276 341 403
#     4  10  24  43  65  92 135 180 221 277 333 397
#     4  10  22  41  65  98 137 175 224 275 335 399
#     4  11  20  43  69  97 131 169 220 278 335 404
#
# _framework density 23.522729000000002
#
# number of rings (size 3 to 8) (size 9 to 14) (size 15 to 20)
#    0.000    1.500    3.750    1.500    3.500    3.000 
#    4.500    3.125    0.000    0.000    0.000    0.000 
#    0.000    0.000    0.000    0.000    0.000    0.000 
#
# Total GULP energy -89170.910529 kJ/mol
# GULP energy per Si atom -5573.181908 kJ/mol
# Density = 2.346919 g / cm^3
# Si number density = 23.522729 Si / 1000 Ang^3
#
#
#
# Elastic Constant Matrix: (Units=GPa)
#
#
# Indices 1 2 3 4 5 6 
#
# 1 72.2153 33.5622 7.7291 13.0377 -12.3658 -6.4328
# 2 33.5622 149.7759 12.6771 15.4330 1.2020 -22.2990
# 3 7.7291 12.6771 57.1432 12.7933 -10.3281 3.1906
# 4 13.0377 15.4330 12.7933 30.0022 2.2769 -0.4879
# 5 -12.3658 1.2020 -10.3281 2.2769 23.0572 8.6863
# 6 -6.4328 -22.2990 3.1906 -0.4879 8.6863 41.8491
#
#
#
# Elastic Compliance Matrix: (Units=1/GPa)
#
#
# Indices 1 2 3 4 5 6 
#
# 1 0.019055 -0.004093 0.002762 -0.008406 0.013380 -0.002338
# 2 -0.004093 0.008771 -0.002457 -0.001167 -0.005670 0.005395
# 3 0.002762 -0.002457 0.023278 -0.011128 0.015389 -0.005983
# 4 -0.008406 -0.001167 -0.011128 0.043482 -0.014662 0.002484
# 5 0.013380 -0.005670 0.015389 -0.014662 0.065147 -0.015831
# 6 -0.002338 0.005395 -0.005983 0.002484 -0.015831 0.030182
#
#
# Mechanical properties :
#
#
# Convention : Reuss Voigt Hill
#
# Bulk Modulus (GPa) = 22.97402 43.00789 32.99096
# Shear Modulus (GPa) = 23.58495 33.99277 28.78886
#
# Velocity S-wave (km/s) = 3.16989 3.80558 3.50219
# Velocity P-wave (km/s) = 4.81514 6.13458 5.51447
#
# Compressibility (1/GPa) = 0.04352742
#
# Stress axis : x y z
#
# Youngs Moduli (GPa) = 52.48068 114.01603 42.95864
#
# Poissons Ratio (x) = 0.46664 -0.11863
# Poissons Ratio (y) = 0.21479 0.10554
# Poissons Ratio (z) = -0.14493 0.28011
#
# Static dielectric constant tensor:
#      x y z
#    x 1.983860 -0.059570 -0.060070 
#    y -0.059570 1.991210 0.003070 
#    z -0.060070 0.003070 1.947730 
# 
# From -- ./inp_files/239053.got.cif
#   From: 2010.05.17/outbox.cif.g08.bks.cpg/sg2_120_cif.got.tgz:239053.got - 2010.06.03 11:33:40.
