data_PCOD9011010
_publ_section_title
;
Structure prediction by ZEFSAII (Michael W. Deem and Ramdas Pophale) SiO2 
 PCOD9011010
Probable space group: P -1
;
_chemical_formula_sum "Si O2"
_cell_formula_units_Z 16
_cell_length_a 6.259811
_cell_length_b 14.724415
_cell_length_c 11.383245
_cell_angle_alpha 54.616606
_cell_angle_beta 92.978523
_cell_angle_gamma 65.068287
_cell_volume 710.798174
_symmetry_space_group_name_H-M "P -1"
_symmetry_group_IT_number 2
_symmetry_cell_setting 'triclinic'
loop_
_space_group_symop_operation_xyz
x,y,z
-x,-y,-z
loop_
_atom_site_type_symbol
_atom_site_label
_atom_site_fract_x
_atom_site_fract_y
_atom_site_fract_z
Si Si1 0.628196 0.668506 0.691021
Si Si2 0.226305 0.765675 0.820047
Si Si3 0.782994 0.881443 0.539152
Si Si4 0.195828 0.786345 0.412209
Si Si5 0.362550 0.950116 0.151504
Si Si6 0.900372 0.787773 0.186864
Si Si7 0.035996 0.633003 0.067977
Si Si8 0.497146 0.886179 0.800462
O O1 0.441920 0.705642 0.770036
O O2 0.708141 0.773931 0.602355
O O3 0.461542 0.679245 0.565125
O O4 0.874637 0.518936 0.822629
O O5 0.279259 0.856982 0.834574
O O6 0.954572 0.855520 0.678386
O O7 0.226427 0.655393 0.980644
O O8 0.984544 0.847699 0.462715
O O9 0.565706 0.034983 0.383488
O O10 0.245547 0.891838 0.275853
O O11 0.085569 0.741490 0.338551
O O12 0.613279 0.829514 0.182615
O O13 0.473876 0.021675 0.177048
O O14 0.160145 0.070132 0.971044
O O15 0.016638 0.682724 0.163206
O O16 0.758684 0.740551 0.924695
#
# Coordination Sequence:
#
# PCOD9011010 Si02
#       8
#     2   2   2   2   2   2   2   2
#     4  11  25  47  66  94 137 177 219 270 326 388
#     4  11  26  42  69  98 130 174 225 270 326 391
#     4  11  24  44  70  98 132 175 215 276 331 383
#     4  11  21  41  70  95 134 174 218 262 331 392
#     4  10  21  40  65 102 136 167 208 273 336 385
#     4  10  22  39  66  99 131 171 216 269 327 387
#     4  11  27  44  67  97 134 177 220 270 326 390
#     4  11  23  41  68 100 132 162 220 273 327 389
#
# _framework density 22.509906999999998
#
# number of rings (size 3 to 8) (size 9 to 14) (size 15 to 20)
#    0.000    1.250    2.500    1.875    3.500    9.500 
#    0.000    2.500    0.000    0.000    0.000    0.000 
#    0.000    0.000    0.000    0.000    0.000    0.000 
#
# Total GULP energy -89504.102183 kJ/mol
# GULP energy per Si atom -5594.006386 kJ/mol
# Density = 2.245867 g / cm^3
# Si number density = 22.509907 Si / 1000 Ang^3
#
#
#
# Elastic Constant Matrix: (Units=GPa)
#
#
# Indices 1 2 3 4 5 6 
#
# 1 83.2018 42.6474 26.0749 -7.3658 -3.9994 2.5796
# 2 42.6474 79.3328 48.8328 -9.4023 0.6807 -6.9759
# 3 26.0749 48.8328 87.3764 -10.6899 -0.8563 0.5861
# 4 -7.3658 -9.4023 -10.6899 40.3463 3.6319 6.0992
# 5 -3.9994 0.6807 -0.8563 3.6319 39.9562 6.0210
# 6 2.5796 -6.9759 0.5861 6.0992 6.0210 29.5075
#
#
#
# Elastic Compliance Matrix: (Units=1/GPa)
#
#
# Indices 1 2 3 4 5 6 
#
# 1 0.017323 -0.009962 0.000637 0.001496 0.002490 -0.004699
# 2 -0.009962 0.025753 -0.011471 0.000234 -0.002867 0.007724
# 3 0.000637 -0.011471 0.018034 0.002721 0.000984 -0.003889
# 4 0.001496 0.000234 0.002721 0.026774 -0.001420 -0.005374
# 5 0.002490 -0.002867 0.000984 -0.001420 0.026380 -0.006004
# 6 -0.004699 0.007724 -0.003889 -0.005374 -0.006004 0.038540
#
#
# Mechanical properties :
#
#
# Convention : Reuss Voigt Hill
#
# Bulk Modulus (GPa) = 51.23469 53.89123 52.56296
# Shear Modulus (GPa) = 24.88757 30.78574 27.83666
#
# Velocity S-wave (km/s) = 3.32870 3.70219 3.52040
# Velocity P-wave (km/s) = 6.13058 6.50139 6.31871
#
# Compressibility (1/GPa) = 0.01951802
#
# Stress axis : x y z
#
# Youngs Moduli (GPa) = 57.72513 38.83056 55.44991
#
# Poissons Ratio (x) = 0.38683 -0.03531
# Poissons Ratio (y) = 0.57505 0.63608
# Poissons Ratio (z) = -0.03676 0.44543
#
# Static dielectric constant tensor:
#      x y z
#    x 1.912010 -0.055700 0.002520 
#    y -0.055700 1.839650 0.050480 
#    z 0.002520 0.050480 1.833170 
# 
# From -- ./inp_files/367493.got.cif
#   From: 2010.05.17/outbox.cif.g08.bks.cpg/sg2_184_cif.got.tgz:367493.got - 2010.06.03 11:33:40.
