data_PCOD9011223
_publ_section_title
;
Structure prediction by ZEFSAII (Michael W. Deem and Ramdas Pophale) SiO2 
 PCOD9011223
Probable space group: P -1
;
_chemical_formula_sum "Si O2"
_cell_formula_units_Z 15
_cell_length_a 11.213997
_cell_length_b 7.539022
_cell_length_c 12.739440
_cell_angle_alpha 143.699085
_cell_angle_beta 71.226723
_cell_angle_gamma 105.138830
_cell_volume 603.701670
_symmetry_space_group_name_H-M "P -1"
_symmetry_group_IT_number 2
_symmetry_cell_setting 'triclinic'
loop_
_space_group_symop_operation_xyz
x,y,z
-x,-y,-z
loop_
_atom_site_type_symbol
_atom_site_label
_atom_site_fract_x
_atom_site_fract_y
_atom_site_fract_z
Si Si1 0.752792 0.398101 0.132035
Si Si2 0.672240 0.661243 0.990250
Si Si3 0.586019 0.029013 0.765932
Si Si4 0.788802 0.981609 0.270512
Si Si5 0.766118 0.413637 0.643753
Si Si6 0.081862 0.083582 0.265231
Si Si7 0.200421 0.171920 0.503788
Si Si8 0.500000 0.000000 0.000000
O O1 0.731424 0.699604 0.214439
O O2 0.821453 0.533712 0.280936
O O3 0.620696 0.230731 0.108184
O O4 0.847554 0.192570 0.941230
O O5 0.671520 0.330482 0.880084
O O6 0.669539 0.596063 0.834787
O O7 0.550399 0.833099 0.148623
O O8 0.780580 0.879114 0.103120
O O9 0.650957 0.816530 0.563830
O O10 0.576693 0.912708 0.829448
O O11 0.719826 0.266772 0.477710
O O12 0.934246 0.027295 0.277290
O O13 0.876366 0.635924 0.684424
O O14 0.813053 0.131896 0.567316
O O15 0.127530 0.142278 0.400167
#
# Coordination Sequence:
#
# PCOD9011223 Si02
#       8
#     2   2   2   2   2   2   2   1
#     4  11  24  42  69 104 136 185 225 282 348 403
#     4  10  21  43  63  95 138 177 221 280 340 395
#     4  10  21  40  65  94 138 175 220 285 330 404
#     4  11  24  45  70 100 140 183 227 280 347 405
#     4  10  24  43  67 101 135 182 228 278 338 405
#     4  12  24  45  73 103 139 179 232 283 336 414
#     4  10  24  47  66 103 143 176 229 282 346 405
#     4  12  20  40  66  96 132 170 230 268 334 410
#
# _framework density 24.846709000000001
#
# number of rings (size 3 to 8) (size 9 to 14) (size 15 to 20)
#    0.000    1.333    2.667    2.400    0.000    6.400 
#    4.800    4.000    0.000    0.000    0.000    0.000 
#    0.000    0.000    0.000    0.000    0.000    0.000 
#
# Total GULP energy -83566.835594 kJ/mol
# GULP energy per Si atom -5571.122373 kJ/mol
# Density = 2.479016 g / cm^3
# Si number density = 24.846709 Si / 1000 Ang^3
#
#
#
# Elastic Constant Matrix: (Units=GPa)
#
#
# Indices 1 2 3 4 5 6 
#
# 1 41.3744 -7.0761 29.7357 0.9867 10.3917 3.6789
# 2 -7.0761 102.3076 14.3685 5.3368 -2.0960 -4.5783
# 3 29.7357 14.3685 152.9151 -12.2544 21.3270 -3.5195
# 4 0.9867 5.3368 -12.2544 38.8228 0.2456 0.5353
# 5 10.3917 -2.0960 21.3270 0.2456 32.5270 0.0228
# 6 3.6789 -4.5783 -3.5195 0.5353 0.0228 24.7293
#
#
#
# Elastic Compliance Matrix: (Units=1/GPa)
#
#
# Indices 1 2 3 4 5 6 
#
# 1 0.030747 0.002751 -0.005764 -0.002876 -0.005841 -0.004818
# 2 0.002751 0.010403 -0.001786 -0.002088 0.000977 0.001307
# 3 -0.005764 -0.001786 0.008674 0.003132 -0.003986 0.001697
# 4 -0.002876 -0.002088 0.003132 0.027117 -0.001474 -0.000099
# 5 -0.005841 0.000977 -0.003986 -0.001474 0.035297 0.000482
# 6 -0.004818 0.001307 0.001697 -0.000099 0.000482 0.041640
#
#
# Mechanical properties :
#
#
# Convention : Reuss Voigt Hill
#
# Bulk Modulus (GPa) = 24.85988 41.18369 33.02178
# Shear Modulus (GPa) = 28.26696 36.52043 32.39370
#
# Velocity S-wave (km/s) = 3.37657 3.83800 3.61465
# Velocity P-wave (km/s) = 5.02282 6.02091 5.54437
#
# Compressibility (1/GPa) = 0.04022545
#
# Stress axis : x y z
#
# Youngs Moduli (GPa) = 32.52381 96.12641 115.28398
#
# Poissons Ratio (x) = -0.26443 0.66451
# Poissons Ratio (y) = -0.08947 0.20590
# Poissons Ratio (z) = 0.18747 0.17168
#
# Static dielectric constant tensor:
#      x y z
#    x 2.088180 -0.046860 -0.077830 
#    y -0.046860 1.930770 -0.069210 
#    z -0.077830 -0.069210 2.188140 
# 
# From -- ./inp_files/274422.got.cif
#   From: 2010.05.17/outbox.cif.g08.bks.cpg/sg2_138_cif.got.tgz:274422.got - 2010.06.03 11:33:40.
