data_PCOD9011065
_publ_section_title
;
Structure prediction by ZEFSAII (Michael W. Deem and Ramdas Pophale) SiO2 
 PCOD9011065
Probable space group: P -1
;
_chemical_formula_sum "Si O2"
_cell_formula_units_Z 16
_cell_length_a 11.928458
_cell_length_b 24.661413
_cell_length_c 9.896429
_cell_angle_alpha 131.005583
_cell_angle_beta 129.246810
_cell_angle_gamma 19.990217
_cell_volume 749.598117
_symmetry_space_group_name_H-M "P -1"
_symmetry_group_IT_number 2
_symmetry_cell_setting 'triclinic'
loop_
_space_group_symop_operation_xyz
x,y,z
-x,-y,-z
loop_
_atom_site_type_symbol
_atom_site_label
_atom_site_fract_x
_atom_site_fract_y
_atom_site_fract_z
Si Si1 0.737506 0.333461 0.339174
Si Si2 0.838511 0.275194 0.799931
Si Si3 0.743883 0.579208 0.833255
Si Si4 0.819138 0.928286 0.527952
Si Si5 0.820644 0.088189 0.151725
Si Si6 0.724059 0.733325 0.442989
Si Si7 0.116731 0.647633 0.787979
Si Si8 0.148915 0.882504 0.305578
O O1 0.500000 0.500000 0.500000
O O2 0.524433 0.355036 0.198908
O O3 0.852095 0.310647 0.244432
O O4 0.051690 0.174124 0.412884
O O5 0.477989 0.451278 0.752580
O O6 0.814497 0.211561 0.758043
O O7 0.094779 0.153540 0.674792
O O8 0.936898 0.291361 0.009617
O O9 0.556889 0.728716 0.865364
O O10 0.942673 0.441426 0.656206
O O11 0.000000 0.500000 0.000000
O O12 0.053406 0.894200 0.654785
O O13 0.465312 0.123549 0.560088
O O14 0.920628 0.983695 0.163857
O O15 0.000000 0.000000 0.000000
O O16 0.487308 0.770523 0.338474
O O17 0.828181 0.722385 0.645847
O O18 0.000000 0.000000 0.500000
#
# Coordination Sequence:
#
# PCOD9011065 Si02
#       8
#     2   2   2   2   2   2   2   2
#     4  11  21  43  68  87 126 174 210 255 336 381
#     4  11  23  44  64  90 134 173 216 257 330 391
#     4  11  23  40  64  99 132 157 215 276 315 383
#     4  10  21  40  65  89 129 167 209 270 318 386
#     4  10  21  40  65  93 129 166 205 262 332 379
#     4  11  23  41  63  97 128 164 220 273 317 376
#     4  11  25  42  65  95 127 176 215 265 318 391
#     4  11  23  43  67  93 125 177 212 263 334 381
#
# _framework density 21.344771000000001
#
# number of rings (size 3 to 8) (size 9 to 14) (size 15 to 20)
#    0.000    1.250    5.000    2.250    5.250    1.500 
#    0.000    0.000    0.000    0.000    0.000    0.000 
#    0.000    0.000    0.000    0.000    0.000    0.000 
#
# Total GULP energy -89405.275991 kJ/mol
# GULP energy per Si atom -5587.829749 kJ/mol
# Density = 2.129619 g / cm^3
# Si number density = 21.344771 Si / 1000 Ang^3
#
#
#
# Elastic Constant Matrix: (Units=GPa)
#
#
# Indices 1 2 3 4 5 6 
#
# 1 62.1276 27.9181 2.5471 -15.8205 -8.6430 23.1432
# 2 27.9181 130.5116 43.7681 -16.8884 -15.2193 30.7705
# 3 2.5471 43.7681 84.7306 -15.0198 -7.5042 9.4290
# 4 -15.8205 -16.8884 -15.0198 42.7230 -3.1655 -6.0953
# 5 -8.6430 -15.2193 -7.5042 -3.1655 36.9670 -8.5848
# 6 23.1432 30.7705 9.4290 -6.0953 -8.5848 35.0996
#
#
#
# Elastic Compliance Matrix: (Units=1/GPa)
#
#
# Indices 1 2 3 4 5 6 
#
# 1 0.024039 -0.001810 0.003314 0.007728 0.003183 -0.013034
# 2 -0.001810 0.011737 -0.004800 0.001411 0.001908 -0.007095
# 3 0.003314 -0.004800 0.015297 0.004762 0.002141 -0.000737
# 4 0.007728 0.001411 0.004762 0.028727 0.005519 -0.001273
# 5 0.003183 0.001908 0.002141 0.005519 0.030430 0.004054
# 6 -0.013034 -0.007095 -0.000737 -0.001273 0.004054 0.044273
#
#
# Mechanical properties :
#
#
# Convention : Reuss Voigt Hill
#
# Bulk Modulus (GPa) = 22.48018 47.31516 34.89767
# Shear Modulus (GPa) = 28.42195 36.50035 32.46115
#
# Velocity S-wave (km/s) = 3.65302 4.13975 3.90398
# Velocity P-wave (km/s) = 5.32424 6.71306 6.05858
#
# Compressibility (1/GPa) = 0.04448364
#
# Stress axis : x y z
#
# Youngs Moduli (GPa) = 41.59867 85.20298 65.37066
#
# Poissons Ratio (x) = 0.15418 -0.21666
# Poissons Ratio (y) = 0.07528 0.31375
# Poissons Ratio (z) = -0.13787 0.40894
#
# Static dielectric constant tensor:
#      x y z
#    x 1.790530 0.001830 0.005960 
#    y 0.001830 1.802990 0.009740 
#    z 0.005960 0.009740 1.791340 
# 
# From -- ./inp_files/285187.got.cif
#   From: 2010.05.17/outbox.cif.g08.bks.cpg/sg2_143_cif.got.tgz:285187.got - 2010.06.03 11:33:40.
