data_PCOD9011500
_publ_section_title
;
Structure prediction by ZEFSAII (Michael W. Deem and Ramdas Pophale) SiO2 
 PCOD9011500
Probable space group: P -1
;
_chemical_formula_sum "Si O2"
_cell_formula_units_Z 16
_cell_length_a 13.846478
_cell_length_b 14.654384
_cell_length_c 8.721025
_cell_angle_alpha 150.216373
_cell_angle_beta 58.858326
_cell_angle_gamma 117.959776
_cell_volume 751.498895
_symmetry_space_group_name_H-M "P -1"
_symmetry_group_IT_number 2
_symmetry_cell_setting 'triclinic'
loop_
_space_group_symop_operation_xyz
x,y,z
-x,-y,-z
loop_
_atom_site_type_symbol
_atom_site_label
_atom_site_fract_x
_atom_site_fract_y
_atom_site_fract_z
Si Si1 0.472651 0.453546 0.132536
Si Si2 0.541490 0.142521 0.801737
Si Si3 0.231844 0.231013 0.022341
Si Si4 0.069124 0.833932 0.266197
Si Si5 0.274187 0.057050 0.433646
Si Si6 0.448207 0.186249 0.254599
Si Si7 0.100168 0.885670 0.679311
Si Si8 0.016788 0.453321 0.593936
O O1 0.353910 0.336664 0.076675
O O2 0.474799 0.642946 0.499135
O O3 0.500000 0.500000 0.000000
O O4 0.564786 0.329905 0.961049
O O5 0.636512 0.045283 0.680926
O O6 0.500000 0.000000 0.500000
O O7 0.448519 0.184322 0.068902
O O8 0.136122 0.351558 0.351458
O O9 0.210525 0.187559 0.794938
O O10 0.210701 0.023702 0.806872
O O11 0.195235 0.892546 0.191613
O O12 0.075805 0.847104 0.463837
O O13 0.025992 0.636152 0.954732
O O14 0.000000 0.000000 0.500000
O O15 0.330767 0.180008 0.433038
O O16 0.500000 0.000000 0.000000
O O17 0.086178 0.687937 0.480412
O O18 0.000000 0.000000 0.000000
O O19 0.000000 0.500000 0.500000
#
# Coordination Sequence:
#
# PCOD9011500 Si02
#       8
#     2   2   2   2   2   2   2   2
#     4  12  22  42  67  97 134 175 218 269 323 390
#     4  11  22  42  65  94 133 175 217 268 321 387
#     4  10  21  40  66  93 131 168 219 262 332 383
#     4  11  23  43  70  96 135 167 219 275 327 392
#     4  10  21  44  62  97 133 173 215 270 327 389
#     4  10  22  40  64  93 135 169 219 270 322 385
#     4   9  20  42  66  93 133 163 214 275 322 391
#     4  11  23  43  68  99 129 171 219 273 337 391
#
# _framework density 21.290782
#
# number of rings (size 3 to 8) (size 9 to 14) (size 15 to 20)
#    0.000    1.500    2.500    3.750    3.500    0.000 
#   11.250    0.000    0.000    0.000    0.000    0.000 
#    0.000    0.000    0.000    0.000    0.000    0.000 
#
# Total GULP energy -89217.350738 kJ/mol
# GULP energy per Si atom -5576.084421 kJ/mol
# Density = 2.124232 g / cm^3
# Si number density = 21.290782 Si / 1000 Ang^3
#
#
#
# Elastic Constant Matrix: (Units=GPa)
#
#
# Indices 1 2 3 4 5 6 
#
# 1 66.2055 45.4920 22.6687 16.6735 15.8063 0.7491
# 2 45.4920 162.8134 54.7550 16.5482 23.5058 2.9121
# 3 22.6687 54.7550 140.5743 22.6075 26.3435 2.3108
# 4 16.6735 16.5482 22.6075 44.0883 6.3190 7.0015
# 5 15.8063 23.5058 26.3435 6.3190 33.3481 6.2619
# 6 0.7491 2.9121 2.3108 7.0015 6.2619 43.9203
#
#
#
# Elastic Compliance Matrix: (Units=1/GPa)
#
#
# Indices 1 2 3 4 5 6 
#
# 1 0.021049 -0.004562 0.000491 -0.005867 -0.006368 0.001761
# 2 -0.004562 0.008446 -0.002161 -0.000030 -0.002065 -0.000069
# 3 0.000491 -0.002161 0.009512 -0.003593 -0.005735 0.001025
# 4 -0.005867 -0.000030 -0.003593 0.027244 0.001272 -0.004233
# 5 -0.006368 -0.002065 -0.005735 0.001272 0.039749 -0.005323
# 6 0.001761 -0.000069 0.001025 -0.004233 -0.005323 0.024123
#
#
# Mechanical properties :
#
#
# Convention : Reuss Voigt Hill
#
# Bulk Modulus (GPa) = 37.67722 68.38051 53.02887
# Shear Modulus (GPa) = 33.01727 40.71651 36.86689
#
# Velocity S-wave (km/s) = 3.94226 4.37784 4.16575
# Velocity P-wave (km/s) = 6.20136 7.59876 6.93534
#
# Compressibility (1/GPa) = 0.02654124
#
# Stress axis : x y z
#
# Youngs Moduli (GPa) = 47.50769 118.40003 105.12993
#
# Poissons Ratio (x) = 0.54018 -0.05157
# Poissons Ratio (y) = 0.21674 0.22721
# Poissons Ratio (z) = -0.02330 0.25589
#
# Static dielectric constant tensor:
#      x y z
#    x 1.845950 0.049410 -0.050290 
#    y 0.049410 1.830190 -0.013930 
#    z -0.050290 -0.013930 1.797360 
# 
# From -- ./inp_files/314334.got.cif
#   From: 2010.05.17/outbox.cif.g08.bks.cpg/sg2_158_cif.got.tgz:314334.got - 2010.06.03 11:33:40.
