data_PCOD9011191
_publ_section_title
;
Structure prediction by ZEFSAII (Michael W. Deem and Ramdas Pophale) SiO2 
 PCOD9011191
Probable space group: P -1
;
_chemical_formula_sum "Si O2"
_cell_formula_units_Z 16
_cell_length_a 7.986559
_cell_length_b 7.529646
_cell_length_c 12.808663
_cell_angle_alpha 89.986703
_cell_angle_beta 81.501557
_cell_angle_gamma 125.815730
_cell_volume 614.127780
_symmetry_space_group_name_H-M "P -1"
_symmetry_group_IT_number 2
_symmetry_cell_setting 'triclinic'
loop_
_space_group_symop_operation_xyz
x,y,z
-x,-y,-z
loop_
_atom_site_type_symbol
_atom_site_label
_atom_site_fract_x
_atom_site_fract_y
_atom_site_fract_z
Si Si1 0.832296 0.500425 0.587624
Si Si2 0.257833 0.801637 0.896188
Si Si3 0.145876 0.230881 0.578619
Si Si4 0.037971 0.857658 0.741831
Si Si5 0.617533 0.532392 0.879909
Si Si6 0.348512 0.568521 0.743717
Si Si7 0.289687 0.930047 0.339380
Si Si8 0.733335 0.187979 0.881041
O O1 0.750105 0.626367 0.536864
O O2 0.951418 0.640892 0.679657
O O3 0.664481 0.241318 0.626144
O O4 0.000000 0.500000 0.500000
O O5 0.208275 0.588003 0.841415
O O6 0.203264 0.912397 0.815417
O O7 0.504429 0.950672 0.898679
O O8 0.160053 0.780662 0.017486
O O9 0.233548 0.424956 0.654321
O O10 0.895890 0.096989 0.577078
O O11 0.141977 0.050608 0.647247
O O12 0.827661 0.774823 0.829035
O O13 0.463316 0.485540 0.798826
O O14 0.687666 0.370645 0.880239
O O15 0.500000 0.500000 0.000000
O O16 0.515569 0.819671 0.688444
O O17 0.182507 0.831760 0.235781
#
# Coordination Sequence:
#
# PCOD9011191 Si02
#       8
#     2   2   2   2   2   2   2   2
#     4  10  22  43  72 100 132 179 231 290 340 403
#     4  10  22  39  67  98 128 187 226 272 340 414
#     4  11  24  43  69  99 138 178 233 279 348 403
#     4  12  24  44  70  99 142 180 228 284 346 403
#     4  12  24  42  66 100 140 180 222 284 336 408
#     4  11  23  42  67 100 141 179 227 283 337 406
#     4  10  21  42  68  98 139 179 223 289 337 402
#     4  10  21  40  65  93 142 174 229 274 340 401
#
# _framework density 26.053213
#
# number of rings (size 3 to 8) (size 9 to 14) (size 15 to 20)
#    0.000    1.250    3.750    2.625    0.000    2.000 
#    0.000    3.750    0.000    0.000    0.000    0.000 
#    0.000    0.000    0.000    0.000    0.000    0.000 
#
# Total GULP energy -89394.808521 kJ/mol
# GULP energy per Si atom -5587.175533 kJ/mol
# Density = 2.599392 g / cm^3
# Si number density = 26.053213 Si / 1000 Ang^3
#
#
#
# Elastic Constant Matrix: (Units=GPa)
#
#
# Indices 1 2 3 4 5 6 
#
# 1 42.3485 9.2031 24.8212 -16.2613 9.2444 -9.1474
# 2 9.2031 136.3111 46.5384 -12.1043 9.6743 -17.8724
# 3 24.8212 46.5384 144.8352 -13.9982 16.6991 1.5987
# 4 -16.2613 -12.1043 -13.9982 39.5778 -8.6545 9.8345
# 5 9.2444 9.6743 16.6991 -8.6545 38.9887 -8.8605
# 6 -9.1474 -17.8724 1.5987 9.8345 -8.8605 34.7704
#
#
#
# Elastic Compliance Matrix: (Units=1/GPa)
#
#
# Indices 1 2 3 4 5 6 
#
# 1 0.031588 0.001256 -0.004672 0.009758 -0.002311 0.005822
# 2 0.001256 0.009022 -0.003083 0.001003 0.000110 0.004854
# 3 -0.004672 -0.003083 0.009143 0.000793 -0.002816 -0.004176
# 4 0.009758 0.001003 0.000793 0.031804 0.002978 -0.005191
# 5 -0.002311 0.000110 -0.002816 0.002978 0.029455 0.006242
# 6 0.005822 0.004854 -0.004176 -0.005191 0.006242 0.036037
#
#
# Mechanical properties :
#
#
# Convention : Reuss Voigt Hill
#
# Bulk Modulus (GPa) = 27.20725 53.84668 40.52696
# Shear Modulus (GPa) = 29.01934 38.86286 33.94110
#
# Velocity S-wave (km/s) = 3.34106 3.86641 3.61329
# Velocity P-wave (km/s) = 5.03480 6.37534 5.74431
#
# Compressibility (1/GPa) = 0.03675491
#
# Stress axis : x y z
#
# Youngs Moduli (GPa) = 31.65778 110.84323 109.36989
#
# Poissons Ratio (x) = -0.13924 0.51094
# Poissons Ratio (y) = -0.03977 0.33724
# Poissons Ratio (z) = 0.14789 0.34178
#
# Static dielectric constant tensor:
#      x y z
#    x 2.102970 -0.030860 -0.050950 
#    y -0.030860 2.074670 -0.065230 
#    z -0.050950 -0.065230 2.087760 
# 
# From -- ./inp_files/382351.got.cif
#   From: 2010.05.17/outbox.cif.g08.bks.cpg/sg2_192_cif.got.tgz:382351.got - 2010.06.03 11:33:40.
