data_PCOD9011519
_publ_section_title
;
Structure prediction by ZEFSAII (Michael W. Deem and Ramdas Pophale) SiO2 
 PCOD9011519
Probable space group: P -1
;
_chemical_formula_sum "Si O2"
_cell_formula_units_Z 12
_cell_length_a 14.755377
_cell_length_b 14.695303
_cell_length_c 7.937875
_cell_angle_alpha 104.480822
_cell_angle_beta 104.486136
_cell_angle_gamma 18.965076
_cell_volume 541.096601
_symmetry_space_group_name_H-M "P -1"
_symmetry_group_IT_number 2
_symmetry_cell_setting 'triclinic'
loop_
_space_group_symop_operation_xyz
x,y,z
-x,-y,-z
loop_
_atom_site_type_symbol
_atom_site_label
_atom_site_fract_x
_atom_site_fract_y
_atom_site_fract_z
Si Si1 0.244951 0.858492 0.674975
Si Si2 0.726930 0.984380 0.036821
Si Si3 0.038723 0.251895 0.338268
Si Si4 0.741367 0.365068 0.438628
Si Si5 0.589765 0.812649 0.516266
Si Si6 0.827431 0.574139 0.890167
O O1 0.444162 0.675064 0.518944
O O2 0.270160 0.727718 0.690451
O O3 0.324129 0.863142 0.846432
O O4 0.936707 0.167948 0.603127
O O5 0.959128 0.714577 0.135906
O O6 0.441356 0.195849 0.015189
O O7 0.847999 0.868758 0.852431
O O8 0.870108 0.321925 0.359688
O O9 0.829250 0.538411 0.387284
O O10 0.309346 0.016297 0.469086
O O11 0.711704 0.699622 0.707925
O O12 0.500000 0.000000 0.500000
O O13 0.000000 0.500000 0.000000
#
# Coordination Sequence:
#
# PCOD9011519 Si02
#       6
#     2   2   2   2   2   2
#     4  10  21  40  66  94 127 170 216 260 316 384
#     4  12  25  42  66  99 134 168 213 268 325 381
#     4  12  25  42  66  99 134 168 213 268 325 381
#     4  10  21  40  66  94 127 170 216 260 316 384
#     4  12  26  46  68  93 129 173 218 265 322 385
#     4  12  26  46  68  93 129 173 218 265 322 385
#
# _framework density 22.177185999999999
#
# number of rings (size 3 to 8) (size 9 to 14) (size 15 to 20)
#    0.000    0.667    0.000    9.000    0.000    3.333 
#    0.000    1.667    0.000   10.000    0.000    0.000 
#    0.000    0.000    0.000    0.000    0.000    0.000 
#
# Total GULP energy -67266.603895 kJ/mol
# GULP energy per Si atom -5605.550325 kJ/mol
# Density = 2.212671 g / cm^3
# Si number density = 22.177186 Si / 1000 Ang^3
#
#
#
# Elastic Constant Matrix: (Units=GPa)
#
#
# Indices 1 2 3 4 5 6 
#
# 1 169.7076 51.8924 87.3204 10.0237 21.6030 -1.4945
# 2 51.8924 112.0582 36.6263 0.7972 14.3147 -1.7655
# 3 87.3204 36.6263 130.1075 5.2814 9.6163 8.6581
# 4 10.0237 0.7972 5.2814 39.6820 2.5618 2.2878
# 5 21.6030 14.3147 9.6163 2.5618 22.1373 4.7934
# 6 -1.4945 -1.7655 8.6581 2.2878 4.7934 39.9768
#
#
#
# Elastic Compliance Matrix: (Units=1/GPa)
#
#
# Indices 1 2 3 4 5 6 
#
# 1 0.010677 -0.001994 -0.006209 -0.001539 -0.006809 0.002560
# 2 -0.001994 0.010975 -0.001507 0.000724 -0.004857 0.001277
# 3 -0.006209 -0.001507 0.012318 -0.000007 0.002388 -0.003252
# 4 -0.001539 0.000724 -0.000007 0.025758 -0.001663 -0.001299
# 5 -0.006809 -0.004857 0.002388 -0.001663 0.055754 -0.007576
# 6 0.002560 0.001277 -0.003252 -0.001299 -0.007576 0.026854
#
#
# Mechanical properties :
#
#
# Convention : Reuss Voigt Hill
#
# Bulk Modulus (GPa) = 68.72791 84.83906 76.78348
# Shear Modulus (GPa) = 30.01103 36.09484 33.05294
#
# Velocity S-wave (km/s) = 3.68263 4.03869 3.86476
# Velocity P-wave (km/s) = 7.00999 7.75153 7.39007
#
# Compressibility (1/GPa) = 0.01455013
#
# Stress axis : x y z
#
# Youngs Moduli (GPa) = 93.65672 91.11461 81.18409
#
# Poissons Ratio (x) = 0.18167 0.50410
# Poissons Ratio (y) = 0.18674 0.12233
# Poissons Ratio (z) = 0.58154 0.13730
#
# Static dielectric constant tensor:
#      x y z
#    x 1.825210 0.006270 0.018270 
#    y 0.006270 1.800770 0.002450 
#    z 0.018270 0.002450 1.778130 
# 
# From -- ./inp_files/310059.got.cif
#   From: 2010.05.17/outbox.cif.g08.bks.cpg/sg2_156_cif.got.tgz:310059.got - 2010.06.03 11:33:40.
