data_PCOD9011887
_publ_section_title
;
Structure prediction by ZEFSAII (Michael W. Deem and Ramdas Pophale) SiO2 
 PCOD9011887
Probable space group: P -1
;
_chemical_formula_sum "Si O2"
_cell_formula_units_Z 16
_cell_length_a 8.928748
_cell_length_b 10.946216
_cell_length_c 12.299613
_cell_angle_alpha 131.663875
_cell_angle_beta 122.969497
_cell_angle_gamma 64.648377
_cell_volume 749.185467
_symmetry_space_group_name_H-M "P -1"
_symmetry_group_IT_number 2
_symmetry_cell_setting 'triclinic'
loop_
_space_group_symop_operation_xyz
x,y,z
-x,-y,-z
loop_
_atom_site_type_symbol
_atom_site_label
_atom_site_fract_x
_atom_site_fract_y
_atom_site_fract_z
Si Si1 0.883600 0.311396 0.279466
Si Si2 0.074826 0.351045 0.604165
Si Si3 0.567368 0.807063 0.414697
Si Si4 0.651832 0.445293 0.942000
Si Si5 0.248601 0.125432 0.274337
Si Si6 0.939387 0.643009 0.148306
Si Si7 0.052841 0.834256 0.122035
Si Si8 0.328128 0.991517 0.001894
O O1 0.841835 0.489713 0.317544
O O2 0.733319 0.190863 0.132575
O O3 0.938016 0.314844 0.431571
O O4 0.064500 0.238281 0.244426
O O5 0.249029 0.218108 0.597480
O O6 0.004193 0.371734 0.711690
O O7 0.433477 0.676938 0.247742
O O8 0.629639 0.773817 0.543196
O O9 0.500000 0.000000 0.500000
O O10 0.829579 0.324944 0.978223
O O11 0.500000 0.500000 0.000000
O O12 0.728142 0.617818 0.044587
O O13 0.170215 0.981137 0.227584
O O14 0.355097 0.046408 0.168159
O O15 0.017561 0.796175 0.212196
O O16 0.000000 0.500000 0.000000
O O17 0.851692 0.890119 0.033718
O O18 0.500000 0.000000 0.000000
#
# Coordination Sequence:
#
# PCOD9011887 Si02
#       8
#     2   2   2   2   2   2   2   2
#     4   9  21  41  70  95 125 176 230 269 333 392
#     4  10  21  40  67  97 131 175 223 276 326 405
#     4  11  22  38  64  97 133 171 222 268 337 392
#     4  11  22  39  67  95 132 174 217 270 327 402
#     4  10  22  41  69  90 130 179 217 278 333 398
#     4  10  23  37  63 100 135 175 220 270 337 392
#     4  10  22  42  64  96 131 176 219 272 333 389
#     4  11  25  42  66  95 130 176 226 275 331 403
#
# _framework density 21.356528999999998
#
# number of rings (size 3 to 8) (size 9 to 14) (size 15 to 20)
#    0.000    1.750    2.500    1.500    7.000    3.000 
#    4.500    5.625    0.000    3.000    0.000    0.000 
#    0.000    0.000    0.000    0.000    0.000    0.000 
#
# Total GULP energy -89125.260497 kJ/mol
# GULP energy per Si atom -5570.328781 kJ/mol
# Density = 2.130792 g / cm^3
# Si number density = 21.356529 Si / 1000 Ang^3
#
#
#
# Elastic Constant Matrix: (Units=GPa)
#
#
# Indices 1 2 3 4 5 6 
#
# 1 135.4260 32.2713 54.2286 -4.3015 -19.0340 2.8736
# 2 32.2713 69.7714 11.0256 8.2544 -11.4737 -2.7884
# 3 54.2286 11.0256 131.1624 -3.0473 -20.1227 11.4212
# 4 -4.3015 8.2544 -3.0473 24.1168 1.0804 -8.7602
# 5 -19.0340 -11.4737 -20.1227 1.0804 30.7240 -9.2423
# 6 2.8736 -2.7884 11.4212 -8.7602 -9.2423 25.0178
#
#
#
# Elastic Compliance Matrix: (Units=1/GPa)
#
#
# Indices 1 2 3 4 5 6 
#
# 1 0.010255 -0.003982 -0.003550 0.003463 0.003131 0.002369
# 2 -0.003982 0.017776 0.000668 -0.006245 0.005414 0.001947
# 3 -0.003550 0.000668 0.009831 -0.000860 0.003626 -0.002967
# 4 0.003463 -0.006245 -0.000860 0.050546 0.002909 0.018072
# 5 0.003131 0.005414 0.003626 0.002909 0.043498 0.015677
# 6 0.002369 0.001947 -0.002967 0.018072 0.015677 0.053391
#
#
# Mechanical properties :
#
#
# Convention : Reuss Voigt Hill
#
# Bulk Modulus (GPa) = 41.43842 59.04564 50.24203
# Shear Modulus (GPa) = 24.14666 31.89402 28.02034
#
# Velocity S-wave (km/s) = 3.36615 3.86866 3.62612
# Velocity P-wave (km/s) = 5.87820 6.90384 6.41156
#
# Compressibility (1/GPa) = 0.02413219
#
# Stress axis : x y z
#
# Youngs Moduli (GPa) = 97.51783 56.25631 101.72353
#
# Poissons Ratio (x) = 0.22402 0.36116
# Poissons Ratio (y) = 0.38833 -0.06797
# Poissons Ratio (z) = 0.34622 -0.03759
#
# Static dielectric constant tensor:
#      x y z
#    x 1.904630 -0.017260 0.004060 
#    y -0.017260 1.941850 -0.011600 
#    z 0.004060 -0.011600 1.837670 
# 
# From -- ./inp_files/393195.got.cif
#   From: 2010.05.17/outbox.cif.g08.bks.cpg/sg2_197_cif.got.tgz:393195.got - 2010.06.03 11:33:40.
