data_PCOD9011120
_publ_section_title
;
Structure prediction by ZEFSAII (Michael W. Deem and Ramdas Pophale) SiO2 
 PCOD9011120
Probable space group: P -1
;
_chemical_formula_sum "Si O2"
_cell_formula_units_Z 14
_cell_length_a 21.139281
_cell_length_b 5.284890
_cell_length_c 5.389105
_cell_angle_alpha 95.829541
_cell_angle_beta 59.841364
_cell_angle_gamma 101.649598
_cell_volume 509.844160
_symmetry_space_group_name_H-M "P -1"
_symmetry_group_IT_number 2
_symmetry_cell_setting 'triclinic'
loop_
_space_group_symop_operation_xyz
x,y,z
-x,-y,-z
loop_
_atom_site_type_symbol
_atom_site_label
_atom_site_fract_x
_atom_site_fract_y
_atom_site_fract_z
Si Si1 0.949735 0.681754 0.239231
Si Si2 0.895463 0.004364 0.004811
Si Si3 0.297088 0.284516 0.458914
Si Si4 0.438770 0.671635 0.697840
Si Si5 0.395375 0.853908 0.301836
Si Si6 0.848297 0.258298 0.627763
Si Si7 0.268547 0.403174 0.027805
O O1 0.905154 0.535614 0.541578
O O2 0.893934 0.742738 0.141485
O O3 0.000000 0.500000 0.000000
O O4 0.013877 0.920875 0.201795
O O5 0.861437 0.165636 0.310567
O O6 0.868213 0.083665 0.796623
O O7 0.333271 0.589748 0.407791
O O8 0.248192 0.255120 0.798097
O O9 0.358081 0.100872 0.344289
O O10 0.254352 0.229462 0.281364
O O11 0.500000 0.500000 0.500000
O O12 0.431490 0.862871 0.503054
O O13 0.358035 0.485480 0.847548
O O14 0.446472 0.798893 0.966093
O O15 0.769655 0.348576 0.840854
#
# Coordination Sequence:
#
# PCOD9011120 Si02
#       7
#     2   2   2   2   2   2   2
#     4   9  21  40  64  92 128 163 211 260 318 383
#     4  10  22  39  64  93 124 169 209 260 317 392
#     4  10  21  42  64  91 128 170 215 268 333 389
#     4  10  21  41  65  94 127 171 218 272 330 390
#     4  10  21  40  65  92 124 166 217 272 330 394
#     4  11  22  41  61  92 129 164 217 260 327 382
#     4  10  22  41  61  91 129 166 215 274 322 395
#
# _framework density 27.459368000000001
#
# number of rings (size 3 to 8) (size 9 to 14) (size 15 to 20)
#    0.000    2.000    0.000    2.571    0.000    7.429 
#   15.429   17.143    0.000    0.000    0.000    0.000 
#    0.000    0.000    0.000    0.000    0.000    0.000 
#
# Total GULP energy -78396.921790 kJ/mol
# GULP energy per Si atom -5599.780128 kJ/mol
# Density = 2.739687 g / cm^3
# Si number density = 27.459368 Si / 1000 Ang^3
#
#
#
# Elastic Constant Matrix: (Units=GPa)
#
#
# Indices 1 2 3 4 5 6 
#
# 1 139.7399 43.1427 70.6891 -5.0643 26.3305 -40.6509
# 2 43.1427 136.1372 54.4569 5.8279 3.9371 -38.5308
# 3 70.6891 54.4569 199.5141 -3.1478 33.6479 -20.7455
# 4 -5.0643 5.8279 -3.1478 64.9555 -4.6812 -10.4533
# 5 26.3305 3.9371 33.6479 -4.6812 75.7316 -10.7947
# 6 -40.6509 -38.5308 -20.7455 -10.4533 -10.7947 53.8133
#
#
#
# Elastic Compliance Matrix: (Units=1/GPa)
#
#
# Indices 1 2 3 4 5 6 
#
# 1 0.011103 -0.000437 -0.002805 0.001796 -0.001476 0.007046
# 2 -0.000437 0.010126 -0.002199 0.000090 0.001519 0.006395
# 3 -0.002805 -0.002199 0.006811 -0.000091 -0.002159 -0.001518
# 4 0.001796 0.000090 -0.000091 0.016373 0.001106 0.004788
# 5 -0.001476 0.001519 -0.002159 0.001106 0.015003 0.002365
# 6 0.007046 0.006395 -0.001518 0.004788 0.002365 0.029303
#
#
# Mechanical properties :
#
#
# Convention : Reuss Voigt Hill
#
# Bulk Modulus (GPa) = 58.27953 90.21872 74.24913
# Shear Modulus (GPa) = 47.47487 59.37358 53.42423
#
# Velocity S-wave (km/s) = 4.16253 4.65503 4.41565
# Velocity P-wave (km/s) = 6.66125 7.86251 7.28668
#
# Compressibility (1/GPa) = 0.01715868
#
# Stress axis : x y z
#
# Youngs Moduli (GPa) = 90.06847 98.75933 146.82451
#
# Poissons Ratio (x) = 0.04311 0.41179
# Poissons Ratio (y) = 0.03932 0.32287
# Poissons Ratio (z) = 0.25261 0.21717
#
# Static dielectric constant tensor:
#      x y z
#    x 2.379550 0.217000 0.021140 
#    y 0.217000 2.177040 -0.052970 
#    z 0.021140 -0.052970 2.141080 
# 
# From -- ./inp_files/7702.got.cif
#   From: 2010.05.17/outbox.cif.g08.bks.cpg/sg2_4_cif.got.tgz:7702.got - 2010.06.03 11:33:40.
