data_PCOD9011178
_publ_section_title
;
Structure prediction by ZEFSAII (Michael W. Deem and Ramdas Pophale) SiO2 
 PCOD9011178
Probable space group: P -1
;
_chemical_formula_sum "Si O2"
_cell_formula_units_Z 16
_cell_length_a 12.614655
_cell_length_b 8.152123
_cell_length_c 12.344543
_cell_angle_alpha 108.333300
_cell_angle_beta 110.871530
_cell_angle_gamma 32.563801
_cell_volume 638.182628
_symmetry_space_group_name_H-M "P -1"
_symmetry_group_IT_number 2
_symmetry_cell_setting 'triclinic'
loop_
_space_group_symop_operation_xyz
x,y,z
-x,-y,-z
loop_
_atom_site_type_symbol
_atom_site_label
_atom_site_fract_x
_atom_site_fract_y
_atom_site_fract_z
Si Si1 0.048499 0.887114 0.870777
Si Si2 0.346005 0.506164 0.195784
Si Si3 0.956014 0.796430 0.425391
Si Si4 0.680396 0.469966 0.420801
Si Si5 0.415304 0.924474 0.610581
Si Si6 0.618957 0.026535 0.020351
Si Si7 0.996038 0.714403 0.168244
Si Si8 0.431018 0.278559 0.787407
O O1 0.222605 0.535818 0.834062
O O2 0.597917 0.100524 0.901933
O O3 0.828363 0.131709 0.791086
O O4 0.000000 0.000000 0.000000
O O5 0.480727 0.327998 0.313326
O O6 0.486157 0.326430 0.105688
O O7 0.210277 0.497455 0.149366
O O8 0.145692 0.602226 0.527046
O O9 0.803752 0.151341 0.443738
O O10 0.820290 0.809700 0.415525
O O11 0.019561 0.692110 0.301382
O O12 0.509458 0.749107 0.496287
O O13 0.593953 0.560605 0.288420
O O14 0.465025 0.053966 0.694147
O O15 0.848587 0.745815 0.086414
O O16 0.500000 0.000000 0.000000
O O17 0.879334 0.029052 0.145637
#
# Coordination Sequence:
#
# PCOD9011178 Si02
#       8
#     2   2   2   2   2   2   2   2
#     4  10  21  42  63  95 136 178 219 276 336 400
#     4  10  21  40  65  93 131 172 221 267 325 413
#     4  11  22  43  74  96 130 185 228 276 334 409
#     4  11  24  45  67  99 139 176 231 278 333 401
#     4  12  24  44  69 100 136 177 231 276 338 400
#     4  12  23  42  68 100 138 172 221 283 342 407
#     4  10  21  41  67  95 129 178 221 271 336 400
#     4  12  24  43  67 102 142 173 219 293 332 393
#
# _framework density 25.071193000000001
#
# number of rings (size 3 to 8) (size 9 to 14) (size 15 to 20)
#    0.750    0.250    6.250    0.750    1.750    1.500 
#    2.250    2.500    0.000    0.000    0.000    0.000 
#    0.000    0.000    0.000    0.000    0.000    0.000 
#
# Total GULP energy -89422.564900 kJ/mol
# GULP energy per Si atom -5588.910306 kJ/mol
# Density = 2.501413 g / cm^3
# Si number density = 25.071193 Si / 1000 Ang^3
#
#
#
# Elastic Constant Matrix: (Units=GPa)
#
#
# Indices 1 2 3 4 5 6 
#
# 1 64.3366 1.4336 21.8301 -3.7762 6.7383 -19.6666
# 2 1.4336 46.4488 26.5194 -4.9387 -16.4662 -3.4140
# 3 21.8301 26.5194 115.0283 -0.5814 -14.1864 -10.3281
# 4 -3.7762 -4.9387 -0.5814 41.8123 -17.5927 -1.9226
# 5 6.7383 -16.4662 -14.1864 -17.5927 41.3077 -7.2282
# 6 -19.6666 -3.4140 -10.3281 -1.9226 -7.2282 34.4443
#
#
#
# Elastic Compliance Matrix: (Units=1/GPa)
#
#
# Indices 1 2 3 4 5 6 
#
# 1 0.020118 0.002024 -0.003434 0.002116 -0.000901 0.010587
# 2 0.002024 0.031944 -0.005011 0.011222 0.016677 0.006945
# 3 -0.003434 -0.005011 0.010978 0.000494 0.002797 0.001449
# 4 0.002116 0.011222 0.000494 0.034464 0.020497 0.008694
# 5 -0.000901 0.016677 0.002797 0.020497 0.042812 0.012105
# 6 0.010587 0.006945 0.001449 0.008694 0.012105 0.039225
#
#
# Mechanical properties :
#
#
# Convention : Reuss Voigt Hill
#
# Bulk Modulus (GPa) = 19.92215 36.15331 28.03773
# Shear Modulus (GPa) = 23.91005 35.24823 29.57914
#
# Velocity S-wave (km/s) = 3.09153 3.75364 3.43856
# Velocity P-wave (km/s) = 4.55048 5.76524 5.19350
#
# Compressibility (1/GPa) = 0.05019538
#
# Stress axis : x y z
#
# Youngs Moduli (GPa) = 49.70613 31.30523 91.09008
#
# Poissons Ratio (x) = -0.06335 0.31285
# Poissons Ratio (y) = -0.10059 0.45649
# Poissons Ratio (z) = 0.17071 0.15688
#
# Static dielectric constant tensor:
#      x y z
#    x 2.021210 0.053360 0.048000 
#    y 0.053360 2.012540 0.006820 
#    z 0.048000 0.006820 1.969230 
# 
# From -- ./inp_files/528951.got.cif
#   From: 2010.05.17/outbox.cif.g08.bks.cpg/sg2_265_cif.got.tgz:528951.got - 2010.06.03 11:33:40.
