data_PCOD9011955
_publ_section_title
;
Structure prediction by ZEFSAII (Michael W. Deem and Ramdas Pophale) SiO2 
 PCOD9011955
Probable space group: P -1
;
_chemical_formula_sum "Si O2"
_cell_formula_units_Z 14
_cell_length_a 23.476733
_cell_length_b 5.055407
_cell_length_c 5.362282
_cell_angle_alpha 95.428364
_cell_angle_beta 98.539277
_cell_angle_gamma 53.085664
_cell_volume 503.186591
_symmetry_space_group_name_H-M "P -1"
_symmetry_group_IT_number 2
_symmetry_cell_setting 'triclinic'
loop_
_space_group_symop_operation_xyz
x,y,z
-x,-y,-z
loop_
_atom_site_type_symbol
_atom_site_label
_atom_site_fract_x
_atom_site_fract_y
_atom_site_fract_z
Si Si1 0.249996 0.301567 0.361933
Si Si2 0.565927 0.373435 0.212708
Si Si3 0.115881 0.872828 0.591635
Si Si4 0.184971 0.119253 0.934854
Si Si5 0.604960 0.804287 0.538837
Si Si6 0.933940 0.869340 0.923132
Si Si7 0.334969 0.675215 0.097256
O O1 0.187555 0.513820 0.538645
O O2 0.309438 0.364553 0.431592
O O3 0.207744 0.345969 0.078432
O O4 0.138733 0.119929 0.681258
O O5 0.571592 0.654885 0.348366
O O6 0.569055 0.160723 0.425867
O O7 0.500000 0.500000 0.000000
O O8 0.633962 0.184638 0.050844
O O9 0.078681 0.899882 0.830321
O O10 0.064530 0.002978 0.333062
O O11 0.138148 0.114690 0.125054
O O12 0.263020 0.766169 0.933598
O O13 0.604203 0.697506 0.813502
O O14 0.696952 0.097590 0.652963
O O15 0.000000 0.500000 0.000000
#
# Coordination Sequence:
#
# PCOD9011955 Si02
#       7
#     2   2   2   2   2   2   2
#     4  10  22  45  71 112 140 199 265 327 406 472
#     4  12  28  46  74 113 156 212 267 325 407 489
#     4  10  21  40  68 100 148 198 254 329 394 468
#     4   8  21  40  69 104 142 196 255 329 401 468
#     4  12  25  48  73 110 154 204 264 331 401 480
#     4  10  21  41  67 102 153 207 259 323 401 480
#     4  10  24  47  72 107 150 197 257 340 392 481
#
# _framework density 27.822680999999999
#
# number of rings (size 3 to 8) (size 9 to 14) (size 15 to 20)
#    1.714    0.000    1.429    2.571    2.000    3.429 
#    2.571    1.429    0.000    0.000    0.000    0.000 
#    0.000    0.000    0.000    0.000    0.000    0.000 
#
# Total GULP energy -78078.801965 kJ/mol
# GULP energy per Si atom -5577.057283 kJ/mol
# Density = 2.775935 g / cm^3
# Si number density = 27.822681 Si / 1000 Ang^3
#
#
#
# Elastic Constant Matrix: (Units=GPa)
#
#
# Indices 1 2 3 4 5 6 
#
# 1 117.2192 35.4867 40.0700 9.3838 41.1647 15.1415
# 2 35.4867 121.8504 33.3808 11.5423 -4.1672 16.2195
# 3 40.0700 33.3808 172.4078 5.4354 -2.6902 -6.3484
# 4 9.3838 11.5423 5.4354 40.0647 -2.1798 4.8477
# 5 41.1647 -4.1672 -2.6902 -2.1798 29.1263 5.4516
# 6 15.1415 16.2195 -6.3484 4.8477 5.4516 48.2353
#
#
#
# Elastic Compliance Matrix: (Units=1/GPa)
#
#
# Indices 1 2 3 4 5 6 
#
# 1 0.027414 -0.007076 -0.005521 -0.005607 -0.040344 -0.001829
# 2 -0.007076 0.011238 -0.000434 -0.000510 0.012079 -0.002929
# 3 -0.005521 -0.000434 0.007343 0.000638 0.008118 0.001864
# 4 -0.005607 -0.000510 0.000638 0.027120 0.010290 -0.001873
# 5 -0.040344 0.012079 0.008118 0.010290 0.094993 -0.002099
# 6 -0.001829 -0.002929 0.001864 -0.001873 -0.002099 0.022962
#
#
# Mechanical properties :
#
#
# Convention : Reuss Voigt Hill
#
# Bulk Modulus (GPa) = 50.17561 69.92807 60.05184
# Shear Modulus (GPa) = 22.34382 43.65458 32.99920
#
# Velocity S-wave (km/s) = 2.83694 3.96539 3.44765
# Velocity P-wave (km/s) = 5.36695 6.79366 6.12201
#
# Compressibility (1/GPa) = 0.01993000
#
# Stress axis : x y z
#
# Youngs Moduli (GPa) = 36.47824 88.98515 136.18877
#
# Poissons Ratio (x) = 0.62968 0.75194
# Poissons Ratio (y) = 0.25813 0.05917
# Poissons Ratio (z) = 0.20141 0.03866
#
# Static dielectric constant tensor:
#      x y z
#    x 2.159630 -0.037590 -0.072770 
#    y -0.037590 2.424590 -0.086360 
#    z -0.072770 -0.086360 2.254870 
# 
# From -- ./inp_files/121104.got.cif
#   From: 2010.05.17/outbox.cif.g08.bks.cpg/sg2_61_cif.got.tgz:121104.got - 2010.06.03 11:33:40.
