data_PCOD9011404
_publ_section_title
;
Structure prediction by ZEFSAII (Michael W. Deem and Ramdas Pophale) SiO2 
 PCOD9011404
Probable space group: P -1
;
_chemical_formula_sum "Si O2"
_cell_formula_units_Z 16
_cell_length_a 11.490132
_cell_length_b 9.295261
_cell_length_c 24.721326
_cell_angle_alpha 36.221992
_cell_angle_beta 37.002741
_cell_angle_gamma 61.228024
_cell_volume 834.670982
_symmetry_space_group_name_H-M "P -1"
_symmetry_group_IT_number 2
_symmetry_cell_setting 'triclinic'
loop_
_space_group_symop_operation_xyz
x,y,z
-x,-y,-z
loop_
_atom_site_type_symbol
_atom_site_label
_atom_site_fract_x
_atom_site_fract_y
_atom_site_fract_z
Si Si1 0.064643 0.200980 0.964992
Si Si2 0.745227 0.359977 0.442488
Si Si3 0.689526 0.009238 0.466065
Si Si4 0.787427 0.332337 0.783453
Si Si5 0.967043 0.252634 0.195529
Si Si6 0.490314 0.534857 0.231547
Si Si7 0.738430 0.940672 0.264116
Si Si8 0.372297 0.301571 0.979696
O O1 0.083762 0.494309 0.852835
O O2 0.300496 0.241725 0.883673
O O3 0.000000 0.000000 0.000000
O O4 0.890572 0.097401 0.109837
O O5 0.739248 0.648113 0.354525
O O6 0.517476 0.139622 0.619704
O O7 0.969758 0.437524 0.366748
O O8 0.753567 0.249628 0.413166
O O9 0.612000 0.734942 0.612977
O O10 0.500000 0.000000 0.500000
O O11 0.879638 0.057113 0.338927
O O12 0.686489 0.373969 0.751968
O O13 0.617068 0.348398 0.885453
O O14 0.755904 0.022867 0.890103
O O15 0.840888 0.102278 0.232927
O O16 0.221567 0.350351 0.062702
O O17 0.596482 0.512984 0.141341
#
# Coordination Sequence:
#
# PCOD9011404 Si02
#       8
#     2   2   2   2   2   2   2   2
#     4  12  24  38  64  97 128 162 215 271 322 376
#     4  11  22  38  63  94 128 164 216 266 322 375
#     4  12  24  38  57  96 139 165 200 273 332 372
#     4   9  19  42  69  88 122 168 227 258 315 388
#     4  12  22  40  64  91 131 164 213 267 320 375
#     4  10  21  40  66  89 123 175 209 252 329 377
#     4  11  22  36  66  95 121 168 220 266 317 377
#     4   9  20  40  69  88 114 172 220 258 308 382
#
# _framework density 19.169229999999999
#
# number of rings (size 3 to 8) (size 9 to 14) (size 15 to 20)
#    0.750    0.500    5.000    1.125    1.750    0.500 
#    0.000    1.250    0.000    0.000    0.000    0.000 
#    0.000    0.000    0.000    0.000    0.000    0.000 
#
# Total GULP energy -89172.760168 kJ/mol
# GULP energy per Si atom -5573.297510 kJ/mol
# Density = 1.912560 g / cm^3
# Si number density = 19.169230 Si / 1000 Ang^3
#
#
#
# Elastic Constant Matrix: (Units=GPa)
#
#
# Indices 1 2 3 4 5 6 
#
# 1 95.8995 44.5241 58.4080 6.9143 -12.0245 -5.8419
# 2 44.5241 70.5689 45.3114 4.4425 -3.6648 20.5780
# 3 58.4080 45.3114 121.4453 13.3058 6.5272 4.0517
# 4 6.9143 4.4425 13.3058 31.4491 -1.9466 -0.7488
# 5 -12.0245 -3.6648 6.5272 -1.9466 48.5586 5.0879
# 6 -5.8419 20.5780 4.0517 -0.7488 5.0879 22.1700
#
#
#
# Elastic Compliance Matrix: (Units=1/GPa)
#
#
# Indices 1 2 3 4 5 6 
#
# 1 0.024364 -0.018517 -0.005819 0.000474 0.002920 0.024016
# 2 -0.018517 0.042720 -0.005731 -0.000346 0.004050 -0.044425
# 3 -0.005819 -0.005731 0.013753 -0.003934 -0.004098 0.002080
# 4 0.000474 -0.000346 -0.003934 0.033561 0.001767 0.001893
# 5 0.002920 0.004050 -0.004098 0.001767 0.023026 -0.007465
# 6 0.024016 -0.044425 0.002080 0.001893 -0.007465 0.094067
#
#
# Mechanical properties :
#
#
# Convention : Reuss Voigt Hill
#
# Bulk Modulus (GPa) = 48.30289 64.93343 56.61816
# Shear Modulus (GPa) = 16.74904 29.74689 23.24797
#
# Velocity S-wave (km/s) = 2.95913 3.94357 3.48627
# Velocity P-wave (km/s) = 6.07685 7.39479 6.76798
#
# Compressibility (1/GPa) = 0.02070270
#
# Stress axis : x y z
#
# Youngs Moduli (GPa) = 41.04467 23.40837 72.71276
#
# Poissons Ratio (x) = 0.43345 0.42311
# Poissons Ratio (y) = 0.76002 0.41671
# Poissons Ratio (z) = 0.23883 0.13415
#
# Static dielectric constant tensor:
#      x y z
#    x 1.682560 -0.029070 -0.011740 
#    y -0.029070 1.669280 0.027120 
#    z -0.011740 0.027120 1.712510 
# 
# From -- ./inp_files/609990.got.cif
#   From: 2010.05.17/outbox.cif.g08.bks.cpg/sg2_305_cif.got.tgz:609990.got - 2010.06.03 11:33:40.
