data_PCOD9011468
_publ_section_title
;
Structure prediction by ZEFSAII (Michael W. Deem and Ramdas Pophale) SiO2 
 PCOD9011468
Probable space group: P -1
;
_chemical_formula_sum "Si O2"
_cell_formula_units_Z 14
_cell_length_a 12.944372
_cell_length_b 13.151517
_cell_length_c 22.281227
_cell_angle_alpha 35.082400
_cell_angle_beta 19.897241
_cell_angle_gamma 46.294878
_cell_volume 679.548705
_symmetry_space_group_name_H-M "P -1"
_symmetry_group_IT_number 2
_symmetry_cell_setting 'triclinic'
loop_
_space_group_symop_operation_xyz
x,y,z
-x,-y,-z
loop_
_atom_site_type_symbol
_atom_site_label
_atom_site_fract_x
_atom_site_fract_y
_atom_site_fract_z
Si Si1 0.831972 0.842605 0.293538
Si Si2 0.538058 0.741101 0.695102
Si Si3 0.751585 0.307700 0.930979
Si Si4 0.526098 0.016681 0.669136
Si Si5 0.826204 0.271692 0.213997
Si Si6 0.824410 0.596319 0.859121
Si Si7 0.854548 0.026001 0.817205
O O1 0.779279 0.963803 0.208358
O O2 0.474671 0.764176 0.558795
O O3 0.095121 0.948029 0.151177
O O4 0.946243 0.683996 0.279353
O O5 0.331106 0.805217 0.728546
O O6 0.630735 0.878499 0.635842
O O7 0.311893 0.530586 0.945186
O O8 0.873450 0.782431 0.455641
O O9 0.467914 0.343000 0.032462
O O10 0.586236 0.094841 0.153371
O O11 0.862583 0.457716 0.853093
O O12 0.832312 0.221213 0.408870
O O13 0.046306 0.153300 0.167594
O O14 0.000000 0.500000 0.000000
O O15 0.500000 0.000000 0.000000
#
# Coordination Sequence:
#
# PCOD9011468 Si02
#       7
#     2   2   2   2   2   2   2
#     4  11  22  41  64  91 133 166 217 263 316 393
#     4  10  21  40  66  92 127 168 213 259 322 391
#     4  10  24  41  61  99 131 167 217 267 314 386
#     4  11  20  41  68  88 129 175 209 261 321 383
#     4  11  22  42  66  97 127 172 218 264 328 388
#     4  10  23  42  65  94 134 165 215 269 323 374
#     4  11  24  42  66  98 129 170 215 270 333 384
#
# _framework density 20.601908999999999
#
# number of rings (size 3 to 8) (size 9 to 14) (size 15 to 20)
#    0.000    1.429    2.857    2.571    2.000    1.714 
#    2.571    2.857    0.000    0.000    0.000    0.000 
#    0.000    0.000    0.000    0.000    0.000    0.000 
#
# Total GULP energy -78171.938709 kJ/mol
# GULP energy per Si atom -5583.709908 kJ/mol
# Density = 2.055502 g / cm^3
# Si number density = 20.601909 Si / 1000 Ang^3
#
#
#
# Elastic Constant Matrix: (Units=GPa)
#
#
# Indices 1 2 3 4 5 6 
#
# 1 95.9056 42.5902 42.5420 11.0432 3.7537 -16.0797
# 2 42.5902 100.3757 58.0292 12.0942 6.8368 -5.6929
# 3 42.5420 58.0292 96.5274 -8.3809 -1.1048 -13.4665
# 4 11.0432 12.0942 -8.3809 36.5990 -2.6361 -2.5791
# 5 3.7537 6.8368 -1.1048 -2.6361 30.6551 -0.4308
# 6 -16.0797 -5.6929 -13.4665 -2.5791 -0.4308 26.4912
#
#
#
# Elastic Compliance Matrix: (Units=1/GPa)
#
#
# Indices 1 2 3 4 5 6 
#
# 1 0.015300 -0.002830 -0.004630 -0.004451 -0.001710 0.005864
# 2 -0.002830 0.019061 -0.011661 -0.008802 -0.005145 -0.004490
# 3 -0.004630 -0.011661 0.021353 0.010970 0.004975 0.006687
# 4 -0.004451 -0.008802 0.010970 0.034832 0.005962 0.004471
# 5 -0.001710 -0.005145 0.004975 0.005962 0.034691 0.001530
# 6 0.005864 -0.004490 0.006687 0.004471 0.001530 0.044202
#
#
# Mechanical properties :
#
#
# Convention : Reuss Voigt Hill
#
# Bulk Modulus (GPa) = 57.23418 64.34791 60.79105
# Shear Modulus (GPa) = 23.41855 28.72554 26.07205
#
# Velocity S-wave (km/s) = 3.37518 3.73810 3.56127
# Velocity P-wave (km/s) = 6.55976 7.06633 6.81775
#
# Compressibility (1/GPa) = 0.01747208
#
# Stress axis : x y z
#
# Youngs Moduli (GPa) = 65.35947 52.46196 46.83186
#
# Poissons Ratio (x) = 0.14847 0.21682
# Poissons Ratio (y) = 0.18497 0.54613
# Poissons Ratio (z) = 0.30260 0.61178
#
# Static dielectric constant tensor:
#      x y z
#    x 1.762850 0.018210 0.010190 
#    y 0.018210 1.757480 -0.015010 
#    z 0.010190 -0.015010 1.733900 
# 
# From -- ./inp_files/201306.got.cif
#   From: 2010.05.17/outbox.cif.g08.bks.cpg/sg2_101_cif.got.tgz:201306.got - 2010.06.03 11:33:40.
