data_PCOD9011764
_publ_section_title
;
Structure prediction by ZEFSAII (Michael W. Deem and Ramdas Pophale) SiO2 
 PCOD9011764
Probable space group: P -1
;
_chemical_formula_sum "Si O2"
_cell_formula_units_Z 16
_cell_length_a 10.598745
_cell_length_b 12.835647
_cell_length_c 9.609777
_cell_angle_alpha 129.019343
_cell_angle_beta 49.715895
_cell_angle_gamma 107.462795
_cell_volume 762.102626
_symmetry_space_group_name_H-M "P -1"
_symmetry_group_IT_number 2
_symmetry_cell_setting 'triclinic'
loop_
_space_group_symop_operation_xyz
x,y,z
-x,-y,-z
loop_
_atom_site_type_symbol
_atom_site_label
_atom_site_fract_x
_atom_site_fract_y
_atom_site_fract_z
Si Si1 0.853932 0.340700 0.235947
Si Si2 0.258271 0.399475 0.647056
Si Si3 0.433508 0.086319 0.486541
Si Si4 0.873146 0.407347 0.577273
Si Si5 0.013229 0.209645 0.557625
Si Si6 0.233431 0.378162 0.951364
Si Si7 0.595233 0.178926 0.192517
Si Si8 0.751317 0.051950 0.725532
O O1 0.770539 0.483043 0.346208
O O2 0.805470 0.343644 0.435720
O O3 0.772837 0.226596 0.122776
O O4 0.052666 0.333085 0.067160
O O5 0.115316 0.307387 0.651375
O O6 0.235602 0.454251 0.866139
O O7 0.439173 0.304575 0.418690
O O8 0.363807 0.238779 0.719707
O O9 0.570027 0.090786 0.271718
O O10 0.500000 0.000000 0.500000
O O11 0.294425 0.023058 0.444836
O O12 0.000000 0.500000 0.500000
O O13 0.966414 0.288486 0.512197
O O14 0.747595 0.515313 0.851003
O O15 0.846696 0.172809 0.714123
O O16 0.135332 0.062127 0.354140
O O17 0.595232 0.112243 0.985215
#
# Coordination Sequence:
#
# PCOD9011764 Si02
#       8
#     2   2   2   2   2   2   2   2
#     4  11  23  40  64  99 127 160 215 263 319 379
#     4  11  21  40  65  93 130 161 212 267 315 377
#     4  11  26  45  62  94 134 166 209 261 322 379
#     4  10  22  39  65  97 126 161 209 272 320 363
#     4  11  22  41  68  95 125 162 228 256 307 380
#     4  10  21  40  67  92 121 172 208 259 317 372
#     4  11  25  41  64  93 129 171 212 256 321 377
#     4  11  25  43  67  91 126 176 218 256 307 383
#
# _framework density 20.99455
#
# number of rings (size 3 to 8) (size 9 to 14) (size 15 to 20)
#    0.000    1.250    5.000    1.875    5.250    3.000 
#    0.000    3.750    0.000    0.000    0.000    0.000 
#    0.000    0.000    0.000    0.000    0.000    0.000 
#
# Total GULP energy -89302.089973 kJ/mol
# GULP energy per Si atom -5581.380623 kJ/mol
# Density = 2.094677 g / cm^3
# Si number density = 20.994550 Si / 1000 Ang^3
#
#
#
# Elastic Constant Matrix: (Units=GPa)
#
#
# Indices 1 2 3 4 5 6 
#
# 1 48.8938 34.5978 21.4271 -1.2325 14.4079 -19.8888
# 2 34.5978 102.2243 16.3048 -7.5014 2.5036 -26.8652
# 3 21.4271 16.3048 102.1085 -10.5308 18.0077 -24.7330
# 4 -1.2325 -7.5014 -10.5308 20.8060 1.3034 3.0533
# 5 14.4079 2.5036 18.0077 1.3034 28.6392 -5.8851
# 6 -19.8888 -26.8652 -24.7330 3.0533 -5.8851 37.7680
#
#
#
# Elastic Compliance Matrix: (Units=1/GPa)
#
#
# Indices 1 2 3 4 5 6 
#
# 1 0.035411 -0.009178 -0.001526 -0.002442 -0.014067 0.009125
# 2 -0.009178 0.014638 0.000864 0.003980 0.003936 0.006437
# 3 -0.001526 0.000864 0.013538 0.006445 -0.006650 0.007119
# 4 -0.002442 0.003980 0.006445 0.052862 -0.005446 0.000644
# 5 -0.014067 0.003936 -0.006650 -0.005446 0.045794 -0.001387
# 6 0.009125 0.006437 0.007119 0.000644 -0.001387 0.040255
#
#
# Mechanical properties :
#
#
# Convention : Reuss Voigt Hill
#
# Bulk Modulus (GPa) = 22.77545 44.20956 33.49251
# Shear Modulus (GPa) = 21.11357 29.50245 25.30801
#
# Velocity S-wave (km/s) = 3.17467 3.75272 3.47573
# Velocity P-wave (km/s) = 4.93050 6.31511 5.66526
#
# Compressibility (1/GPa) = 0.04390692
#
# Stress axis : x y z
#
# Youngs Moduli (GPa) = 28.23960 68.31472 73.86765
#
# Poissons Ratio (x) = 0.62699 0.11273
# Poissons Ratio (y) = 0.25918 -0.06382
# Poissons Ratio (z) = 0.04310 -0.05902
#
# Static dielectric constant tensor:
#      x y z
#    x 1.765930 0.020300 -0.001970 
#    y 0.020300 1.747680 -0.000690 
#    z -0.001970 -0.000690 1.766670 
# 
# From -- ./inp_files/263295.got.cif
#   From: 2010.05.17/outbox.cif.g08.bks.cpg/sg2_132_cif.got.tgz:263295.got - 2010.06.03 11:33:40.
