data_PCOD9011344
_publ_section_title
;
Structure prediction by ZEFSAII (Michael W. Deem and Ramdas Pophale) SiO2 
 PCOD9011344
Probable space group: P -1
;
_chemical_formula_sum "Si O2"
_cell_formula_units_Z 14
_cell_length_a 14.164761
_cell_length_b 9.809827
_cell_length_c 10.789068
_cell_angle_alpha 52.601418
_cell_angle_beta 147.586237
_cell_angle_gamma 136.626398
_cell_volume 551.798303
_symmetry_space_group_name_H-M "P -1"
_symmetry_group_IT_number 2
_symmetry_cell_setting 'triclinic'
loop_
_space_group_symop_operation_xyz
x,y,z
-x,-y,-z
loop_
_atom_site_type_symbol
_atom_site_label
_atom_site_fract_x
_atom_site_fract_y
_atom_site_fract_z
Si Si1 0.669098 0.939461 0.719153
Si Si2 0.636858 0.715818 0.588323
Si Si3 0.997136 0.436636 0.197603
Si Si4 0.638283 0.436906 0.105248
Si Si5 0.899517 0.304674 0.603417
Si Si6 0.473063 0.796188 0.132974
Si Si7 0.936864 0.188036 0.064877
O O1 0.582754 0.740608 0.654618
O O2 0.500000 0.000000 0.500000
O O3 0.835976 0.106795 0.719838
O O4 0.759959 0.977614 0.937042
O O5 0.500000 0.500000 0.500000
O O6 0.616496 0.844717 0.384890
O O7 0.866799 0.769265 0.816154
O O8 0.009412 0.256318 0.247608
O O9 0.074781 0.518304 0.374025
O O10 0.754740 0.342355 0.990550
O O11 0.108885 0.639254 0.127887
O O12 0.711404 0.284999 0.324529
O O13 0.872184 0.618914 0.237288
O O14 0.500000 0.500000 0.000000
O O15 0.518307 0.330324 0.903961
O O16 0.500000 0.000000 0.000000
#
# Coordination Sequence:
#
# PCOD9011344 Si02
#       7
#     2   2   2   2   2   2   2
#     4  11  24  42  66  96 135 177 215 274 346 396
#     4  12  25  41  67 101 134 168 226 278 327 402
#     4   9  19  39  66  91 131 173 211 268 345 388
#     4  10  22  41  68  94 127 179 230 274 335 400
#     4   9  21  42  65  93 138 173 223 280 336 405
#     4  11  23  42  63  93 133 173 216 269 339 404
#     4  10  21  40  66 100 131 169 220 276 328 403
#
# _framework density 25.371589
#
# number of rings (size 3 to 8) (size 9 to 14) (size 15 to 20)
#    0.000    1.714    1.429    2.143    6.000    0.000 
#    5.143    0.714    0.000    0.000    0.000    0.000 
#    0.000    0.000    0.000    0.000    0.000    0.000 
#
# Total GULP energy -78100.047499 kJ/mol
# GULP energy per Si atom -5578.574821 kJ/mol
# Density = 2.531384 g / cm^3
# Si number density = 25.371589 Si / 1000 Ang^3
#
#
#
# Elastic Constant Matrix: (Units=GPa)
#
#
# Indices 1 2 3 4 5 6 
#
# 1 115.0757 47.9765 10.8938 11.2023 7.1941 -40.0693
# 2 47.9765 116.9314 34.5548 4.1068 -12.5733 -29.1812
# 3 10.8938 34.5548 76.9946 18.0715 -10.7426 -13.8002
# 4 11.2023 4.1068 18.0715 33.1454 -2.5569 -15.2743
# 5 7.1941 -12.5733 -10.7426 -2.5569 39.5189 2.6333
# 6 -40.0693 -29.1812 -13.8002 -15.2743 2.6333 64.3675
#
#
#
# Elastic Compliance Matrix: (Units=1/GPa)
#
#
# Indices 1 2 3 4 5 6 
#
# 1 0.013006 -0.004562 0.001194 -0.002044 -0.004024 0.005964
# 2 -0.004562 0.012871 -0.005140 0.004304 0.003622 0.002767
# 3 0.001194 -0.005140 0.017601 -0.009228 0.002341 -0.000099
# 4 -0.002044 0.004304 -0.009228 0.039108 0.001235 0.007930
# 5 -0.004024 0.003622 0.002341 0.001235 0.027987 -0.001213
# 6 0.005964 0.002767 -0.000099 0.007930 -0.001213 0.022413
#
#
# Mechanical properties :
#
#
# Convention : Reuss Voigt Hill
#
# Bulk Modulus (GPa) = 37.78876 55.09465 46.44170
# Shear Modulus (GPa) = 31.48183 41.77813 36.62998
#
# Velocity S-wave (km/s) = 3.52636 4.06230 3.80378
# Velocity P-wave (km/s) = 5.61309 6.61553 6.13482
#
# Compressibility (1/GPa) = 0.02646290
#
# Stress axis : x y z
#
# Youngs Moduli (GPa) = 76.88844 77.69143 56.81625
#
# Poissons Ratio (x) = 0.35441 -0.06786
# Poissons Ratio (y) = 0.35075 0.29204
# Poissons Ratio (z) = -0.09183 0.39934
#
# Static dielectric constant tensor:
#      x y z
#    x 2.155480 -0.060120 -0.055390 
#    y -0.060120 2.167030 -0.029890 
#    z -0.055390 -0.029890 2.032110 
# 
# From -- ./inp_files/258638.got.cif
#   From: 2010.05.17/outbox.cif.g08.bks.cpg/sg2_130_cif.got.tgz:258638.got - 2010.06.03 11:33:40.
