data_PCOD9011254
_publ_section_title
;
Structure prediction by ZEFSAII (Michael W. Deem and Ramdas Pophale) SiO2 
 PCOD9011254
Probable space group: P -1
;
_chemical_formula_sum "Si O2"
_cell_formula_units_Z 12
_cell_length_a 10.135186
_cell_length_b 14.667738
_cell_length_c 11.093569
_cell_angle_alpha 28.683039
_cell_angle_beta 41.485282
_cell_angle_gamma 44.122415
_cell_volume 514.710198
_symmetry_space_group_name_H-M "P -1"
_symmetry_group_IT_number 2
_symmetry_cell_setting 'triclinic'
loop_
_space_group_symop_operation_xyz
x,y,z
-x,-y,-z
loop_
_atom_site_type_symbol
_atom_site_label
_atom_site_fract_x
_atom_site_fract_y
_atom_site_fract_z
Si Si1 0.545558 0.720210 0.062676
Si Si2 0.038114 0.954980 0.884060
Si Si3 0.653111 0.795977 0.648122
Si Si4 0.862339 0.465477 0.747687
Si Si5 0.597072 0.905104 0.166114
Si Si6 0.751031 0.529050 0.380320
O O1 0.527999 0.952908 0.815468
O O2 0.693138 0.605872 0.196084
O O3 0.329083 0.666586 0.309580
O O4 0.603593 0.678575 0.934190
O O5 0.136870 0.126346 0.566555
O O6 0.184072 0.745964 0.001091
O O7 0.828308 0.928074 0.999925
O O8 0.000000 0.000000 0.000000
O O9 0.687096 0.649449 0.681092
O O10 0.500000 0.000000 0.500000
O O11 0.000000 0.500000 0.500000
O O12 0.018878 0.463626 0.754113
O O13 0.500000 0.000000 0.000000
O O14 0.612820 0.679083 0.394322
#
# Coordination Sequence:
#
# PCOD9011254 Si02
#       6
#     2   2   2   2   2   2
#     4  10  21  40  65  95 131 164 217 269 326 391
#     4  11  22  42  66  93 130 177 220 264 330 396
#     4  12  27  40  62 103 138 170 217 278 329 385
#     4  11  24  42  67  92 128 178 223 266 326 396
#     4   9  19  39  67  93 122 171 218 262 324 395
#     4   9  21  41  67  91 123 176 215 263 329 392
#
# _framework density 23.314088000000002
#
# number of rings (size 3 to 8) (size 9 to 14) (size 15 to 20)
#    0.000    1.667    1.667    2.000    4.667    2.667 
#    0.000    7.500    0.000    0.000    0.000    0.000 
#    0.000    0.000    0.000    0.000    0.000    0.000 
#
# Total GULP energy -66989.093876 kJ/mol
# GULP energy per Si atom -5582.424490 kJ/mol
# Density = 2.326102 g / cm^3
# Si number density = 23.314088 Si / 1000 Ang^3
#
#
#
# Elastic Constant Matrix: (Units=GPa)
#
#
# Indices 1 2 3 4 5 6 
#
# 1 117.9275 15.8141 20.4074 9.8048 2.6401 0.2265
# 2 15.8141 148.5234 32.6232 -28.9786 15.3721 21.1029
# 3 20.4074 32.6232 96.6184 -12.7042 8.8030 11.1031
# 4 9.8048 -28.9786 -12.7042 46.3042 9.4391 -5.1813
# 5 2.6401 15.3721 8.8030 9.4391 24.8680 -0.9602
# 6 0.2265 21.1029 11.1031 -5.1813 -0.9602 27.2832
#
#
#
# Elastic Compliance Matrix: (Units=1/GPa)
#
#
# Indices 1 2 3 4 5 6 
#
# 1 0.009400 -0.001766 -0.002334 -0.004077 0.002527 0.001552
# 2 -0.001766 0.010523 -0.000495 0.007994 -0.009436 -0.006737
# 3 -0.002334 -0.000495 0.012570 0.004337 -0.005700 -0.004090
# 4 -0.004077 0.007994 0.004337 0.032113 -0.018328 -0.002461
# 5 0.002527 -0.009436 -0.005700 -0.018328 0.055062 0.008055
# 6 0.001552 -0.006737 -0.004090 -0.002461 0.008055 0.043332
#
#
# Mechanical properties :
#
#
# Convention : Reuss Voigt Hill
#
# Bulk Modulus (GPa) = 42.91286 55.63984 49.27635
# Shear Modulus (GPa) = 27.78428 39.30606 33.54517
#
# Velocity S-wave (km/s) = 3.45590 4.11047 3.79732
# Velocity P-wave (km/s) = 5.86265 6.81506 6.35672
#
# Compressibility (1/GPa) = 0.02330304
#
# Stress axis : x y z
#
# Youngs Moduli (GPa) = 106.38377 95.02687 79.55600
#
# Poissons Ratio (x) = 0.16781 0.18568
# Poissons Ratio (y) = 0.18786 0.03939
# Poissons Ratio (z) = 0.24829 0.04705
#
# Static dielectric constant tensor:
#      x y z
#    x 1.909620 -0.020030 -0.035190 
#    y -0.020030 1.876160 -0.000610 
#    z -0.035190 -0.000610 1.819790 
# 
# From -- ./inp_files/332513.got.cif
#   From: 2010.05.17/outbox.cif.g08.bks.cpg/sg2_167_cif.got.tgz:332513.got - 2010.06.03 11:33:40.
