data_PCOD9011409
_publ_section_title
;
Structure prediction by ZEFSAII (Michael W. Deem and Ramdas Pophale) SiO2 
 PCOD9011409
Probable space group: P -1
;
_chemical_formula_sum "Si O2"
_cell_formula_units_Z 16
_cell_length_a 14.286372
_cell_length_b 15.401711
_cell_length_c 24.316183
_cell_angle_alpha 28.925819
_cell_angle_beta 17.534243
_cell_angle_gamma 28.700160
_cell_volume 745.658440
_symmetry_space_group_name_H-M "P -1"
_symmetry_group_IT_number 2
_symmetry_cell_setting 'triclinic'
loop_
_space_group_symop_operation_xyz
x,y,z
-x,-y,-z
loop_
_atom_site_type_symbol
_atom_site_label
_atom_site_fract_x
_atom_site_fract_y
_atom_site_fract_z
Si Si1 0.641989 0.747390 0.914943
Si Si2 0.743318 0.581330 0.397396
Si Si3 0.939188 0.394181 0.677611
Si Si4 0.791978 0.786682 0.684733
Si Si5 0.406955 0.834808 0.611453
Si Si6 0.282785 0.671673 0.874577
Si Si7 0.144561 0.876102 0.613568
Si Si8 0.872862 0.188414 0.002197
O O1 0.716434 0.817032 0.774727
O O2 0.785190 0.859117 0.817005
O O3 0.267315 0.755087 0.127515
O O4 0.803064 0.520616 0.956527
O O5 0.379074 0.684084 0.562137
O O6 0.947548 0.597627 0.328297
O O7 0.861109 0.366877 0.432155
O O8 0.876716 0.695037 0.214180
O O9 0.678302 0.592258 0.699967
O O10 0.260744 0.327211 0.498934
O O11 0.492470 0.716612 0.868245
O O12 0.792625 0.963121 0.549329
O O13 0.197943 0.751644 0.817206
O O14 0.241734 0.895727 0.611115
O O15 0.500000 0.000000 0.500000
O O16 0.161008 0.821727 0.907830
O O17 0.000000 0.000000 0.000000
#
# Coordination Sequence:
#
# PCOD9011409 Si02
#       8
#     2   2   2   2   2   2   2   2
#     4  10  22  40  64  90 129 170 212 258 324 382
#     4  11  20  38  64  92 126 165 209 266 321 370
#     4   9  20  39  66  90 119 165 213 259 319 370
#     4  12  20  39  63  92 134 167 207 266 326 376
#     4  11  24  41  64  95 126 163 217 273 312 369
#     4  10  21  40  66  89 128 168 213 256 320 377
#     4  11  26  41  60  98 129 168 218 260 314 388
#     4  12  20  35  66 101 125 158 213 271 314 373
#
# _framework density 21.457546000000001
#
# number of rings (size 3 to 8) (size 9 to 14) (size 15 to 20)
#    0.750    0.500    5.000    1.875    1.750    1.000 
#    0.000    1.875    0.000    0.000    0.000    0.000 
#    0.000    0.000    0.000    0.000    0.000    0.000 
#
# Total GULP energy -89282.143847 kJ/mol
# GULP energy per Si atom -5580.133990 kJ/mol
# Density = 2.140871 g / cm^3
# Si number density = 21.457546 Si / 1000 Ang^3
#
#
#
# Elastic Constant Matrix: (Units=GPa)
#
#
# Indices 1 2 3 4 5 6 
#
# 1 106.9128 18.8202 51.5048 -9.2272 35.1134 10.4772
# 2 18.8202 65.9209 7.0544 6.0472 21.7711 2.7869
# 3 51.5048 7.0544 44.6148 -8.6737 19.7615 5.3820
# 4 -9.2272 6.0472 -8.6737 17.4416 2.7790 10.8985
# 5 35.1134 21.7711 19.7615 2.7790 38.4463 -0.4676
# 6 10.4772 2.7869 5.3820 10.8985 -0.4676 24.0171
#
#
#
# Elastic Compliance Matrix: (Units=1/GPa)
#
#
# Indices 1 2 3 4 5 6 
#
# 1 0.026559 -0.001468 -0.018161 0.017851 -0.015573 -0.015750
# 2 -0.001468 0.019205 0.002591 -0.004157 -0.010572 -0.000489
# 3 -0.018161 0.002591 0.062382 0.038983 -0.020061 -0.024438
# 4 0.017851 -0.004157 0.038983 0.147193 -0.045645 -0.083722
# 5 -0.015573 -0.010572 -0.020061 -0.045645 0.060249 0.034401
# 6 -0.015750 -0.000489 -0.024438 -0.083722 0.034401 0.092702
#
#
# Mechanical properties :
#
#
# Convention : Reuss Voigt Hill
#
# Bulk Modulus (GPa) = 13.50028 41.35637 27.42832
# Shear Modulus (GPa) = 10.70538 25.31893 18.01216
#
# Velocity S-wave (km/s) = 2.23605 3.43877 2.90044
# Velocity P-wave (km/s) = 3.60165 5.92303 4.90174
#
# Compressibility (1/GPa) = 0.07407255
#
# Stress axis : x y z
#
# Youngs Moduli (GPa) = 37.65159 52.06989 16.03024
#
# Poissons Ratio (x) = 0.07642 0.29112
# Poissons Ratio (y) = 0.05526 -0.04154
# Poissons Ratio (z) = 0.68378 -0.13493
#
# Static dielectric constant tensor:
#      x y z
#    x 1.782760 -0.037110 -0.008480 
#    y -0.037110 1.833510 -0.000280 
#    z -0.008480 -0.000280 1.796720 
# 
# From -- ./inp_files/612105.got.cif
#   From: 2010.05.17/outbox.cif.g08.bks.cpg/sg2_307_cif.got.tgz:612105.got - 2010.06.03 11:33:40.
