data_PCOD9011750
_publ_section_title
;
Structure prediction by ZEFSAII (Michael W. Deem and Ramdas Pophale) SiO2 
 PCOD9011750
Probable space group: P -1
;
_chemical_formula_sum "Si O2"
_cell_formula_units_Z 16
_cell_length_a 11.766983
_cell_length_b 9.867501
_cell_length_c 9.580256
_cell_angle_alpha 44.031707
_cell_angle_beta 92.652726
_cell_angle_gamma 99.243837
_cell_volume 759.226429
_symmetry_space_group_name_H-M "P -1"
_symmetry_group_IT_number 2
_symmetry_cell_setting 'triclinic'
loop_
_space_group_symop_operation_xyz
x,y,z
-x,-y,-z
loop_
_atom_site_type_symbol
_atom_site_label
_atom_site_fract_x
_atom_site_fract_y
_atom_site_fract_z
Si Si1 0.345832 0.054465 0.404198
Si Si2 0.923129 0.000844 0.634042
Si Si3 0.120940 0.440902 0.013730
Si Si4 0.192712 0.547730 0.453298
Si Si5 0.308943 0.435281 0.272897
Si Si6 0.691909 0.360729 0.332863
Si Si7 0.533673 0.647202 0.023287
Si Si8 0.994478 0.203765 0.768695
O O1 0.207582 0.988033 0.422072
O O2 0.353341 0.229616 0.389980
O O3 0.381721 0.841542 0.587744
O O4 0.404732 0.151149 0.194160
O O5 0.910596 0.786934 0.864711
O O6 0.000000 0.000000 0.500000
O O7 0.977370 0.159333 0.634230
O O8 0.194410 0.574037 0.803236
O O9 0.207240 0.446099 0.147137
O O10 0.000000 0.500000 0.000000
O O11 0.259186 0.448544 0.412963
O O12 0.275955 0.667589 0.484585
O O13 0.108250 0.372200 0.660354
O O14 0.113496 0.692157 0.273639
O O15 0.413802 0.620739 0.118426
O O16 0.624623 0.544052 0.188039
O O17 0.500000 0.500000 0.000000
O O18 0.000000 0.000000 0.000000
#
# Coordination Sequence:
#
# PCOD9011750 Si02
#       8
#     2   2   2   2   2   2   2   2
#     4  10  21  40  67  91 124 163 221 258 314 371
#     4  11  20  38  62  93 126 162 213 263 303 378
#     4  11  23  36  66  96 127 165 212 258 318 378
#     4  11  26  41  61  96 131 167 211 258 328 381
#     4  10  23  45  61  93 133 162 213 273 305 380
#     4  12  22  41  70  93 124 172 209 262 325 376
#     4  10  21  44  66  92 126 165 218 267 314 369
#     4  11  24  41  62  88 137 173 200 252 328 389
#
# _framework density 21.074082000000001
#
# number of rings (size 3 to 8) (size 9 to 14) (size 15 to 20)
#    0.000    1.250    5.000    3.000    5.250    2.500 
#    0.000    0.625    0.000    0.000    0.000    0.000 
#    0.000    0.000    0.000    0.000    0.000    0.000 
#
# Total GULP energy -89344.838193 kJ/mol
# GULP energy per Si atom -5584.052387 kJ/mol
# Density = 2.102612 g / cm^3
# Si number density = 21.074082 Si / 1000 Ang^3
#
#
#
# Elastic Constant Matrix: (Units=GPa)
#
#
# Indices 1 2 3 4 5 6 
#
# 1 92.8539 9.3761 25.3413 0.1813 -5.8410 -4.8267
# 2 9.3761 85.3196 24.4665 0.0570 -8.3718 -8.5189
# 3 25.3413 24.4665 95.1060 -20.4022 -6.8285 -6.9885
# 4 0.1813 0.0570 -20.4022 37.7252 -1.2338 -0.1941
# 5 -5.8410 -8.3718 -6.8285 -1.2338 26.7021 -8.3188
# 6 -4.8267 -8.5189 -6.9885 -0.1941 -8.3188 23.2270
#
#
#
# Elastic Compliance Matrix: (Units=1/GPa)
#
#
# Indices 1 2 3 4 5 6 
#
# 1 0.011922 0.000098 -0.003209 -0.001699 0.002496 0.002428
# 2 0.000098 0.013711 -0.003037 -0.001458 0.005359 0.006042
# 3 -0.003209 -0.003037 0.014403 0.007948 0.003616 0.003914
# 4 -0.001699 -0.001458 0.007948 0.030949 0.003583 0.003046
# 5 0.002496 0.005359 0.003616 0.003583 0.047150 0.020489
# 6 0.002428 0.006042 0.003914 0.003046 0.020489 0.054315
#
#
# Mechanical properties :
#
#
# Convention : Reuss Voigt Hill
#
# Bulk Modulus (GPa) = 36.04812 43.51638 39.78225
# Shear Modulus (GPa) = 25.77427 31.80389 28.78908
#
# Velocity S-wave (km/s) = 3.50098 3.88899 3.70007
# Velocity P-wave (km/s) = 5.78663 6.39216 6.09692
#
# Compressibility (1/GPa) = 0.02774069
#
# Stress axis : x y z
#
# Youngs Moduli (GPa) = 83.87911 72.93475 69.42923
#
# Poissons Ratio (x) = -0.00718 0.22278
# Poissons Ratio (y) = -0.00826 0.21088
# Poissons Ratio (z) = 0.26915 0.22153
#
# Static dielectric constant tensor:
#      x y z
#    x 1.781380 0.009480 0.030600 
#    y 0.009480 1.759260 -0.034800 
#    z 0.030600 -0.034800 1.793860 
# 
# From -- ./inp_files/242126.got.cif
#   From: 2010.05.17/outbox.cif.g08.bks.cpg/sg2_122_cif.got.tgz:242126.got - 2010.06.03 11:33:40.
