data_PCOD9011541
_publ_section_title
;
Structure prediction by ZEFSAII (Michael W. Deem and Ramdas Pophale) SiO2 
 PCOD9011541
Probable space group: P -1
;
_chemical_formula_sum "Si O2"
_cell_formula_units_Z 15
_cell_length_a 18.092044
_cell_length_b 8.652148
_cell_length_c 21.287273
_cell_angle_alpha 138.026186
_cell_angle_beta 161.195010
_cell_angle_gamma 51.472127
_cell_volume 665.908837
_symmetry_space_group_name_H-M "P -1"
_symmetry_group_IT_number 2
_symmetry_cell_setting 'triclinic'
loop_
_space_group_symop_operation_xyz
x,y,z
-x,-y,-z
loop_
_atom_site_type_symbol
_atom_site_label
_atom_site_fract_x
_atom_site_fract_y
_atom_site_fract_z
Si Si1 0.523626 0.364750 0.672789
Si Si2 0.764458 0.732531 0.475740
Si Si3 0.033500 0.035460 0.463532
Si Si4 0.479582 0.074778 0.771422
Si Si5 0.500000 0.000000 0.000000
Si Si6 0.167674 0.956305 0.175259
Si Si7 0.765616 0.377217 0.212997
Si Si8 0.136311 0.176613 0.992095
O O1 0.400505 0.450119 0.658291
O O2 0.644603 0.170171 0.734838
O O3 0.729519 0.590028 0.872799
O O4 0.323150 0.213774 0.413815
O O5 0.592115 0.796064 0.306568
O O6 0.962199 0.637626 0.574779
O O7 0.930136 0.974997 0.722093
O O8 0.214090 0.913964 0.541420
O O9 0.178906 0.330404 0.657070
O O10 0.000000 0.000000 0.500000
O O11 0.762069 0.957078 0.193127
O O12 0.651268 0.924159 0.846607
O O13 0.637557 0.259008 0.008545
O O14 0.598094 0.210430 0.083526
O O15 0.996724 0.784824 0.040887
O O16 0.000000 0.000000 0.000000
#
# Coordination Sequence:
#
# PCOD9011541 Si02
#       8
#     2   2   2   2   1   2   2   2
#     4  10  22  40  64  91 128 164 198 257 307 367
#     4  10  23  41  59  90 126 164 208 256 314 373
#     4  12  26  42  65  93 124 168 220 269 324 379
#     4  11  23  43  61  91 125 165 211 264 313 380
#     4  12  24  42  64  88 122 164 212 272 326 376
#     4  10  21  40  66  95 123 162 205 246 306 372
#     4  11  25  43  64  92 127 166 219 273 319 381
#     4  10  23  41  61  94 129 158 209 253 307 377
#
# _framework density 22.525604999999999
#
# number of rings (size 3 to 8) (size 9 to 14) (size 15 to 20)
#    0.000    1.333    2.667    2.000    1.867    1.600 
#    2.400    0.000    0.000    0.000    0.000    0.000 
#    0.000    0.000    0.000    0.000    0.000    0.000 
#
# Total GULP energy -83619.605403 kJ/mol
# GULP energy per Si atom -5574.640360 kJ/mol
# Density = 2.247434 g / cm^3
# Si number density = 22.525605 Si / 1000 Ang^3
#
#
#
# Elastic Constant Matrix: (Units=GPa)
#
#
# Indices 1 2 3 4 5 6 
#
# 1 98.0012 22.7005 20.0564 9.8472 28.1968 19.2834
# 2 22.7005 63.6894 25.3529 -13.5014 -5.7360 15.0892
# 3 20.0564 25.3529 86.0107 -23.4831 6.0435 5.2079
# 4 9.8472 -13.5014 -23.4831 42.3726 13.7296 12.2352
# 5 28.1968 -5.7360 6.0435 13.7296 35.7879 -11.6762
# 6 19.2834 15.0892 5.2079 12.2352 -11.6762 36.6262
#
#
#
# Elastic Compliance Matrix: (Units=1/GPa)
#
#
# Indices 1 2 3 4 5 6 
#
# 1 0.024490 -0.003550 0.003501 0.014625 -0.035214 -0.028040
# 2 -0.003550 0.022430 -0.002511 0.009638 -0.000246 -0.010313
# 3 0.003501 -0.002511 0.019527 0.020431 -0.019747 -0.016706
# 4 0.014625 0.009638 0.020431 0.070020 -0.058792 -0.056709
# 5 -0.035214 -0.000246 -0.019747 -0.058792 0.105965 0.074870
# 6 -0.028040 -0.010313 -0.016706 -0.056709 0.074870 0.091502
#
#
# Mechanical properties :
#
#
# Convention : Reuss Voigt Hill
#
# Bulk Modulus (GPa) = 16.30592 42.65787 29.48190
# Shear Modulus (GPa) = 13.90835 34.93011 24.41923
#
# Velocity S-wave (km/s) = 2.48754 3.94215 3.29609
# Velocity P-wave (km/s) = 3.93764 6.30074 5.25378
#
# Compressibility (1/GPa) = 0.06132741
#
# Stress axis : x y z
#
# Youngs Moduli (GPa) = 40.83374 44.58241 51.21053
#
# Poissons Ratio (x) = 0.15828 -0.17928
# Poissons Ratio (y) = 0.14497 0.12857
# Poissons Ratio (z) = -0.14296 0.11192
#
# Static dielectric constant tensor:
#      x y z
#    x 1.846120 -0.008790 -0.013170 
#    y -0.008790 1.834320 0.020160 
#    z -0.013170 0.020160 1.838220 
# 
# From -- ./inp_files/599292.got.cif
#   From: 2010.05.17/outbox.cif.g08.bks.cpg/sg2_300_cif.got.tgz:599292.got - 2010.06.03 11:33:40.
