data_PCOD9011562
_publ_section_title
;
Structure prediction by ZEFSAII (Michael W. Deem and Ramdas Pophale) SiO2 
 PCOD9011562
Probable space group: P -1
;
_chemical_formula_sum "Si O2"
_cell_formula_units_Z 12
_cell_length_a 6.588577
_cell_length_b 14.126475
_cell_length_c 8.909384
_cell_angle_alpha 82.032228
_cell_angle_beta 142.084654
_cell_angle_gamma 89.667049
_cell_volume 495.518678
_symmetry_space_group_name_H-M "P -1"
_symmetry_group_IT_number 2
_symmetry_cell_setting 'triclinic'
loop_
_space_group_symop_operation_xyz
x,y,z
-x,-y,-z
loop_
_atom_site_type_symbol
_atom_site_label
_atom_site_fract_x
_atom_site_fract_y
_atom_site_fract_z
Si Si1 0.381998 0.793466 0.628885
Si Si2 0.177035 0.373377 0.224111
Si Si3 0.630521 0.982323 0.746586
Si Si4 0.336020 0.099633 0.803876
Si Si5 0.169006 0.458504 0.864747
Si Si6 0.558114 0.288807 0.993152
O O1 0.534145 0.721567 0.600114
O O2 0.617567 0.869434 0.797349
O O3 0.036638 0.861078 0.367615
O O4 0.321639 0.736505 0.759235
O O5 0.150858 0.452909 0.325956
O O6 0.198239 0.420772 0.061802
O O7 0.827137 0.335975 0.049068
O O8 0.500000 0.000000 0.500000
O O9 0.358051 0.062550 0.656150
O O10 0.000000 0.000000 0.000000
O O11 0.522802 0.188685 0.918194
O O12 0.500000 0.000000 0.000000
O O13 0.204358 0.365877 0.794811
O O14 0.500000 0.500000 0.000000
#
# Coordination Sequence:
#
# PCOD9011562 Si02
#       6
#     2   2   2   2   2   2
#     4  11  24  40  65  95 135 180 232 290 355 417
#     4   9  18  36  65  97 130 171 227 285 354 424
#     4  12  27  44  70 101 139 190 248 298 360 427
#     4  12  25  44  64  94 141 185 237 297 355 420
#     4   8  16  35  66  98 129 171 221 285 356 421
#     4  10  21  40  66  95 132 179 228 284 356 420
#
# _framework density 24.217047000000001
#
# number of rings (size 3 to 8) (size 9 to 14) (size 15 to 20)
#    0.000    1.667    1.667    2.500    4.667    0.000 
#    0.000    0.833    0.000   34.000    0.000    0.000 
#    0.000    0.000    0.000    0.000    0.000    0.000 
#
# Total GULP energy -67012.779175 kJ/mol
# GULP energy per Si atom -5584.398265 kJ/mol
# Density = 2.416193 g / cm^3
# Si number density = 24.217047 Si / 1000 Ang^3
#
#
#
# Elastic Constant Matrix: (Units=GPa)
#
#
# Indices 1 2 3 4 5 6 
#
# 1 157.3417 73.7391 40.3271 -15.8271 8.6934 -14.5544
# 2 73.7391 150.5024 34.0522 -29.5419 14.4353 -28.8331
# 3 40.3271 34.0522 68.8276 -6.1662 16.8343 -11.7101
# 4 -15.8271 -29.5419 -6.1662 18.9531 -15.0136 25.6887
# 5 8.6934 14.4353 16.8343 -15.0136 38.0796 -6.7567
# 6 -14.5544 -28.8331 -11.7101 25.6887 -6.7567 74.0584
#
#
#
# Elastic Compliance Matrix: (Units=1/GPa)
#
#
# Indices 1 2 3 4 5 6 
#
# 1 0.009216 -0.002579 -0.004767 0.008975 0.004042 -0.002691
# 2 -0.002579 0.014110 -0.006270 0.037908 0.011520 -0.008103
# 3 -0.004767 -0.006270 0.023868 -0.037175 -0.019704 0.011493
# 4 0.008975 0.037908 -0.037175 0.309816 0.106713 -0.087086
# 5 0.004042 0.011520 -0.019704 0.106713 0.066650 -0.028771
# 6 -0.002691 -0.008103 0.011493 -0.087086 -0.028771 0.039219
#
#
# Mechanical properties :
#
#
# Convention : Reuss Voigt Hill
#
# Bulk Modulus (GPa) = 50.08967 74.76762 62.42864
# Shear Modulus (GPa) = 10.06511 41.45511 25.76011
#
# Velocity S-wave (km/s) = 2.04089 4.14190 3.26501
# Velocity P-wave (km/s) = 5.12662 7.33585 6.32839
#
# Compressibility (1/GPa) = 0.01996420
#
# Stress axis : x y z
#
# Youngs Moduli (GPa) = 108.50327 70.87115 41.89645
#
# Poissons Ratio (x) = 0.18275 0.19970
# Poissons Ratio (y) = 0.27978 0.26270
# Poissons Ratio (z) = 0.51719 0.44438
#
# Static dielectric constant tensor:
#      x y z
#    x 0.775860 0.766240 0.211070 
#    y 0.766240 1.612130 -0.151820 
#    z 0.211070 -0.151820 1.932650 
# 
# From -- ./inp_files/4541.got.cif
#   From: 2010.05.17/outbox.cif.g08.bks.cpg/sg2_3_cif.got.tgz:4541.got - 2010.06.03 11:33:40.
