data_PCOD9011614
_publ_section_title
;
Structure prediction by ZEFSAII (Michael W. Deem and Ramdas Pophale) SiO2 
 PCOD9011614
Probable space group: P -1
;
_chemical_formula_sum "Si O2"
_cell_formula_units_Z 16
_cell_length_a 5.243829
_cell_length_b 29.146736
_cell_length_c 8.963293
_cell_angle_alpha 30.158425
_cell_angle_beta 77.724749
_cell_angle_gamma 86.810557
_cell_volume 649.185158
_symmetry_space_group_name_H-M "P -1"
_symmetry_group_IT_number 2
_symmetry_cell_setting 'triclinic'
loop_
_space_group_symop_operation_xyz
x,y,z
-x,-y,-z
loop_
_atom_site_type_symbol
_atom_site_label
_atom_site_fract_x
_atom_site_fract_y
_atom_site_fract_z
Si Si1 0.441088 0.832216 0.044178
Si Si2 0.010262 0.071832 0.162042
Si Si3 0.441592 0.386872 0.308850
Si Si4 0.928117 0.331910 0.888703
Si Si5 0.361772 0.210557 0.177705
Si Si6 0.305326 0.717798 0.648294
Si Si7 0.920882 0.410525 0.374277
Si Si8 0.355886 0.084296 0.803260
O O1 0.238618 0.753521 0.394551
O O2 0.734417 0.843450 0.052482
O O3 0.510868 0.825179 0.882996
O O4 0.286496 0.913260 0.853446
O O5 0.117393 0.050419 0.048352
O O6 0.000000 0.000000 0.500000
O O7 0.522528 0.353237 0.233637
O O8 0.615615 0.364192 0.490176
O O9 0.126788 0.348958 0.482635
O O10 0.500000 0.500000 0.000000
O O11 0.976380 0.420331 0.517879
O O12 0.618926 0.281875 0.023192
O O13 0.917023 0.340015 0.046561
O O14 0.125796 0.263318 0.030603
O O15 0.263909 0.124480 0.548878
O O16 0.443055 0.819211 0.423621
O O17 0.000000 0.500000 0.000000
O O18 0.500000 0.000000 0.000000
#
# Coordination Sequence:
#
# PCOD9011614 Si02
#       8
#     2   2   2   2   2   2   2   2
#     4  11  22  39  62  89 119 163 214 263 314 377
#     4  11  23  40  60  88 122 164 212 265 318 375
#     4  10  22  42  67  94 126 164 210 261 320 386
#     4  11  22  39  62  95 129 168 212 260 319 388
#     4  11  23  40  64  93 126 172 216 262 319 382
#     4  10  23  41  65  94 127 170 216 265 321 382
#     4  10  21  40  66  97 130 166 209 263 324 388
#     4  10  23  43  64  94 133 173 219 273 324 378
#
# _framework density 24.646279
#
# number of rings (size 3 to 8) (size 9 to 14) (size 15 to 20)
#    0.000    1.500    0.000    4.875    0.000    7.000 
#    0.000   10.625    0.000    0.000    0.000    0.000 
#    0.000    0.000    0.000    0.000    0.000    0.000 
#
# Total GULP energy -89079.522556 kJ/mol
# GULP energy per Si atom -5567.470160 kJ/mol
# Density = 2.459018 g / cm^3
# Si number density = 24.646279 Si / 1000 Ang^3
#
#
#
# Elastic Constant Matrix: (Units=GPa)
#
#
# Indices 1 2 3 4 5 6 
#
# 1 108.8720 14.5577 32.3570 -3.6053 20.4093 -15.4576
# 2 14.5577 140.0228 77.4795 22.8547 7.3355 -33.1673
# 3 32.3570 77.4795 167.4319 44.0843 26.9701 -13.1038
# 4 -3.6053 22.8547 44.0843 59.6959 -1.8604 -5.1419
# 5 20.4093 7.3355 26.9701 -1.8604 31.1632 -6.7858
# 6 -15.4576 -33.1673 -13.1038 -5.1419 -6.7858 44.7978
#
#
#
# Elastic Compliance Matrix: (Units=1/GPa)
#
#
# Indices 1 2 3 4 5 6 
#
# 1 0.011117 0.000581 -0.001882 0.001958 -0.004978 0.003187
# 2 0.000581 0.011811 -0.005642 0.000466 0.003464 0.007873
# 3 -0.001882 -0.005642 0.012115 -0.007489 -0.009140 -0.003527
# 4 0.001958 0.000466 -0.007489 0.022654 0.006984 0.002488
# 5 -0.004978 0.003464 -0.009140 0.006984 0.044092 0.005654
# 6 0.003187 0.007873 -0.003527 0.002488 0.005654 0.029361
#
#
# Mechanical properties :
#
#
# Convention : Reuss Voigt Hill
#
# Bulk Modulus (GPa) = 47.26391 73.90168 60.58280
# Shear Modulus (GPa) = 32.87569 46.59357 39.73463
#
# Velocity S-wave (km/s) = 3.65622 4.35269 4.01957
# Velocity P-wave (km/s) = 6.08625 7.43716 6.79536
#
# Compressibility (1/GPa) = 0.02115779
#
# Stress axis : x y z
#
# Youngs Moduli (GPa) = 89.95141 84.66937 82.54029
#
# Poissons Ratio (x) = -0.04923 0.15531
# Poissons Ratio (y) = -0.05230 0.46573
# Poissons Ratio (z) = 0.16926 0.47774
#
# Static dielectric constant tensor:
#      x y z
#    x -0.363580 -0.233830 2.594910 
#    y -0.233830 2.055340 0.218250 
#    z 2.594910 0.218250 -0.770300 
# 
# From -- ./inp_files/143319.got.cif
#   From: 2010.05.17/outbox.cif.g08.bks.cpg/sg2_72_cif.got.tgz:143319.got - 2010.06.03 11:33:40.
