data_PCOD9011508
_publ_section_title
;
Structure prediction by ZEFSAII (Michael W. Deem and Ramdas Pophale) SiO2 
 PCOD9011508
Probable space group: P -1
;
_chemical_formula_sum "Si O2"
_cell_formula_units_Z 12
_cell_length_a 16.293808
_cell_length_b 11.280128
_cell_length_c 10.548452
_cell_angle_alpha 39.031150
_cell_angle_beta 25.843995
_cell_angle_gamma 36.067800
_cell_volume 488.299153
_symmetry_space_group_name_H-M "P -1"
_symmetry_group_IT_number 2
_symmetry_cell_setting 'triclinic'
loop_
_space_group_symop_operation_xyz
x,y,z
-x,-y,-z
loop_
_atom_site_type_symbol
_atom_site_label
_atom_site_fract_x
_atom_site_fract_y
_atom_site_fract_z
Si Si1 0.866165 0.890505 0.078144
Si Si2 0.851125 0.472146 0.835247
Si Si3 0.106252 0.751767 0.634770
Si Si4 0.745674 0.681164 0.063677
Si Si5 0.485051 0.931599 0.415976
Si Si6 0.494503 0.635565 0.018332
O O1 0.706862 0.068682 0.237624
O O2 0.015059 0.727033 0.104405
O O3 0.699639 0.826280 0.284761
O O4 0.008303 0.917055 0.746791
O O5 0.762505 0.649369 0.917410
O O6 0.000000 0.500000 0.500000
O O7 0.654372 0.487194 0.018798
O O8 0.282998 0.738636 0.303975
O O9 0.917229 0.759450 0.805373
O O10 0.192915 0.539055 0.770441
O O11 0.530384 0.828338 0.301625
O O12 0.449247 0.170638 0.253892
O O13 0.500000 0.500000 0.000000
#
# Coordination Sequence:
#
# PCOD9011508 Si02
#       6
#     2   2   2   2   2   2
#     4   9  20  38  67  86 119 163 207 244 298 369
#     4  11  21  41  63  93 123 163 207 251 305 370
#     4   9  20  39  63  90 123 166 201 246 311 371
#     4   9  20  37  69  87 120 166 209 243 303 372
#     4  10  21  40  66  94 119 161 210 252 301 366
#     4  12  26  38  63  94 128 159 205 260 310 355
#
# _framework density 24.575099000000002
#
# number of rings (size 3 to 8) (size 9 to 14) (size 15 to 20)
#    0.000    2.000    1.667    2.000    9.333    6.000 
#    0.000    0.833    0.000    0.000    0.000    0.000 
#    0.000    0.000    0.000    0.000    0.000    0.000 
#
# Total GULP energy -67039.277517 kJ/mol
# GULP energy per Si atom -5586.606460 kJ/mol
# Density = 2.451917 g / cm^3
# Si number density = 24.575099 Si / 1000 Ang^3
#
#
#
# Elastic Constant Matrix: (Units=GPa)
#
#
# Indices 1 2 3 4 5 6 
#
# 1 148.0611 63.2245 50.4386 26.4776 40.6403 -2.2790
# 2 63.2245 108.6075 57.1638 16.4569 17.8846 -2.0020
# 3 50.4386 57.1638 164.6613 46.1302 46.6189 25.0956
# 4 26.4776 16.4569 46.1302 47.1239 6.0458 13.8515
# 5 40.6403 17.8846 46.6189 6.0458 41.6842 20.9375
# 6 -2.2790 -2.0020 25.0956 13.8515 20.9375 39.4953
#
#
#
# Elastic Compliance Matrix: (Units=1/GPa)
#
#
# Indices 1 2 3 4 5 6 
#
# 1 0.018476 -0.006765 0.006770 -0.016051 -0.029145 0.017501
# 2 -0.006765 0.014493 -0.005810 0.003821 0.006769 -0.000892
# 3 0.006770 -0.005810 0.016413 -0.017251 -0.024274 0.008585
# 4 -0.016051 0.003821 -0.017251 0.048945 0.040462 -0.028387
# 5 -0.029145 0.006769 -0.024274 0.040462 0.096539 -0.051283
# 6 0.017501 -0.000892 0.008585 -0.028387 -0.051283 0.057971
#
#
# Mechanical properties :
#
#
# Convention : Reuss Voigt Hill
#
# Bulk Modulus (GPa) = 26.47434 84.77596 55.62515
# Shear Modulus (GPa) = 18.04802 42.36088 30.20445
#
# Velocity S-wave (km/s) = 2.71293 4.15629 3.50961
# Velocity P-wave (km/s) = 4.53977 7.58977 6.25356
#
# Compressibility (1/GPa) = 0.03777242
#
# Stress axis : x y z
#
# Youngs Moduli (GPa) = 54.12488 68.99650 60.92548
#
# Poissons Ratio (x) = 0.46673 -0.41245
# Poissons Ratio (y) = 0.36613 0.35400
# Poissons Ratio (z) = -0.36641 0.40089
#
# Static dielectric constant tensor:
#      x y z
#    x 1.959000 0.032250 0.007070 
#    y 0.032250 2.025310 0.029330 
#    z 0.007070 0.029330 2.022490 
# 
# From -- ./inp_files/145760.got.cif
#   From: 2010.05.17/outbox.cif.g08.bks.cpg/sg2_73_cif.got.tgz:145760.got - 2010.06.03 11:33:40.
