data_PCOD9011934
_publ_section_title
;
Structure prediction by ZEFSAII (Michael W. Deem and Ramdas Pophale) SiO2 
 PCOD9011934
Probable space group: P -1
;
_chemical_formula_sum "Si O2"
_cell_formula_units_Z 14
_cell_length_a 9.371619
_cell_length_b 8.260363
_cell_length_c 9.346957
_cell_angle_alpha 132.947737
_cell_angle_beta 90.922117
_cell_angle_gamma 72.363007
_cell_volume 485.590728
_symmetry_space_group_name_H-M "P -1"
_symmetry_group_IT_number 2
_symmetry_cell_setting 'triclinic'
loop_
_space_group_symop_operation_xyz
x,y,z
-x,-y,-z
loop_
_atom_site_type_symbol
_atom_site_label
_atom_site_fract_x
_atom_site_fract_y
_atom_site_fract_z
Si Si1 0.196896 0.636502 0.333561
Si Si2 0.649842 0.778268 0.250524
Si Si3 0.487001 0.232142 0.231603
Si Si4 0.999447 0.876314 0.720595
Si Si5 0.912900 0.699895 0.999722
Si Si6 0.709271 0.482167 0.349230
Si Si7 0.310481 0.905635 0.294783
O O1 0.362049 0.477576 0.306928
O O2 0.084581 0.859045 0.557476
O O3 0.235917 0.720752 0.233615
O O4 0.107850 0.459577 0.222974
O O5 0.744084 0.813717 0.139376
O O6 0.707231 0.552101 0.225500
O O7 0.489869 0.785496 0.183573
O O8 0.666286 0.969201 0.481512
O O9 0.644279 0.275378 0.246913
O O10 0.412504 0.283337 0.422884
O O11 0.500000 0.000000 0.000000
O O12 0.118996 0.633078 0.650086
O O13 0.016137 0.111308 0.927305
O O14 0.820582 0.925983 0.715742
O O15 0.000000 0.500000 0.000000
#
# Coordination Sequence:
#
# PCOD9011934 Si02
#       7
#     2   2   2   2   2   2   2
#     4  11  21  40  69  99 128 181 230 277 331 411
#     4  11  25  43  68 104 139 177 231 288 345 404
#     4  10  21  40  67  99 138 185 229 273 345 415
#     4  11  23  45  72  97 135 184 229 277 345 417
#     4  12  24  42  72 101 134 182 237 283 341 414
#     4  10  23  43  67  97 143 178 225 289 344 401
#     4  11  22  41  68  97 137 176 225 281 340 401
#
# _framework density 28.830862
#
# number of rings (size 3 to 8) (size 9 to 14) (size 15 to 20)
#    0.000    1.143    4.286    2.143    0.000    3.429 
#    2.571    0.714    0.000    0.000    0.000    0.000 
#    0.000    0.000    0.000    0.000    0.000    0.000 
#
# Total GULP energy -78432.710682 kJ/mol
# GULP energy per Si atom -5602.336477 kJ/mol
# Density = 2.876524 g / cm^3
# Si number density = 28.830862 Si / 1000 Ang^3
#
#
#
# Elastic Constant Matrix: (Units=GPa)
#
#
# Indices 1 2 3 4 5 6 
#
# 1 190.6965 61.3775 47.4129 1.7440 22.8689 -17.9887
# 2 61.3775 158.1634 12.0415 3.7704 2.6493 -10.3759
# 3 47.4129 12.0415 136.4553 4.2231 12.4371 16.5202
# 4 1.7440 3.7704 4.2231 33.6311 4.9453 -2.0180
# 5 22.8689 2.6493 12.4371 4.9453 46.3438 -3.8999
# 6 -17.9887 -10.3759 16.5202 -2.0180 -3.8999 64.3791
#
#
#
# Elastic Compliance Matrix: (Units=1/GPa)
#
#
# Indices 1 2 3 4 5 6 
#
# 1 0.007092 -0.002417 -0.002278 0.000702 -0.002654 0.002038
# 2 -0.002417 0.007292 0.000079 -0.000802 0.000883 0.000508
# 3 -0.002278 0.000079 0.008621 -0.000953 -0.001341 -0.002947
# 4 0.000702 -0.000802 -0.000953 0.030443 -0.003203 0.001072
# 5 -0.002654 0.000883 -0.001341 -0.003203 0.023629 0.001076
# 6 0.002038 0.000508 -0.002947 0.001072 0.001076 0.017039
#
#
# Mechanical properties :
#
#
# Convention : Reuss Voigt Hill
#
# Bulk Modulus (GPa) = 72.59801 80.77545 76.68673
# Shear Modulus (GPa) = 46.32211 53.16968 49.74590
#
# Velocity S-wave (km/s) = 4.01270 4.29907 4.15835
# Velocity P-wave (km/s) = 6.83405 7.26089 7.05070
#
# Compressibility (1/GPa) = 0.01377448
#
# Stress axis : x y z
#
# Youngs Moduli (GPa) = 140.99703 137.13088 115.99275
#
# Poissons Ratio (x) = 0.33151 0.26418
# Poissons Ratio (y) = 0.34086 -0.00920
# Poissons Ratio (z) = 0.32113 -0.01088
#
# Static dielectric constant tensor:
#      x y z
#    x 2.199030 -0.037140 -0.099180 
#    y -0.037140 2.267430 0.042890 
#    z -0.099180 0.042890 2.319870 
# 
# From -- ./inp_files/380797.got.cif
#   From: 2010.05.17/outbox.cif.g08.bks.cpg/sg2_191_cif.got.tgz:380797.got - 2010.06.03 11:33:40.
