data_PCOD9011689
_publ_section_title
;
Structure prediction by ZEFSAII (Michael W. Deem and Ramdas Pophale) SiO2 
 PCOD9011689
Probable space group: P -1
;
_chemical_formula_sum "Si O2"
_cell_formula_units_Z 16
_cell_length_a 7.271973
_cell_length_b 12.973829
_cell_length_c 10.660823
_cell_angle_alpha 58.349961
_cell_angle_beta 68.880783
_cell_angle_gamma 110.815945
_cell_volume 581.430908
_symmetry_space_group_name_H-M "P -1"
_symmetry_group_IT_number 2
_symmetry_cell_setting 'triclinic'
loop_
_space_group_symop_operation_xyz
x,y,z
-x,-y,-z
loop_
_atom_site_type_symbol
_atom_site_label
_atom_site_fract_x
_atom_site_fract_y
_atom_site_fract_z
Si Si1 0.802955 0.136964 0.711592
Si Si2 0.705323 0.886331 0.581437
Si Si3 0.240460 0.803252 0.038834
Si Si4 0.555427 0.348292 0.813447
Si Si5 0.429671 0.710583 0.417243
Si Si6 0.945506 0.064492 0.146786
Si Si7 0.245938 0.349087 0.281269
Si Si8 0.837408 0.339948 0.228381
O O1 0.744347 0.250547 0.617001
O O2 0.078348 0.221910 0.521871
O O3 0.552911 0.960766 0.825662
O O4 0.803438 0.138521 0.859076
O O5 0.404275 0.818197 0.694696
O O6 0.813747 0.993685 0.358593
O O7 0.605017 0.707559 0.763050
O O8 0.000000 0.000000 0.500000
O O9 0.058960 0.799268 0.989137
O O10 0.234154 0.660625 0.172166
O O11 0.602695 0.396266 0.622503
O O12 0.569992 0.471871 0.816211
O O13 0.259652 0.163113 0.009099
O O14 0.315604 0.650776 0.624741
O O15 0.739462 0.890698 0.230676
O O16 0.033499 0.322827 0.256024
O O17 0.000000 0.500000 0.000000
#
# Coordination Sequence:
#
# PCOD9011689 Si02
#       8
#     2   2   2   2   2   2   2   2
#     4   8  16  35  61  89 132 178 215 267 333 412
#     4  11  27  50  75  96 134 189 246 288 341 419
#     4   9  18  35  62  94 131 175 221 265 330 418
#     4  11  22  37  68 107 147 179 214 284 365 419
#     4   8  18  38  66 101 142 185 229 274 340 423
#     4  10  21  40  67 100 135 185 238 279 333 417
#     4  11  25  44  68 102 144 177 227 290 365 410
#     4  10  24  47  72 102 139 184 233 293 342 399
#
# _framework density 27.518318000000001
#
# number of rings (size 3 to 8) (size 9 to 14) (size 15 to 20)
#    0.000    2.250    0.000    2.625    1.750    8.500 
#    2.250    4.375    0.000    0.000    0.000    0.000 
#    0.000    0.000    0.000    0.000    0.000    0.000 
#
# Total GULP energy -89354.950842 kJ/mol
# GULP energy per Si atom -5584.684428 kJ/mol
# Density = 2.745569 g / cm^3
# Si number density = 27.518318 Si / 1000 Ang^3
#
#
#
# Elastic Constant Matrix: (Units=GPa)
#
#
# Indices 1 2 3 4 5 6 
#
# 1 138.1952 43.5308 19.6510 0.5067 16.9162 27.3754
# 2 43.5308 114.1894 32.6423 -9.8310 12.3628 14.6735
# 3 19.6510 32.6423 122.4564 9.3281 -0.3976 20.1571
# 4 0.5067 -9.8310 9.3281 21.2199 10.0338 8.2789
# 5 16.9162 12.3628 -0.3976 10.0338 39.7413 -4.3744
# 6 27.3754 14.6735 20.1571 8.2789 -4.3744 31.9244
#
#
#
# Elastic Compliance Matrix: (Units=1/GPa)
#
#
# Indices 1 2 3 4 5 6 
#
# 1 0.010763 -0.001203 -0.000086 0.007138 -0.007273 -0.011470
# 2 -0.001203 0.013294 -0.003174 0.014582 -0.008215 -0.007982
# 3 -0.000086 -0.003174 0.009958 -0.005759 0.002253 -0.002953
# 4 0.007138 0.014582 -0.005759 0.086081 -0.033337 -0.036078
# 5 -0.007273 -0.008215 0.002253 -0.033337 0.041781 0.022960
# 6 -0.011470 -0.007982 -0.002953 -0.036078 0.022960 0.059195
#
#
# Mechanical properties :
#
#
# Convention : Reuss Voigt Hill
#
# Bulk Modulus (GPa) = 39.85708 62.94325 51.40017
# Shear Modulus (GPa) = 20.97655 37.17824 29.07740
#
# Velocity S-wave (km/s) = 2.76393 3.67963 3.25415
# Velocity P-wave (km/s) = 4.97001 6.40123 5.73048
#
# Compressibility (1/GPa) = 0.02508964
#
# Stress axis : x y z
#
# Youngs Moduli (GPa) = 92.90679 75.22304 100.42034
#
# Poissons Ratio (x) = 0.09048 0.00862
# Poissons Ratio (y) = 0.11175 0.31875
# Poissons Ratio (z) = 0.00798 0.23877
#
# Static dielectric constant tensor:
#      x y z
#    x 2.151440 -0.129110 -0.049570 
#    y -0.129110 2.346510 0.067820 
#    z -0.049570 0.067820 2.150300 
# 
# From -- ./inp_files/404776.got.cif
#   From: 2010.05.17/outbox.cif.g08.bks.cpg/sg2_203_cif.got.tgz:404776.got - 2010.06.03 11:33:40.
