data_PCOD9011539
_publ_section_title
;
Structure prediction by ZEFSAII (Michael W. Deem and Ramdas Pophale) SiO2 
 PCOD9011539
Probable space group: P -1
;
_chemical_formula_sum "Si O2"
_cell_formula_units_Z 14
_cell_length_a 5.810001
_cell_length_b 7.767033
_cell_length_c 16.756780
_cell_angle_alpha 94.709861
_cell_angle_beta 57.928198
_cell_angle_gamma 118.608998
_cell_volume 547.269367
_symmetry_space_group_name_H-M "P -1"
_symmetry_group_IT_number 2
_symmetry_cell_setting 'triclinic'
loop_
_space_group_symop_operation_xyz
x,y,z
-x,-y,-z
loop_
_atom_site_type_symbol
_atom_site_label
_atom_site_fract_x
_atom_site_fract_y
_atom_site_fract_z
Si Si1 0.031939 0.768034 0.433618
Si Si2 0.983507 0.087845 0.724668
Si Si3 0.369640 0.677782 0.783389
Si Si4 0.191591 0.436339 0.379151
Si Si5 0.659053 0.154202 0.363197
Si Si6 0.128686 0.921010 0.080843
Si Si7 0.155867 0.316690 0.034515
O O1 0.911353 0.776362 0.368326
O O2 0.219919 0.648878 0.385733
O O3 0.775047 0.642969 0.543992
O O4 0.285351 0.994570 0.424595
O O5 0.973813 0.172841 0.815771
O O6 0.622117 0.910585 0.767863
O O7 0.179380 0.976519 0.687933
O O8 0.581687 0.578095 0.727617
O O9 0.244114 0.686360 0.719495
O O10 0.090497 0.613517 0.894179
O O11 0.826079 0.277032 0.416396
O O12 0.098120 0.120008 0.087677
O O13 0.912762 0.766721 0.046096
O O14 0.500000 0.000000 0.000000
O O15 0.500000 0.500000 0.000000
#
# Coordination Sequence:
#
# PCOD9011539 Si02
#       7
#     2   2   2   2   2   2   2
#     4  10  23  42  67 101 135 178 236 274 339 412
#     4  10  21  42  70 100 136 181 227 282 343 415
#     4  10  21  43  68  98 142 175 229 288 341 407
#     4  10  23  43  66  99 137 181 228 283 335 412
#     4  10  21  40  66  94 139 176 220 280 347 397
#     4  11  23  47  74  97 139 184 226 290 353 412
#     4  11  25  46  71 107 135 180 236 288 348 420
#
# _framework density 25.581548000000002
#
# number of rings (size 3 to 8) (size 9 to 14) (size 15 to 20)
#    0.000    1.714    2.857    0.429    0.000    8.000 
#    7.714    4.286    0.000    0.000    0.000    0.000 
#    0.000    0.000    0.000    0.000    0.000    0.000 
#
# Total GULP energy -78437.592746 kJ/mol
# GULP energy per Si atom -5602.685196 kJ/mol
# Density = 2.552332 g / cm^3
# Si number density = 25.581548 Si / 1000 Ang^3
#
#
#
# Elastic Constant Matrix: (Units=GPa)
#
#
# Indices 1 2 3 4 5 6 
#
# 1 101.9076 41.4558 55.1542 3.2371 4.5895 14.6793
# 2 41.4558 114.3239 35.8056 11.9979 -7.5753 10.4401
# 3 55.1542 35.8056 83.1452 11.6624 10.5085 24.9413
# 4 3.2371 11.9979 11.6624 31.1252 -5.3712 -2.5556
# 5 4.5895 -7.5753 10.5085 -5.3712 46.6448 2.7757
# 6 14.6793 10.4401 24.9413 -2.5556 2.7757 52.7214
#
#
#
# Elastic Compliance Matrix: (Units=1/GPa)
#
#
# Indices 1 2 3 4 5 6 
#
# 1 0.016460 -0.003127 -0.010499 0.003623 0.000587 0.001148
# 2 -0.003127 0.011150 -0.002547 -0.002634 0.002412 -0.000387
# 3 -0.010499 -0.002547 0.024481 -0.008713 -0.005406 -0.008292
# 4 0.003623 -0.002634 -0.008713 0.037349 0.005172 0.005173
# 5 0.000587 0.002412 -0.005406 0.005172 0.023531 0.000928
# 6 0.001148 -0.000387 -0.008292 0.005173 0.000928 0.022849
#
#
# Mechanical properties :
#
#
# Convention : Reuss Voigt Hill
#
# Bulk Modulus (GPa) = 50.64202 62.68977 56.66590
# Shear Modulus (GPa) = 28.61285 37.22902 32.92094
#
# Velocity S-wave (km/s) = 3.34802 3.81899 3.59123
# Velocity P-wave (km/s) = 5.89788 6.63365 6.27655
#
# Compressibility (1/GPa) = 0.01974645
#
# Stress axis : x y z
#
# Youngs Moduli (GPa) = 60.75305 89.68509 40.84816
#
# Poissons Ratio (x) = 0.28041 0.42886
# Poissons Ratio (y) = 0.18995 0.10403
# Poissons Ratio (z) = 0.63784 0.22841
#
# Static dielectric constant tensor:
#      x y z
#    x 2.007940 0.020430 0.009300 
#    y 0.020430 2.035270 -0.054500 
#    z 0.009300 -0.054500 2.023820 
# 
# From -- ./inp_files/140805.got.cif
#   From: 2010.05.17/outbox.cif.g08.bks.cpg/sg2_71_cif.got.tgz:140805.got - 2010.06.03 11:33:40.
