data_PCOD9011132
_publ_section_title
;
Structure prediction by ZEFSAII (Michael W. Deem and Ramdas Pophale) SiO2 
 PCOD9011132
Probable space group: P -1
;
_chemical_formula_sum "Si O2"
_cell_formula_units_Z 16
_cell_length_a 7.440654
_cell_length_b 18.701047
_cell_length_c 10.491084
_cell_angle_alpha 53.574740
_cell_angle_beta 137.172528
_cell_angle_gamma 120.959687
_cell_volume 790.130380
_symmetry_space_group_name_H-M "P -1"
_symmetry_group_IT_number 2
_symmetry_cell_setting 'triclinic'
loop_
_space_group_symop_operation_xyz
x,y,z
-x,-y,-z
loop_
_atom_site_type_symbol
_atom_site_label
_atom_site_fract_x
_atom_site_fract_y
_atom_site_fract_z
Si Si1 0.245238 0.100513 0.179751
Si Si2 0.596179 0.082544 0.627124
Si Si3 0.615410 0.094684 0.901373
Si Si4 0.935719 0.267704 0.549988
Si Si5 0.363738 0.466724 0.832367
Si Si6 0.607825 0.286590 0.104668
Si Si7 0.765025 0.391230 0.560435
Si Si8 0.552180 0.274509 0.815318
O O1 0.374915 0.085856 0.400435
O O2 0.400204 0.194121 0.108076
O O3 0.304738 0.014434 0.221117
O O4 0.932429 0.102639 0.031393
O O5 0.486718 0.102004 0.687878
O O6 0.834697 0.162546 0.635068
O O7 0.557827 0.173692 0.878786
O O8 0.500000 0.000000 0.000000
O O9 0.809343 0.288252 0.326263
O O10 0.831037 0.325062 0.549943
O O11 0.252537 0.286966 0.683894
O O12 0.415959 0.541058 0.669364
O O13 0.042518 0.447735 0.692886
O O14 0.500000 0.500000 0.000000
O O15 0.461080 0.373151 0.950714
O O16 0.723533 0.290021 0.017964
O O17 0.644299 0.336458 0.677346
#
# Coordination Sequence:
#
# PCOD9011132 Si02
#       8
#     2   2   2   2   2   2   2   2
#     4  10  22  40  65  91 131 173 216 260 318 380
#     4  10  21  40  65  92 128 178 210 258 320 379
#     4  12  23  36  61  96 131 170 217 263 316 377
#     4  11  22  44  67  93 134 172 211 262 322 385
#     4  11  23  44  72  93 126 172 217 265 328 385
#     4  11  23  42  67  94 129 172 216 267 325 380
#     4  11  24  44  69  94 129 170 212 268 328 378
#     4  12  25  41  65 100 132 166 214 270 318 386
#
# _framework density 20.249825000000001
#
# number of rings (size 3 to 8) (size 9 to 14) (size 15 to 20)
#    0.000    1.000    3.750    3.375    0.000    3.000 
#    0.000    1.250    0.000    0.000    0.000    0.000 
#    0.000    0.000    0.000    0.000    0.000    0.000 
#
# Total GULP energy -89448.668204 kJ/mol
# GULP energy per Si atom -5590.541763 kJ/mol
# Density = 2.020374 g / cm^3
# Si number density = 20.249825 Si / 1000 Ang^3
#
#
#
# Elastic Constant Matrix: (Units=GPa)
#
#
# Indices 1 2 3 4 5 6 
#
# 1 53.5037 18.4552 51.5637 0.3371 -23.5701 -9.3161
# 2 18.4552 101.7719 63.6441 -7.7823 -12.2709 -10.0132
# 3 51.5637 63.6441 127.6548 1.2015 -32.4407 -10.4120
# 4 0.3371 -7.7823 1.2015 46.5466 -4.5112 -0.6167
# 5 -23.5701 -12.2709 -32.4407 -4.5112 36.3936 -0.8246
# 6 -9.3161 -10.0132 -10.4120 -0.6167 -0.8246 27.9242
#
#
#
# Elastic Compliance Matrix: (Units=1/GPa)
#
#
# Indices 1 2 3 4 5 6 
#
# 1 0.037883 0.004038 -0.012700 0.002321 0.015087 0.009848
# 2 0.004038 0.015265 -0.008915 0.002824 0.000247 0.003567
# 3 -0.012700 -0.008915 0.018741 -0.001373 0.005297 -0.000320
# 4 0.002321 0.002824 -0.001373 0.022392 0.004050 0.001889
# 5 0.015087 0.000247 0.005297 0.004050 0.042747 0.008448
# 6 0.009848 0.003567 -0.000320 0.001889 0.008448 0.040548
#
#
# Mechanical properties :
#
#
# Convention : Reuss Voigt Hill
#
# Bulk Modulus (GPa) = 27.22141 61.13961 44.18051
# Shear Modulus (GPa) = 22.22467 32.12403 27.17435
#
# Velocity S-wave (km/s) = 3.31648 3.98727 3.66724
# Velocity P-wave (km/s) = 5.30447 7.17328 6.30846
#
# Compressibility (1/GPa) = 0.03673580
#
# Stress axis : x y z
#
# Youngs Moduli (GPa) = 26.39686 65.50851 53.35842
#
# Poissons Ratio (x) = -0.26451 0.67766
# Poissons Ratio (y) = -0.10659 0.47568
# Poissons Ratio (z) = 0.33524 0.58399
#
# Static dielectric constant tensor:
#      x y z
#    x 1.684550 -0.002240 -0.019700 
#    y -0.002240 1.726460 0.006870 
#    z -0.019700 0.006870 1.757130 
# 
# From -- ./inp_files/138799.got.cif
#   From: 2010.05.17/outbox.cif.g08.bks.cpg/sg2_70_cif.got.tgz:138799.got - 2010.06.03 11:33:40.
