data_PCOD9011304
_publ_section_title
;
Structure prediction by ZEFSAII (Michael W. Deem and Ramdas Pophale) SiO2 
 PCOD9011304
Probable space group: P -1
;
_chemical_formula_sum "Si O2"
_cell_formula_units_Z 16
_cell_length_a 12.558043
_cell_length_b 9.398890
_cell_length_c 15.144022
_cell_angle_alpha 44.779209
_cell_angle_beta 134.637512
_cell_angle_gamma 116.007015
_cell_volume 889.403131
_symmetry_space_group_name_H-M "P -1"
_symmetry_group_IT_number 2
_symmetry_cell_setting 'triclinic'
loop_
_space_group_symop_operation_xyz
x,y,z
-x,-y,-z
loop_
_atom_site_type_symbol
_atom_site_label
_atom_site_fract_x
_atom_site_fract_y
_atom_site_fract_z
Si Si1 0.334085 0.441977 0.620606
Si Si2 0.400029 0.056428 0.057692
Si Si3 0.304406 0.970678 0.850955
Si Si4 0.903678 0.657142 0.239629
Si Si5 0.405656 0.636670 0.311288
Si Si6 0.128390 0.525590 0.289764
Si Si7 0.018060 0.099143 0.371115
Si Si8 0.126641 0.728673 0.493457
O O1 0.302011 0.215980 0.729827
O O2 0.506952 0.440734 0.693206
O O3 0.235568 0.483327 0.456581
O O4 0.271108 0.608805 0.581934
O O5 0.559751 0.123888 0.091741
O O6 0.423851 0.876862 0.222499
O O7 0.347128 0.941190 0.990518
O O8 0.265541 0.234001 0.916968
O O9 0.147359 0.895748 0.769705
O O10 0.910612 0.425633 0.382159
O O11 0.987826 0.662433 0.192678
O O12 0.996396 0.751323 0.331678
O O13 0.500000 0.500000 0.500000
O O14 0.231095 0.613862 0.236459
O O15 0.074392 0.316633 0.317938
O O16 0.000000 0.000000 0.500000
O O17 0.130381 0.944989 0.445442
#
# Coordination Sequence:
#
# PCOD9011304 Si02
#       8
#     2   2   2   2   2   2   2   2
#     4   9  16  33  56  77 104 133 183 222 250 304
#     4  10  19  32  56  79 105 136 181 228 255 302
#     4  10  18  31  52  84 105 132 176 224 269 306
#     4  10  17  31  53  81 107 135 176 223 261 304
#     4   9  20  36  53  78 104 143 181 216 259 313
#     4  10  20  32  52  78 110 144 171 211 261 320
#     4  12  19  31  53  83 114 140 167 215 275 318
#     4  10  17  29  52  84 107 133 177 218 263 314
#
# _framework density 17.989592999999999
#
# number of rings (size 3 to 8) (size 9 to 14) (size 15 to 20)
#    0.000    2.000    5.000    0.750    0.000    0.500 
#    0.000    1.875    0.000    0.000    0.000    0.000 
#    0.000    0.000    0.000    0.000    0.000    0.000 
#
# Total GULP energy -89085.849368 kJ/mol
# GULP energy per Si atom -5567.865586 kJ/mol
# Density = 1.794865 g / cm^3
# Si number density = 17.989593 Si / 1000 Ang^3
#
#
#
# Elastic Constant Matrix: (Units=GPa)
#
#
# Indices 1 2 3 4 5 6 
#
# 1 133.8126 34.1556 9.6896 -8.0640 32.0306 -7.8930
# 2 34.1556 51.4829 -4.7927 -5.5717 7.7963 -8.7248
# 3 9.6896 -4.7927 43.3481 -9.4589 13.8535 -6.8383
# 4 -8.0640 -5.5717 -9.4589 12.7482 -6.8693 5.4491
# 5 32.0306 7.7963 13.8535 -6.8693 29.5709 -8.9489
# 6 -7.8930 -8.7248 -6.8383 5.4491 -8.9489 20.4184
#
#
#
# Elastic Compliance Matrix: (Units=1/GPa)
#
#
# Indices 1 2 3 4 5 6 
#
# 1 0.011881 -0.006715 -0.000186 -0.000638 -0.012227 -0.003528
# 2 -0.006715 0.027035 0.007627 0.010103 0.001830 0.009616
# 3 -0.000186 0.007627 0.032439 0.019539 -0.011291 0.003888
# 4 -0.000638 0.010103 0.019539 0.108194 0.009779 -0.013974
# 5 -0.012227 0.001830 -0.011291 0.009779 0.058813 0.015441
# 6 -0.003528 0.009616 0.003888 -0.013974 0.015441 0.063520
#
#
# Mechanical properties :
#
#
# Convention : Reuss Voigt Hill
#
# Bulk Modulus (GPa) = 13.73511 34.08319 23.90915
# Shear Modulus (GPa) = 15.39888 25.18690 20.29289
#
# Velocity S-wave (km/s) = 2.92890 3.74583 3.36227
# Velocity P-wave (km/s) = 4.36916 6.13966 5.32846
#
# Compressibility (1/GPa) = 0.07280613
#
# Stress axis : x y z
#
# Youngs Moduli (GPa) = 84.16877 36.98951 30.82692
#
# Poissons Ratio (x) = 0.24838 0.00574
# Poissons Ratio (y) = 0.56518 -0.23511
# Poissons Ratio (z) = 0.01568 -0.28211
#
# Static dielectric constant tensor:
#      x y z
#    x 1.697220 -0.011690 0.026340 
#    y -0.011690 1.580430 -0.003300 
#    z 0.026340 -0.003300 1.662480 
# 
# From -- ./inp_files/280946.got.cif
#   From: 2010.05.17/outbox.cif.g08.bks.cpg/sg2_141_cif.got.tgz:280946.got - 2010.06.03 11:33:40.
