data_PCOD9011353
_publ_section_title
;
Structure prediction by ZEFSAII (Michael W. Deem and Ramdas Pophale) SiO2 
 PCOD9011353
Probable space group: P -1
;
_chemical_formula_sum "Si O2"
_cell_formula_units_Z 15
_cell_length_a 9.007923
_cell_length_b 22.092427
_cell_length_c 14.024099
_cell_angle_alpha 159.144017
_cell_angle_beta 138.249166
_cell_angle_gamma 40.740408
_cell_volume 639.725949
_symmetry_space_group_name_H-M "P -1"
_symmetry_group_IT_number 2
_symmetry_cell_setting 'triclinic'
loop_
_space_group_symop_operation_xyz
x,y,z
-x,-y,-z
loop_
_atom_site_type_symbol
_atom_site_label
_atom_site_fract_x
_atom_site_fract_y
_atom_site_fract_z
Si Si1 0.802573 0.099758 0.246152
Si Si2 0.291693 0.818293 0.903035
Si Si3 0.893302 0.637259 0.479238
Si Si4 0.000000 0.000000 0.500000
Si Si5 0.518841 0.297754 0.738139
Si Si6 0.213367 0.317068 0.098632
Si Si7 0.692779 0.895283 0.509790
Si Si8 0.699464 0.727806 0.701741
O O1 0.767666 0.128039 0.156786
O O2 0.577062 0.226432 0.372165
O O3 0.043727 0.137913 0.449825
O O4 0.783482 0.905294 0.980959
O O5 0.541494 0.680618 0.824232
O O6 0.092081 0.737224 0.726994
O O7 0.302059 0.977293 0.210566
O O8 0.650889 0.753843 0.497087
O O9 0.821061 0.586376 0.473776
O O10 0.001387 0.485348 0.231298
O O11 0.227358 0.830542 0.333962
O O12 0.836052 0.864194 0.222614
O O13 0.396532 0.268388 0.735520
O O14 0.500000 0.500000 0.000000
O O15 0.243837 0.316457 0.226781
O O16 0.500000 0.000000 0.500000
#
# Coordination Sequence:
#
# PCOD9011353 Si02
#       8
#     2   2   2   1   2   2   2   2
#     4  10  21  40  66 100 139 185 244 292 370 436
#     4  11  22  44  71 101 142 195 244 301 369 450
#     4  12  23  44  74 104 142 188 253 301 371 438
#     4  12  26  44  68 102 146 194 250 288 376 450
#     4  12  27  47  74 105 149 203 246 302 376 454
#     4  11  25  43  69 104 146 189 241 310 363 443
#     4  12  25  41  73 107 148 194 247 307 374 441
#     4  10  23  37  68 105 136 179 238 311 356 431
#
# _framework density 23.447541000000001
#
# number of rings (size 3 to 8) (size 9 to 14) (size 15 to 20)
#    0.000    0.800    5.333    2.000    5.600    0.000 
#    2.400    0.000    0.000    2.400    0.000    0.000 
#    0.000    0.000    0.000    0.000    0.000    0.000 
#
# Total GULP energy -83565.901906 kJ/mol
# GULP energy per Si atom -5571.060127 kJ/mol
# Density = 2.339417 g / cm^3
# Si number density = 23.447541 Si / 1000 Ang^3
#
#
#
# Elastic Constant Matrix: (Units=GPa)
#
#
# Indices 1 2 3 4 5 6 
#
# 1 126.6040 48.1499 22.3831 -2.1222 21.8216 -39.1499
# 2 48.1499 98.2838 11.1953 -8.4877 23.7180 -30.1977
# 3 22.3831 11.1953 88.1061 8.9207 21.3379 -17.9056
# 4 -2.1222 -8.4877 8.9207 33.2870 -11.1431 0.3475
# 5 21.8216 23.7180 21.3379 -11.1431 29.6554 -7.2950
# 6 -39.1499 -30.1977 -17.9056 0.3475 -7.2950 53.6459
#
#
#
# Elastic Compliance Matrix: (Units=1/GPa)
#
#
# Indices 1 2 3 4 5 6 
#
# 1 0.011834 -0.002550 0.000323 -0.002088 -0.006088 0.006494
# 2 -0.002550 0.015772 0.002807 -0.000805 -0.011487 0.006397
# 3 0.000323 0.002807 0.017099 -0.009629 -0.017110 0.005259
# 4 -0.002088 -0.000805 -0.009629 0.040233 0.023677 -0.002232
# 5 -0.006088 -0.011487 -0.017110 0.023677 0.066701 -0.007703
# 6 0.006494 0.006397 0.005259 -0.002232 -0.007703 0.027704
#
#
# Mechanical properties :
#
#
# Convention : Reuss Voigt Hill
#
# Bulk Modulus (GPa) = 21.80272 52.93893 37.37083
# Shear Modulus (GPa) = 25.84379 38.73537 32.28958
#
# Velocity S-wave (km/s) = 3.32354 4.06889 3.71495
# Velocity P-wave (km/s) = 4.90373 6.68589 5.86292
#
# Compressibility (1/GPa) = 0.04586583
#
# Stress axis : x y z
#
# Youngs Moduli (GPa) = 84.50277 63.40250 58.48423
#
# Poissons Ratio (x) = 0.16169 -0.01891
# Poissons Ratio (y) = 0.21549 -0.16418
# Poissons Ratio (z) = -0.02732 -0.17799
#
# Static dielectric constant tensor:
#      x y z
#    x 1.913840 0.016070 -0.003260 
#    y 0.016070 2.007190 0.040750 
#    z -0.003260 0.040750 1.939990 
# 
# From -- ./inp_files/508685.got.cif
#   From: 2010.05.17/outbox.cif.g08.bks.cpg/sg2_255_cif.got.tgz:508685.got - 2010.06.03 11:33:40.
