data_PCOD9011984
_publ_section_title
;
Structure prediction by ZEFSAII (Michael W. Deem and Ramdas Pophale) SiO2 
 PCOD9011984
Probable space group: P -1
;
_chemical_formula_sum "Si O2"
_cell_formula_units_Z 16
_cell_length_a 9.566653
_cell_length_b 13.621014
_cell_length_c 10.349454
_cell_angle_alpha 33.498944
_cell_angle_beta 108.318456
_cell_angle_gamma 102.642682
_cell_volume 704.200247
_symmetry_space_group_name_H-M "P -1"
_symmetry_group_IT_number 2
_symmetry_cell_setting 'triclinic'
loop_
_space_group_symop_operation_xyz
x,y,z
-x,-y,-z
loop_
_atom_site_type_symbol
_atom_site_label
_atom_site_fract_x
_atom_site_fract_y
_atom_site_fract_z
Si Si1 0.529109 0.576477 0.783224
Si Si2 0.255788 0.501160 0.608380
Si Si3 0.136738 0.449947 0.190312
Si Si4 0.856909 0.900357 0.536621
Si Si5 0.649554 0.815348 0.190617
Si Si6 0.116104 0.895421 0.055783
Si Si7 0.558292 0.944389 0.296686
Si Si8 0.944389 0.700696 0.029157
O O1 0.408078 0.515521 0.714511
O O2 0.699061 0.524103 0.842769
O O3 0.506204 0.793818 0.542368
O O4 0.500000 0.500000 0.000000
O O5 0.182862 0.700220 0.337968
O O6 0.283939 0.377173 0.625738
O O7 0.148163 0.397997 0.783732
O O8 0.127099 0.237783 0.427081
O O9 0.079343 0.566039 0.166398
O O10 0.000000 0.500000 0.000000
O O11 0.705671 0.009356 0.333988
O O12 0.843511 0.778184 0.795573
O O13 0.000000 0.000000 0.500000
O O14 0.574755 0.826081 0.297613
O O15 0.757728 0.971915 0.064718
O O16 0.023983 0.861086 0.939033
O O17 0.543351 0.886326 0.964950
O O18 0.000000 0.000000 0.000000
#
# Coordination Sequence:
#
# PCOD9011984 Si02
#       8
#     2   2   2   2   2   2   2   2
#     4  11  23  44  72 106 147 190 245 303 367 433
#     4  12  26  44  73 107 145 192 246 298 377 427
#     4   9  21  40  65 100 142 186 239 291 359 437
#     4  10  21  40  68 102 138 189 241 298 360 424
#     4  11  25  46  68 110 144 192 242 298 361 453
#     4  12  26  46  71 104 146 191 245 300 368 439
#     4  10  23  45  69 101 155 185 241 300 366 440
#     4  11  24  44  69 105 144 190 249 301 368 434
#
# _framework density 22.720808999999999
#
# number of rings (size 3 to 8) (size 9 to 14) (size 15 to 20)
#    0.000    1.250    2.500    3.375    3.500    5.500 
#    0.000    5.000    0.000    0.000    0.000    0.000 
#    0.000    0.000    0.000    0.000    0.000    0.000 
#
# Total GULP energy -89334.200273 kJ/mol
# GULP energy per Si atom -5583.387517 kJ/mol
# Density = 2.266910 g / cm^3
# Si number density = 22.720809 Si / 1000 Ang^3
#
#
#
# Elastic Constant Matrix: (Units=GPa)
#
#
# Indices 1 2 3 4 5 6 
#
# 1 121.2819 46.0386 40.0806 -0.3950 12.8845 19.5615
# 2 46.0386 117.9834 15.7297 -14.2654 5.8103 4.7954
# 3 40.0806 15.7297 104.0413 0.3493 18.8742 9.0851
# 4 -0.3950 -14.2654 0.3493 29.7039 10.2098 2.4895
# 5 12.8845 5.8103 18.8742 10.2098 46.4964 1.1071
# 6 19.5615 4.7954 9.0851 2.4895 1.1071 51.1053
#
#
#
# Elastic Compliance Matrix: (Units=1/GPa)
#
#
# Indices 1 2 3 4 5 6 
#
# 1 0.011514 -0.003992 -0.003352 -0.001096 -0.001011 -0.003362
# 2 -0.003992 0.010759 0.000150 0.005620 -0.001539 0.000252
# 3 -0.003352 0.000150 0.011691 0.001371 -0.004118 -0.000787
# 4 -0.001096 0.005620 0.001371 0.039826 -0.009651 -0.002083
# 5 -0.001011 -0.001539 -0.004118 -0.009651 0.025742 0.001176
# 6 -0.003362 0.000252 -0.000787 -0.002083 0.001176 0.021046
#
#
# Mechanical properties :
#
#
# Convention : Reuss Voigt Hill
#
# Bulk Modulus (GPa) = 51.08269 60.77827 55.93048
# Shear Modulus (GPa) = 35.33759 41.55830 38.44794
#
# Velocity S-wave (km/s) = 3.94800 4.28142 4.11809
# Velocity P-wave (km/s) = 6.58133 7.15883 6.87615
#
# Compressibility (1/GPa) = 0.01957610
#
# Stress axis : x y z
#
# Youngs Moduli (GPa) = 86.84825 92.94790 85.53364
#
# Poissons Ratio (x) = 0.37107 0.28668
# Poissons Ratio (y) = 0.34672 -0.01281
# Poissons Ratio (z) = 0.29108 -0.01392
#
# Static dielectric constant tensor:
#      x y z
#    x 1.994780 -0.039780 0.012120 
#    y -0.039780 1.838740 0.023330 
#    z 0.012120 0.023330 1.941550 
# 
# From -- ./inp_files/395455.got.cif
#   From: 2010.05.17/outbox.cif.g08.bks.cpg/sg2_198_cif.got.tgz:395455.got - 2010.06.03 11:33:40.
