data_PCOD9011577
_publ_section_title
;
Structure prediction by ZEFSAII (Michael W. Deem and Ramdas Pophale) SiO2 
 PCOD9011577
Probable space group: P -1
;
_chemical_formula_sum "Si O2"
_cell_formula_units_Z 15
_cell_length_a 15.331556
_cell_length_b 9.187282
_cell_length_c 11.852565
_cell_angle_alpha 57.077288
_cell_angle_beta 150.738942
_cell_angle_gamma 124.072354
_cell_volume 669.735609
_symmetry_space_group_name_H-M "P -1"
_symmetry_group_IT_number 2
_symmetry_cell_setting 'triclinic'
loop_
_space_group_symop_operation_xyz
x,y,z
-x,-y,-z
loop_
_atom_site_type_symbol
_atom_site_label
_atom_site_fract_x
_atom_site_fract_y
_atom_site_fract_z
Si Si1 0.842718 0.252960 0.901379
Si Si2 0.096059 0.641524 0.643217
Si Si3 0.546997 0.110818 0.161364
Si Si4 0.409371 0.094490 0.257846
Si Si5 0.000000 0.000000 0.500000
Si Si6 0.492447 0.578538 0.632478
Si Si7 0.857059 0.522434 0.995205
Si Si8 0.683522 0.808205 0.326429
O O1 0.666449 0.330213 0.630881
O O2 0.001665 0.309260 0.965548
O O3 0.775042 0.043274 0.923579
O O4 0.891421 0.360857 0.025409
O O5 0.292797 0.740876 0.773487
O O6 0.012613 0.806876 0.525829
O O7 0.116170 0.527603 0.825141
O O8 0.000000 0.500000 0.500000
O O9 0.529757 0.123665 0.269051
O O10 0.582133 0.918548 0.249657
O O11 0.363644 0.127531 0.879843
O O12 0.396467 0.284765 0.209003
O O13 0.500000 0.000000 0.500000
O O14 0.896164 0.884953 0.536731
O O15 0.391052 0.395662 0.650919
O O16 0.649472 0.546586 0.738666
#
# Coordination Sequence:
#
# PCOD9011577 Si02
#       8
#     2   2   2   2   1   2   2   2
#     4  10  24  43  69  95 140 179 224 287 331 427
#     4  11  25  43  68 100 141 177 232 298 342 417
#     4  10  22  41  66  91 130 172 219 282 343 402
#     4  10  24  40  63  95 133 177 219 279 339 404
#     4  10  24  40  64 100 136 180 218 280 364 404
#     4  11  22  42  69 100 131 178 229 281 343 415
#     4  11  23  44  69 101 129 182 232 277 351 404
#     4  10  21  40  66  96 125 171 226 279 338 418
#
# _framework density 22.396898
#
# number of rings (size 3 to 8) (size 9 to 14) (size 15 to 20)
#    0.000    1.600    1.333    2.000    9.333    3.200 
#    0.000    2.667    0.000    0.000    0.000    0.000 
#    0.000    0.000    0.000    0.000    0.000    0.000 
#
# Total GULP energy -83532.819206 kJ/mol
# GULP energy per Si atom -5568.854614 kJ/mol
# Density = 2.234592 g / cm^3
# Si number density = 22.396898 Si / 1000 Ang^3
#
#
#
# Elastic Constant Matrix: (Units=GPa)
#
#
# Indices 1 2 3 4 5 6 
#
# 1 125.1477 30.2096 22.0418 -4.3750 -6.1851 9.5687
# 2 30.2096 133.6010 4.4420 1.5274 8.2320 -0.6059
# 3 22.0418 4.4420 50.1838 -9.7846 -1.1417 -4.5076
# 4 -4.3750 1.5274 -9.7846 21.4059 -8.8164 6.0817
# 5 -6.1851 8.2320 -1.1417 -8.8164 25.7794 12.8236
# 6 9.5687 -0.6059 -4.5076 6.0817 12.8236 31.4821
#
#
#
# Elastic Compliance Matrix: (Units=1/GPa)
#
#
# Indices 1 2 3 4 5 6 
#
# 1 0.011061 -0.003241 -0.003564 0.008565 0.011588 -0.010309
# 2 -0.003241 0.008896 -0.000372 -0.006942 -0.009061 0.006135
# 3 -0.003564 -0.000372 0.023962 0.011755 0.004054 0.000585
# 4 0.008565 -0.006942 0.011755 0.088748 0.055427 -0.040775
# 5 0.011588 -0.009061 0.004054 0.055427 0.088384 -0.049825
# 6 -0.010309 0.006135 0.000585 -0.040775 -0.049825 0.063271
#
#
# Mechanical properties :
#
#
# Convention : Reuss Voigt Hill
#
# Bulk Modulus (GPa) = 33.82554 46.92437 40.37496
# Shear Modulus (GPa) = 16.20579 32.54943 24.37761
#
# Velocity S-wave (km/s) = 2.69285 3.81635 3.30273
# Velocity P-wave (km/s) = 4.98038 6.35737 5.71053
#
# Compressibility (1/GPa) = 0.02956346
#
# Stress axis : x y z
#
# Youngs Moduli (GPa) = 90.40715 112.41310 41.73339
#
# Poissons Ratio (x) = 0.36437 0.14873
# Poissons Ratio (y) = 0.29304 0.01554
# Poissons Ratio (z) = 0.32219 0.04186
#
# Static dielectric constant tensor:
#      x y z
#    x 1.805930 -0.022860 -0.001010 
#    y -0.022860 1.812050 0.011970 
#    z -0.001010 0.011970 1.888420 
# 
# From -- ./inp_files/445711.got.cif
#   From: 2010.05.17/outbox.cif.g08.bks.cpg/sg2_223_cif.got.tgz:445711.got - 2010.06.03 11:33:40.
