data_PCOD9011041
_publ_section_title
;
Structure prediction by ZEFSAII (Michael W. Deem and Ramdas Pophale) SiO2 
 PCOD9011041
Probable space group: P -1
;
_chemical_formula_sum "Si O2"
_cell_formula_units_Z 14
_cell_length_a 23.840867
_cell_length_b 13.445588
_cell_length_c 23.051578
_cell_angle_alpha 22.869074
_cell_angle_beta 17.639741
_cell_angle_gamma 16.578094
_cell_volume 636.127731
_symmetry_space_group_name_H-M "P -1"
_symmetry_group_IT_number 2
_symmetry_cell_setting 'triclinic'
loop_
_space_group_symop_operation_xyz
x,y,z
-x,-y,-z
loop_
_atom_site_type_symbol
_atom_site_label
_atom_site_fract_x
_atom_site_fract_y
_atom_site_fract_z
Si Si1 0.738939 0.836168 0.394746
Si Si2 0.870710 0.867082 0.678350
Si Si3 0.986556 0.347308 0.038209
Si Si4 0.549506 0.103538 0.251969
Si Si5 0.223056 0.629008 0.059283
Si Si6 0.603194 0.858665 0.049438
Si Si7 0.843986 0.394611 0.727153
O O1 0.625216 0.916073 0.528029
O O2 0.944438 0.428239 0.392910
O O3 0.937632 0.886933 0.175876
O O4 0.500000 0.000000 0.500000
O O5 0.590736 0.172079 0.765240
O O6 0.809668 0.738126 0.862182
O O7 0.000000 0.000000 0.500000
O O8 0.731278 0.646541 0.095307
O O9 0.022531 0.008983 0.193341
O O10 0.000000 0.500000 0.000000
O O11 0.212370 0.232391 0.835783
O O12 0.385209 0.390115 0.209040
O O13 0.664431 0.197020 0.134549
O O14 0.220084 0.523065 0.185450
O O15 0.422236 0.274659 0.016436
O O16 0.000000 0.500000 0.500000
#
# Coordination Sequence:
#
# PCOD9011041 Si02
#       7
#     2   2   2   2   2   2   2
#     4  11  23  38  61  93 122 163 221 261 309 382
#     4  10  22  39  63  89 129 169 208 263 322 377
#     4  11  23  41  66  98 131 166 214 270 322 385
#     4  11  22  40  66  87 127 170 207 261 323 383
#     4  10  21  40  65  87 127 170 208 259 322 387
#     4  10  21  41  61  92 129 166 212 262 323 376
#     4  11  22  42  68  92 128 171 214 264 326 386
#
# _framework density 22.008158999999999
#
# number of rings (size 3 to 8) (size 9 to 14) (size 15 to 20)
#    0.000    1.429    1.429    5.143    0.000    2.857 
#    2.571    1.429    0.000    0.000    0.000    0.000 
#    0.000    0.000    0.000    0.000    0.000    0.000 
#
# Total GULP energy -78150.554756 kJ/mol
# GULP energy per Si atom -5582.182483 kJ/mol
# Density = 2.195807 g / cm^3
# Si number density = 22.008159 Si / 1000 Ang^3
#
#
#
# Elastic Constant Matrix: (Units=GPa)
#
#
# Indices 1 2 3 4 5 6 
#
# 1 124.0887 34.9356 40.9270 3.2393 -20.6634 -13.7220
# 2 34.9356 60.5243 29.0795 19.5919 -1.7086 0.3917
# 3 40.9270 29.0795 129.8260 8.0989 -10.3517 1.2777
# 4 3.2393 19.5919 8.0989 15.3079 -5.2820 -7.3077
# 5 -20.6634 -1.7086 -10.3517 -5.2820 51.6942 13.7498
# 6 -13.7220 0.3917 1.2777 -7.3077 13.7498 50.3958
#
#
#
# Elastic Compliance Matrix: (Units=1/GPa)
#
#
# Indices 1 2 3 4 5 6 
#
# 1 0.013164 -0.012376 -0.002176 0.018319 0.004948 0.005042
# 2 -0.012376 0.044318 -0.002764 -0.060138 -0.007431 -0.010337
# 3 -0.002176 -0.002764 0.009175 -0.001077 0.001101 -0.001260
# 4 0.018319 -0.060138 -0.001077 0.155509 0.014613 0.024046
# 5 0.004948 -0.007431 0.001101 0.014613 0.023571 -0.002935
# 6 0.005042 -0.010337 -0.001260 0.024046 -0.002935 0.025616
#
#
# Mechanical properties :
#
#
# Convention : Reuss Voigt Hill
#
# Bulk Modulus (GPa) = 31.22577 58.25815 44.74196
# Shear Modulus (GPa) = 15.78979 37.44604 26.61791
#
# Velocity S-wave (km/s) = 2.68143 4.12935 3.48150
# Velocity P-wave (km/s) = 4.87912 7.01883 6.04441
#
# Compressibility (1/GPa) = 0.03202483
#
# Stress axis : x y z
#
# Youngs Moduli (GPa) = 75.96509 22.56406 108.99031
#
# Poissons Ratio (x) = 0.27925 0.23713
# Poissons Ratio (y) = 0.94015 0.30130
# Poissons Ratio (z) = 0.16528 0.06238
#
# Static dielectric constant tensor:
#      x y z
#    x 1.835760 -0.034470 -0.017900 
#    y -0.034470 1.796780 -0.004080 
#    z -0.017900 -0.004080 1.835040 
# 
# From -- ./inp_files/446373.got.cif
#   From: 2010.05.17/outbox.cif.g08.bks.cpg/sg2_224_cif.got.tgz:446373.got - 2010.06.03 11:33:40.
