data_PCOD9011674
_publ_section_title
;
Structure prediction by ZEFSAII (Michael W. Deem and Ramdas Pophale) SiO2 
 PCOD9011674
Probable space group: P -1
;
_chemical_formula_sum "Si O2"
_cell_formula_units_Z 16
_cell_length_a 9.262423
_cell_length_b 5.685009
_cell_length_c 12.164311
_cell_angle_alpha 93.822504
_cell_angle_beta 78.098512
_cell_angle_gamma 65.643415
_cell_volume 562.651160
_symmetry_space_group_name_H-M "P -1"
_symmetry_group_IT_number 2
_symmetry_cell_setting 'triclinic'
loop_
_space_group_symop_operation_xyz
x,y,z
-x,-y,-z
loop_
_atom_site_type_symbol
_atom_site_label
_atom_site_fract_x
_atom_site_fract_y
_atom_site_fract_z
Si Si1 0.977754 0.192036 0.251880
Si Si2 0.301046 0.138670 0.004706
Si Si3 0.314330 0.639767 0.087275
Si Si4 0.441527 0.038649 0.702500
Si Si5 0.815407 0.787648 0.572327
Si Si6 0.885515 0.740963 0.194209
Si Si7 0.463333 0.526911 0.280724
Si Si8 0.778584 0.297224 0.488671
O O1 0.957411 0.427773 0.181447
O O2 0.807059 0.303636 0.355277
O O3 0.112971 0.188861 0.318959
O O4 0.983713 0.915975 0.201599
O O5 0.215372 0.169293 0.900562
O O6 0.243529 0.440730 0.054702
O O7 0.500000 0.000000 0.000000
O O8 0.247731 0.939824 0.070781
O O9 0.319321 0.623715 0.217603
O O10 0.500000 0.500000 0.000000
O O11 0.260404 0.154878 0.685999
O O12 0.445554 0.297832 0.762260
O O13 0.614717 0.918687 0.608879
O O14 0.457036 0.781831 0.757334
O O15 0.856768 0.487099 0.528773
O O16 0.852842 0.993334 0.501543
O O17 0.395691 0.586452 0.417015
#
# Coordination Sequence:
#
# PCOD9011674 Si02
#       8
#     2   2   2   2   2   2   2   2
#     4  12  24  40  62  92 131 166 198 256 312 356
#     4  10  20  34  56  84 115 157 202 248 302 370
#     4  10  17  29  53  82 109 147 194 250 298 344
#     4  10  20  37  58  84 120 160 202 246 294 365
#     4  10  21  40  64  87 118 170 221 244 282 368
#     4  12  24  39  60  96 129 157 200 261 320 359
#     4  10  19  34  57  89 118 148 203 257 292 347
#     4  10  21  39  63  90 119 167 216 244 285 371
#
# _framework density 28.436803000000001
#
# number of rings (size 3 to 8) (size 9 to 14) (size 15 to 20)
#    0.000    1.500    0.000    7.500    0.000    0.000 
#    0.000   15.000    0.000    0.000    0.000   92.750 
#    0.000    0.000    0.000    0.000    0.000    0.000 
#
# Total GULP energy -89322.524612 kJ/mol
# GULP energy per Si atom -5582.657788 kJ/mol
# Density = 2.837208 g / cm^3
# Si number density = 28.436803 Si / 1000 Ang^3
#
#
#
# Elastic Constant Matrix: (Units=GPa)
#
#
# Indices 1 2 3 4 5 6 
#
# 1 130.4065 74.8985 26.8580 12.8128 11.5974 46.7416
# 2 74.8985 356.9885 72.3130 1.7919 30.4438 68.4626
# 3 26.8580 72.3130 101.5981 -0.3904 25.9057 14.4040
# 4 12.8128 1.7919 -0.3904 43.5395 10.2125 7.1389
# 5 11.5974 30.4438 25.9057 10.2125 42.8063 11.1864
# 6 46.7416 68.4626 14.4040 7.1389 11.1864 57.0999
#
#
#
# Elastic Compliance Matrix: (Units=1/GPa)
#
#
# Indices 1 2 3 4 5 6 
#
# 1 0.011392 -0.000553 -0.001732 -0.002249 0.001020 -0.008144
# 2 -0.000553 0.004152 -0.002064 0.000789 -0.000706 -0.003965
# 3 -0.001732 -0.002064 0.013347 0.002103 -0.007073 0.001648
# 4 -0.002249 0.000789 0.002103 0.025479 -0.006920 -0.001465
# 5 0.001020 -0.000706 -0.007073 -0.006920 0.030378 -0.003290
# 6 -0.008144 -0.003965 0.001648 -0.001465 -0.003290 0.029346
#
#
# Mechanical properties :
#
#
# Convention : Reuss Voigt Hill
#
# Bulk Modulus (GPa) = 49.52021 104.12578 76.82299
# Shear Modulus (GPa) = 38.60287 56.35071 47.47679
#
# Velocity S-wave (km/s) = 3.68842 4.45636 4.09045
# Velocity P-wave (km/s) = 5.96583 7.94826 7.02731
#
# Compressibility (1/GPa) = 0.02019378
#
# Stress axis : x y z
#
# Youngs Moduli (GPa) = 87.78051 240.84819 74.92118
#
# Poissons Ratio (x) = 0.13323 0.12976
# Poissons Ratio (y) = 0.04856 0.15462
# Poissons Ratio (z) = 0.15203 0.49704
#
# Static dielectric constant tensor:
#      x y z
#    x 2.340360 -0.132780 -0.116350 
#    y -0.132780 2.163090 0.065590 
#    z -0.116350 0.065590 2.256360 
# 
# From -- ./inp_files/488573.got.cif
#   From: 2010.05.17/outbox.cif.g08.bks.cpg/sg2_245_cif.got.tgz:488573.got - 2010.06.03 11:33:40.
