data_PCOD9011337
_publ_section_title
;
Structure prediction by ZEFSAII (Michael W. Deem and Ramdas Pophale) SiO2 
 PCOD9011337
Probable space group: P -1
;
_chemical_formula_sum "Si O2"
_cell_formula_units_Z 14
_cell_length_a 9.220693
_cell_length_b 11.581940
_cell_length_c 21.152496
_cell_angle_alpha 143.044937
_cell_angle_beta 146.878450
_cell_angle_gamma 60.101781
_cell_volume 633.870280
_symmetry_space_group_name_H-M "P -1"
_symmetry_group_IT_number 2
_symmetry_cell_setting 'triclinic'
loop_
_space_group_symop_operation_xyz
x,y,z
-x,-y,-z
loop_
_atom_site_type_symbol
_atom_site_label
_atom_site_fract_x
_atom_site_fract_y
_atom_site_fract_z
Si Si1 0.279771 0.320361 0.244612
Si Si2 0.455654 0.468840 0.860484
Si Si3 0.286031 0.076583 0.918605
Si Si4 0.673361 0.815834 0.656806
Si Si5 0.165269 0.877381 0.559569
Si Si6 0.713036 0.342919 0.000618
Si Si7 0.212936 0.729155 0.641484
O O1 0.523348 0.585477 0.461090
O O2 0.231662 0.223640 0.255827
O O3 0.439438 0.222358 0.215783
O O4 0.973566 0.285224 0.084456
O O5 0.738483 0.467038 0.998133
O O6 0.188118 0.219462 0.631940
O O7 0.554022 0.664182 0.930625
O O8 0.292269 0.522424 0.881817
O O9 0.198532 0.926360 0.757484
O O10 0.977518 0.001163 0.813094
O O11 0.500000 0.000000 0.000000
O O12 0.397102 0.864862 0.588675
O O13 0.117144 0.705195 0.523057
O O14 0.374277 0.118876 0.773406
O O15 0.000000 0.500000 0.500000
#
# Coordination Sequence:
#
# PCOD9011337 Si02
#       7
#     2   2   2   2   2   2   2
#     4  10  21  40  65  99 129 171 212 268 318 389
#     4  11  24  44  67  97 129 172 219 270 319 384
#     4  12  24  40  65 100 133 166 212 277 326 375
#     4  10  22  38  68  97 133 164 214 268 329 373
#     4  11  23  43  67  96 128 172 220 267 318 385
#     4  11  23  42  70  93 130 174 223 257 322 396
#     4  11  22  37  65  99 130 164 214 267 324 379
#
# _framework density 22.086538000000001
#
# number of rings (size 3 to 8) (size 9 to 14) (size 15 to 20)
#    0.000    1.143    4.286    2.143    4.000    1.143 
#    0.000    1.429    3.143    0.000    0.000    0.000 
#    0.000    0.000    0.000    0.000    0.000    0.000 
#
# Total GULP energy -78233.647387 kJ/mol
# GULP energy per Si atom -5588.117671 kJ/mol
# Density = 2.203627 g / cm^3
# Si number density = 22.086538 Si / 1000 Ang^3
#
#
#
# Elastic Constant Matrix: (Units=GPa)
#
#
# Indices 1 2 3 4 5 6 
#
# 1 91.5811 18.4575 26.5957 -2.5335 17.6526 6.0956
# 2 18.4575 80.9097 37.0374 -12.2339 17.8086 19.5461
# 3 26.5957 37.0374 112.4758 -0.1251 13.6188 15.4952
# 4 -2.5335 -12.2339 -0.1251 49.4563 -3.9641 1.3370
# 5 17.6526 17.8086 13.6188 -3.9641 17.4783 10.3249
# 6 6.0956 19.5461 15.4952 1.3370 10.3249 31.9972
#
#
#
# Elastic Compliance Matrix: (Units=1/GPa)
#
#
# Indices 1 2 3 4 5 6 
#
# 1 0.014092 0.000145 -0.002011 -0.000503 -0.014674 0.002957
# 2 0.000145 0.018746 -0.003960 0.003849 -0.011793 -0.005917
# 3 -0.002011 -0.003960 0.011150 -0.001136 -0.001697 -0.002003
# 4 -0.000503 0.003849 -0.001136 0.021645 0.004846 -0.004174
# 5 -0.014674 -0.011793 -0.001697 0.004846 0.099087 -0.021354
# 6 0.002957 -0.005917 -0.002003 -0.004174 -0.021354 0.042339
#
#
# Mechanical properties :
#
#
# Convention : Reuss Voigt Hill
#
# Bulk Modulus (GPa) = 30.92420 49.90533 40.41476
# Shear Modulus (GPa) = 21.78751 33.31141 27.54946
#
# Velocity S-wave (km/s) = 3.14421 3.88780 3.53560
# Velocity P-wave (km/s) = 5.21662 6.54200 5.91654
#
# Compressibility (1/GPa) = 0.03233713
#
# Stress axis : x y z
#
# Youngs Moduli (GPa) = 70.96316 53.34403 89.68274
#
# Poissons Ratio (x) = -0.00776 0.18036
# Poissons Ratio (y) = -0.01032 0.35514
# Poissons Ratio (z) = 0.14271 0.21124
#
# Static dielectric constant tensor:
#      x y z
#    x 1.785980 0.034360 -0.034680 
#    y 0.034360 1.923180 -0.017830 
#    z -0.034680 -0.017830 1.843030 
# 
# From -- ./inp_files/175722.got.cif
#   From: 2010.05.17/outbox.cif.g08.bks.cpg/sg2_88_cif.got.tgz:175722.got - 2010.06.03 11:33:40.
