data_PCOD9011211
_publ_section_title
;
Structure prediction by ZEFSAII (Michael W. Deem and Ramdas Pophale) SiO2 
 PCOD9011211
Probable space group: P -1
;
_chemical_formula_sum "Si O2"
_cell_formula_units_Z 16
_cell_length_a 10.448130
_cell_length_b 9.212059
_cell_length_c 15.512791
_cell_angle_alpha 147.578134
_cell_angle_beta 87.135987
_cell_angle_gamma 109.494760
_cell_volume 670.628089
_symmetry_space_group_name_H-M "P -1"
_symmetry_group_IT_number 2
_symmetry_cell_setting 'triclinic'
loop_
_space_group_symop_operation_xyz
x,y,z
-x,-y,-z
loop_
_atom_site_type_symbol
_atom_site_label
_atom_site_fract_x
_atom_site_fract_y
_atom_site_fract_z
Si Si1 0.081953 0.190335 0.479422
Si Si2 0.594171 0.738773 0.036749
Si Si3 0.939642 0.388984 0.716639
Si Si4 0.260758 0.473917 0.446265
Si Si5 0.138569 0.865592 0.660057
Si Si6 0.623995 0.292387 0.702862
Si Si7 0.889294 0.211087 0.925288
Si Si8 0.432997 0.032558 0.272792
O O1 0.213264 0.386171 0.504292
O O2 0.040164 0.411603 0.643719
O O3 0.925251 0.976459 0.320721
O O4 0.117012 0.970816 0.425583
O O5 0.769788 0.928092 0.157517
O O6 0.526067 0.961086 0.162434
O O7 0.500000 0.500000 0.000000
O O8 0.582650 0.560505 0.858676
O O9 0.794113 0.416832 0.724973
O O10 0.054995 0.630641 0.905169
O O11 0.252410 0.778192 0.568964
O O12 0.440385 0.625755 0.515344
O O13 0.129795 0.137944 0.240687
O O14 0.000000 0.500000 0.500000
O O15 0.500000 0.000000 0.500000
O O16 0.625160 0.185216 0.747777
O O17 0.720161 0.065495 0.820865
O O18 0.000000 0.500000 0.000000
#
# Coordination Sequence:
#
# PCOD9011211 Si02
#       8
#     2   2   2   2   2   2   2   2
#     4  10  22  41  61  92 130 167 211 261 324 381
#     4   9  21  35  60  90 120 167 220 248 309 378
#     4  11  25  37  64  96 128 167 212 269 325 367
#     4  10  21  40  65  94 130 170 216 261 323 386
#     4   9  20  36  64  88 124 167 211 258 308 376
#     4  11  24  40  61  97 135 169 216 271 324 377
#     4  12  22  40  65 100 127 164 220 268 310 395
#     4  10  22  41  65  94 125 176 212 265 324 379
#
# _framework density 23.858229999999999
#
# number of rings (size 3 to 8) (size 9 to 14) (size 15 to 20)
#    0.000    1.750    2.500    0.375   12.250    1.000 
#    0.000    5.000    0.000    0.000    0.000    0.000 
#    0.000    0.000    0.000    0.000    0.000    0.000 
#
# Total GULP energy -89092.091230 kJ/mol
# GULP energy per Si atom -5568.255702 kJ/mol
# Density = 2.380393 g / cm^3
# Si number density = 23.858230 Si / 1000 Ang^3
#
#
#
# Elastic Constant Matrix: (Units=GPa)
#
#
# Indices 1 2 3 4 5 6 
#
# 1 74.0496 -0.7295 33.3383 -1.0003 7.7052 9.4338
# 2 -0.7295 46.9831 15.1429 -3.7831 -4.4176 14.3325
# 3 33.3383 15.1429 176.8553 -10.9127 -0.7816 24.1395
# 4 -1.0003 -3.7831 -10.9127 40.8094 9.2936 -1.6237
# 5 7.7052 -4.4176 -0.7816 9.2936 40.0666 -2.1155
# 6 9.4338 14.3325 24.1395 -1.6237 -2.1155 28.3548
#
#
#
# Elastic Compliance Matrix: (Units=1/GPa)
#
#
# Indices 1 2 3 4 5 6 
#
# 1 0.015535 0.002104 -0.002507 0.000448 -0.003136 -0.004306
# 2 0.002104 0.025735 -0.000749 0.001403 0.001412 -0.012885
# 3 -0.002507 -0.000749 0.006913 0.001550 -0.000067 -0.004589
# 4 0.000448 0.001403 0.001550 0.026401 -0.006084 -0.001120
# 5 -0.003136 0.001412 -0.000067 -0.006084 0.027236 0.002070
# 6 -0.004306 -0.012885 -0.004589 -0.001120 0.002070 0.047210
#
#
# Mechanical properties :
#
#
# Convention : Reuss Voigt Hill
#
# Bulk Modulus (GPa) = 21.79641 43.71015 32.75328
# Shear Modulus (GPa) = 30.00738 38.52191 34.26464
#
# Velocity S-wave (km/s) = 3.55031 4.02259 3.79380
# Velocity P-wave (km/s) = 5.09528 6.31946 5.74010
#
# Compressibility (1/GPa) = 0.04587912
#
# Stress axis : x y z
#
# Youngs Moduli (GPa) = 64.37151 38.85814 144.66036
#
# Poissons Ratio (x) = -0.08176 0.36267
# Poissons Ratio (y) = -0.13544 0.10829
# Poissons Ratio (z) = 0.16138 0.02909
#
# Static dielectric constant tensor:
#      x y z
#    x 2.214000 -0.038830 -0.156640 
#    y -0.038830 1.958360 -0.000530 
#    z -0.156640 -0.000530 1.998650 
# 
# From -- ./inp_files/568996.got.cif
#   From: 2010.05.17/outbox.cif.g08.bks.cpg/sg2_285_cif.got.tgz:568996.got - 2010.06.03 11:33:40.
