data_PCOD9011110
_publ_section_title
;
Structure prediction by ZEFSAII (Michael W. Deem and Ramdas Pophale) SiO2 
 PCOD9011110
Probable space group: P -1
;
_chemical_formula_sum "Si O2"
_cell_formula_units_Z 16
_cell_length_a 9.743773
_cell_length_b 18.573698
_cell_length_c 5.172448
_cell_angle_alpha 138.249568
_cell_angle_beta 92.917927
_cell_angle_gamma 99.644688
_cell_volume 592.055716
_symmetry_space_group_name_H-M "P -1"
_symmetry_group_IT_number 2
_symmetry_cell_setting 'triclinic'
loop_
_space_group_symop_operation_xyz
x,y,z
-x,-y,-z
loop_
_atom_site_type_symbol
_atom_site_label
_atom_site_fract_x
_atom_site_fract_y
_atom_site_fract_z
Si Si1 0.105998 0.686815 0.994272
Si Si2 0.110046 0.473446 0.145728
Si Si3 0.687711 0.944329 0.530559
Si Si4 0.930659 0.136597 0.840371
Si Si5 0.580037 0.200940 0.639410
Si Si6 0.877710 0.858340 0.636647
Si Si7 0.375821 0.257979 0.395094
Si Si8 0.435722 0.566547 0.456986
O O1 0.132053 0.566946 0.628126
O O2 0.969259 0.649861 0.069995
O O3 0.076483 0.735891 0.848583
O O4 0.252241 0.780651 0.350836
O O5 0.276105 0.500739 0.155477
O O6 0.000000 0.500000 0.000000
O O7 0.522009 0.910079 0.519201
O O8 0.786920 0.944840 0.791991
O O9 0.771066 0.051790 0.654708
O O10 0.695809 0.832596 0.076147
O O11 0.015656 0.133330 0.572303
O O12 0.026985 0.117703 0.032813
O O13 0.500242 0.211250 0.395817
O O14 0.575282 0.314018 0.098086
O O15 0.740776 0.750156 0.413725
O O16 0.449426 0.380763 0.615367
O O17 0.500000 0.500000 0.500000
#
# Coordination Sequence:
#
# PCOD9011110 Si02
#       8
#     2   2   2   2   2   2   2   2
#     4  10  24  43  62  95 131 175 229 273 331 402
#     4  10  22  43  68  90 134 182 218 279 344 399
#     4  10  22  41  67  95 134 178 215 274 342 391
#     4  12  26  40  67 101 134 174 228 272 324 409
#     4   9  21  42  63  89 133 178 214 272 341 395
#     4  11  24  41  64  97 139 175 216 275 338 391
#     4  10  21  40  65  91 134 173 216 271 342 397
#     4  10  22  39  64  99 131 169 227 280 337 399
#
# _framework density 27.024481999999999
#
# number of rings (size 3 to 8) (size 9 to 14) (size 15 to 20)
#    0.000    1.750    1.250    1.500    7.000    1.000 
#    0.000    0.625    0.000    0.000    0.000    0.000 
#    0.000    0.000    0.000    0.000    0.000    0.000 
#
# Total GULP energy -89429.279844 kJ/mol
# GULP energy per Si atom -5589.329990 kJ/mol
# Density = 2.696297 g / cm^3
# Si number density = 27.024482 Si / 1000 Ang^3
#
#
#
# Elastic Constant Matrix: (Units=GPa)
#
#
# Indices 1 2 3 4 5 6 
#
# 1 113.6762 64.4952 46.7896 12.5006 38.5774 26.1755
# 2 64.4952 241.3193 71.8142 34.6436 43.4350 36.2050
# 3 46.7896 71.8142 91.3171 8.0358 38.7705 15.8759
# 4 12.5006 34.6436 8.0358 56.9548 6.4325 12.7929
# 5 38.5774 43.4350 38.7705 6.4325 50.6059 5.7595
# 6 26.1755 36.2050 15.8759 12.7929 5.7595 39.6174
#
#
#
# Elastic Compliance Matrix: (Units=1/GPa)
#
#
# Indices 1 2 3 4 5 6 
#
# 1 0.014359 -0.000742 -0.002295 0.000022 -0.007784 -0.006765
# 2 -0.000742 0.006416 -0.003112 -0.002395 -0.001902 -0.003076
# 3 -0.002295 -0.003112 0.019175 0.001354 -0.010182 -0.002280
# 4 0.000022 -0.002395 0.001354 0.019982 -0.001006 -0.004675
# 5 -0.007784 -0.001902 -0.010182 -0.001006 0.034543 0.006265
# 6 -0.006765 -0.003076 -0.002280 -0.004675 0.006265 0.034035
#
#
# Mechanical properties :
#
#
# Convention : Reuss Voigt Hill
#
# Bulk Modulus (GPa) = 36.16415 90.27894 63.22155
# Shear Modulus (GPa) = 33.32750 46.98319 40.15535
#
# Velocity S-wave (km/s) = 3.51555 4.17411 3.85890
# Velocity P-wave (km/s) = 5.46716 7.53059 6.58026
#
# Compressibility (1/GPa) = 0.02765169
#
# Stress axis : x y z
#
# Youngs Moduli (GPa) = 69.64035 155.85728 52.15203
#
# Poissons Ratio (x) = 0.11562 0.11969
# Poissons Ratio (y) = 0.05166 0.16232
# Poissons Ratio (z) = 0.15983 0.48510
#
# Static dielectric constant tensor:
#      x y z
#    x 2.169350 0.036000 -0.062020 
#    y 0.036000 2.114370 -0.024170 
#    z -0.062020 -0.024170 2.201270 
# 
# From -- ./inp_files/80982.got.cif
#   From: 2010.05.17/outbox.cif.g08.bks.cpg/sg2_41_cif.got.tgz:80982.got - 2010.06.03 11:33:40.
