data_PCOD9011385
_publ_section_title
;
Structure prediction by ZEFSAII (Michael W. Deem and Ramdas Pophale) SiO2 
 PCOD9011385
Probable space group: P -1
;
_chemical_formula_sum "Si O2"
_cell_formula_units_Z 16
_cell_length_a 12.334236
_cell_length_b 11.894079
_cell_length_c 7.516055
_cell_angle_alpha 55.829359
_cell_angle_beta 52.681900
_cell_angle_gamma 81.450828
_cell_volume 694.004623
_symmetry_space_group_name_H-M "P -1"
_symmetry_group_IT_number 2
_symmetry_cell_setting 'triclinic'
loop_
_space_group_symop_operation_xyz
x,y,z
-x,-y,-z
loop_
_atom_site_type_symbol
_atom_site_label
_atom_site_fract_x
_atom_site_fract_y
_atom_site_fract_z
Si Si1 0.196859 0.596462 0.494978
Si Si2 0.612493 0.112268 0.048550
Si Si3 0.412100 0.141328 0.938677
Si Si4 0.783565 0.040960 0.233882
Si Si5 0.722320 0.260123 0.352086
Si Si6 0.095903 0.210317 0.712632
Si Si7 0.795080 0.678514 0.119434
Si Si8 0.878191 0.549198 0.796841
O O1 0.290753 0.725883 0.171989
O O2 0.189306 0.675173 0.618929
O O3 0.268880 0.474321 0.583162
O O4 0.036271 0.531505 0.647069
O O5 0.465239 0.126770 0.099767
O O6 0.645433 0.034901 0.258757
O O7 0.654421 0.015137 0.938966
O O8 0.557530 0.209426 0.620040
O O9 0.312730 0.240406 0.918246
O O10 0.769681 0.132452 0.336130
O O11 0.812254 0.890383 0.358076
O O12 0.929346 0.133429 0.908468
O O13 0.763020 0.395796 0.060295
O O14 0.115405 0.229267 0.889812
O O15 0.143150 0.357080 0.429769
O O16 0.869860 0.636357 0.908929
#
# Coordination Sequence:
#
# PCOD9011385 Si02
#       8
#     2   2   2   2   2   2   2   2
#     4  10  21  40  66  96 125 166 211 264 326 384
#     4  10  21  40  66  86 125 172 212 249 323 370
#     4  10  23  44  62  90 128 177 218 253 307 389
#     4  11  22  42  62  98 130 163 210 277 314 376
#     4  10  23  40  64  92 128 170 215 257 318 380
#     4  11  24  40  67 100 131 160 213 269 330 374
#     4  11  23  43  65  95 135 165 212 268 313 381
#     4  11  23  41  67 100 128 168 210 263 333 381
#
# _framework density 23.054601000000002
#
# number of rings (size 3 to 8) (size 9 to 14) (size 15 to 20)
#    0.000    1.500    2.500    3.000    1.750    9.000 
#    2.250    3.125    0.000    0.000    0.000    0.000 
#    0.000    0.000    0.000    0.000    0.000    0.000 
#
# Total GULP energy -89375.864256 kJ/mol
# GULP energy per Si atom -5585.991516 kJ/mol
# Density = 2.300213 g / cm^3
# Si number density = 23.054601 Si / 1000 Ang^3
#
#
#
# Elastic Constant Matrix: (Units=GPa)
#
#
# Indices 1 2 3 4 5 6 
#
# 1 117.3680 48.6875 26.8387 -9.3659 15.8875 -11.2729
# 2 48.6875 128.3835 19.5697 -10.9155 5.6540 -6.6902
# 3 26.8387 19.5697 88.7661 -20.2814 -2.6941 -18.0568
# 4 -9.3659 -10.9155 -20.2814 24.5815 -5.2873 15.1436
# 5 15.8875 5.6540 -2.6941 -5.2873 29.4147 2.1612
# 6 -11.2729 -6.6902 -18.0568 15.1436 2.1612 42.8133
#
#
#
# Elastic Compliance Matrix: (Units=1/GPa)
#
#
# Indices 1 2 3 4 5 6 
#
# 1 0.011683 -0.003782 -0.002991 -0.002625 -0.006512 0.002481
# 2 -0.003782 0.009468 -0.000369 0.003142 0.000814 -0.000824
# 3 -0.002991 -0.000369 0.015325 0.011680 0.005099 0.001229
# 4 -0.002625 0.003142 0.011680 0.065888 0.015148 -0.019344
# 5 -0.006512 0.000814 0.005099 0.015148 0.041052 -0.006867
# 6 0.002481 -0.000824 0.001229 -0.019344 -0.006867 0.031589
#
#
# Mechanical properties :
#
#
# Convention : Reuss Voigt Hill
#
# Bulk Modulus (GPa) = 45.06224 58.30105 51.68164
# Shear Modulus (GPa) = 25.42116 35.32335 30.37226
#
# Velocity S-wave (km/s) = 3.32422 3.91853 3.63355
# Velocity P-wave (km/s) = 5.85852 6.76877 6.33003
#
# Compressibility (1/GPa) = 0.02219153
#
# Stress axis : x y z
#
# Youngs Moduli (GPa) = 85.59203 105.61963 65.25336
#
# Poissons Ratio (x) = 0.39944 0.19520
# Poissons Ratio (y) = 0.32370 0.02408
# Poissons Ratio (z) = 0.25604 0.03897
#
# Static dielectric constant tensor:
#      x y z
#    x 1.851320 0.047270 0.022930 
#    y 0.047270 1.854770 0.015510 
#    z 0.022930 0.015510 1.941450 
# 
# From -- ./inp_files/261511.got.cif
#   From: 2010.05.17/outbox.cif.g08.bks.cpg/sg2_131_cif.got.tgz:261511.got - 2010.06.03 11:33:40.
