data_PCOD9011667
_publ_section_title
;
Structure prediction by ZEFSAII (Michael W. Deem and Ramdas Pophale) SiO2 
 PCOD9011667
Probable space group: P -1
;
_chemical_formula_sum "Si O2"
_cell_formula_units_Z 14
_cell_length_a 7.950988
_cell_length_b 7.650128
_cell_length_c 10.198515
_cell_angle_alpha 93.566114
_cell_angle_beta 110.236113
_cell_angle_gamma 118.921260
_cell_volume 489.163862
_symmetry_space_group_name_H-M "P -1"
_symmetry_group_IT_number 2
_symmetry_cell_setting 'triclinic'
loop_
_space_group_symop_operation_xyz
x,y,z
-x,-y,-z
loop_
_atom_site_type_symbol
_atom_site_label
_atom_site_fract_x
_atom_site_fract_y
_atom_site_fract_z
Si Si1 0.453981 0.265442 0.058877
Si Si2 0.248644 0.376313 0.458798
Si Si3 0.096222 0.856765 0.031969
Si Si4 0.787971 0.016392 0.661897
Si Si5 0.576050 0.645432 0.236676
Si Si6 0.093126 0.634150 0.776949
Si Si7 0.371653 0.954058 0.643679
O O1 0.409592 0.401396 0.154022
O O2 0.710864 0.391464 0.134159
O O3 0.341106 0.028465 0.062706
O O4 0.368589 0.270414 0.893110
O O5 0.500000 0.500000 0.500000
O O6 0.151723 0.153834 0.349494
O O7 0.252428 0.343560 0.614778
O O8 0.123387 0.477880 0.374176
O O9 0.089823 0.816568 0.183015
O O10 0.024855 0.678241 0.900274
O O11 0.000000 0.000000 0.000000
O O12 0.542315 0.902397 0.638974
O O13 0.784935 0.094644 0.521728
O O14 0.512710 0.798026 0.289353
O O15 0.233935 0.829490 0.724847
#
# Coordination Sequence:
#
# PCOD9011667 Si02
#       7
#     2   2   2   2   2   2   2
#     4  11  23  43  68 101 132 175 220 275 331 399
#     4  11  25  44  66  96 136 178 220 280 335 392
#     4  12  22  38  68 101 130 173 218 276 322 395
#     4  10  21  40  66  99 135 167 219 273 334 385
#     4  10  23  42  69  91 141 173 214 273 337 393
#     4  12  24  41  75  98 129 176 233 269 328 398
#     4  10  21  41  69 101 125 177 221 271 325 401
#
# _framework density 28.620266999999998
#
# number of rings (size 3 to 8) (size 9 to 14) (size 15 to 20)
#    0.000    1.143    4.286    2.143    0.000    4.000 
#    0.000    0.714   12.571    0.000    0.000    0.000 
#    0.000    0.000    0.000    0.000    0.000    0.000 
#
# Total GULP energy -78318.578093 kJ/mol
# GULP energy per Si atom -5594.184150 kJ/mol
# Density = 2.855513 g / cm^3
# Si number density = 28.620267 Si / 1000 Ang^3
#
#
#
# Elastic Constant Matrix: (Units=GPa)
#
#
# Indices 1 2 3 4 5 6 
#
# 1 144.8002 8.5310 45.2264 7.0441 23.2062 -5.3725
# 2 8.5310 60.1277 35.2688 8.9446 -5.8611 -5.8854
# 3 45.2264 35.2688 204.3305 -31.7568 -30.8203 -1.1656
# 4 7.0441 8.9446 -31.7568 45.5398 -4.4623 -1.5654
# 5 23.2062 -5.8611 -30.8203 -4.4623 58.6120 10.7063
# 6 -5.3725 -5.8854 -1.1656 -1.5654 10.7063 37.0946
#
#
#
# Elastic Compliance Matrix: (Units=1/GPa)
#
#
# Indices 1 2 3 4 5 6 
#
# 1 0.009626 0.001567 -0.004249 -0.005323 -0.006892 0.003274
# 2 0.001567 0.021143 -0.005737 -0.008545 -0.002881 0.003872
# 3 -0.004249 -0.005737 0.009269 0.008851 0.007193 -0.002937
# 4 -0.005323 -0.008545 0.008851 0.031395 0.008860 -0.003081
# 5 -0.006892 -0.002881 0.007193 0.008860 0.025457 -0.008203
# 6 0.003274 0.003872 -0.002937 -0.003081 -0.008203 0.030192
#
#
# Mechanical properties :
#
#
# Convention : Reuss Voigt Hill
#
# Bulk Modulus (GPa) = 43.10347 65.25676 54.18011
# Shear Modulus (GPa) = 32.96997 49.59807 41.28402
#
# Velocity S-wave (km/s) = 3.39777 4.16741 3.80211
# Velocity P-wave (km/s) = 5.52143 6.78283 6.18438
#
# Compressibility (1/GPa) = 0.02319999
#
# Stress axis : x y z
#
# Youngs Moduli (GPa) = 103.88641 47.29641 107.89095
#
# Poissons Ratio (x) = -0.07412 0.45846
# Poissons Ratio (y) = -0.16281 0.61895
# Poissons Ratio (z) = 0.44144 0.27133
#
# Static dielectric constant tensor:
#      x y z
#    x 2.240860 0.044460 0.056070 
#    y 0.044460 2.233560 0.001420 
#    z 0.056070 0.001420 2.213830 
# 
# From -- ./inp_files/379705.got.cif
#   From: 2010.05.17/outbox.cif.g08.bks.cpg/sg2_190_cif.got.tgz:379705.got - 2010.06.03 11:33:40.
