data_PCOD9011051
_publ_section_title
;
Structure prediction by ZEFSAII (Michael W. Deem and Ramdas Pophale) SiO2 
 PCOD9011051
Probable space group: P -1
;
_chemical_formula_sum "Si O2"
_cell_formula_units_Z 16
_cell_length_a 12.048515
_cell_length_b 12.045015
_cell_length_c 7.532346
_cell_angle_alpha 58.852941
_cell_angle_beta 104.609401
_cell_angle_gamma 122.768678
_cell_volume 786.081362
_symmetry_space_group_name_H-M "P -1"
_symmetry_group_IT_number 2
_symmetry_cell_setting 'triclinic'
loop_
_space_group_symop_operation_xyz
x,y,z
-x,-y,-z
loop_
_atom_site_type_symbol
_atom_site_label
_atom_site_fract_x
_atom_site_fract_y
_atom_site_fract_z
Si Si1 0.596103 0.251885 0.922986
Si Si2 0.400536 0.661184 0.539345
Si Si3 0.533554 0.572335 0.149366
Si Si4 0.987503 0.178128 0.947828
Si Si5 0.109958 0.454863 0.539265
Si Si6 0.115126 0.617961 0.071094
Si Si7 0.789485 0.886438 0.907547
Si Si8 0.558185 0.904687 0.687160
O O1 0.583649 0.243686 0.710948
O O2 0.576657 0.390463 0.858457
O O3 0.736769 0.276771 0.025042
O O4 0.483515 0.118684 0.103301
O O5 0.448628 0.542129 0.625040
O O6 0.245666 0.562496 0.605881
O O7 0.480150 0.756187 0.661110
O O8 0.500000 0.500000 0.000000
O O9 0.671132 0.729790 0.063575
O O10 0.054840 0.284577 0.713448
O O11 0.935381 0.274153 0.954759
O O12 0.102204 0.151632 0.099205
O O13 0.869976 0.016891 0.975067
O O14 0.140306 0.510625 0.304327
O O15 0.000000 0.500000 0.500000
O O16 0.000000 0.500000 0.000000
O O17 0.711190 0.948115 0.705046
O O18 0.500000 0.000000 0.500000
#
# Coordination Sequence:
#
# PCOD9011051 Si02
#       8
#     2   2   2   2   2   2   2   2
#     4  10  24  40  61  96 126 160 212 268 323 373
#     4  11  21  40  64  95 121 169 212 269 319 374
#     4  11  20  39  66  92 126 165 219 260 314 385
#     4  10  21  40  65  88 133 165 216 260 317 391
#     4   9  20  34  61  87 121 165 209 258 310 379
#     4  10  23  36  62  96 123 168 208 268 318 373
#     4  10  22  39  65  94 122 177 211 264 322 381
#     4  11  26  41  66  94 129 170 215 262 332 389
#
# _framework density 20.354126999999998
#
# number of rings (size 3 to 8) (size 9 to 14) (size 15 to 20)
#    0.000    1.750    3.750    0.375   10.500    0.500 
#    2.250    0.000    0.000    2.250    0.000    0.000 
#    0.000    0.000    0.000    0.000    0.000    0.000 
#
# Total GULP energy -89073.794765 kJ/mol
# GULP energy per Si atom -5567.112173 kJ/mol
# Density = 2.030780 g / cm^3
# Si number density = 20.354127 Si / 1000 Ang^3
#
#
#
# Elastic Constant Matrix: (Units=GPa)
#
#
# Indices 1 2 3 4 5 6 
#
# 1 140.7389 43.5329 18.8610 0.0489 35.4814 6.1695
# 2 43.5329 100.0501 11.7791 1.3106 5.3937 6.5785
# 3 18.8610 11.7791 59.7914 -6.6587 19.2460 0.6289
# 4 0.0489 1.3106 -6.6587 24.2734 -2.6513 14.0657
# 5 35.4814 5.3937 19.2460 -2.6513 40.8231 0.9793
# 6 6.1695 6.5785 0.6289 14.0657 0.9793 29.3433
#
#
#
# Elastic Compliance Matrix: (Units=1/GPa)
#
#
# Indices 1 2 3 4 5 6 
#
# 1 0.010594 -0.004105 0.000292 -0.000122 -0.008788 -0.000961
# 2 -0.004105 0.011982 -0.001968 0.000328 0.002983 -0.002038
# 3 0.000292 -0.001968 0.020758 0.006428 -0.009295 -0.002836
# 4 -0.000122 0.000328 0.006428 0.059896 0.001617 -0.028951
# 5 -0.008788 0.002983 -0.009295 0.001617 0.036241 -0.000606
# 6 -0.000961 -0.002038 -0.002836 -0.028951 -0.000606 0.048697
#
#
# Mechanical properties :
#
#
# Convention : Reuss Voigt Hill
#
# Bulk Modulus (GPa) = 31.47446 49.88073 40.67759
# Shear Modulus (GPa) = 23.77336 33.98179 28.87757
#
# Velocity S-wave (km/s) = 3.42129 4.09042 3.77073
# Velocity P-wave (km/s) = 5.57709 6.84605 6.24389
#
# Compressibility (1/GPa) = 0.03177180
#
# Stress axis : x y z
#
# Youngs Moduli (GPa) = 94.39612 83.46019 48.17459
#
# Poissons Ratio (x) = 0.34262 -0.01407
# Poissons Ratio (y) = 0.38752 0.09479
# Poissons Ratio (z) = -0.02758 0.16422
#
# Static dielectric constant tensor:
#      x y z
#    x 1.897280 -0.031690 0.028570 
#    y -0.031690 1.782110 -0.078930 
#    z 0.028570 -0.078930 1.847690 
# 
# From -- ./inp_files/262126.got.cif
#   From: 2010.05.17/outbox.cif.g08.bks.cpg/sg2_132_cif.got.tgz:262126.got - 2010.06.03 11:33:40.
