data_PCOD9011225
_publ_section_title
;
Structure prediction by ZEFSAII (Michael W. Deem and Ramdas Pophale) SiO2 
 PCOD9011225
Probable space group: P -1
;
_chemical_formula_sum "Si O2"
_cell_formula_units_Z 12
_cell_length_a 5.977013
_cell_length_b 9.243584
_cell_length_c 14.913474
_cell_angle_alpha 61.193293
_cell_angle_beta 51.550128
_cell_angle_gamma 55.068625
_cell_volume 518.773369
_symmetry_space_group_name_H-M "P -1"
_symmetry_group_IT_number 2
_symmetry_cell_setting 'triclinic'
loop_
_space_group_symop_operation_xyz
x,y,z
-x,-y,-z
loop_
_atom_site_type_symbol
_atom_site_label
_atom_site_fract_x
_atom_site_fract_y
_atom_site_fract_z
Si Si1 0.809211 0.552720 0.163325
Si Si2 0.648319 0.595648 0.708543
Si Si3 0.366283 0.367595 0.619324
Si Si4 0.606826 0.151057 0.463254
Si Si5 0.724982 0.937995 0.051778
Si Si6 0.754501 0.829413 0.755451
O O1 0.579950 0.497756 0.175871
O O2 0.606981 0.627575 0.282614
O O3 0.088172 0.362854 0.172861
O O4 0.882265 0.721105 0.066952
O O5 0.584124 0.671845 0.601148
O O6 0.600376 0.769094 0.728984
O O7 0.997079 0.451991 0.671828
O O8 0.500000 0.500000 0.500000
O O9 0.525642 0.187424 0.577014
O O10 0.959616 0.123401 0.363410
O O11 0.500000 0.000000 0.500000
O O12 0.476280 0.018345 0.169827
O O13 0.500000 0.000000 0.000000
O O14 0.000000 0.000000 0.000000
#
# Coordination Sequence:
#
# PCOD9011225 Si02
#       6
#     2   2   2   2   2   2
#     4  10  25  45  74 101 144 187 235 304 359 438
#     4  10  21  40  65  94 145 186 231 283 360 426
#     4  11  20  39  62 103 139 188 230 270 359 443
#     4  11  24  35  63 104 146 190 230 285 355 437
#     4  12  32  52  78 108 139 190 255 316 376 422
#     4  10  25  47  69 104 144 185 244 301 362 438
#
# _framework density 23.131488000000001
#
# number of rings (size 3 to 8) (size 9 to 14) (size 15 to 20)
#    0.000    1.333    5.000    0.500   14.000    2.000 
#    0.000    0.000    0.000    0.000    0.000    0.000 
#    0.000    0.000    0.000    0.000    0.000    0.000 
#
# Total GULP energy -66993.319607 kJ/mol
# GULP energy per Si atom -5582.776634 kJ/mol
# Density = 2.307884 g / cm^3
# Si number density = 23.131488 Si / 1000 Ang^3
#
#
#
# Elastic Constant Matrix: (Units=GPa)
#
#
# Indices 1 2 3 4 5 6 
#
# 1 114.9301 33.2378 26.7310 -10.3145 -10.9693 29.1029
# 2 33.2378 119.9868 25.8912 -10.9301 -13.6082 14.6146
# 3 26.7310 25.8912 38.5099 9.4268 0.2554 13.9823
# 4 -10.3145 -10.9301 9.4268 55.0069 12.4469 -2.8201
# 5 -10.9693 -13.6082 0.2554 12.4469 27.5671 -8.0485
# 6 29.1029 14.6146 13.9823 -2.8201 -8.0485 35.4836
#
#
#
# Elastic Compliance Matrix: (Units=1/GPa)
#
#
# Indices 1 2 3 4 5 6 
#
# 1 0.012524 -0.000890 -0.006215 0.002560 0.001423 -0.006931
# 2 -0.000890 0.010807 -0.007350 0.002332 0.004079 0.000285
# 3 -0.006215 -0.007350 0.041080 -0.008968 -0.005349 -0.009989
# 4 0.002560 0.002332 -0.008968 0.022435 -0.007730 0.000504
# 5 0.001423 0.004079 -0.005349 -0.007730 0.044978 0.008848
# 6 -0.006931 0.000285 -0.009989 0.000504 0.008848 0.039732
#
#
# Mechanical properties :
#
#
# Convention : Reuss Voigt Hill
#
# Bulk Modulus (GPa) = 28.16670 49.46074 38.81372
# Shear Modulus (GPa) = 23.55167 36.11598 29.83383
#
# Velocity S-wave (km/s) = 3.19433 3.95566 3.59520
# Velocity P-wave (km/s) = 5.08018 6.50322 5.83524
#
# Compressibility (1/GPa) = 0.03550292
#
# Stress axis : x y z
#
# Youngs Moduli (GPa) = 79.84547 92.53323 24.34252
#
# Poissons Ratio (x) = 0.08232 0.15129
# Poissons Ratio (y) = 0.07103 0.17891
# Poissons Ratio (z) = 0.49624 0.68009
#
# Static dielectric constant tensor:
#      x y z
#    x 1.913090 0.020610 0.039000 
#    y 0.020610 1.862780 -0.040490 
#    z 0.039000 -0.040490 1.914810 
# 
# From -- ./inp_files/20365.got.cif
#   From: 2010.05.17/outbox.cif.g08.bks.cpg/sg2_11_cif.got.tgz:20365.got - 2010.06.03 11:33:40.
