data_PCOD9011615
_publ_section_title
;
Structure prediction by ZEFSAII (Michael W. Deem and Ramdas Pophale) SiO2 
 PCOD9011615
Probable space group: P -1
;
_chemical_formula_sum "Si O2"
_cell_formula_units_Z 12
_cell_length_a 11.436579
_cell_length_b 5.303513
_cell_length_c 11.644059
_cell_angle_alpha 63.117993
_cell_angle_beta 53.901274
_cell_angle_gamma 66.403929
_cell_volume 500.133437
_symmetry_space_group_name_H-M "P -1"
_symmetry_group_IT_number 2
_symmetry_cell_setting 'triclinic'
loop_
_space_group_symop_operation_xyz
x,y,z
-x,-y,-z
loop_
_atom_site_type_symbol
_atom_site_label
_atom_site_fract_x
_atom_site_fract_y
_atom_site_fract_z
Si Si1 0.689914 0.320338 0.685267
Si Si2 0.234169 0.368886 0.195366
Si Si3 0.350863 0.500508 0.867133
Si Si4 0.072121 0.791190 0.604331
Si Si5 0.123273 0.017144 0.772182
Si Si6 0.128963 0.236992 0.945776
O O1 0.758068 0.456531 0.727736
O O2 0.519934 0.468812 0.746763
O O3 0.783070 0.376717 0.508170
O O4 0.698579 0.973996 0.760908
O O5 0.064691 0.367248 0.258353
O O6 0.321065 0.507592 0.018386
O O7 0.246279 0.753286 0.805449
O O8 0.279986 0.227962 0.925565
O O9 0.114580 0.972531 0.650810
O O10 0.000000 0.000000 0.500000
O O11 0.161343 0.256790 0.788071
O O12 0.955379 0.011686 0.912940
O O13 0.000000 0.500000 0.000000
#
# Coordination Sequence:
#
# PCOD9011615 Si02
#       6
#     2   2   2   2   2   2
#     4  11  26  43  66 101 135 180 218 270 337 395
#     4  11  24  44  69  95 134 179 227 269 327 394
#     4  11  23  39  68  98 134 169 221 286 328 386
#     4  10  23  45  67  94 134 179 222 269 330 406
#     4  10  21  40  66  97 130 171 224 272 335 388
#     4   9  20  37  62  98 125 164 216 272 324 386
#
# _framework density 23.993599
#
# number of rings (size 3 to 8) (size 9 to 14) (size 15 to 20)
#    0.000    1.667    1.667    1.500    4.667    4.667 
#   12.000    0.833    0.000    0.000    0.000    0.000 
#    0.000    0.000    0.000    0.000    0.000    0.000 
#
# Total GULP energy -66985.502626 kJ/mol
# GULP energy per Si atom -5582.125219 kJ/mol
# Density = 2.393899 g / cm^3
# Si number density = 23.993599 Si / 1000 Ang^3
#
#
#
# Elastic Constant Matrix: (Units=GPa)
#
#
# Indices 1 2 3 4 5 6 
#
# 1 98.2475 23.9403 73.4015 34.2252 10.1001 0.8906
# 2 23.9403 91.4699 28.1531 14.7621 13.5054 4.5392
# 3 73.4015 28.1531 162.3241 42.0574 14.3979 -4.4707
# 4 34.2252 14.7621 42.0574 36.9765 4.4084 14.2470
# 5 10.1001 13.5054 14.3979 4.4084 68.1404 20.9459
# 6 0.8906 4.5392 -4.4707 14.2470 20.9459 43.1505
#
#
#
# Elastic Compliance Matrix: (Units=1/GPa)
#
#
# Indices 1 2 3 4 5 6 
#
# 1 0.018582 -0.001283 -0.004446 -0.013179 -0.002148 0.004685
# 2 -0.001283 0.012214 -0.000508 -0.003152 -0.002158 0.000777
# 3 -0.004446 -0.000508 0.011508 -0.010867 -0.002918 0.006342
# 4 -0.013179 -0.003152 -0.010867 0.061464 0.008576 -0.024979
# 5 -0.002148 -0.002158 -0.002918 0.008576 0.019233 -0.012199
# 6 0.004685 0.000777 0.006342 -0.024979 -0.012199 0.037822
#
#
# Mechanical properties :
#
#
# Convention : Reuss Voigt Hill
#
# Bulk Modulus (GPa) = 33.52476 67.00348 50.26412
# Shear Modulus (GPa) = 27.28637 44.75659 36.02148
#
# Velocity S-wave (km/s) = 3.37595 4.32366 3.87886
# Velocity P-wave (km/s) = 5.40359 7.27404 6.40743
#
# Compressibility (1/GPa) = 0.02982870
#
# Stress axis : x y z
#
# Youngs Moduli (GPa) = 53.81526 81.87504 86.89412
#
# Poissons Ratio (x) = 0.10508 0.38631
# Poissons Ratio (y) = 0.06907 0.04418
# Poissons Ratio (z) = 0.23925 0.04163
#
# Static dielectric constant tensor:
#      x y z
#    x 1.906850 0.037230 0.048410 
#    y 0.037230 2.289520 -0.114590 
#    z 0.048410 -0.114590 1.963940 
# 
# From -- ./inp_files/408668.got.cif
#   From: 2010.05.17/outbox.cif.g08.bks.cpg/sg2_205_cif.got.tgz:408668.got - 2010.06.03 11:33:40.
