data_PCOD9011729
_publ_section_title
;
Structure prediction by ZEFSAII (Michael W. Deem and Ramdas Pophale) SiO2 
 PCOD9011729
Probable space group: P -1
;
_chemical_formula_sum "Si O2"
_cell_formula_units_Z 16
_cell_length_a 9.347726
_cell_length_b 18.313676
_cell_length_c 8.560934
_cell_angle_alpha 47.279509
_cell_angle_beta 86.266523
_cell_angle_gamma 59.076839
_cell_volume 824.920716
_symmetry_space_group_name_H-M "P -1"
_symmetry_group_IT_number 2
_symmetry_cell_setting 'triclinic'
loop_
_space_group_symop_operation_xyz
x,y,z
-x,-y,-z
loop_
_atom_site_type_symbol
_atom_site_label
_atom_site_fract_x
_atom_site_fract_y
_atom_site_fract_z
Si Si1 0.926460 0.293132 0.915193
Si Si2 0.205741 0.445901 0.017823
Si Si3 0.864865 0.005075 0.622063
Si Si4 0.019407 0.911323 0.262476
Si Si5 0.671559 0.003534 0.360773
Si Si6 0.224232 0.630653 0.527569
Si Si7 0.281892 0.219967 0.152020
Si Si8 0.402381 0.492983 0.166191
O O1 0.832199 0.363020 0.656588
O O2 0.768123 0.367563 0.952408
O O3 0.023249 0.141670 0.112986
O O4 0.090768 0.292700 0.963319
O O5 0.199522 0.544423 0.761560
O O6 0.296043 0.317738 0.096714
O O7 0.315400 0.431304 0.188052
O O8 0.000000 0.500000 0.000000
O O9 0.697122 0.041631 0.475438
O O10 0.000000 0.000000 0.500000
O O11 0.831586 0.102350 0.612987
O O12 0.823844 0.980894 0.266117
O O13 0.090110 0.775609 0.393057
O O14 0.000000 0.000000 0.000000
O O15 0.716051 0.868818 0.588884
O O16 0.456710 0.119578 0.171511
O O17 0.434237 0.580088 0.610081
O O18 0.500000 0.500000 0.000000
#
# Coordination Sequence:
#
# PCOD9011729 Si02
#       8
#     2   2   2   2   2   2   2   2
#     4  11  21  43  59  90 126 162 208 255 314 368
#     4  11  22  42  65  90 122 168 210 259 308 375
#     4   9  20  33  65  85 119 158 203 256 306 359
#     4  11  21  39  59  93 124 157 204 255 325 367
#     4   9  21  39  65  92 117 161 210 265 298 378
#     4  11  25  39  62  92 131 164 203 263 315 371
#     4  10  21  40  67  88 123 161 217 249 318 367
#     4  10  24  39  64  91 121 163 211 256 307 370
#
# _framework density 19.395803999999998
#
# number of rings (size 3 to 8) (size 9 to 14) (size 15 to 20)
#    0.000    1.750    2.500    1.125   10.500    3.500 
#    2.250    0.625    0.000    0.000    0.000    0.000 
#    0.000    0.000    0.000    0.000    0.000    0.000 
#
# Total GULP energy -89213.376252 kJ/mol
# GULP energy per Si atom -5575.836016 kJ/mol
# Density = 1.935166 g / cm^3
# Si number density = 19.395804 Si / 1000 Ang^3
#
#
#
# Elastic Constant Matrix: (Units=GPa)
#
#
# Indices 1 2 3 4 5 6 
#
# 1 113.8826 42.0820 45.2686 -2.9706 7.9239 0.9378
# 2 42.0820 99.3034 33.4500 -6.7805 0.8921 5.8314
# 3 45.2686 33.4500 78.5831 0.9431 2.6118 2.7581
# 4 -2.9706 -6.7805 0.9431 20.6947 3.3142 1.7346
# 5 7.9239 0.8921 2.6118 3.3142 41.2531 -8.2007
# 6 0.9378 5.8314 2.7581 1.7346 -8.2007 36.0981
#
#
#
# Elastic Compliance Matrix: (Units=1/GPa)
#
#
# Indices 1 2 3 4 5 6 
#
# 1 0.012431 -0.003235 -0.005736 0.001303 -0.002037 0.000113
# 2 -0.003235 0.013085 -0.003681 0.004182 -0.000159 -0.001986
# 3 -0.005736 -0.003681 0.017638 -0.002831 0.000209 -0.000421
# 4 0.001303 0.004182 -0.002831 0.051167 -0.005089 -0.004108
# 5 -0.002037 -0.000159 0.000209 -0.005089 0.026279 0.006277
# 6 0.000113 -0.001986 -0.000421 -0.004108 0.006277 0.029676
#
#
# Mechanical properties :
#
#
# Convention : Reuss Voigt Hill
#
# Bulk Modulus (GPa) = 56.02356 59.26338 57.64347
# Shear Modulus (GPa) = 27.54351 31.00708 29.27529
#
# Velocity S-wave (km/s) = 3.77248 4.00265 3.88927
# Velocity P-wave (km/s) = 6.92261 7.20990 7.06771
#
# Compressibility (1/GPa) = 0.01784963
#
# Stress axis : x y z
#
# Youngs Moduli (GPa) = 80.44213 76.42463 56.69450
#
# Poissons Ratio (x) = 0.24725 0.32520
# Poissons Ratio (y) = 0.26025 0.20871
# Poissons Ratio (z) = 0.46141 0.28134
#
# Static dielectric constant tensor:
#      x y z
#    x 1.704860 0.046390 0.039160 
#    y 0.046390 1.686560 0.019100 
#    z 0.039160 0.019100 1.688380 
# 
# From -- ./inp_files/209265.got.cif
#   From: 2010.05.17/outbox.cif.g08.bks.cpg/sg2_105_cif.got.tgz:209265.got - 2010.06.03 11:33:40.
