data_PCOD9011181
_publ_section_title
;
Structure prediction by ZEFSAII (Michael W. Deem and Ramdas Pophale) SiO2 
 PCOD9011181
Probable space group: P -1
;
_chemical_formula_sum "Si O2"
_cell_formula_units_Z 15
_cell_length_a 19.376588
_cell_length_b 17.825748
_cell_length_c 6.593852
_cell_angle_alpha 46.811190
_cell_angle_beta 53.082377
_cell_angle_gamma 21.141155
_cell_volume 592.727941
_symmetry_space_group_name_H-M "P -1"
_symmetry_group_IT_number 2
_symmetry_cell_setting 'triclinic'
loop_
_space_group_symop_operation_xyz
x,y,z
-x,-y,-z
loop_
_atom_site_type_symbol
_atom_site_label
_atom_site_fract_x
_atom_site_fract_y
_atom_site_fract_z
Si Si1 0.263719 0.605562 0.872700
Si Si2 0.864284 0.948704 0.950311
Si Si3 0.028425 0.300183 0.411267
Si Si4 0.291769 0.200485 0.087308
Si Si5 0.752977 0.430985 0.555991
Si Si6 0.500000 0.000000 0.500000
Si Si7 0.454943 0.833484 0.072934
Si Si8 0.423575 0.587950 0.202821
O O1 0.252506 0.594021 0.154527
O O2 0.393239 0.376511 0.972085
O O3 0.042310 0.828072 0.785901
O O4 0.381796 0.587471 0.691922
O O5 0.945159 0.769378 0.278395
O O6 0.727797 0.046496 0.839349
O O7 0.726264 0.161038 0.952146
O O8 0.215385 0.164944 0.265402
O O9 0.949985 0.284895 0.453325
O O10 0.858524 0.564954 0.194745
O O11 0.320459 0.192615 0.289598
O O12 0.500000 0.000000 0.000000
O O13 0.699099 0.386504 0.605539
O O14 0.576690 0.693031 0.322469
O O15 0.409197 0.994811 0.778979
O O16 0.500000 0.500000 0.000000
#
# Coordination Sequence:
#
# PCOD9011181 Si02
#       8
#     2   2   2   2   2   1   2   2
#     4   9  22  41  65  90 130 170 206 264 321 366
#     4  10  21  40  65  93 132 166 210 268 313 376
#     4  10  22  42  63  95 128 160 214 262 309 384
#     4  11  25  44  67  93 127 168 209 268 325 370
#     4  10  21  41  65  91 129 167 212 259 312 382
#     4  12  24  42  70  94 124 168 220 256 320 392
#     4  11  23  43  61  93 130 167 212 269 318 373
#     4   9  20  39  66  95 128 170 210 260 319 377
#
# _framework density 25.306721
#
# number of rings (size 3 to 8) (size 9 to 14) (size 15 to 20)
#    0.000    1.867    2.667    0.000    3.733    8.000 
#    2.400   10.000    0.000    0.000    0.000    0.000 
#    0.000    0.000    0.000    0.000    0.000    0.000 
#
# Total GULP energy -83594.079668 kJ/mol
# GULP energy per Si atom -5572.938645 kJ/mol
# Density = 2.524912 g / cm^3
# Si number density = 25.306721 Si / 1000 Ang^3
#
#
#
# Elastic Constant Matrix: (Units=GPa)
#
#
# Indices 1 2 3 4 5 6 
#
# 1 131.4558 54.0019 1.4438 10.5025 -10.3345 -45.8456
# 2 54.0019 154.8272 11.2164 19.2319 -14.9695 -52.2974
# 3 1.4438 11.2164 79.1727 8.3588 -12.7629 -16.4294
# 4 10.5025 19.2319 8.3588 32.9492 -23.5215 -10.0694
# 5 -10.3345 -14.9695 -12.7629 -23.5215 33.0440 5.2925
# 6 -45.8456 -52.2974 -16.4294 -10.0694 5.2925 55.9980
#
#
#
# Elastic Compliance Matrix: (Units=1/GPa)
#
#
# Indices 1 2 3 4 5 6 
#
# 1 0.011239 -0.000910 0.002210 0.001889 0.003863 0.008975
# 2 -0.000910 0.009913 0.000823 -0.001826 0.001904 0.008246
# 3 0.002210 0.000823 0.014796 0.002383 0.007411 0.006647
# 4 0.001889 -0.001826 0.002383 0.065510 0.046040 0.007969
# 5 0.003863 0.001904 0.007411 0.046040 0.066509 0.009108
# 6 0.008975 0.008246 0.006647 0.007969 0.009108 0.035429
#
#
# Mechanical properties :
#
#
# Convention : Reuss Voigt Hill
#
# Bulk Modulus (GPa) = 24.87934 55.42000 40.14967
# Shear Modulus (GPa) = 23.52404 44.31782 33.92093
#
# Velocity S-wave (km/s) = 3.05217 4.18931 3.66511
# Velocity P-wave (km/s) = 4.71948 6.73404 5.81467
#
# Compressibility (1/GPa) = 0.04019400
#
# Stress axis : x y z
#
# Youngs Moduli (GPa) = 88.97254 100.88077 67.58570
#
# Poissons Ratio (x) = 0.09178 -0.14934
# Poissons Ratio (y) = 0.08095 -0.05563
# Poissons Ratio (z) = -0.19660 -0.08303
#
# Static dielectric constant tensor:
#      x y z
#    x 2.088390 0.013300 -0.021090 
#    y 0.013300 1.986170 0.034340 
#    z -0.021090 0.034340 2.029730 
# 
# From -- ./inp_files/349197.got.cif
#   From: 2010.05.17/outbox.cif.g08.bks.cpg/sg2_175_cif.got.tgz:349197.got - 2010.06.03 11:33:40.
