data_PCOD9011564
_publ_section_title
;
Structure prediction by ZEFSAII (Michael W. Deem and Ramdas Pophale) SiO2 
 PCOD9011564
Probable space group: P -1
;
_chemical_formula_sum "Si O2"
_cell_formula_units_Z 16
_cell_length_a 20.853971
_cell_length_b 12.234906
_cell_length_c 18.286408
_cell_angle_alpha 38.553714
_cell_angle_beta 150.717057
_cell_angle_gamma 161.748393
_cell_volume 681.291862
_symmetry_space_group_name_H-M "P -1"
_symmetry_group_IT_number 2
_symmetry_cell_setting 'triclinic'
loop_
_space_group_symop_operation_xyz
x,y,z
-x,-y,-z
loop_
_atom_site_type_symbol
_atom_site_label
_atom_site_fract_x
_atom_site_fract_y
_atom_site_fract_z
Si Si1 0.091971 0.103080 0.916959
Si Si2 0.911658 0.159448 0.833920
Si Si3 0.175525 0.079758 0.401033
Si Si4 0.157969 0.400764 0.281835
Si Si5 0.641644 0.344097 0.490240
Si Si6 0.587883 0.960251 0.289009
Si Si7 0.413017 0.128756 0.978390
Si Si8 0.212448 0.887229 0.742838
O O1 0.020550 0.154044 0.884357
O O2 0.415559 0.502803 0.018291
O O3 0.947412 0.002386 0.754209
O O4 0.029064 0.840190 0.025684
O O5 0.057744 0.517221 0.780967
O O6 0.583223 0.779863 0.693470
O O7 0.500000 0.500000 0.500000
O O8 0.067855 0.090843 0.348102
O O9 0.162116 0.856290 0.521010
O O10 0.330903 0.627406 0.409404
O O11 0.337400 0.648158 0.259282
O O12 0.895986 0.217753 0.119878
O O13 0.955513 0.719542 0.578312
O O14 0.500000 0.000000 0.500000
O O15 0.596665 0.876256 0.262034
O O16 0.575597 0.150708 0.158217
O O17 0.382226 0.092030 0.879141
#
# Coordination Sequence:
#
# PCOD9011564 Si02
#       8
#     2   2   2   2   2   2   2   2
#     4  11  24  39  64  97 134 176 222 277 326 395
#     4  10  21  40  66  95 133 172 222 273 332 393
#     4  10  24  42  63  92 135 177 219 265 340 397
#     4  10  23  43  67  95 138 178 216 271 340 399
#     4   9  20  43  65  97 128 169 223 270 324 393
#     4  11  22  41  69  97 132 176 222 274 326 402
#     4  11  24  42  65 102 133 174 228 275 327 394
#     4  10  22  40  70  99 130 171 224 272 334 394
#
# _framework density 23.484794000000001
#
# number of rings (size 3 to 8) (size 9 to 14) (size 15 to 20)
#    0.000    1.750    1.250    2.250    3.500    5.000 
#    6.750    2.500    0.000    0.000    0.000    0.000 
#    0.000    0.000    0.000    0.000    0.000    0.000 
#
# Total GULP energy -89319.923746 kJ/mol
# GULP energy per Si atom -5582.495234 kJ/mol
# Density = 2.343134 g / cm^3
# Si number density = 23.484794 Si / 1000 Ang^3
#
#
#
# Elastic Constant Matrix: (Units=GPa)
#
#
# Indices 1 2 3 4 5 6 
#
# 1 117.7831 38.8340 45.5218 2.2847 -18.6518 21.6167
# 2 38.8340 37.7454 52.1585 4.1069 -16.5043 4.8712
# 3 45.5218 52.1585 148.3317 5.6244 -18.2860 13.7561
# 4 2.2847 4.1069 5.6244 33.1719 -3.0500 -4.8797
# 5 -18.6518 -16.5043 -18.2860 -3.0500 40.1427 -2.3907
# 6 21.6167 4.8712 13.7561 -4.8797 -2.3907 28.8262
#
#
#
# Elastic Compliance Matrix: (Units=1/GPa)
#
#
# Indices 1 2 3 4 5 6 
#
# 1 0.015164 -0.017578 0.002491 -0.000684 0.000325 -0.009679
# 2 -0.017578 0.080411 -0.021926 -0.001993 0.015409 0.010997
# 3 0.002491 -0.021926 0.013960 -0.000746 -0.001859 -0.005105
# 4 -0.000684 -0.001993 -0.000746 0.031671 0.001327 0.006677
# 5 0.000325 0.015409 -0.001859 0.001327 0.030700 0.000810
# 6 -0.009679 0.010997 -0.005105 0.006677 0.000810 0.043724
#
#
# Mechanical properties :
#
#
# Convention : Reuss Voigt Hill
#
# Bulk Modulus (GPa) = 28.16116 64.09877 46.12996
# Shear Modulus (GPa) = 16.58426 31.58457 24.08442
#
# Velocity S-wave (km/s) = 2.66027 3.67126 3.20587
# Velocity P-wave (km/s) = 4.63177 6.73230 5.77828
#
# Compressibility (1/GPa) = 0.03550991
#
# Stress axis : x y z
#
# Youngs Moduli (GPa) = 65.94529 12.43607 71.63546
#
# Poissons Ratio (x) = 0.21860 -0.17843
# Poissons Ratio (y) = 1.15917 1.57065
# Poissons Ratio (z) = -0.16426 0.27267
#
# Static dielectric constant tensor:
#      x y z
#    x 1.895590 0.003250 0.060630 
#    y 0.003250 1.969330 -0.029030 
#    z 0.060630 -0.029030 1.945680 
# 
# From -- ./inp_files/577959.got.cif
#   From: 2010.05.17/outbox.cif.g08.bks.cpg/sg2_289_cif.got.tgz:577959.got - 2010.06.03 11:33:40.
