data_PCOD9011697
_publ_section_title
;
Structure prediction by ZEFSAII (Michael W. Deem and Ramdas Pophale) SiO2 
 PCOD9011697
Probable space group: P -1
;
_chemical_formula_sum "Si O2"
_cell_formula_units_Z 16
_cell_length_a 9.420896
_cell_length_b 25.548748
_cell_length_c 5.466035
_cell_angle_alpha 61.903579
_cell_angle_beta 80.933842
_cell_angle_gamma 38.658765
_cell_volume 670.192150
_symmetry_space_group_name_H-M "P -1"
_symmetry_group_IT_number 2
_symmetry_cell_setting 'triclinic'
loop_
_space_group_symop_operation_xyz
x,y,z
-x,-y,-z
loop_
_atom_site_type_symbol
_atom_site_label
_atom_site_fract_x
_atom_site_fract_y
_atom_site_fract_z
Si Si1 0.225535 0.755791 0.248644
Si Si2 0.515329 0.603795 0.129500
Si Si3 0.297045 0.117193 0.736003
Si Si4 0.112898 0.913606 0.831969
Si Si5 0.011820 0.713003 0.877194
Si Si6 0.364166 0.893752 0.207389
Si Si7 0.553337 0.713606 0.644183
Si Si8 0.016592 0.634275 0.546282
O O1 0.417392 0.643919 0.344113
O O2 0.355438 0.749305 0.439823
O O3 0.965048 0.814570 0.241198
O O4 0.166268 0.829608 0.912924
O O5 0.726334 0.486225 0.287878
O O6 0.264588 0.666470 0.925171
O O7 0.612207 0.637701 0.965063
O O8 0.413804 0.136111 0.781446
O O9 0.219147 0.164918 0.378055
O O10 0.500000 0.000000 0.000000
O O11 0.331655 0.872570 0.005122
O O12 0.000000 0.000000 0.500000
O O13 0.884154 0.986886 0.929138
O O14 0.023091 0.667698 0.730503
O O15 0.991338 0.682072 0.200113
O O16 0.426124 0.817805 0.539088
O O17 0.798695 0.658199 0.575152
#
# Coordination Sequence:
#
# PCOD9011697 Si02
#       8
#     2   2   2   2   2   2   2   2
#     4  11  25  44  69 112 151 202 256 325 385 457
#     4  12  27  48  79 109 157 203 265 322 395 461
#     4  12  24  48  76 111 153 206 259 318 393 471
#     4  10  21  40  67 100 144 199 255 316 390 457
#     4  12  28  52  80 114 161 202 264 326 389 463
#     4  10  22  42  68  99 151 192 258 309 392 454
#     4  11  25  46  75 108 159 197 259 323 388 464
#     4  12  29  51  83 116 153 213 262 324 393 465
#
# _framework density 23.873750000000001
#
# number of rings (size 3 to 8) (size 9 to 14) (size 15 to 20)
#    0.000    0.750    3.750    2.625    3.500    3.500 
#    0.000    3.125    0.000    0.000    0.000    0.000 
#    0.000    0.000    0.000    0.000    0.000    0.000 
#
# Total GULP energy -89328.544470 kJ/mol
# GULP energy per Si atom -5583.034029 kJ/mol
# Density = 2.381941 g / cm^3
# Si number density = 23.873750 Si / 1000 Ang^3
#
#
#
# Elastic Constant Matrix: (Units=GPa)
#
#
# Indices 1 2 3 4 5 6 
#
# 1 183.3133 33.4532 40.7000 9.7866 1.6013 -24.8213
# 2 33.4532 100.4786 22.0563 -17.0053 9.8967 3.6576
# 3 40.7000 22.0563 105.7112 -2.8486 -12.6619 -5.3618
# 4 9.7866 -17.0053 -2.8486 38.6506 -8.1221 -0.3815
# 5 1.6013 9.8967 -12.6619 -8.1221 31.3690 -4.4549
# 6 -24.8213 3.6576 -5.3618 -0.3815 -4.4549 42.6591
#
#
#
# Elastic Compliance Matrix: (Units=1/GPa)
#
#
# Indices 1 2 3 4 5 6 
#
# 1 0.007110 -0.002499 -0.002185 -0.003171 -0.000714 0.003974
# 2 -0.002499 0.012628 -0.002152 0.005194 -0.003829 -0.003160
# 3 -0.002185 -0.002152 0.011574 0.001743 0.006058 0.001016
# 4 -0.003171 0.005194 0.001743 0.030547 0.006984 -0.001069
# 5 -0.000714 -0.003829 0.006058 0.006984 0.038045 0.004710
# 6 0.003974 -0.003160 0.001016 -0.001069 0.004710 0.026635
#
#
# Mechanical properties :
#
#
# Convention : Reuss Voigt Hill
#
# Bulk Modulus (GPa) = 56.68796 64.65802 60.67299
# Shear Modulus (GPa) = 34.22542 42.08864 38.15703
#
# Velocity S-wave (km/s) = 3.79040 4.20333 4.00219
# Velocity P-wave (km/s) = 6.55382 7.12035 6.84295
#
# Compressibility (1/GPa) = 0.01764043
#
# Stress axis : x y z
#
# Youngs Moduli (GPa) = 140.64861 79.19030 86.39908
#
# Poissons Ratio (x) = 0.19786 0.18882
# Poissons Ratio (y) = 0.35141 0.18591
# Poissons Ratio (z) = 0.30739 0.17040
#
# Static dielectric constant tensor:
#      x y z
#    x 1.880500 -0.013800 -0.077220 
#    y -0.013800 2.009730 0.045880 
#    z -0.077220 0.045880 2.136710 
# 
# From -- ./inp_files/56309.got.cif
#   From: 2010.05.17/outbox.cif.g08.bks.cpg/sg2_29_cif.got.tgz:56309.got - 2010.06.03 11:33:40.
