data_PCOD9011308
_publ_section_title
;
Structure prediction by ZEFSAII (Michael W. Deem and Ramdas Pophale) SiO2 
 PCOD9011308
Probable space group: P -1
;
_chemical_formula_sum "Si O2"
_cell_formula_units_Z 16
_cell_length_a 9.058620
_cell_length_b 23.729935
_cell_length_c 9.434915
_cell_angle_alpha 131.192491
_cell_angle_beta 91.512144
_cell_angle_gamma 47.125897
_cell_volume 720.718851
_symmetry_space_group_name_H-M "P -1"
_symmetry_group_IT_number 2
_symmetry_cell_setting 'triclinic'
loop_
_space_group_symop_operation_xyz
x,y,z
-x,-y,-z
loop_
_atom_site_type_symbol
_atom_site_label
_atom_site_fract_x
_atom_site_fract_y
_atom_site_fract_z
Si Si1 0.998128 0.679723 0.249885
Si Si2 0.662484 0.679816 0.225184
Si Si3 0.183034 0.109377 0.604833
Si Si4 0.304930 0.350413 0.349969
Si Si5 0.466854 0.110281 0.011105
Si Si6 0.252052 0.821970 0.183126
Si Si7 0.912296 0.827909 0.756555
Si Si8 0.498980 0.350477 0.609845
O O1 0.721351 0.742289 0.326999
O O2 0.984510 0.745676 0.233235
O O3 0.961380 0.740995 0.495751
O O4 0.323187 0.490099 0.932219
O O5 0.528243 0.709168 0.121659
O O6 0.420467 0.754753 0.459331
O O7 0.000000 0.500000 0.000000
O O8 0.939912 0.169345 0.788035
O O9 0.500000 0.000000 0.500000
O O10 0.305444 0.001951 0.301782
O O11 0.335132 0.252005 0.242821
O O12 0.278991 0.416117 0.592112
O O13 0.000000 0.500000 0.500000
O O14 0.594640 0.237961 0.066690
O O15 0.200917 0.164442 0.094037
O O16 0.658350 0.999366 0.971223
O O17 0.000000 0.000000 0.500000
O O18 0.224388 0.735244 0.609783
#
# Coordination Sequence:
#
# PCOD9011308 Si02
#       8
#     2   2   2   2   2   2   2   2
#     4  10  21  40  65  97 131 176 222 286 343 405
#     4  10  21  41  69  98 137 184 233 279 340 418
#     4  11  24  41  69  94 138 185 230 285 344 419
#     4  12  27  45  68 103 148 181 228 294 352 417
#     4  10  23  44  64  94 136 178 223 289 347 402
#     4  12  25  46  71 104 140 186 237 283 353 426
#     4  10  22  42  67  98 132 172 231 291 342 400
#     4  11  24  40  69 100 133 179 236 276 341 417
#
# _framework density 22.200059
#
# number of rings (size 3 to 8) (size 9 to 14) (size 15 to 20)
#    0.000    1.250    1.250    4.875    3.500    3.500 
#    2.250    1.250    0.000    0.000    0.000    0.000 
#    0.000    0.000    0.000    0.000    0.000    0.000 
#
# Total GULP energy -89377.845059 kJ/mol
# GULP energy per Si atom -5586.115316 kJ/mol
# Density = 2.214953 g / cm^3
# Si number density = 22.200059 Si / 1000 Ang^3
#
#
#
# Elastic Constant Matrix: (Units=GPa)
#
#
# Indices 1 2 3 4 5 6 
#
# 1 133.1923 38.8354 20.7235 8.6746 -13.6113 20.7602
# 2 38.8354 67.7827 18.0070 -0.8402 5.4130 3.2020
# 3 20.7235 18.0070 70.7752 1.6245 -10.1418 15.5196
# 4 8.6746 -0.8402 1.6245 31.8931 7.9227 -0.1758
# 5 -13.6113 5.4130 -10.1418 7.9227 37.3117 -4.5691
# 6 20.7602 3.2020 15.5196 -0.1758 -4.5691 41.5731
#
#
#
# Elastic Compliance Matrix: (Units=1/GPa)
#
#
# Indices 1 2 3 4 5 6 
#
# 1 0.010949 -0.006650 0.000364 -0.004556 0.005473 -0.004509
# 2 -0.006650 0.020405 -0.005021 0.004443 -0.007347 0.002835
# 3 0.000364 -0.005021 0.017384 -0.002494 0.005418 -0.005699
# 4 -0.004556 0.004443 -0.002494 0.035400 -0.010270 0.001885
# 5 0.005473 -0.007347 0.005418 -0.010270 0.033449 -0.000557
# 6 -0.004509 0.002835 -0.005699 0.001885 -0.000557 0.028162
#
#
# Mechanical properties :
#
#
# Convention : Reuss Voigt Hill
#
# Bulk Modulus (GPa) = 38.28080 47.43133 42.85607
# Shear Modulus (GPa) = 28.23725 35.10120 31.66923
#
# Velocity S-wave (km/s) = 3.57030 3.98066 3.78105
# Velocity P-wave (km/s) = 5.85466 6.52222 6.19743
#
# Compressibility (1/GPa) = 0.02612275
#
# Stress axis : x y z
#
# Youngs Moduli (GPa) = 91.32968 49.00753 57.52578
#
# Poissons Ratio (x) = 0.32592 -0.02092
# Poissons Ratio (y) = 0.60739 0.28882
# Poissons Ratio (z) = -0.03321 0.24605
#
# Static dielectric constant tensor:
#      x y z
#    x 1.895480 0.011420 -0.061000 
#    y 0.011420 1.824560 0.003340 
#    z -0.061000 0.003340 1.850360 
# 
# From -- ./inp_files/223812.got.cif
#   From: 2010.05.17/outbox.cif.g08.bks.cpg/sg2_112_cif.got.tgz:223812.got - 2010.06.03 11:33:40.
