data_PCOD9011531
_publ_section_title
;
Structure prediction by ZEFSAII (Michael W. Deem and Ramdas Pophale) SiO2 
 PCOD9011531
Probable space group: P -1
;
_chemical_formula_sum "Si O2"
_cell_formula_units_Z 15
_cell_length_a 8.415218
_cell_length_b 14.623404
_cell_length_c 6.196407
_cell_angle_alpha 84.114129
_cell_angle_beta 68.887504
_cell_angle_gamma 60.248575
_cell_volume 614.836494
_symmetry_space_group_name_H-M "P -1"
_symmetry_group_IT_number 2
_symmetry_cell_setting 'triclinic'
loop_
_space_group_symop_operation_xyz
x,y,z
-x,-y,-z
loop_
_atom_site_type_symbol
_atom_site_label
_atom_site_fract_x
_atom_site_fract_y
_atom_site_fract_z
Si Si1 0.581951 0.753690 0.261988
Si Si2 0.072224 0.086541 0.947339
Si Si3 0.672138 0.242436 0.238643
Si Si4 0.158831 0.204864 0.531531
Si Si5 0.131117 0.556379 0.426131
Si Si6 0.591464 0.584402 0.015110
Si Si7 0.535507 0.096755 0.091291
Si Si8 0.500000 0.500000 0.500000
O O1 0.425326 0.738755 0.485115
O O2 0.735236 0.761106 0.343052
O O3 0.662373 0.662142 0.064913
O O4 0.476128 0.862253 0.154135
O O5 0.076928 0.135087 0.701596
O O6 0.295563 0.024158 0.936252
O O7 0.906518 0.185991 0.137753
O O8 0.000000 0.000000 0.000000
O O9 0.615426 0.161674 0.175067
O O10 0.560616 0.346830 0.120924
O O11 0.325346 0.134732 0.293538
O O12 0.990845 0.318108 0.507534
O O13 0.287535 0.507974 0.553441
O O14 0.000000 0.500000 0.500000
O O15 0.234262 0.519200 0.150912
O O16 0.485685 0.555924 0.258798
#
# Coordination Sequence:
#
# PCOD9011531 Si02
#       8
#     2   2   2   2   2   2   2   1
#     4  10  21  40  66  94 132 180 229 285 341 413
#     4  10  21  40  66  94 132 177 223 289 355 411
#     4   9  19  39  63  92 130 172 223 280 344 409
#     4  11  23  41  66  98 135 177 230 285 347 418
#     4  12  26  45  71 104 143 189 235 286 348 415
#     4  11  23  43  66  97 141 185 233 286 345 417
#     4   9  20  39  64  92 126 169 222 280 342 412
#     4  12  26  42  68 100 138 186 234 284 342 410
#
# _framework density 24.396728
#
# number of rings (size 3 to 8) (size 9 to 14) (size 15 to 20)
#    0.000    1.600    0.000    5.600    0.000    5.333 
#    0.000    5.333    0.000    0.000    0.000    0.000 
#    0.000    0.000    0.000    0.000    0.000    0.000 
#
# Total GULP energy -83663.201762 kJ/mol
# GULP energy per Si atom -5577.546784 kJ/mol
# Density = 2.434120 g / cm^3
# Si number density = 24.396728 Si / 1000 Ang^3
#
#
#
# Elastic Constant Matrix: (Units=GPa)
#
#
# Indices 1 2 3 4 5 6 
#
# 1 84.7874 51.0735 32.6219 6.5040 -0.6903 1.1316
# 2 51.0735 130.1699 68.2751 0.7484 -9.9851 -10.2363
# 3 32.6219 68.2751 124.8320 -17.9874 -24.5537 -8.3634
# 4 6.5040 0.7484 -17.9874 38.6130 4.7819 -5.5764
# 5 -0.6903 -9.9851 -24.5537 4.7819 38.1240 -3.5070
# 6 1.1316 -10.2363 -8.3634 -5.5764 -3.5070 34.9535
#
#
#
# Elastic Compliance Matrix: (Units=1/GPa)
#
#
# Indices 1 2 3 4 5 6 
#
# 1 0.016505 -0.005568 -0.002637 -0.004105 -0.002685 -0.003720
# 2 -0.005568 0.013100 -0.005786 -0.001673 0.000031 0.002368
# 3 -0.002637 -0.005786 0.014548 0.006969 0.007274 0.003714
# 4 -0.004105 -0.001673 0.006969 0.030688 0.000704 0.006277
# 5 -0.002685 0.000031 0.007274 0.000704 0.031254 0.005085
# 6 -0.003720 0.002368 0.003714 0.006277 0.005085 0.031824
#
#
# Mechanical properties :
#
#
# Convention : Reuss Voigt Hill
#
# Bulk Modulus (GPa) = 61.83605 71.52559 66.68082
# Shear Modulus (GPa) = 29.19002 34.85935 32.02469
#
# Velocity S-wave (km/s) = 3.46276 3.78412 3.62700
# Velocity P-wave (km/s) = 6.43340 6.96233 6.70309
#
# Compressibility (1/GPa) = 0.01617180
#
# Stress axis : x y z
#
# Youngs Moduli (GPa) = 60.58610 76.33593 68.73699
#
# Poissons Ratio (x) = 0.42503 0.18126
# Poissons Ratio (y) = 0.33734 0.39772
# Poissons Ratio (z) = 0.15976 0.44168
#
# Static dielectric constant tensor:
#      x y z
#    x 1.995630 0.035910 -0.022950 
#    y 0.035910 1.979080 0.028250 
#    z -0.022950 0.028250 1.933820 
# 
# From -- ./inp_files/46946.got.cif
#   From: 2010.05.17/outbox.cif.g08.bks.cpg/sg2_24_cif.got.tgz:46946.got - 2010.06.03 11:33:40.
