data_PCOD9011108
_publ_section_title
;
Structure prediction by ZEFSAII (Michael W. Deem and Ramdas Pophale) SiO2 
 PCOD9011108
Probable space group: P -1
;
_chemical_formula_sum "Si O2"
_cell_formula_units_Z 14
_cell_length_a 8.681043
_cell_length_b 11.786787
_cell_length_c 9.097871
_cell_angle_alpha 58.567554
_cell_angle_beta 55.009800
_cell_angle_gamma 50.278350
_cell_volume 568.565112
_symmetry_space_group_name_H-M "P -1"
_symmetry_group_IT_number 2
_symmetry_cell_setting 'triclinic'
loop_
_space_group_symop_operation_xyz
x,y,z
-x,-y,-z
loop_
_atom_site_type_symbol
_atom_site_label
_atom_site_fract_x
_atom_site_fract_y
_atom_site_fract_z
Si Si1 0.231274 0.242830 0.446894
Si Si2 0.731937 0.978624 0.920726
Si Si3 0.831718 0.560203 0.917563
Si Si4 0.607782 0.591703 0.538938
Si Si5 0.429643 0.691252 0.250976
Si Si6 0.727753 0.025783 0.230871
Si Si7 0.835632 0.265235 0.135158
O O1 0.119642 0.352596 0.296043
O O2 0.256416 0.344029 0.494083
O O3 0.162475 0.123746 0.626316
O O4 0.476424 0.128110 0.338199
O O5 0.728382 0.131234 0.766452
O O6 0.933352 0.828699 0.849055
O O7 0.500000 0.000000 0.000000
O O8 0.747367 0.969661 0.093430
O O9 0.594316 0.664531 0.045649
O O10 0.826175 0.410256 0.962671
O O11 0.000000 0.500000 0.000000
O O12 0.575869 0.632116 0.357588
O O13 0.678999 0.414602 0.639593
O O14 0.366199 0.673640 0.685770
O O15 0.818170 0.141868 0.126529
#
# Coordination Sequence:
#
# PCOD9011108 Si02
#       7
#     2   2   2   2   2   2   2
#     4  10  21  41  70  90 133 175 220 264 331 388
#     4  12  23  39  66  97 134 173 215 272 335 390
#     4  11  23  43  66  98 129 175 222 272 324 393
#     4   9  21  42  64  97 126 174 221 272 326 387
#     4  10  21  40  65  91 133 171 219 271 325 387
#     4  10  22  42  64  99 130 172 221 270 326 390
#     4  10  24  41  66  94 132 167 226 266 324 395
#
# _framework density 24.623387999999998
#
# number of rings (size 3 to 8) (size 9 to 14) (size 15 to 20)
#    0.000    1.714    1.429    2.143    2.000    2.286 
#    7.714    1.429    0.000    0.000    0.000    0.000 
#    0.000    0.000    0.000    0.000    0.000    0.000 
#
# Total GULP energy -78398.959589 kJ/mol
# GULP energy per Si atom -5599.925685 kJ/mol
# Density = 2.456734 g / cm^3
# Si number density = 24.623388 Si / 1000 Ang^3
#
#
#
# Elastic Constant Matrix: (Units=GPa)
#
#
# Indices 1 2 3 4 5 6 
#
# 1 84.1784 28.6054 36.7360 -7.8251 0.4714 11.2365
# 2 28.6054 121.4414 35.3748 -28.4803 1.7168 6.7907
# 3 36.7360 35.3748 93.7275 -29.7831 18.7007 17.1129
# 4 -7.8251 -28.4803 -29.7831 42.1342 -9.5989 -3.7698
# 5 0.4714 1.7168 18.7007 -9.5989 26.2565 3.6144
# 6 11.2365 6.7907 17.1129 -3.7698 3.6144 39.5122
#
#
#
# Elastic Compliance Matrix: (Units=1/GPa)
#
#
# Indices 1 2 3 4 5 6 
#
# 1 0.015447 -0.002319 -0.006403 -0.002530 0.003758 -0.001806
# 2 -0.002319 0.010705 -0.001694 0.006246 0.002847 -0.000111
# 3 -0.006403 -0.001694 0.019369 0.008727 -0.009752 -0.004552
# 4 -0.002530 0.006246 0.008727 0.034990 0.006403 -0.001381
# 5 0.003758 0.002847 -0.009752 0.006403 0.047263 -0.001047
# 6 -0.001806 -0.000111 -0.004552 -0.001381 -0.001047 0.027777
#
#
# Mechanical properties :
#
#
# Convention : Reuss Voigt Hill
#
# Bulk Modulus (GPa) = 40.50664 55.64217 48.07440
# Shear Modulus (GPa) = 27.08383 34.82265 30.95324
#
# Velocity S-wave (km/s) = 3.32011 3.76468 3.54936
# Velocity P-wave (km/s) = 5.58423 6.44542 6.03022
#
# Compressibility (1/GPa) = 0.02468731
#
# Stress axis : x y z
#
# Youngs Moduli (GPa) = 64.73851 93.41400 51.63021
#
# Poissons Ratio (x) = 0.21660 0.33060
# Poissons Ratio (y) = 0.15011 0.08749
# Poissons Ratio (z) = 0.41454 0.15829
#
# Static dielectric constant tensor:
#      x y z
#    x 2.005490 -0.029340 -0.042780 
#    y -0.029340 1.966370 0.006530 
#    z -0.042780 0.006530 1.910350 
# 
# From -- ./inp_files/183976.got.cif
#   From: 2010.05.17/outbox.cif.g08.bks.cpg/sg2_92_cif.got.tgz:183976.got - 2010.06.03 11:33:40.
