data_PCOD9011659
_publ_section_title
;
Structure prediction by ZEFSAII (Michael W. Deem and Ramdas Pophale) SiO2 
 PCOD9011659
Probable space group: P -1
;
_chemical_formula_sum "Si O2"
_cell_formula_units_Z 14
_cell_length_a 9.433914
_cell_length_b 28.319629
_cell_length_c 18.496134
_cell_angle_alpha 17.559690
_cell_angle_beta 152.545619
_cell_angle_gamma 151.550981
_cell_volume 667.464924
_symmetry_space_group_name_H-M "P -1"
_symmetry_group_IT_number 2
_symmetry_cell_setting 'triclinic'
loop_
_space_group_symop_operation_xyz
x,y,z
-x,-y,-z
loop_
_atom_site_type_symbol
_atom_site_label
_atom_site_fract_x
_atom_site_fract_y
_atom_site_fract_z
Si Si1 0.395426 0.938490 0.932943
Si Si2 0.439376 0.156117 0.113692
Si Si3 0.743879 0.336228 0.115788
Si Si4 0.071801 0.407737 0.741069
Si Si5 0.939008 0.921621 0.302828
Si Si6 0.172532 0.387780 0.548255
Si Si7 0.721655 0.086283 0.725558
O O1 0.723144 0.903585 0.160810
O O2 0.154577 0.766692 0.086668
O O3 0.289559 0.064719 0.754295
O O4 0.458837 0.023334 0.760480
O O5 0.725293 0.261870 0.134471
O O6 0.440297 0.995686 0.301968
O O7 0.304691 0.268731 0.834619
O O8 0.187237 0.090809 0.157899
O O9 0.863017 0.208680 0.405026
O O10 0.419069 0.378917 0.930088
O O11 0.000000 0.500000 0.000000
O O12 0.000000 0.500000 0.500000
O O13 0.013822 0.515658 0.625078
O O14 0.500000 0.500000 0.500000
O O15 0.911079 0.274245 0.542668
O O16 0.000000 0.000000 0.000000
#
# Coordination Sequence:
#
# PCOD9011659 Si02
#       7
#     2   2   2   2   2   2   2
#     4  11  22  40  71 101 127 179 235 278 330 409
#     4  11  22  44  66  99 132 181 226 269 345 407
#     4  12  27  42  67 102 143 179 220 289 346 395
#     4  12  23  41  67 102 134 176 233 281 339 399
#     4  11  23  41  69  97 137 174 227 279 338 403
#     4  11  23  40  70 102 137 172 224 288 337 400
#     4  10  21  40  66  99 130 173 228 276 336 401
#
# _framework density 20.974883999999999
#
# number of rings (size 3 to 8) (size 9 to 14) (size 15 to 20)
#    0.000    0.857    5.714    3.000    4.000    0.000 
#    0.000    0.714    3.143    2.571    0.000    0.000 
#    0.000    0.000    0.000    0.000    0.000    0.000 
#
# Total GULP energy -78046.947269 kJ/mol
# GULP energy per Si atom -5574.781948 kJ/mol
# Density = 2.092714 g / cm^3
# Si number density = 20.974884 Si / 1000 Ang^3
#
#
#
# Elastic Constant Matrix: (Units=GPa)
#
#
# Indices 1 2 3 4 5 6 
#
# 1 133.4694 54.8713 39.5740 -13.7481 11.6733 -10.7013
# 2 54.8713 156.9492 47.8094 -28.9254 8.3863 -10.3216
# 3 39.5740 47.8094 108.0838 -0.2566 4.8319 12.3576
# 4 -13.7481 -28.9254 -0.2566 33.0774 4.5135 1.3067
# 5 11.6733 8.3863 4.8319 4.5135 24.7258 -7.6525
# 6 -10.7013 -10.3216 12.3576 1.3067 -7.6525 37.2459
#
#
#
# Elastic Compliance Matrix: (Units=1/GPa)
#
#
# Indices 1 2 3 4 5 6 
#
# 1 0.009864 -0.001625 -0.003040 0.002995 -0.003248 0.002620
# 2 -0.001625 0.010010 -0.004028 0.008272 -0.002470 0.002846
# 3 -0.003040 -0.004028 0.012896 -0.004318 -0.000880 -0.006298
# 4 0.002995 0.008272 -0.004318 0.040049 -0.010361 0.001051
# 5 -0.003248 -0.002470 -0.000880 -0.010361 0.047607 0.008819
# 6 0.002620 0.002846 -0.006298 0.001051 0.008819 0.032255
#
#
# Mechanical properties :
#
#
# Convention : Reuss Voigt Hill
#
# Bulk Modulus (GPa) = 65.00232 75.89019 70.44625
# Shear Modulus (GPa) = 28.53926 36.09302 32.31614
#
# Velocity S-wave (km/s) = 3.69269 4.15272 3.92944
# Velocity P-wave (km/s) = 7.01706 7.69763 7.36521
#
# Compressibility (1/GPa) = 0.01538407
#
# Stress axis : x y z
#
# Youngs Moduli (GPa) = 101.37415 99.89791 77.54138
#
# Poissons Ratio (x) = 0.16230 0.23576
# Poissons Ratio (y) = 0.16470 0.31237
# Poissons Ratio (z) = 0.30822 0.40243
#
# Static dielectric constant tensor:
#      x y z
#    x 1.837020 -0.000450 -0.016530 
#    y -0.000450 1.855010 -0.053830 
#    z -0.016530 -0.053830 1.754450 
# 
# From -- ./inp_files/177895.got.cif
#   From: 2010.05.17/outbox.cif.g08.bks.cpg/sg2_89_cif.got.tgz:177895.got - 2010.06.03 11:33:40.
