data_PCOD9011619
_publ_section_title
;
Structure prediction by ZEFSAII (Michael W. Deem and Ramdas Pophale) SiO2 
 PCOD9011619
Probable space group: P -1
;
_chemical_formula_sum "Si O2"
_cell_formula_units_Z 12
_cell_length_a 10.246352
_cell_length_b 11.382957
_cell_length_c 8.907876
_cell_angle_alpha 67.642242
_cell_angle_beta 136.569954
_cell_angle_gamma 79.030226
_cell_volume 448.769311
_symmetry_space_group_name_H-M "P -1"
_symmetry_group_IT_number 2
_symmetry_cell_setting 'triclinic'
loop_
_space_group_symop_operation_xyz
x,y,z
-x,-y,-z
loop_
_atom_site_type_symbol
_atom_site_label
_atom_site_fract_x
_atom_site_fract_y
_atom_site_fract_z
Si Si1 0.350155 0.062890 0.550897
Si Si2 0.005181 0.309192 0.699888
Si Si3 0.826783 0.618732 0.943697
Si Si4 0.948966 0.244202 0.381238
Si Si5 0.129804 0.896727 0.855916
Si Si6 0.605303 0.343541 0.542965
O O1 0.315215 0.179116 0.328977
O O2 0.179331 0.196294 0.490056
O O3 0.167422 0.023932 0.388339
O O4 0.663402 0.877004 0.947781
O O5 0.995432 0.438531 0.732786
O O6 0.863866 0.370522 0.389535
O O7 0.860934 0.273379 0.698925
O O8 0.613554 0.607151 0.780157
O O9 0.000000 0.500000 0.000000
O O10 0.750286 0.265021 0.087548
O O11 0.091706 0.050478 0.674333
O O12 0.306461 0.812519 0.194956
O O13 0.500000 0.500000 0.500000
#
# Coordination Sequence:
#
# PCOD9011619 Si02
#       6
#     2   2   2   2   2   2
#     4  10  21  40  66  97 131 161 217 264 313 382
#     4  12  23  40  67 100 125 168 221 260 321 375
#     4  12  25  43  66  92 132 173 215 265 321 380
#     4   9  21  39  66 100 131 163 207 273 318 376
#     4   9  20  40  67  94 133 166 209 260 330 363
#     4  12  25  43  65  89 133 172 214 268 318 376
#
# _framework density 26.739795000000001
#
# number of rings (size 3 to 8) (size 9 to 14) (size 15 to 20)
#    1.000    0.333    3.333    2.000    2.333    1.333 
#    0.000    1.667    3.667    0.000    0.000    0.000 
#    0.000    0.000    0.000    0.000    0.000    0.000 
#
# Total GULP energy -67122.043714 kJ/mol
# GULP energy per Si atom -5593.503643 kJ/mol
# Density = 2.667893 g / cm^3
# Si number density = 26.739795 Si / 1000 Ang^3
#
#
#
# Elastic Constant Matrix: (Units=GPa)
#
#
# Indices 1 2 3 4 5 6 
#
# 1 99.2033 26.5410 17.7666 14.0261 -16.2598 6.2230
# 2 26.5410 134.9691 25.3252 38.2738 0.6654 -17.4160
# 3 17.7666 25.3252 77.1696 37.7155 -0.0833 -12.3663
# 4 14.0261 38.2738 37.7155 58.4589 -3.5420 -9.5176
# 5 -16.2598 0.6654 -0.0833 -3.5420 45.7932 5.4892
# 6 6.2230 -17.4160 -12.3663 -9.5176 5.4892 51.5400
#
#
#
# Elastic Compliance Matrix: (Units=1/GPa)
#
#
# Indices 1 2 3 4 5 6 
#
# 1 0.012166 -0.002381 -0.002577 0.000038 0.004759 -0.003392
# 2 -0.002381 0.009810 0.000687 -0.005937 -0.001789 0.002861
# 3 -0.002577 0.000687 0.019822 -0.012221 -0.002227 0.003280
# 4 0.000038 -0.005937 -0.012221 0.029037 0.002303 0.000174
# 5 0.004759 -0.001789 -0.002227 0.002303 0.024190 -0.003865
# 6 -0.003392 0.002861 0.003280 0.000174 -0.003865 0.022009
#
#
# Mechanical properties :
#
#
# Convention : Reuss Voigt Hill
#
# Bulk Modulus (GPa) = 30.06837 50.06752 40.06794
# Shear Modulus (GPa) = 36.58664 47.27237 41.92951
#
# Velocity S-wave (km/s) = 3.70299 4.20916 3.96417
# Velocity P-wave (km/s) = 5.43619 6.51056 5.99748
#
# Compressibility (1/GPa) = 0.03325754
#
# Stress axis : x y z
#
# Youngs Moduli (GPa) = 82.19521 101.93576 50.44817
#
# Poissons Ratio (x) = 0.24270 0.12999
# Poissons Ratio (y) = 0.19570 -0.03466
# Poissons Ratio (z) = 0.21180 -0.07004
#
# Static dielectric constant tensor:
#      x y z
#    x 2.026410 0.005140 -0.009520 
#    y 0.005140 2.228330 -0.023160 
#    z -0.009520 -0.023160 2.198440 
# 
# From -- ./inp_files/163670.got.cif
#   From: 2010.05.17/outbox.cif.g08.bks.cpg/sg2_82_cif.got.tgz:163670.got - 2010.06.03 11:33:40.
