data_PCOD9011076
_publ_section_title
;
Structure prediction by ZEFSAII (Michael W. Deem and Ramdas Pophale) SiO2 
 PCOD9011076
Probable space group: P -1
;
_chemical_formula_sum "Si O2"
_cell_formula_units_Z 15
_cell_length_a 18.611477
_cell_length_b 5.046006
_cell_length_c 20.264267
_cell_angle_alpha 92.968133
_cell_angle_beta 19.909979
_cell_angle_gamma 93.097268
_cell_volume 647.135459
_symmetry_space_group_name_H-M "P -1"
_symmetry_group_IT_number 2
_symmetry_cell_setting 'triclinic'
loop_
_space_group_symop_operation_xyz
x,y,z
-x,-y,-z
loop_
_atom_site_type_symbol
_atom_site_label
_atom_site_fract_x
_atom_site_fract_y
_atom_site_fract_z
Si Si1 0.272025 0.309251 0.280837
Si Si2 0.921838 0.181488 0.486844
Si Si3 0.649202 0.265712 0.510847
Si Si4 0.320355 0.810890 0.004425
Si Si5 0.047855 0.307859 0.238128
Si Si6 0.560709 0.221143 0.246527
Si Si7 0.500000 0.000000 0.500000
Si Si8 0.857659 0.243846 0.104462
O O1 0.159943 0.243224 0.307565
O O2 0.514015 0.239941 0.081135
O O3 0.223596 0.610762 0.345986
O O4 0.145879 0.113693 0.437943
O O5 0.913056 0.237011 0.418373
O O6 0.583061 0.558582 0.592545
O O7 0.900605 0.249813 0.301850
O O8 0.534939 0.065453 0.657815
O O9 0.568552 0.173066 0.508494
O O10 0.422941 0.736392 0.844761
O O11 0.123428 0.610855 0.180272
O O12 0.243801 0.110705 0.068462
O O13 0.785774 0.242161 0.090202
O O14 0.353470 0.797982 0.671099
O O15 0.000000 0.500000 0.000000
O O16 0.000000 0.000000 0.000000
#
# Coordination Sequence:
#
# PCOD9011076 Si02
#       8
#     2   2   2   2   2   2   1   2
#     4  10  21  40  65  90 125 172 210 263 304 391
#     4  10  21  40  65  91 124 169 219 251 318 374
#     4  11  24  44  67  91 126 169 218 271 321 399
#     4  12  25  39  63  95 131 166 209 263 329 377
#     4  12  25  39  63  96 128 168 207 272 321 383
#     4  11  24  44  65  92 125 170 217 259 331 391
#     4  10  26  44  70  98 132 174 228 276 352 402
#     4  11  25  42  69  97 131 172 217 283 337 407
#
# _framework density 23.179075000000001
#
# number of rings (size 3 to 8) (size 9 to 14) (size 15 to 20)
#    0.000    1.067    0.000    6.400    3.733    5.867 
#    0.000    0.000    0.000    0.000    0.000    0.000 
#    0.000    0.000    0.000    0.000    0.000    0.000 
#
# Total GULP energy -83708.985882 kJ/mol
# GULP energy per Si atom -5580.599059 kJ/mol
# Density = 2.312632 g / cm^3
# Si number density = 23.179075 Si / 1000 Ang^3
#
#
#
# Elastic Constant Matrix: (Units=GPa)
#
#
# Indices 1 2 3 4 5 6 
#
# 1 56.5452 5.5873 10.7759 3.8476 -6.0745 6.8778
# 2 5.5873 70.4347 11.3900 0.8274 -10.8349 -11.3926
# 3 10.7759 11.3900 34.5914 -3.1023 -24.4707 6.9865
# 4 3.8476 0.8274 -3.1023 34.6960 -7.9046 -4.8130
# 5 -6.0745 -10.8349 -24.4707 -7.9046 43.6630 -4.1969
# 6 6.8778 -11.3926 6.9865 -4.8130 -4.1969 28.7911
#
#
#
# Elastic Compliance Matrix: (Units=1/GPa)
#
#
# Indices 1 2 3 4 5 6 
#
# 1 0.019725 -0.001574 -0.006979 -0.004054 -0.002745 -0.004719
# 2 -0.001574 0.016912 -0.005360 0.000971 0.001997 0.008822
# 3 -0.006979 -0.005360 0.057868 0.012181 0.031581 -0.007856
# 4 -0.004054 0.000971 0.012181 0.034201 0.013277 0.006049
# 5 -0.002745 0.001997 0.031581 0.013277 0.043342 0.002320
# 6 -0.004719 0.008822 -0.007856 0.006049 0.002320 0.042607
#
#
# Mechanical properties :
#
#
# Convention : Reuss Voigt Hill
#
# Bulk Modulus (GPa) = 14.99719 24.11972 19.55845
# Shear Modulus (GPa) = 18.88869 30.35125 24.61997
#
# Velocity S-wave (km/s) = 2.85775 3.62252 3.26262
# Velocity P-wave (km/s) = 4.16811 5.28444 4.75912
#
# Compressibility (1/GPa) = 0.06667916
#
# Stress axis : x y z
#
# Youngs Moduli (GPa) = 50.69585 59.12960 17.28073
#
# Poissons Ratio (x) = 0.09308 0.12060
# Poissons Ratio (y) = 0.07980 0.09262
# Poissons Ratio (z) = 0.35380 0.31694
#
# Static dielectric constant tensor:
#      x y z
#    x 1.840200 -0.012480 -0.036050 
#    y -0.012480 1.808490 0.024680 
#    z -0.036050 0.024680 1.898570 
# 
# From -- ./inp_files/599025.got.cif
#   From: 2010.05.17/outbox.cif.g08.bks.cpg/sg2_300_cif.got.tgz:599025.got - 2010.06.03 11:33:40.
