data_PCOD9011848
_publ_section_title
;
Structure prediction by ZEFSAII (Michael W. Deem and Ramdas Pophale) SiO2 
 PCOD9011848
Probable space group: P -1
;
_chemical_formula_sum "Si O2"
_cell_formula_units_Z 14
_cell_length_a 11.525749
_cell_length_b 9.191528
_cell_length_c 13.495808
_cell_angle_alpha 69.570726
_cell_angle_beta 124.484721
_cell_angle_gamma 65.305512
_cell_volume 667.438100
_symmetry_space_group_name_H-M "P -1"
_symmetry_group_IT_number 2
_symmetry_cell_setting 'triclinic'
loop_
_space_group_symop_operation_xyz
x,y,z
-x,-y,-z
loop_
_atom_site_type_symbol
_atom_site_label
_atom_site_fract_x
_atom_site_fract_y
_atom_site_fract_z
Si Si1 0.781879 0.794112 0.791352
Si Si2 0.817731 0.121851 0.796010
Si Si3 0.835770 0.079030 0.141837
Si Si4 0.065641 0.046048 0.427711
Si Si5 0.949728 0.401120 0.571766
Si Si6 0.549820 0.515432 0.307316
Si Si7 0.745452 0.796667 0.535889
O O1 0.769694 0.786515 0.668521
O O2 0.816737 0.942681 0.805135
O O3 0.532565 0.959161 0.675796
O O4 0.000000 0.500000 0.000000
O O5 0.578901 0.371351 0.676126
O O6 0.922462 0.125717 0.754804
O O7 0.000000 0.000000 0.000000
O O8 0.872025 0.178307 0.219500
O O9 0.839470 0.905751 0.234516
O O10 0.630934 0.295107 0.914778
O O11 0.313884 0.764156 0.576020
O O12 0.111322 0.183038 0.441226
O O13 0.000000 0.000000 0.500000
O O14 0.741841 0.481303 0.406699
O O15 0.859540 0.548413 0.597784
O O16 0.000000 0.500000 0.500000
#
# Coordination Sequence:
#
# PCOD9011848 Si02
#       7
#     2   2   2   2   2   2   2
#     4  11  25  41  63  98 132 164 203 263 328 380
#     4  10  21  40  67  96 122 160 215 255 314 384
#     4  10  23  42  67  94 122 165 214 259 314 376
#     4  11  24  43  64  92 129 167 215 261 306 377
#     4  11  24  43  64  92 129 167 215 261 306 377
#     4  10  23  42  67  94 122 165 214 259 314 376
#     4  11  24  40  64  96 130 165 204 262 332 363
#
# _framework density 20.975726999999999
#
# number of rings (size 3 to 8) (size 9 to 14) (size 15 to 20)
#    0.000    1.429    2.857    1.714    8.000    4.571 
#    0.000    2.857    0.000    0.000    0.000    0.000 
#    0.000    0.000    0.000    0.000    0.000    0.000 
#
# Total GULP energy -78191.540066 kJ/mol
# GULP energy per Si atom -5585.110005 kJ/mol
# Density = 2.092799 g / cm^3
# Si number density = 20.975727 Si / 1000 Ang^3
#
#
#
# Elastic Constant Matrix: (Units=GPa)
#
#
# Indices 1 2 3 4 5 6 
#
# 1 56.0625 -8.5149 -9.5228 17.1216 -5.4919 9.8570
# 2 -8.5149 105.9912 22.4943 12.3765 3.6338 14.4269
# 3 -9.5228 22.4943 97.5902 18.2894 -5.8651 10.1300
# 4 17.1216 12.3765 18.2894 32.8283 -0.9259 0.0505
# 5 -5.4919 3.6338 -5.8651 -0.9259 20.5756 1.8712
# 6 9.8570 14.4269 10.1300 0.0505 1.8712 36.8998
#
#
#
# Elastic Compliance Matrix: (Units=1/GPa)
#
#
# Indices 1 2 3 4 5 6 
#
# 1 0.029199 0.004506 0.007529 -0.020841 0.009304 -0.012072
# 2 0.004506 0.011417 -0.000465 -0.006407 -0.000735 -0.005494
# 3 0.007529 -0.000465 0.014243 -0.011503 0.006183 -0.006037
# 4 -0.020841 -0.006407 -0.011503 0.049954 -0.006507 0.011492
# 5 0.009304 -0.000735 0.006183 -0.006507 0.053283 -0.006589
# 6 -0.012072 -0.005494 -0.006037 0.011492 -0.006589 0.034449
#
#
# Mechanical properties :
#
#
# Convention : Reuss Voigt Hill
#
# Bulk Modulus (GPa) = 12.82095 29.83968 21.33032
# Shear Modulus (GPa) = 25.58796 35.07323 30.33060
#
# Velocity S-wave (km/s) = 3.49647 4.09355 3.80674
# Velocity P-wave (km/s) = 4.73561 6.04976 5.43257
#
# Compressibility (1/GPa) = 0.07799734
#
# Stress axis : x y z
#
# Youngs Moduli (GPa) = 34.24750 87.59249 70.21129
#
# Poissons Ratio (x) = -0.39466 -0.52860
# Poissons Ratio (y) = -0.15431 0.03265
# Poissons Ratio (z) = -0.25784 0.04073
#
# Static dielectric constant tensor:
#      x y z
#    x 1.801110 -0.056840 -0.057580 
#    y -0.056840 1.800520 0.093410 
#    z -0.057580 0.093410 1.911770 
# 
# From -- ./inp_files/257237.got.cif
#   From: 2010.05.17/outbox.cif.g08.bks.cpg/sg2_129_cif.got.tgz:257237.got - 2010.06.03 11:33:40.
