data_PCOD9011570
_publ_section_title
;
Structure prediction by ZEFSAII (Michael W. Deem and Ramdas Pophale) SiO2 
 PCOD9011570
Probable space group: P -1
;
_chemical_formula_sum "Si O2"
_cell_formula_units_Z 16
_cell_length_a 9.158257
_cell_length_b 13.841153
_cell_length_c 11.879800
_cell_angle_alpha 106.868517
_cell_angle_beta 142.668262
_cell_angle_gamma 57.217622
_cell_volume 738.108316
_symmetry_space_group_name_H-M "P -1"
_symmetry_group_IT_number 2
_symmetry_cell_setting 'triclinic'
loop_
_space_group_symop_operation_xyz
x,y,z
-x,-y,-z
loop_
_atom_site_type_symbol
_atom_site_label
_atom_site_fract_x
_atom_site_fract_y
_atom_site_fract_z
Si Si1 0.634068 0.524654 0.268415
Si Si2 0.796811 0.696512 0.508167
Si Si3 0.540879 0.204025 0.191899
Si Si4 0.416044 0.833261 0.532376
Si Si5 0.793129 0.911517 0.453225
Si Si6 0.791208 0.436270 0.588252
Si Si7 0.853904 0.840215 0.221606
Si Si8 0.186262 0.470824 0.991397
O O1 0.663030 0.638679 0.326279
O O2 0.718576 0.473418 0.429163
O O3 0.322598 0.547799 0.073702
O O4 0.878371 0.413470 0.309855
O O5 0.618076 0.745550 0.529714
O O6 0.784295 0.806621 0.474981
O O7 0.486561 0.216692 0.297438
O O8 0.437792 0.332962 0.118877
O O9 0.880122 0.122509 0.358867
O O10 0.365953 0.156921 0.002004
O O11 0.096629 0.859921 0.329195
O O12 0.393923 0.959502 0.561012
O O13 0.713313 0.917370 0.274211
O O14 0.500000 0.500000 0.500000
O O15 0.958035 0.295344 0.661825
O O16 0.991187 0.476721 0.774191
O O17 0.000000 0.500000 0.000000
#
# Coordination Sequence:
#
# PCOD9011570 Si02
#       8
#     2   2   2   2   2   2   2   2
#     4  11  22  43  62  90 132 171 203 261 317 380
#     4  11  24  42  64  89 133 175 212 252 317 384
#     4  10  22  41  65  99 128 155 216 270 318 373
#     4  11  24  40  67  94 124 170 216 262 311 376
#     4  11  22  44  66  89 128 171 214 263 315 368
#     4  11  20  35  64  95 127 156 201 260 317 379
#     4  10  21  40  66  96 123 161 209 271 320 363
#     4  11  22  35  67  98 125 160 204 263 325 371
#
# _framework density 21.677033999999999
#
# number of rings (size 3 to 8) (size 9 to 14) (size 15 to 20)
#    0.000    1.250    3.750    3.375    3.500    2.000 
#    0.000    6.250    0.000    3.000    0.000    0.000 
#    0.000    0.000    0.000    0.000    0.000    0.000 
#
# Total GULP energy -89522.912397 kJ/mol
# GULP energy per Si atom -5595.182025 kJ/mol
# Density = 2.162770 g / cm^3
# Si number density = 21.677034 Si / 1000 Ang^3
#
#
#
# Elastic Constant Matrix: (Units=GPa)
#
#
# Indices 1 2 3 4 5 6 
#
# 1 106.0662 43.6395 22.3643 12.7911 5.6472 0.4301
# 2 43.6395 114.0190 20.2851 15.2914 8.4546 2.8840
# 3 22.3643 20.2851 92.2040 29.2570 0.6261 5.3237
# 4 12.7911 15.2914 29.2570 34.4664 9.6052 2.8444
# 5 5.6472 8.4546 0.6261 9.6052 31.2535 4.3229
# 6 0.4301 2.8840 5.3237 2.8444 4.3229 43.2494
#
#
#
# Elastic Compliance Matrix: (Units=1/GPa)
#
#
# Indices 1 2 3 4 5 6 
#
# 1 0.011559 -0.003958 -0.001651 -0.000962 -0.000757 0.000491
# 2 -0.003958 0.010831 -0.000645 -0.002364 -0.001433 -0.000305
# 3 -0.001651 -0.000645 0.015766 -0.013632 0.004546 -0.001439
# 4 -0.000962 -0.002364 -0.013632 0.045587 -0.012943 0.000141
# 5 -0.000757 -0.001433 0.004546 -0.012943 0.036863 -0.003290
# 6 0.000491 -0.000305 -0.001439 0.000141 -0.003290 0.023634
#
#
# Mechanical properties :
#
#
# Convention : Reuss Voigt Hill
#
# Bulk Modulus (GPa) = 38.98996 53.87410 46.43203
# Shear Modulus (GPa) = 30.24885 36.86054 33.55469
#
# Velocity S-wave (km/s) = 3.73960 4.12812 3.93865
# Velocity P-wave (km/s) = 6.05574 6.90136 6.49233
#
# Compressibility (1/GPa) = 0.02564763
#
# Stress axis : x y z
#
# Youngs Moduli (GPa) = 86.51425 92.32710 63.42918
#
# Poissons Ratio (x) = 0.36539 0.10472
# Poissons Ratio (y) = 0.34238 0.04094
# Poissons Ratio (z) = 0.14283 0.05959
#
# Static dielectric constant tensor:
#      x y z
#    x 1.880360 -0.039000 -0.030180 
#    y -0.039000 1.874960 0.055160 
#    z -0.030180 0.055160 1.814840 
# 
# From -- ./inp_files/399343.got.cif
#   From: 2010.05.17/outbox.cif.g08.bks.cpg/sg2_200_cif.got.tgz:399343.got - 2010.06.03 11:33:40.
