data_PCOD9011055
_publ_section_title
;
Structure prediction by ZEFSAII (Michael W. Deem and Ramdas Pophale) SiO2 
 PCOD9011055
Probable space group: P -1
;
_chemical_formula_sum "Si O2"
_cell_formula_units_Z 14
_cell_length_a 9.283355
_cell_length_b 9.752168
_cell_length_c 15.912375
_cell_angle_alpha 43.804936
_cell_angle_beta 48.171314
_cell_angle_gamma 56.652729
_cell_volume 736.481535
_symmetry_space_group_name_H-M "P -1"
_symmetry_group_IT_number 2
_symmetry_cell_setting 'triclinic'
loop_
_space_group_symop_operation_xyz
x,y,z
-x,-y,-z
loop_
_atom_site_type_symbol
_atom_site_label
_atom_site_fract_x
_atom_site_fract_y
_atom_site_fract_z
Si Si1 0.664041 0.812365 0.014589
Si Si2 0.482023 0.779835 0.636754
Si Si3 0.552903 0.553142 0.326045
Si Si4 0.766818 0.262685 0.503858
Si Si5 0.312858 0.438934 0.053433
Si Si6 0.791889 0.807004 0.642993
Si Si7 0.919472 0.295921 0.091392
O O1 0.643949 0.680737 0.163610
O O2 0.634532 0.684179 0.998772
O O3 0.886730 0.861518 0.907463
O O4 0.500000 0.000000 0.000000
O O5 0.537322 0.619341 0.613289
O O6 0.626779 0.739959 0.676889
O O7 0.259984 0.760285 0.759254
O O8 0.500000 0.000000 0.500000
O O9 0.709210 0.436016 0.380730
O O10 0.389241 0.688739 0.382977
O O11 0.990170 0.250920 0.451027
O O12 0.751446 0.046107 0.565267
O O13 0.214483 0.298011 0.217585
O O14 0.500000 0.500000 0.000000
O O15 0.171146 0.637996 0.992971
O O16 0.000000 0.500000 0.000000
#
# Coordination Sequence:
#
# PCOD9011055 Si02
#       7
#     2   2   2   2   2   2   2
#     4  11  23  39  66  90 122 164 216 255 305 378
#     4  12  23  39  66  93 127 162 213 261 309 377
#     4  11  21  43  61  92 125 170 208 257 315 368
#     4  10  24  38  65  87 131 166 203 257 312 383
#     4  11  20  37  64  89 121 157 207 257 305 364
#     4  11  22  39  61  97 121 164 210 253 314 375
#     4  10  21  40  65  89 121 174 204 253 312 378
#
# _framework density 19.009301000000001
#
# number of rings (size 3 to 8) (size 9 to 14) (size 15 to 20)
#    0.000    1.143    5.714    1.714    2.000    1.714 
#    0.000    2.143    0.000    0.000    0.000    0.000 
#    0.000    0.000    0.000    0.000    0.000    0.000 
#
# Total GULP energy -78143.893353 kJ/mol
# GULP energy per Si atom -5581.706668 kJ/mol
# Density = 1.896603 g / cm^3
# Si number density = 19.009301 Si / 1000 Ang^3
#
#
#
# Elastic Constant Matrix: (Units=GPa)
#
#
# Indices 1 2 3 4 5 6 
#
# 1 124.4562 49.4273 25.1879 20.9782 -15.5293 -12.3942
# 2 49.4273 90.0804 11.2251 17.5578 -9.6615 -24.6379
# 3 25.1879 11.2251 74.3461 7.3155 -2.2920 -8.4426
# 4 20.9782 17.5578 7.3155 24.7205 1.6147 -0.2234
# 5 -15.5293 -9.6615 -2.2920 1.6147 34.5394 3.8627
# 6 -12.3942 -24.6379 -8.4426 -0.2234 3.8627 27.9477
#
#
#
# Elastic Compliance Matrix: (Units=1/GPa)
#
#
# Indices 1 2 3 4 5 6 
#
# 1 0.011982 -0.004586 -0.002623 -0.006414 0.004248 -0.000160
# 2 -0.004586 0.020101 0.001441 -0.010827 0.002407 0.015703
# 3 -0.002623 0.001441 0.014954 -0.003171 -0.000152 0.004620
# 4 -0.006414 -0.010827 -0.003171 0.054897 -0.007359 -0.011892
# 5 0.004248 0.002407 -0.000152 -0.007359 0.031927 -0.000512
# 6 -0.000160 0.015703 0.004620 -0.011892 -0.000512 0.050926
#
#
# Mechanical properties :
#
#
# Convention : Reuss Voigt Hill
#
# Bulk Modulus (GPa) = 28.16697 51.17369 39.67033
# Shear Modulus (GPa) = 24.02043 30.97768 27.49906
#
# Velocity S-wave (km/s) = 3.55859 4.04122 3.80756
# Velocity P-wave (km/s) = 5.63333 6.98241 6.34383
#
# Compressibility (1/GPa) = 0.03550258
#
# Stress axis : x y z
#
# Youngs Moduli (GPa) = 83.45590 49.74801 66.87300
#
# Poissons Ratio (x) = 0.22813 0.17542
# Poissons Ratio (y) = 0.38270 -0.09639
# Poissons Ratio (z) = 0.21892 -0.07171
#
# Static dielectric constant tensor:
#      x y z
#    x 1.675020 -0.026200 0.012640 
#    y -0.026200 1.666550 -0.007100 
#    z 0.012640 -0.007100 1.683680 
# 
# From -- ./inp_files/175519.got.cif
#   From: 2010.05.17/outbox.cif.g08.bks.cpg/sg2_88_cif.got.tgz:175519.got - 2010.06.03 11:33:40.
