data_PCOD9011759
_publ_section_title
;
Structure prediction by ZEFSAII (Michael W. Deem and Ramdas Pophale) SiO2 
 PCOD9011759
Probable space group: P -1
;
_chemical_formula_sum "Si O2"
_cell_formula_units_Z 16
_cell_length_a 9.238330
_cell_length_b 8.711315
_cell_length_c 15.821037
_cell_angle_alpha 74.037260
_cell_angle_beta 132.630704
_cell_angle_gamma 72.857249
_cell_volume 660.363457
_symmetry_space_group_name_H-M "P -1"
_symmetry_group_IT_number 2
_symmetry_cell_setting 'triclinic'
loop_
_space_group_symop_operation_xyz
x,y,z
-x,-y,-z
loop_
_atom_site_type_symbol
_atom_site_label
_atom_site_fract_x
_atom_site_fract_y
_atom_site_fract_z
Si Si1 0.383641 0.214159 0.719100
Si Si2 0.566549 0.616439 0.768836
Si Si3 0.920433 0.337727 0.401815
Si Si4 0.186452 0.803460 0.170595
Si Si5 0.013759 0.981262 0.256100
Si Si6 0.743865 0.454491 0.054232
Si Si7 0.353209 0.964216 0.510525
Si Si8 0.540456 0.873709 0.952389
O O1 0.273680 0.400385 0.717776
O O2 0.544290 0.235926 0.714087
O O3 0.134186 0.265238 0.569251
O O4 0.570233 0.980113 0.871490
O O5 0.268319 0.705755 0.643575
O O6 0.737482 0.406619 0.808226
O O7 0.534770 0.805499 0.684582
O O8 0.676422 0.541608 0.918334
O O9 0.090973 0.195803 0.409512
O O10 0.069408 0.859497 0.209506
O O11 0.000000 0.000000 0.000000
O O12 0.962329 0.195010 0.177821
O O13 0.747231 0.057262 0.181877
O O14 0.255613 0.861557 0.435782
O O15 0.500000 0.500000 0.000000
O O16 0.766373 0.613150 0.084561
O O17 0.500000 0.000000 0.500000
O O18 0.500000 0.000000 0.000000
#
# Coordination Sequence:
#
# PCOD9011759 Si02
#       8
#     2   2   2   2   2   2   2   2
#     4  10  22  38  62  96 128 172 223 280 327 410
#     4  11  23  43  73  95 133 187 226 280 346 407
#     4  10  21  40  67  91 130 174 225 276 342 398
#     4  11  22  42  66  96 137 179 227 276 349 403
#     4  11  24  43  66  94 139 179 220 287 338 403
#     4  10  22  41  67  99 131 174 229 278 336 402
#     4  12  26  43  66 101 140 179 231 284 341 411
#     4  11  23  37  65  97 131 167 225 273 334 397
#
# _framework density 24.229078999999999
#
# number of rings (size 3 to 8) (size 9 to 14) (size 15 to 20)
#    0.000    1.250    1.250    4.875    7.000    1.500 
#    2.250    1.250    0.000    0.000    0.000    0.000 
#    0.000    0.000    0.000    0.000    0.000    0.000 
#
# Total GULP energy -89552.424402 kJ/mol
# GULP energy per Si atom -5597.026525 kJ/mol
# Density = 2.417393 g / cm^3
# Si number density = 24.229079 Si / 1000 Ang^3
#
#
#
# Elastic Constant Matrix: (Units=GPa)
#
#
# Indices 1 2 3 4 5 6 
#
# 1 107.8502 31.7335 10.4117 -8.3078 -13.2984 -7.6935
# 2 31.7335 115.6890 -0.4828 -9.6381 -12.3286 -15.8805
# 3 10.4117 -0.4828 51.6265 0.3219 -15.3965 4.1943
# 4 -8.3078 -9.6381 0.3219 39.1718 1.4514 -2.2913
# 5 -13.2984 -12.3286 -15.3965 1.4514 37.2136 0.4210
# 6 -7.6935 -15.8805 4.1943 -2.2913 0.4210 42.7280
#
#
#
# Elastic Compliance Matrix: (Units=1/GPa)
#
#
# Indices 1 2 3 4 5 6 
#
# 1 0.010621 -0.002366 -0.001600 0.001673 0.002270 0.001257
# 2 -0.002366 0.010242 0.001154 0.002097 0.002905 0.003351
# 3 -0.001600 0.001154 0.022640 -0.000713 0.009230 -0.002211
# 4 0.001673 0.002097 -0.000713 0.026558 -0.000067 0.002575
# 5 0.002270 0.002905 0.009230 -0.000067 0.032464 0.000259
# 6 0.001257 0.003351 -0.002211 0.002575 0.000259 0.025228
#
#
# Mechanical properties :
#
#
# Convention : Reuss Voigt Hill
#
# Bulk Modulus (GPa) = 26.39918 39.83228 33.11573
# Shear Modulus (GPa) = 34.24550 39.38957 36.81753
#
# Velocity S-wave (km/s) = 3.76361 4.03639 3.90238
# Velocity P-wave (km/s) = 5.45945 6.18052 5.83114
#
# Compressibility (1/GPa) = 0.03787996
#
# Stress axis : x y z
#
# Youngs Moduli (GPa) = 94.15064 97.63674 44.16938
#
# Poissons Ratio (x) = 0.23103 0.07066
# Poissons Ratio (y) = 0.22278 -0.05098
# Poissons Ratio (z) = 0.15061 -0.11268
#
# Static dielectric constant tensor:
#      x y z
#    x 1.901690 0.001210 0.017700 
#    y 0.001210 1.930410 0.008350 
#    z 0.017700 0.008350 1.990040 
# 
# From -- ./inp_files/180214.got.cif
#   From: 2010.05.17/outbox.cif.g08.bks.cpg/sg2_91_cif.got.tgz:180214.got - 2010.06.03 11:33:40.
