data_PCOD9011547
_publ_section_title
;
Structure prediction by ZEFSAII (Michael W. Deem and Ramdas Pophale) SiO2 
 PCOD9011547
Probable space group: P -1
;
_chemical_formula_sum "Si O2"
_cell_formula_units_Z 12
_cell_length_a 14.447591
_cell_length_b 8.364494
_cell_length_c 9.766433
_cell_angle_alpha 77.315613
_cell_angle_beta 148.892006
_cell_angle_gamma 88.200202
_cell_volume 535.573520
_symmetry_space_group_name_H-M "P -1"
_symmetry_group_IT_number 2
_symmetry_cell_setting 'triclinic'
loop_
_space_group_symop_operation_xyz
x,y,z
-x,-y,-z
loop_
_atom_site_type_symbol
_atom_site_label
_atom_site_fract_x
_atom_site_fract_y
_atom_site_fract_z
Si Si1 0.808064 0.055901 0.118408
Si Si2 0.237681 0.018520 0.646079
Si Si3 0.924034 0.881094 0.022694
Si Si4 0.810663 0.685362 0.687621
Si Si5 0.373890 0.674598 0.713293
Si Si6 0.474220 0.551959 0.300436
O O1 0.045378 0.979468 0.429413
O O2 0.710962 0.983678 0.128227
O O3 0.781398 0.999599 0.941701
O O4 0.732464 0.270836 0.007683
O O5 0.180043 0.202592 0.455098
O O6 0.376899 0.848433 0.761023
O O7 0.138298 0.724924 0.378696
O O8 0.803450 0.808042 0.785864
O O9 0.000000 0.000000 0.000000
O O10 0.631118 0.632682 0.451191
O O11 0.000000 0.500000 0.000000
O O12 0.480021 0.615106 0.711457
O O13 0.500000 0.500000 0.000000
O O14 0.500000 0.500000 0.500000
#
# Coordination Sequence:
#
# PCOD9011547 Si02
#       6
#     2   2   2   2   2   2
#     4  10  21  40  66  95 128 165 221 267 328 378
#     4  10  22  42  68  91 131 175 215 267 333 393
#     4  11  21  43  69  94 131 178 215 264 333 391
#     4  12  24  42  67  95 131 177 222 266 331 394
#     4  11  21  42  67  97 131 172 214 266 336 387
#     4  12  25  40  65  99 132 168 226 275 319 387
#
# _framework density 22.405888999999998
#
# number of rings (size 3 to 8) (size 9 to 14) (size 15 to 20)
#    0.000    1.000    6.667    2.000    0.000    1.333 
#    0.000    0.833    0.000    0.000    0.000    0.000 
#    0.000    0.000    0.000    0.000    0.000    0.000 
#
# Total GULP energy -66917.069101 kJ/mol
# GULP energy per Si atom -5576.422425 kJ/mol
# Density = 2.235489 g / cm^3
# Si number density = 22.405889 Si / 1000 Ang^3
#
#
#
# Elastic Constant Matrix: (Units=GPa)
#
#
# Indices 1 2 3 4 5 6 
#
# 1 168.9214 76.6943 29.3066 -19.5659 -41.2837 -34.1319
# 2 76.6943 83.5570 9.2758 -16.6079 -5.3495 -15.4488
# 3 29.3066 9.2758 81.2324 -29.4970 -9.3120 6.3884
# 4 -19.5659 -16.6079 -29.4970 40.7747 7.6249 -1.0379
# 5 -41.2837 -5.3495 -9.3120 7.6249 34.8094 -11.7604
# 6 -34.1319 -15.4488 6.3884 -1.0379 -11.7604 43.0607
#
#
#
# Elastic Compliance Matrix: (Units=1/GPa)
#
#
# Indices 1 2 3 4 5 6 
#
# 1 0.041992 -0.027893 -0.012044 -0.009769 0.058192 0.040722
# 2 -0.027893 0.032913 0.008281 0.012124 -0.035540 -0.020944
# 3 -0.012044 0.008281 0.020414 0.014890 -0.015352 -0.013438
# 4 -0.009769 0.012124 0.014890 0.038555 -0.017366 -0.009416
# 5 0.058192 -0.035540 -0.015352 -0.017366 0.114442 0.066489
# 6 0.040722 -0.020944 -0.013438 -0.009416 0.066489 0.067913
#
#
# Mechanical properties :
#
#
# Convention : Reuss Voigt Hill
#
# Bulk Modulus (GPa) = 31.24438 62.69601 46.97019
# Shear Modulus (GPa) = 12.81361 38.29124 25.55242
#
# Velocity S-wave (km/s) = 2.39401 4.13847 3.38069
# Velocity P-wave (km/s) = 4.64937 7.13292 6.02060
#
# Compressibility (1/GPa) = 0.03200576
#
# Stress axis : x y z
#
# Youngs Moduli (GPa) = 23.81400 30.38289 48.98697
#
# Poissons Ratio (x) = 0.84748 0.58999
# Poissons Ratio (y) = 0.66425 -0.40564
# Poissons Ratio (z) = 0.28681 -0.25159
#
# Static dielectric constant tensor:
#      x y z
#    x 1.918880 -0.080150 -0.081610 
#    y -0.080150 1.862980 0.020530 
#    z -0.081610 0.020530 2.033660 
# 
# From -- ./inp_files/146200.got.cif
#   From: 2010.05.17/outbox.cif.g08.bks.cpg/sg2_74_cif.got.tgz:146200.got - 2010.06.03 11:33:40.
