data_PCOD9011801
_publ_section_title
;
Structure prediction by ZEFSAII (Michael W. Deem and Ramdas Pophale) SiO2 
 PCOD9011801
Probable space group: P -1
;
_chemical_formula_sum "Si O2"
_cell_formula_units_Z 14
_cell_length_a 9.001235
_cell_length_b 8.483847
_cell_length_c 20.917062
_cell_angle_alpha 27.795755
_cell_angle_beta 63.974188
_cell_angle_gamma 75.343974
_cell_volume 633.578065
_symmetry_space_group_name_H-M "P -1"
_symmetry_group_IT_number 2
_symmetry_cell_setting 'triclinic'
loop_
_space_group_symop_operation_xyz
x,y,z
-x,-y,-z
loop_
_atom_site_type_symbol
_atom_site_label
_atom_site_fract_x
_atom_site_fract_y
_atom_site_fract_z
Si Si1 0.974904 0.326298 0.498728
Si Si2 0.835958 0.626167 0.671564
Si Si3 0.549045 0.655181 0.135921
Si Si4 0.692661 0.633922 0.388838
Si Si5 0.636918 0.398896 0.339650
Si Si6 0.013842 0.445023 0.212069
Si Si7 0.872927 0.436586 0.107555
O O1 0.815266 0.401944 0.466715
O O2 0.000000 0.500000 0.500000
O O3 0.145589 0.498113 0.359625
O O4 0.933226 0.910432 0.671918
O O5 0.645361 0.644455 0.717251
O O6 0.878949 0.377938 0.808079
O O7 0.000000 0.000000 0.500000
O O8 0.607505 0.658119 0.197336
O O9 0.703486 0.574141 0.095516
O O10 0.500000 0.000000 0.000000
O O11 0.500000 0.500000 0.500000
O O12 0.662868 0.596309 0.331710
O O13 0.784565 0.009692 0.272158
O O14 0.817019 0.336985 0.311366
O O15 0.500000 0.000000 0.500000
O O16 0.996775 0.577842 0.096175
O O17 0.000000 0.500000 0.000000
#
# Coordination Sequence:
#
# PCOD9011801 Si02
#       7
#     2   2   2   2   2   2   2
#     4  11  22  37  66 106 137 170 232 283 355 403
#     4  10  22  40  70 100 130 178 231 287 338 414
#     4  11  27  46  71 101 141 188 238 284 353 430
#     4  12  26  41  69 105 140 177 233 297 353 410
#     4  11  23  44  69 103 138 182 234 291 353 418
#     4  10  21  40  67  93 131 178 226 287 339 420
#     4  11  27  49  66  98 145 188 231 290 358 415
#
# _framework density 22.096724999999999
#
# number of rings (size 3 to 8) (size 9 to 14) (size 15 to 20)
#    0.000    1.143    2.857    3.429   10.000    1.143 
#    0.000    4.286    0.000    0.000    0.000    0.000 
#    0.000    0.000    0.000    0.000    0.000    0.000 
#
# Total GULP energy -77990.373410 kJ/mol
# GULP energy per Si atom -5570.740958 kJ/mol
# Density = 2.204643 g / cm^3
# Si number density = 22.096725 Si / 1000 Ang^3
#
#
#
# Elastic Constant Matrix: (Units=GPa)
#
#
# Indices 1 2 3 4 5 6 
#
# 1 141.5372 43.1111 40.5971 20.3510 16.7166 -18.5226
# 2 43.1111 116.4956 37.1051 27.1871 11.3346 -7.8388
# 3 40.5971 37.1051 62.5851 11.5221 9.5659 -13.6597
# 4 20.3510 27.1871 11.5221 51.2241 -4.0363 5.6125
# 5 16.7166 11.3346 9.5659 -4.0363 41.5101 4.8729
# 6 -18.5226 -7.8388 -13.6597 5.6125 4.8729 54.2033
#
#
#
# Elastic Compliance Matrix: (Units=1/GPa)
#
#
# Indices 1 2 3 4 5 6 
#
# 1 0.009727 -0.001141 -0.003991 -0.002922 -0.003293 0.002752
# 2 -0.001141 0.012047 -0.004928 -0.005105 -0.002290 0.000845
# 3 -0.003991 -0.004928 0.023194 -0.001719 -0.003055 0.004221
# 4 -0.002922 -0.005105 -0.001719 0.024831 0.006001 -0.005281
# 5 -0.003293 -0.002290 -0.003055 0.006001 0.027959 -0.005361
# 6 0.002752 0.000845 0.004221 -0.005281 -0.005361 0.021604
#
#
# Mechanical properties :
#
#
# Convention : Reuss Voigt Hill
#
# Bulk Modulus (GPa) = 40.24602 62.47161 51.35881
# Shear Modulus (GPa) = 33.83794 42.70780 38.27287
#
# Velocity S-wave (km/s) = 3.91750 4.40109 4.16632
# Velocity P-wave (km/s) = 6.22218 7.35931 6.81450
#
# Compressibility (1/GPa) = 0.02484718
#
# Stress axis : x y z
#
# Youngs Moduli (GPa) = 102.80925 83.00907 43.11544
#
# Poissons Ratio (x) = 0.09470 0.17208
# Poissons Ratio (y) = 0.11728 0.21247
# Poissons Ratio (z) = 0.41034 0.40906
#
# Static dielectric constant tensor:
#      x y z
#    x 1.781300 -0.020660 0.026850 
#    y -0.020660 1.828370 -0.012580 
#    z 0.026850 -0.012580 1.891660 
# 
# From -- ./inp_files/587085.got.cif
#   From: 2010.05.17/outbox.cif.g08.bks.cpg/sg2_294_cif.got.tgz:587085.got - 2010.06.03 11:33:40.
