data_PCOD9011757
_publ_section_title
;
Structure prediction by ZEFSAII (Michael W. Deem and Ramdas Pophale) SiO2 
 PCOD9011757
Probable space group: P -1
;
_chemical_formula_sum "Si O2"
_cell_formula_units_Z 16
_cell_length_a 12.058053
_cell_length_b 13.250490
_cell_length_c 10.120538
_cell_angle_alpha 43.989133
_cell_angle_beta 58.647442
_cell_angle_gamma 85.410943
_cell_volume 832.635712
_symmetry_space_group_name_H-M "P -1"
_symmetry_group_IT_number 2
_symmetry_cell_setting 'triclinic'
loop_
_space_group_symop_operation_xyz
x,y,z
-x,-y,-z
loop_
_atom_site_type_symbol
_atom_site_label
_atom_site_fract_x
_atom_site_fract_y
_atom_site_fract_z
Si Si1 0.926643 0.113713 0.723170
Si Si2 0.931996 0.318543 0.779532
Si Si3 0.562237 0.613862 0.480747
Si Si4 0.103791 0.232451 0.956736
Si Si5 0.426014 0.050826 0.882843
Si Si6 0.421899 0.868673 0.791007
Si Si7 0.439827 0.373196 0.032275
Si Si8 0.895719 0.803961 0.706259
O O1 0.954503 0.207743 0.756318
O O2 0.008431 0.225189 0.438613
O O3 0.972669 0.968746 0.828925
O O4 0.748265 0.025422 0.899501
O O5 0.000000 0.500000 0.500000
O O6 0.015076 0.310018 0.866722
O O7 0.758497 0.242621 0.997802
O O8 0.500000 0.500000 0.500000
O O9 0.740114 0.700115 0.278668
O O10 0.514816 0.755053 0.365552
O O11 0.507035 0.498431 0.750221
O O12 0.130069 0.276192 0.055561
O O13 0.446438 0.971889 0.811995
O O14 0.500000 0.000000 0.000000
O O15 0.493835 0.750280 0.872930
O O16 0.500000 0.000000 0.500000
O O17 0.263526 0.258522 0.209747
O O18 0.500000 0.500000 0.000000
O O19 0.000000 0.000000 0.500000
#
# Coordination Sequence:
#
# PCOD9011757 Si02
#       8
#     2   2   2   2   2   2   2   2
#     4   9  22  40  63  93 124 174 222 258 319 410
#     4  11  24  42  64  96 132 172 217 278 341 385
#     4  11  21  40  64  98 131 167 229 273 333 393
#     4  10  21  40  67  91 128 173 221 267 324 407
#     4  10  22  40  66  92 130 176 215 270 336 401
#     4  11  26  43  64  95 135 175 225 273 343 408
#     4  12  26  43  71  98 134 173 225 288 331 397
#     4  10  23  41  67  98 127 169 228 264 329 393
#
# _framework density 19.216086000000001
#
# number of rings (size 3 to 8) (size 9 to 14) (size 15 to 20)
#    0.000    1.500    1.250    2.625   10.500    1.000 
#    0.000    0.625    0.000    0.000    0.000    0.000 
#    0.000    0.000    0.000    0.000    0.000    0.000 
#
# Total GULP energy -89211.135145 kJ/mol
# GULP energy per Si atom -5575.695947 kJ/mol
# Density = 1.917235 g / cm^3
# Si number density = 19.216086 Si / 1000 Ang^3
#
#
#
# Elastic Constant Matrix: (Units=GPa)
#
#
# Indices 1 2 3 4 5 6 
#
# 1 145.7373 81.2461 74.2127 -0.3673 25.8058 6.5994
# 2 81.2461 98.0751 58.5299 0.1875 4.9178 -7.8031
# 3 74.2127 58.5299 149.1217 12.5989 14.3699 -3.5891
# 4 -0.3673 0.1875 12.5989 36.1740 -1.2451 3.4166
# 5 25.8058 4.9178 14.3699 -1.2451 31.5630 -6.6467
# 6 6.5994 -7.8031 -3.5891 3.4166 -6.6467 27.7728
#
#
#
# Elastic Compliance Matrix: (Units=1/GPa)
#
#
# Indices 1 2 3 4 5 6 
#
# 1 0.020374 -0.015308 -0.003131 0.002119 -0.015615 -0.013544
# 2 -0.015308 0.025201 -0.003191 0.000004 0.012860 0.013383
# 3 -0.003131 -0.003191 0.009988 -0.003660 -0.001369 0.001261
# 4 0.002119 0.000004 -0.003660 0.029375 0.000133 -0.004557
# 5 -0.015615 0.012860 -0.001369 0.000133 0.046942 0.018365
# 6 -0.013544 0.013383 0.001261 -0.004557 0.018365 0.048104
#
#
# Mechanical properties :
#
#
# Convention : Reuss Voigt Hill
#
# Bulk Modulus (GPa) = 81.27660 91.21241 86.24451
# Shear Modulus (GPa) = 21.99303 31.03166 26.51235
#
# Velocity S-wave (km/s) = 3.38673 4.02292 3.71845
# Velocity P-wave (km/s) = 7.59482 8.31554 7.96334
#
# Compressibility (1/GPa) = 0.01230366
#
# Stress axis : x y z
#
# Youngs Moduli (GPa) = 49.08316 39.68039 100.11841
#
# Poissons Ratio (x) = 0.60741 0.31350
# Poissons Ratio (y) = 0.75134 0.31947
# Poissons Ratio (z) = 0.15369 0.12662
#
# Static dielectric constant tensor:
#      x y z
#    x 1.675860 0.008360 -0.040740 
#    y 0.008360 1.669810 -0.007760 
#    z -0.040740 -0.007760 1.701610 
# 
# From -- ./inp_files/261542.got.cif
#   From: 2010.05.17/outbox.cif.g08.bks.cpg/sg2_131_cif.got.tgz:261542.got - 2010.06.03 11:33:40.
