data_PCOD9011954
_publ_section_title
;
Structure prediction by ZEFSAII (Michael W. Deem and Ramdas Pophale) SiO2 
 PCOD9011954
Probable space group: P -1
;
_chemical_formula_sum "Si O2"
_cell_formula_units_Z 12
_cell_length_a 15.322342
_cell_length_b 5.211467
_cell_length_c 6.780008
_cell_angle_alpha 76.053530
_cell_angle_beta 120.236412
_cell_angle_gamma 87.447656
_cell_volume 444.979472
_symmetry_space_group_name_H-M "P -1"
_symmetry_group_IT_number 2
_symmetry_cell_setting 'triclinic'
loop_
_space_group_symop_operation_xyz
x,y,z
-x,-y,-z
loop_
_atom_site_type_symbol
_atom_site_label
_atom_site_fract_x
_atom_site_fract_y
_atom_site_fract_z
Si Si1 0.733076 0.987165 0.243946
Si Si2 0.080093 0.386176 0.380557
Si Si3 0.877314 0.748573 0.997661
Si Si4 0.331369 0.480252 0.186453
Si Si5 0.446257 0.250240 0.027860
Si Si6 0.761222 0.254920 0.619111
O O1 0.855253 0.867997 0.379079
O O2 0.671320 0.751658 0.170255
O O3 0.719937 0.075332 0.441271
O O4 0.685501 0.246199 0.012770
O O5 0.158758 0.590869 0.421708
O O6 0.967418 0.561213 0.257341
O O7 0.080515 0.277529 0.175656
O O8 0.773883 0.632416 0.921664
O O9 0.833630 0.067942 0.897801
O O10 0.332162 0.567625 0.398665
O O11 0.425947 0.269381 0.238491
O O12 0.500000 0.500000 0.000000
O O13 0.500000 0.000000 0.000000
#
# Coordination Sequence:
#
# PCOD9011954 Si02
#       6
#     2   2   2   2   2   2
#     4  11  23  43  70 101 138 184 230 289 345 414
#     4   9  19  36  63 100 144 187 226 276 337 407
#     4   9  19  36  63 100 144 187 226 276 337 407
#     4  11  23  43  70 101 138 184 230 289 345 414
#     4  12  26  48  75  98 137 182 230 296 366 412
#     4  10  21  40  68 100 144 184 234 278 339 408
#
# _framework density 26.967534000000001
#
# number of rings (size 3 to 8) (size 9 to 14) (size 15 to 20)
#    0.000    1.667    1.667    2.500    0.000    2.000 
#    0.000    7.500    0.000    0.000    0.000    0.000 
#    0.000    0.000    0.000    0.000    0.000    0.000 
#
# Total GULP energy -67053.468542 kJ/mol
# GULP energy per Si atom -5587.789045 kJ/mol
# Density = 2.690615 g / cm^3
# Si number density = 26.967534 Si / 1000 Ang^3
#
#
#
# Elastic Constant Matrix: (Units=GPa)
#
#
# Indices 1 2 3 4 5 6 
#
# 1 90.5181 41.0638 -9.0532 9.0395 -10.3052 -48.2453
# 2 41.0638 131.0869 0.7608 9.0282 -9.6640 -25.6825
# 3 -9.0532 0.7608 63.2333 -11.7458 -9.5191 10.6025
# 4 9.0395 9.0282 -11.7458 43.2929 -2.6352 -14.1306
# 5 -10.3052 -9.6640 -9.5191 -2.6352 27.7919 -2.3663
# 6 -48.2453 -25.6825 10.6025 -14.1306 -2.3663 61.0067
#
#
#
# Elastic Compliance Matrix: (Units=1/GPa)
#
#
# Indices 1 2 3 4 5 6 
#
# 1 0.022830 -0.003238 0.002421 0.002817 0.009909 0.017308
# 2 -0.003238 0.009080 -0.000684 -0.000892 0.001743 0.001242
# 3 0.002421 -0.000684 0.018223 0.004998 0.007367 -0.000097
# 4 0.002817 -0.000892 0.004998 0.026814 0.005620 0.007413
# 5 0.009909 0.001743 0.007367 0.005620 0.044196 0.010306
# 6 0.017308 0.001242 -0.000097 0.007413 0.010306 0.032735
#
#
# Mechanical properties :
#
#
# Convention : Reuss Voigt Hill
#
# Bulk Modulus (GPa) = 21.21813 38.93122 30.07468
# Shear Modulus (GPa) = 28.97005 43.22277 36.09641
#
# Velocity S-wave (km/s) = 3.28114 4.00781 3.66254
# Velocity P-wave (km/s) = 4.71589 5.99035 5.39092
#
# Compressibility (1/GPa) = 0.04712951
#
# Stress axis : x y z
#
# Youngs Moduli (GPa) = 43.80148 110.13059 54.87574
#
# Poissons Ratio (x) = 0.35665 -0.13284
# Poissons Ratio (y) = 0.14185 0.03755
# Poissons Ratio (z) = -0.10603 0.07536
#
# Static dielectric constant tensor:
#      x y z
#    x 2.109500 -0.087530 -0.049330 
#    y -0.087530 2.187910 -0.037670 
#    z -0.049330 -0.037670 2.215370 
# 
# From -- ./inp_files/321256.got.cif
#   From: 2010.05.17/outbox.cif.g08.bks.cpg/sg2_161_cif.got.tgz:321256.got - 2010.06.03 11:33:40.
