data_PCOD9011582
_publ_section_title
;
Structure prediction by ZEFSAII (Michael W. Deem and Ramdas Pophale) SiO2 
 PCOD9011582
Probable space group: P -1
;
_chemical_formula_sum "Si O2"
_cell_formula_units_Z 16
_cell_length_a 4.888713
_cell_length_b 21.519107
_cell_length_c 5.623342
_cell_angle_alpha 81.388191
_cell_angle_beta 85.057533
_cell_angle_gamma 84.211284
_cell_volume 580.407250
_symmetry_space_group_name_H-M "P -1"
_symmetry_group_IT_number 2
_symmetry_cell_setting 'triclinic'
loop_
_space_group_symop_operation_xyz
x,y,z
-x,-y,-z
loop_
_atom_site_type_symbol
_atom_site_label
_atom_site_fract_x
_atom_site_fract_y
_atom_site_fract_z
Si Si1 0.984700 0.897488 0.981895
Si Si2 0.622471 0.304350 0.530643
Si Si3 0.761075 0.012721 0.703734
Si Si4 0.539610 0.129201 0.420751
Si Si5 0.510642 0.327349 0.022519
Si Si6 0.984630 0.415967 0.946238
Si Si7 0.747117 0.448795 0.446359
Si Si8 0.988210 0.804588 0.418566
O O1 0.241811 0.878109 0.803480
O O2 0.109266 0.943659 0.136408
O O3 0.895646 0.836568 0.158435
O O4 0.737562 0.943956 0.857693
O O5 0.494039 0.290941 0.291917
O O6 0.632069 0.379711 0.488055
O O7 0.929453 0.269348 0.537412
O O8 0.483462 0.289966 0.800577
O O9 0.521411 0.059583 0.578206
O O10 0.000000 0.000000 0.500000
O O11 0.714083 0.169935 0.564602
O O12 0.239187 0.165151 0.398907
O O13 0.810264 0.354241 0.985428
O O14 0.293292 0.388739 0.995908
O O15 0.947545 0.444192 0.666289
O O16 0.863535 0.454343 0.165420
O O17 0.500000 0.500000 0.500000
#
# Coordination Sequence:
#
# PCOD9011582 Si02
#       8
#     2   2   2   2   2   2   2   2
#     4   9  19  39  64  94 129 174 214 276 337 400
#     4  10  24  44  65  98 132 180 224 287 341 413
#     4   8  16  37  64  94 130 167 218 270 333 400
#     4  10  23  41  63  95 128 171 222 276 334 408
#     4  10  22  42  66  92 130 169 222 268 336 399
#     4  10  21  40  66  96 128 169 215 273 333 403
#     4  10  21  42  68 101 137 177 226 282 344 409
#     4  11  25  41  63  93 130 171 227 275 340 407
#
# _framework density 27.566849999999999
#
# number of rings (size 3 to 8) (size 9 to 14) (size 15 to 20)
#    0.000    2.250    0.000    1.125    1.750    6.500 
#    0.000   36.250    0.000    0.000    0.000    0.000 
#    0.000    0.000    0.000    0.000    0.000    0.000 
#
# Total GULP energy -89609.321333 kJ/mol
# GULP energy per Si atom -5600.582583 kJ/mol
# Density = 2.750411 g / cm^3
# Si number density = 27.566850 Si / 1000 Ang^3
#
#
#
# Elastic Constant Matrix: (Units=GPa)
#
#
# Indices 1 2 3 4 5 6 
#
# 1 100.9201 32.8452 31.2239 0.9278 -2.2983 -14.9570
# 2 32.8452 175.4171 56.8457 -2.6825 -8.2971 -40.7978
# 3 31.2239 56.8457 237.1459 0.9135 8.1572 -25.3575
# 4 0.9278 -2.6825 0.9135 41.0606 -15.4418 -6.1835
# 5 -2.2983 -8.2971 8.1572 -15.4418 36.6694 -5.5795
# 6 -14.9570 -40.7978 -25.3575 -6.1835 -5.5795 47.2472
#
#
#
# Elastic Compliance Matrix: (Units=1/GPa)
#
#
# Indices 1 2 3 4 5 6 
#
# 1 0.010928 -0.001179 -0.000971 0.000446 0.001144 0.002114
# 2 -0.001179 0.008226 -0.001233 0.003364 0.004550 0.007046
# 3 -0.000971 -0.001233 0.004796 -0.000591 -0.001512 0.000946
# 4 0.000446 0.003364 -0.000591 0.031769 0.015627 0.008732
# 5 0.001144 0.004550 -0.001512 0.015627 0.036791 0.009870
# 6 0.002114 0.007046 0.000946 0.008732 0.009870 0.030735
#
#
# Mechanical properties :
#
#
# Convention : Reuss Voigt Hill
#
# Bulk Modulus (GPa) = 58.19282 83.92365 71.05823
# Shear Modulus (GPa) = 36.83537 51.16667 44.00102
#
# Velocity S-wave (km/s) = 3.65940 4.31291 3.99953
# Velocity P-wave (km/s) = 6.24584 7.43716 6.86738
#
# Compressibility (1/GPa) = 0.01718425
#
# Stress axis : x y z
#
# Youngs Moduli (GPa) = 91.50598 121.56009 208.52341
#
# Poissons Ratio (x) = 0.14331 0.20254
# Poissons Ratio (y) = 0.10788 0.25706
# Poissons Ratio (z) = 0.08888 0.14985
#
# Static dielectric constant tensor:
#      x y z
#    x 2.113200 0.073610 0.065950 
#    y 0.073610 2.187250 -0.047480 
#    z 0.065950 -0.047480 2.242830 
# 
# From -- ./inp_files/13262.got.cif
#   From: 2010.05.17/outbox.cif.g08.bks.cpg/sg2_7_cif.got.tgz:13262.got - 2010.06.03 11:33:40.
