data_PCOD9011476
_publ_section_title
;
Structure prediction by ZEFSAII (Michael W. Deem and Ramdas Pophale) SiO2 
 PCOD9011476
Probable space group: P -1
;
_chemical_formula_sum "Si O2"
_cell_formula_units_Z 15
_cell_length_a 20.602630
_cell_length_b 5.237778
_cell_length_c 18.658071
_cell_angle_alpha 118.514528
_cell_angle_beta 19.290506
_cell_angle_gamma 121.666671
_cell_volume 564.945599
_symmetry_space_group_name_H-M "P -1"
_symmetry_group_IT_number 2
_symmetry_cell_setting 'triclinic'
loop_
_space_group_symop_operation_xyz
x,y,z
-x,-y,-z
loop_
_atom_site_type_symbol
_atom_site_label
_atom_site_fract_x
_atom_site_fract_y
_atom_site_fract_z
Si Si1 0.108916 0.036663 0.542618
Si Si2 0.509050 0.281111 0.577722
Si Si3 0.756365 0.348222 0.045641
Si Si4 0.294460 0.593342 0.213194
Si Si5 0.147573 0.203870 0.669921
Si Si6 0.000000 0.000000 0.500000
Si Si7 0.745649 0.508319 0.913382
Si Si8 0.598810 0.225538 0.641607
O O1 0.265754 0.842981 0.331568
O O2 0.200120 0.284230 0.540789
O O3 0.073655 0.179597 0.523519
O O4 0.908764 0.812138 0.757243
O O5 0.303636 0.390145 0.811412
O O6 0.706126 0.564224 0.398374
O O7 0.500000 0.000000 0.500000
O O8 0.541019 0.205304 0.616033
O O9 0.801204 0.425224 0.924427
O O10 0.549531 0.092929 0.218732
O O11 0.919976 0.238677 0.908794
O O12 0.119067 0.292972 0.368513
O O13 0.500000 0.500000 0.000000
O O14 0.270264 0.707450 0.170975
O O15 0.189333 0.875779 0.588410
O O16 0.519784 0.561172 0.163458
#
# Coordination Sequence:
#
# PCOD9011476 Si02
#       8
#     2   2   2   2   2   1   2   2
#     4  11  24  39  66  95 133 181 229 279 339 401
#     4  10  25  47  69 100 137 168 220 284 343 420
#     4  10  23  41  68  98 130 179 219 274 344 409
#     4  11  25  41  63  98 137 186 239 295 341 404
#     4  11  24  39  69 100 129 180 226 270 346 416
#     4  10  24  42  64  94 134 186 232 284 344 386
#     4  10  21  40  66  92 137 175 230 283 335 398
#     4  10  22  42  66  98 131 173 220 278 336 406
#
# _framework density 26.551227000000001
#
# number of rings (size 3 to 8) (size 9 to 14) (size 15 to 20)
#    0.000    1.600    1.333    2.400    5.600    6.400 
#    0.000    1.333    0.000    0.000    0.000    0.000 
#    0.000    0.000    0.000    0.000    0.000    0.000 
#
# Total GULP energy -83616.375471 kJ/mol
# GULP energy per Si atom -5574.425031 kJ/mol
# Density = 2.649080 g / cm^3
# Si number density = 26.551227 Si / 1000 Ang^3
#
#
#
# Elastic Constant Matrix: (Units=GPa)
#
#
# Indices 1 2 3 4 5 6 
#
# 1 65.4966 24.8796 34.9234 16.3419 -12.4753 11.9491
# 2 24.8796 59.0467 16.7355 20.4943 -0.4621 15.0906
# 3 34.9234 16.7355 111.4862 34.0860 -21.6889 -1.0370
# 4 16.3419 20.4943 34.0860 52.6712 -8.2807 9.5937
# 5 -12.4753 -0.4621 -21.6889 -8.2807 51.9011 19.5347
# 6 11.9491 15.0906 -1.0370 9.5937 19.5347 59.9152
#
#
#
# Elastic Compliance Matrix: (Units=1/GPa)
#
#
# Indices 1 2 3 4 5 6 
#
# 1 0.022288 -0.006988 -0.005264 0.000805 0.004921 -0.004510
# 2 -0.006988 0.022777 0.000560 -0.006733 -0.001245 -0.002849
# 3 -0.005264 0.000560 0.013184 -0.006961 0.002612 0.001400
# 4 0.000805 -0.006733 -0.006961 0.027043 0.003005 -0.003895
# 5 0.004921 -0.001245 0.002612 0.003005 0.025563 -0.009438
# 6 -0.004510 -0.002849 0.001400 -0.003895 -0.009438 0.022033
#
#
# Mechanical properties :
#
#
# Convention : Reuss Voigt Hill
#
# Bulk Modulus (GPa) = 28.68117 43.23404 35.95760
# Shear Modulus (GPa) = 29.78108 43.53022 36.65565
#
# Velocity S-wave (km/s) = 3.35273 4.05344 3.71962
# Velocity P-wave (km/s) = 5.08069 6.18270 5.65859
#
# Compressibility (1/GPa) = 0.03486608
#
# Stress axis : x y z
#
# Youngs Moduli (GPa) = 44.86687 43.90394 75.85007
#
# Poissons Ratio (x) = 0.30679 0.39924
# Poissons Ratio (y) = 0.31352 -0.04247
# Poissons Ratio (z) = 0.23616 -0.02458
#
# Static dielectric constant tensor:
#      x y z
#    x 1.934230 -0.120870 0.099700 
#    y -0.120870 2.179530 0.028300 
#    z 0.099700 0.028300 2.026520 
# 
# From -- ./inp_files/576822.got.cif
#   From: 2010.05.17/outbox.cif.g08.bks.cpg/sg2_289_cif.got.tgz:576822.got - 2010.06.03 11:33:40.
