data_PCOD9011428
_publ_section_title
;
Structure prediction by ZEFSAII (Michael W. Deem and Ramdas Pophale) SiO2 
 PCOD9011428
Probable space group: P -1
;
_chemical_formula_sum "Si O2"
_cell_formula_units_Z 14
_cell_length_a 7.505281
_cell_length_b 9.523485
_cell_length_c 26.449045
_cell_angle_alpha 145.111077
_cell_angle_beta 129.660962
_cell_angle_gamma 75.529065
_cell_volume 652.196300
_symmetry_space_group_name_H-M "P -1"
_symmetry_group_IT_number 2
_symmetry_cell_setting 'triclinic'
loop_
_space_group_symop_operation_xyz
x,y,z
-x,-y,-z
loop_
_atom_site_type_symbol
_atom_site_label
_atom_site_fract_x
_atom_site_fract_y
_atom_site_fract_z
Si Si1 0.363805 0.531028 0.536205
Si Si2 0.389313 0.710301 0.430175
Si Si3 0.677829 0.677991 0.784861
Si Si4 0.592642 0.777659 0.060702
Si Si5 0.981434 0.368120 0.082404
Si Si6 0.897557 0.207959 0.861441
Si Si7 0.070364 0.533651 0.634330
O O1 0.500000 0.500000 0.500000
O O2 0.346196 0.276120 0.492373
O O3 0.098281 0.521991 0.464880
O O4 0.589091 0.862210 0.703681
O O5 0.238205 0.421737 0.278517
O O6 0.165841 0.647746 0.415941
O O7 0.500000 0.000000 0.500000
O O8 0.326114 0.498975 0.668512
O O9 0.774565 0.579483 0.821253
O O10 0.848640 0.050391 0.932479
O O11 0.849136 0.821737 0.089175
O O12 0.752095 0.098576 0.214484
O O13 0.500000 0.500000 0.000000
O O14 0.303483 0.704663 0.961977
O O15 0.092904 0.661679 0.154093
O O16 0.000000 0.500000 0.000000
#
# Coordination Sequence:
#
# PCOD9011428 Si02
#       7
#     2   2   2   2   2   2   2
#     4  10  21  40  66  90 128 173 216 264 329 386
#     4  11  24  39  63  94 129 170 216 268 321 395
#     4  10  22  43  61  91 136 163 221 272 323 384
#     4   9  18  36  63  91 122 169 211 261 326 382
#     4   9  21  38  62  89 125 173 207 269 325 383
#     4  11  20  36  65  97 124 162 223 265 315 390
#     4  10  22  43  67  89 131 176 215 269 328 384
#
# _framework density 21.465928999999999
#
# number of rings (size 3 to 8) (size 9 to 14) (size 15 to 20)
#    0.000    2.000    2.857    0.857    4.000    1.143 
#    2.571    2.143    0.000    0.000    0.000    0.000 
#    0.000    0.000    0.000    0.000    0.000    0.000 
#
# Total GULP energy -78022.433806 kJ/mol
# GULP energy per Si atom -5573.030986 kJ/mol
# Density = 2.141707 g / cm^3
# Si number density = 21.465929 Si / 1000 Ang^3
#
#
#
# Elastic Constant Matrix: (Units=GPa)
#
#
# Indices 1 2 3 4 5 6 
#
# 1 69.4100 43.0026 37.3546 -12.5207 6.7479 -13.5419
# 2 43.0026 165.2888 49.3602 -4.9851 26.0942 -4.3316
# 3 37.3546 49.3602 78.4660 -14.2980 12.2232 -12.4919
# 4 -12.5207 -4.9851 -14.2980 36.7152 -6.1584 10.3025
# 5 6.7479 26.0942 12.2232 -6.1584 34.6402 -4.4999
# 6 -13.5419 -4.3316 -12.4919 10.3025 -4.4999 37.0444
#
#
#
# Elastic Compliance Matrix: (Units=1/GPa)
#
#
# Indices 1 2 3 4 5 6 
#
# 1 0.021741 -0.003675 -0.007069 0.003270 0.002192 0.004491
# 2 -0.003675 0.008794 -0.003573 -0.001863 -0.005191 -0.001632
# 3 -0.007069 -0.003573 0.019723 0.003803 -0.001908 0.002360
# 4 0.003270 -0.001863 0.003803 0.032022 0.004323 -0.006121
# 5 0.002192 -0.005191 -0.001908 0.004323 0.034117 0.002493
# 6 0.004491 -0.001632 0.002360 -0.006121 0.002493 0.031246
#
#
# Mechanical properties :
#
#
# Convention : Reuss Voigt Hill
#
# Bulk Modulus (GPa) = 46.24512 63.62216 54.93364
# Shear Modulus (GPa) = 27.25001 33.90980 30.57991
#
# Velocity S-wave (km/s) = 3.56681 3.97886 3.77845
# Velocity P-wave (km/s) = 6.20911 7.12821 6.68448
#
# Compressibility (1/GPa) = 0.02162390
#
# Stress axis : x y z
#
# Youngs Moduli (GPa) = 45.99538 113.71804 50.70178
#
# Poissons Ratio (x) = 0.41793 0.35841
# Poissons Ratio (y) = 0.16904 0.18116
# Poissons Ratio (z) = 0.32514 0.40632
#
# Static dielectric constant tensor:
#      x y z
#    x 1.842890 0.042950 0.057140 
#    y 0.042950 1.761140 -0.061940 
#    z 0.057140 -0.061940 1.704390 
# 
# From -- ./inp_files/297785.got.cif
#   From: 2010.05.17/outbox.cif.g08.bks.cpg/sg2_149_cif.got.tgz:297785.got - 2010.06.03 11:33:40.
