data_PCOD9011533
_publ_section_title
;
Structure prediction by ZEFSAII (Michael W. Deem and Ramdas Pophale) SiO2 
 PCOD9011533
Probable space group: P -1
;
_chemical_formula_sum "Si O2"
_cell_formula_units_Z 16
_cell_length_a 12.142497
_cell_length_b 14.427674
_cell_length_c 9.921228
_cell_angle_alpha 72.865117
_cell_angle_beta 61.894342
_cell_angle_gamma 29.270309
_cell_volume 721.809169
_symmetry_space_group_name_H-M "P -1"
_symmetry_group_IT_number 2
_symmetry_cell_setting 'triclinic'
loop_
_space_group_symop_operation_xyz
x,y,z
-x,-y,-z
loop_
_atom_site_type_symbol
_atom_site_label
_atom_site_fract_x
_atom_site_fract_y
_atom_site_fract_z
Si Si1 0.479925 0.467745 0.174149
Si Si2 0.600215 0.998840 0.322320
Si Si3 0.463144 0.272470 0.148897
Si Si4 0.275089 0.419575 0.892307
Si Si5 0.945249 0.900917 0.336558
Si Si6 0.990243 0.916344 0.848808
Si Si7 0.284166 0.183859 0.944933
Si Si8 0.781648 0.070375 0.627913
O O1 0.441253 0.379441 0.211623
O O2 0.233038 0.676809 0.297933
O O3 0.746606 0.306327 0.161211
O O4 0.500000 0.500000 0.000000
O O5 0.405254 0.212447 0.286391
O O6 0.500000 0.000000 0.500000
O O7 0.673924 0.886969 0.197274
O O8 0.832231 0.903352 0.292705
O O9 0.316349 0.391181 0.042676
O O10 0.756695 0.064622 0.021469
O O11 0.288193 0.297755 0.893641
O O12 0.518709 0.296974 0.727341
O O13 0.002989 0.646867 0.918131
O O14 0.958703 0.002376 0.232114
O O15 0.771521 0.015825 0.521015
O O16 0.884010 0.948781 0.754596
O O17 0.500000 0.000000 0.000000
O O18 0.000000 0.000000 0.500000
#
# Coordination Sequence:
#
# PCOD9011533 Si02
#       8
#     2   2   2   2   2   2   2   2
#     4  12  22  36  67  99 132 177 226 277 344 403
#     4  12  25  43  70  95 143 181 224 294 351 402
#     4  11  21  42  66 101 134 180 229 280 343 414
#     4  10  22  43  73  96 135 179 236 287 337 414
#     4  11  22  42  64  96 138 176 227 282 346 410
#     4  10  21  40  66  94 133 177 225 287 330 412
#     4  11  23  45  72 104 128 181 242 288 335 409
#     4   9  21  42  65  96 138 179 220 282 350 407
#
# _framework density 22.166523999999999
#
# number of rings (size 3 to 8) (size 9 to 14) (size 15 to 20)
#    0.000    1.250    3.750    2.625    0.000    0.500 
#    0.000    7.500    0.000    0.000    0.000    0.000 
#    0.000    0.000    0.000    0.000    0.000    0.000 
#
# Total GULP energy -89472.782725 kJ/mol
# GULP energy per Si atom -5592.048920 kJ/mol
# Density = 2.211607 g / cm^3
# Si number density = 22.166524 Si / 1000 Ang^3
#
#
#
# Elastic Constant Matrix: (Units=GPa)
#
#
# Indices 1 2 3 4 5 6 
#
# 1 95.0629 20.3645 33.9805 -4.2536 13.0160 -7.4058
# 2 20.3645 145.8429 60.3932 6.5820 -0.4094 -28.8566
# 3 33.9805 60.3932 115.6363 1.3591 4.7866 -4.4852
# 4 -4.2536 6.5820 1.3591 18.6033 -2.5772 -5.3836
# 5 13.0160 -0.4094 4.7866 -2.5772 41.0194 -4.7505
# 6 -7.4058 -28.8566 -4.4852 -5.3836 -4.7505 38.1013
#
#
#
# Elastic Compliance Matrix: (Units=1/GPa)
#
#
# Indices 1 2 3 4 5 6 
#
# 1 0.012509 -0.000059 -0.003475 0.003297 -0.003119 0.002055
# 2 -0.000059 0.010561 -0.005263 -0.001007 0.001534 0.007417
# 3 -0.003475 -0.005263 0.012330 -0.000949 -0.000848 -0.003450
# 4 0.003297 -0.001007 -0.000949 0.057872 0.003663 0.008400
# 5 -0.003119 0.001534 -0.000848 0.003663 0.026204 0.004240
# 6 0.002055 0.007417 -0.003450 0.008400 0.004240 0.033572
#
#
# Mechanical properties :
#
#
# Convention : Reuss Voigt Hill
#
# Bulk Modulus (GPa) = 56.15636 65.11316 60.63476
# Shear Modulus (GPa) = 28.31635 35.66506 31.99071
#
# Velocity S-wave (km/s) = 3.57800 4.01554 3.80307
# Velocity P-wave (km/s) = 6.51601 7.13706 6.83359
#
# Compressibility (1/GPa) = 0.01780742
#
# Stress axis : x y z
#
# Youngs Moduli (GPa) = 79.94375 94.68465 81.10328
#
# Poissons Ratio (x) = 0.00555 0.28185
# Poissons Ratio (y) = 0.00468 0.42682
# Poissons Ratio (z) = 0.27782 0.49829
#
# Static dielectric constant tensor:
#      x y z
#    x 1.891710 -0.007890 -0.021940 
#    y -0.007890 1.816610 -0.012210 
#    z -0.021940 -0.012210 1.851650 
# 
# From -- ./inp_files/272843.got.cif
#   From: 2010.05.17/outbox.cif.g08.bks.cpg/sg2_137_cif.got.tgz:272843.got - 2010.06.03 11:33:40.
