data_PCOD9011756
_publ_section_title
;
Structure prediction by ZEFSAII (Michael W. Deem and Ramdas Pophale) SiO2 
 PCOD9011756
Probable space group: P -1
;
_chemical_formula_sum "Si O2"
_cell_formula_units_Z 16
_cell_length_a 9.691420
_cell_length_b 21.771397
_cell_length_c 15.582366
_cell_angle_alpha 159.325905
_cell_angle_beta 40.885124
_cell_angle_gamma 138.370148
_cell_volume 748.240334
_symmetry_space_group_name_H-M "P -1"
_symmetry_group_IT_number 2
_symmetry_cell_setting 'triclinic'
loop_
_space_group_symop_operation_xyz
x,y,z
-x,-y,-z
loop_
_atom_site_type_symbol
_atom_site_label
_atom_site_fract_x
_atom_site_fract_y
_atom_site_fract_z
Si Si1 0.097472 0.822643 0.227634
Si Si2 0.255607 0.416930 0.029467
Si Si3 0.097741 0.685136 0.233998
Si Si4 0.449400 0.198556 0.786785
Si Si5 0.785239 0.902257 0.748534
Si Si6 0.866191 0.882856 0.032638
Si Si7 0.831139 0.219970 0.381831
Si Si8 0.471227 0.970345 0.121013
O O1 0.147658 0.801047 0.275738
O O2 0.310231 0.853237 0.108797
O O3 0.000000 0.000000 0.500000
O O4 0.914966 0.667743 0.072906
O O5 0.173478 0.581889 0.328793
O O6 0.500000 0.500000 0.000000
O O7 0.291532 0.256345 0.865977
O O8 0.318862 0.682616 0.174606
O O9 0.926432 0.757695 0.468233
O O10 0.000000 0.500000 0.000000
O O11 0.342369 0.217845 0.954715
O O12 0.500000 0.000000 0.500000
O O13 0.660896 0.945529 0.779228
O O14 0.625291 0.864474 0.855245
O O15 0.950560 0.075230 0.926569
O O16 0.833972 0.076461 0.268388
O O17 0.962099 0.790238 0.787621
O O18 0.621915 0.129275 0.307902
#
# Coordination Sequence:
#
# PCOD9011756 Si02
#       8
#     2   2   2   2   2   2   2   2
#     4  12  23  42  67  94 126 165 219 256 316 381
#     4  12  26  41  64  98 128 165 212 270 313 370
#     4  12  26  41  61  96 130 167 204 268 318 374
#     4  12  23  41  67  90 126 168 216 254 316 376
#     4  10  21  40  67  91 128 161 215 249 325 373
#     4  10  21  43  69  93 124 172 208 259 318 388
#     4  10  23  42  68  94 129 163 213 259 324 374
#     4  10  21  42  69  94 119 173 210 262 311 387
#
# _framework density 21.383505
#
# number of rings (size 3 to 8) (size 9 to 14) (size 15 to 20)
#    0.000    1.000    2.500    4.500    3.500    0.500 
#    2.250    0.625    0.000    0.000    0.000    0.000 
#    0.000    0.000    0.000    0.000    0.000    0.000 
#
# Total GULP energy -89415.689075 kJ/mol
# GULP energy per Si atom -5588.480567 kJ/mol
# Density = 2.133484 g / cm^3
# Si number density = 21.383505 Si / 1000 Ang^3
#
#
#
# Elastic Constant Matrix: (Units=GPa)
#
#
# Indices 1 2 3 4 5 6 
#
# 1 107.5057 -3.4193 22.3330 -1.6353 4.2884 2.3160
# 2 -3.4193 92.9315 37.0443 -23.0253 -6.9182 12.4236
# 3 22.3330 37.0443 111.6248 -17.2449 7.6897 7.7004
# 4 -1.6353 -23.0253 -17.2449 31.8168 4.5569 -3.8272
# 5 4.2884 -6.9182 7.6897 4.5569 29.9483 4.5076
# 6 2.3160 12.4236 7.7004 -3.8272 4.5076 33.1393
#
#
#
# Elastic Compliance Matrix: (Units=1/GPa)
#
#
# Indices 1 2 3 4 5 6 
#
# 1 0.009864 0.001398 -0.002328 0.000250 -0.000442 -0.000584
# 2 0.001398 0.015268 -0.004097 0.007806 0.003867 -0.004494
# 3 -0.002328 -0.004097 0.011666 0.003839 -0.004193 0.000002
# 4 0.000250 0.007806 0.003839 0.040157 -0.005563 0.001558
# 5 -0.000442 0.003867 -0.004193 -0.005563 0.037196 -0.006147
# 6 -0.000584 -0.004494 0.000002 0.001558 -0.006147 0.032917
#
#
# Mechanical properties :
#
#
# Convention : Reuss Voigt Hill
#
# Bulk Modulus (GPa) = 37.39239 47.10865 42.25052
# Shear Modulus (GPa) = 30.11394 36.05448 33.08421
#
# Velocity S-wave (km/s) = 3.75678 4.11066 3.93769
# Velocity P-wave (km/s) = 6.02846 6.67894 6.36202
#
# Compressibility (1/GPa) = 0.02674341
#
# Stress axis : x y z
#
# Youngs Moduli (GPa) = 101.37934 65.49666 85.72018
#
# Poissons Ratio (x) = -0.09156 0.19957
# Poissons Ratio (y) = -0.14173 0.35120
# Poissons Ratio (z) = 0.23602 0.26834
#
# Static dielectric constant tensor:
#      x y z
#    x 1.777800 0.002220 -0.024100 
#    y 0.002220 1.813920 -0.005110 
#    z -0.024100 -0.005110 1.741420 
# 
# From -- ./inp_files/508168.got.cif
#   From: 2010.05.17/outbox.cif.g08.bks.cpg/sg2_255_cif.got.tgz:508168.got - 2010.06.03 11:33:40.
