data_PCOD9011078
_publ_section_title
;
Structure prediction by ZEFSAII (Michael W. Deem and Ramdas Pophale) SiO2 
 PCOD9011078
Probable space group: P -1
;
_chemical_formula_sum "Si O2"
_cell_formula_units_Z 16
_cell_length_a 18.208297
_cell_length_b 6.077072
_cell_length_c 14.799140
_cell_angle_alpha 104.659513
_cell_angle_beta 149.738962
_cell_angle_gamma 64.311019
_cell_volume 716.632886
_symmetry_space_group_name_H-M "P -1"
_symmetry_group_IT_number 2
_symmetry_cell_setting 'triclinic'
loop_
_space_group_symop_operation_xyz
x,y,z
-x,-y,-z
loop_
_atom_site_type_symbol
_atom_site_label
_atom_site_fract_x
_atom_site_fract_y
_atom_site_fract_z
Si Si1 0.820430 0.692993 0.989528
Si Si2 0.065986 0.936609 0.801267
Si Si3 0.638724 0.726959 0.146261
Si Si4 0.886447 0.930912 0.438789
Si Si5 0.067652 0.107194 0.164485
Si Si6 0.425272 0.542432 0.794344
Si Si7 0.393792 0.526278 0.195808
Si Si8 0.655687 0.043275 0.681550
O O1 0.953639 0.407665 0.082075
O O2 0.894851 0.826459 0.151061
O O3 0.655392 0.695166 0.853099
O O4 0.772345 0.851038 0.861867
O O5 0.990512 0.847661 0.631577
O O6 0.946956 0.007957 0.767978
O O7 0.234867 0.718519 0.992117
O O8 0.808497 0.739486 0.310685
O O9 0.614382 0.665793 0.218181
O O10 0.586426 0.540928 0.013420
O O11 0.500000 0.000000 0.000000
O O12 0.728858 0.194022 0.320293
O O13 0.000000 0.000000 0.500000
O O14 0.249832 0.022918 0.318898
O O15 0.000000 0.000000 0.000000
O O16 0.460557 0.524414 0.723264
O O17 0.393975 0.677391 0.302238
O O18 0.500000 0.000000 0.500000
#
# Coordination Sequence:
#
# PCOD9011078 Si02
#       8
#     2   2   2   2   2   2   2   2
#     4  10  21  40  65  90 126 175 205 256 320 373
#     4  10  24  38  64  94 128 166 213 265 313 376
#     4   9  22  42  66  91 124 169 209 261 318 386
#     4  11  26  42  64 101 130 161 215 270 317 378
#     4  11  20  43  64  91 125 170 216 251 311 384
#     4  10  23  43  66  91 126 175 209 256 330 380
#     4  10  23  40  62  92 127 166 217 252 317 385
#     4  11  24  38  61  97 127 163 210 268 311 371
#
# _framework density 22.326637000000002
#
# number of rings (size 3 to 8) (size 9 to 14) (size 15 to 20)
#    0.000    1.750    3.750    0.375    7.000    9.000 
#    0.000    0.000    0.000    0.000    0.000    0.000 
#    0.000    0.000    0.000    0.000    0.000    0.000 
#
# Total GULP energy -89336.065828 kJ/mol
# GULP energy per Si atom -5583.504114 kJ/mol
# Density = 2.227582 g / cm^3
# Si number density = 22.326637 Si / 1000 Ang^3
#
#
#
# Elastic Constant Matrix: (Units=GPa)
#
#
# Indices 1 2 3 4 5 6 
#
# 1 139.9764 17.6799 9.6546 4.7444 33.7562 8.0935
# 2 17.6799 53.3169 7.0380 12.5498 9.9668 15.1232
# 3 9.6546 7.0380 83.5910 26.4318 19.4393 -2.3964
# 4 4.7444 12.5498 26.4318 25.5896 5.3849 9.3009
# 5 33.7562 9.9668 19.4393 5.3849 37.5115 3.8843
# 6 8.0935 15.1232 -2.3964 9.3009 3.8843 27.9696
#
#
#
# Elastic Compliance Matrix: (Units=1/GPa)
#
#
# Indices 1 2 3 4 5 6 
#
# 1 0.009339 -0.001455 0.001010 -0.000047 -0.008468 -0.000637
# 2 -0.001455 0.024501 0.001718 -0.009445 -0.003802 -0.009011
# 3 0.001010 0.001718 0.022792 -0.026337 -0.010530 0.010952
# 4 -0.000047 -0.009445 -0.026337 0.078127 0.007486 -0.024156
# 5 -0.008468 -0.003802 -0.010530 0.007486 0.040132 -0.004459
# 6 -0.000637 -0.009011 0.010952 -0.024156 -0.004459 0.050400
#
#
# Mechanical properties :
#
#
# Convention : Reuss Voigt Hill
#
# Bulk Modulus (GPa) = 16.89854 38.40325 27.65090
# Shear Modulus (GPa) = 20.62080 34.38159 27.50120
#
# Velocity S-wave (km/s) = 3.04237 3.92846 3.51346
# Velocity P-wave (km/s) = 4.46392 6.14939 5.37316
#
# Compressibility (1/GPa) = 0.05917670
#
# Stress axis : x y z
#
# Youngs Moduli (GPa) = 107.08127 40.81399 43.87435
#
# Poissons Ratio (x) = 0.05939 -0.04430
# Poissons Ratio (y) = 0.15583 -0.07536
# Poissons Ratio (z) = -0.10813 -0.07010
#
# Static dielectric constant tensor:
#      x y z
#    x 1.916340 0.023270 0.037160 
#    y 0.023270 1.880440 0.017180 
#    z 0.037160 0.017180 1.858630 
# 
# From -- ./inp_files/107667.got.cif
#   From: 2010.05.17/outbox.cif.g08.bks.cpg/sg2_54_cif.got.tgz:107667.got - 2010.06.03 11:33:40.
