data_PCOD9011119
_publ_section_title
;
Structure prediction by ZEFSAII (Michael W. Deem and Ramdas Pophale) SiO2 
 PCOD9011119
Probable space group: P -1
;
_chemical_formula_sum "Si O2"
_cell_formula_units_Z 11
_cell_length_a 10.646021
_cell_length_b 11.628903
_cell_length_c 8.285094
_cell_angle_alpha 140.097965
_cell_angle_beta 128.315940
_cell_angle_gamma 37.982134
_cell_volume 404.618053
_symmetry_space_group_name_H-M "P -1"
_symmetry_group_IT_number 2
_symmetry_cell_setting 'triclinic'
loop_
_space_group_symop_operation_xyz
x,y,z
-x,-y,-z
loop_
_atom_site_type_symbol
_atom_site_label
_atom_site_fract_x
_atom_site_fract_y
_atom_site_fract_z
Si Si1 0.282238 0.371553 0.941683
Si Si2 0.190283 0.381141 0.226414
Si Si3 0.754123 0.210134 0.715147
Si Si4 0.763780 0.076870 0.235896
Si Si5 0.681554 0.044084 0.798567
Si Si6 0.000000 0.500000 0.500000
O O1 0.455853 0.122923 0.743305
O O2 0.058277 0.448679 0.809587
O O3 0.283738 0.407877 0.173389
O O4 0.288802 0.550282 0.041206
O O5 0.193898 0.441948 0.477560
O O6 0.250646 0.130263 0.986783
O O7 0.670910 0.208551 0.471796
O O8 0.692482 0.140685 0.745104
O O9 0.000294 0.027278 0.695732
O O10 0.686155 0.174098 0.099630
O O11 0.872651 0.778739 0.684114
#
# Coordination Sequence:
#
# PCOD9011119 Si02
#       6
#     2   2   2   2   2   1
#     4  10  22  40  66  91 127 160 209 259 314 363
#     4   9  21  43  60  91 125 166 206 256 312 374
#     4  10  21  40  65  92 123 171 199 259 317 367
#     4   9  21  39  64  89 124 170 205 251 315 365
#     4  11  23  41  62  97 127 161 214 259 298 384
#     4  10  24  38  62  92 122 168 206 252 316 356
#
# _framework density 27.186133000000002
#
# number of rings (size 3 to 8) (size 9 to 14) (size 15 to 20)
#    0.000    2.182    0.000    1.091   10.182    4.364 
#    3.273    0.000    0.000    0.000    0.000    0.000 
#    0.000    0.000    0.000    0.000    0.000    0.000 
#
# Total GULP energy -61271.967207 kJ/mol
# GULP energy per Si atom -5570.178837 kJ/mol
# Density = 2.712426 g / cm^3
# Si number density = 27.186133 Si / 1000 Ang^3
#
#
#
# Elastic Constant Matrix: (Units=GPa)
#
#
# Indices 1 2 3 4 5 6 
#
# 1 73.4074 91.5586 83.8651 60.5477 31.4059 21.2319
# 2 91.5586 75.0118 37.7428 -20.3192 -32.0936 17.3893
# 3 83.8651 37.7428 96.9852 -9.2581 -57.7053 18.5298
# 4 60.5477 -20.3192 -9.2581 8.3070 -41.0060 -10.4717
# 5 31.4059 -32.0936 -57.7053 -41.0060 -13.1937 9.4130
# 6 21.2319 17.3893 18.5298 -10.4717 9.4130 46.8521
#
#
#
# Elastic Compliance Matrix: (Units=1/GPa)
#
#
# Indices 1 2 3 4 5 6 
#
# 1 0.012370 -0.007882 0.007403 -0.004544 0.022420 -0.011128
# 2 -0.007882 0.021374 -0.013963 0.004639 -0.019710 0.006158
# 3 0.007403 -0.013963 0.018083 -0.015856 0.013514 -0.011583
# 4 -0.004544 0.004639 -0.015856 0.028787 -0.028791 0.018826
# 5 0.022420 -0.019710 0.013514 -0.028791 0.039763 -0.022613
# 6 -0.011128 0.006158 -0.011583 0.018826 -0.022613 0.037433
#
#
# Mechanical properties :
#
#
# Convention : Reuss Voigt Hill
#
# Bulk Modulus (GPa) = 43.58601 74.63750 59.11176
# Shear Modulus (GPa) = 25.72799 10.54227 18.13513
#
# Velocity S-wave (km/s) = 3.07964 1.97135 2.58558
# Velocity P-wave (km/s) = 5.35844 5.71800 5.54113
#
# Compressibility (1/GPa) = 0.02294314
#
# Stress axis : x y z
#
# Youngs Moduli (GPa) = 80.84167 46.78588 55.30103
#
# Poissons Ratio (x) = 0.36877 -0.40941
# Poissons Ratio (y) = 0.63720 0.77217
# Poissons Ratio (z) = -0.59849 0.65327
#
# Static dielectric constant tensor:
#      x y z
#    x 2.289710 0.146480 -0.240720 
#    y 0.146480 2.628680 -0.533250 
#    z -0.240720 -0.533250 2.791650 
# 
# From -- ./inp_files/255600.got.cif
#   From: 2010.05.17/outbox.cif.g08.bks.cpg/sg2_128_cif.got.tgz:255600.got - 2010.06.03 11:33:40.
