data_PCOD9011164
_publ_section_title
;
Structure prediction by ZEFSAII (Michael W. Deem and Ramdas Pophale) SiO2 
 PCOD9011164
Probable space group: P -1
;
_chemical_formula_sum "Si O2"
_cell_formula_units_Z 15
_cell_length_a 11.999322
_cell_length_b 9.326413
_cell_length_c 13.775054
_cell_angle_alpha 32.704482
_cell_angle_beta 46.109198
_cell_angle_gamma 51.524435
_cell_volume 597.268041
_symmetry_space_group_name_H-M "P -1"
_symmetry_group_IT_number 2
_symmetry_cell_setting 'triclinic'
loop_
_space_group_symop_operation_xyz
x,y,z
-x,-y,-z
loop_
_atom_site_type_symbol
_atom_site_label
_atom_site_fract_x
_atom_site_fract_y
_atom_site_fract_z
Si Si1 0.197885 0.075745 0.067438
Si Si2 0.821583 0.423332 0.322725
Si Si3 0.595540 0.903808 0.236471
Si Si4 0.286579 0.755741 0.869308
Si Si5 0.884062 0.845480 0.383781
Si Si6 0.000000 0.000000 0.500000
Si Si7 0.954798 0.457944 0.717136
Si Si8 0.323792 0.161313 0.137078
O O1 0.327564 0.104063 0.053189
O O2 0.130514 0.368628 0.903894
O O3 0.056838 0.911693 0.269252
O O4 0.287170 0.958258 0.985061
O O5 0.942488 0.361638 0.377812
O O6 0.671607 0.595892 0.360487
O O7 0.859483 0.129625 0.428698
O O8 0.607860 0.051907 0.246089
O O9 0.431660 0.955988 0.253616
O O10 0.230134 0.900676 0.721538
O O11 0.137344 0.708900 0.055656
O O12 0.361436 0.458130 0.972077
O O13 0.844361 0.634023 0.609063
O O14 0.920936 0.707165 0.333327
O O15 0.856975 0.864222 0.721730
#
# Coordination Sequence:
#
# PCOD9011164 Si02
#       8
#     2   2   2   2   2   1   2   2
#     4  10  21  40  65  93 127 175 218 265 326 394
#     4  10  21  40  67  92 131 171 217 274 326 379
#     4  10  23  45  69  89 130 182 218 265 330 396
#     4  12  21  43  67  97 133 167 224 276 324 383
#     4  11  20  34  70  95 128 171 223 269 320 392
#     4  12  24  40  60 100 132 164 218 278 318 394
#     4  11  19  36  62 103 125 172 220 269 323 388
#     4  12  26  40  66  98 132 175 217 268 338 384
#
# _framework density 25.114352
#
# number of rings (size 3 to 8) (size 9 to 14) (size 15 to 20)
#    0.800    0.267    5.333    2.000    0.000    3.733 
#    0.000    0.000    2.933    1.600    0.000    0.000 
#    0.000    0.000    0.000    0.000    0.000    0.000 
#
# Total GULP energy -83522.230917 kJ/mol
# GULP energy per Si atom -5568.148728 kJ/mol
# Density = 2.505719 g / cm^3
# Si number density = 25.114352 Si / 1000 Ang^3
#
#
#
# Elastic Constant Matrix: (Units=GPa)
#
#
# Indices 1 2 3 4 5 6 
#
# 1 126.8921 51.0539 28.1741 -16.8127 27.9256 -6.8037
# 2 51.0539 81.1025 4.9767 -35.4230 -0.5114 -13.0335
# 3 28.1741 4.9767 89.5756 -27.3546 20.3587 -16.0076
# 4 -16.8127 -35.4230 -27.3546 38.6265 -1.3131 8.9921
# 5 27.9256 -0.5114 20.3587 -1.3131 32.7251 -12.6880
# 6 -6.8037 -13.0335 -16.0076 8.9921 -12.6880 31.9442
#
#
#
# Elastic Compliance Matrix: (Units=1/GPa)
#
#
# Indices 1 2 3 4 5 6 
#
# 1 0.017445 -0.016642 -0.005779 -0.010125 -0.015564 -0.009302
# 2 -0.016642 0.040392 0.013727 0.036507 0.013541 0.014916
# 3 -0.005779 0.013727 0.021776 0.023779 -0.004866 0.006655
# 4 -0.010125 0.036507 0.023779 0.070761 -0.001072 0.004310
# 5 -0.015564 0.013541 -0.004866 -0.001072 0.055630 0.022169
# 6 -0.009302 0.014916 0.006655 0.004310 0.022169 0.046336
#
#
# Mechanical properties :
#
#
# Convention : Reuss Voigt Hill
#
# Bulk Modulus (GPa) = 16.07134 51.77553 33.92343
# Shear Modulus (GPa) = 17.21345 34.88352 26.04849
#
# Velocity S-wave (km/s) = 2.62086 3.73096 3.22405
# Velocity P-wave (km/s) = 3.94610 6.26264 5.23414
#
# Compressibility (1/GPa) = 0.06222258
#
# Stress axis : x y z
#
# Youngs Moduli (GPa) = 57.32431 24.75765 45.92209
#
# Poissons Ratio (x) = 0.41202 0.26540
# Poissons Ratio (y) = 0.95401 -0.63036
# Poissons Ratio (z) = 0.33130 -0.33984
#
# Static dielectric constant tensor:
#      x y z
#    x 2.063860 0.163070 -0.006370 
#    y 0.163070 2.256030 -0.012420 
#    z -0.006370 -0.012420 2.058250 
# 
# From -- ./inp_files/517423.got.cif
#   From: 2010.05.17/outbox.cif.g08.bks.cpg/sg2_259_cif.got.tgz:517423.got - 2010.06.03 11:33:40.
