data_PCOD9011815
_publ_section_title
;
Structure prediction by ZEFSAII (Michael W. Deem and Ramdas Pophale) SiO2 
 PCOD9011815
Probable space group: P -1
;
_chemical_formula_sum "Si O2"
_cell_formula_units_Z 12
_cell_length_a 11.261337
_cell_length_b 5.128643
_cell_length_c 10.688413
_cell_angle_alpha 101.808384
_cell_angle_beta 126.115242
_cell_angle_gamma 68.462115
_cell_volume 463.808751
_symmetry_space_group_name_H-M "P -1"
_symmetry_group_IT_number 2
_symmetry_cell_setting 'triclinic'
loop_
_space_group_symop_operation_xyz
x,y,z
-x,-y,-z
loop_
_atom_site_type_symbol
_atom_site_label
_atom_site_fract_x
_atom_site_fract_y
_atom_site_fract_z
Si Si1 0.402657 0.889373 0.327822
Si Si2 0.745661 0.740648 0.098993
Si Si3 0.101832 0.181036 0.032991
Si Si4 0.753350 0.272337 0.567234
Si Si5 0.453893 0.892281 0.773364
Si Si6 0.961886 0.627137 0.628118
O O1 0.502162 0.873092 0.260943
O O2 0.500000 0.000000 0.500000
O O3 0.331802 0.686129 0.346199
O O4 0.246912 0.120211 0.207811
O O5 0.832742 0.886719 0.072004
O O6 0.876039 0.471328 0.206306
O O7 0.668449 0.943272 0.183879
O O8 0.605160 0.703801 0.923883
O O9 0.000000 0.500000 0.000000
O O10 0.000000 0.000000 0.000000
O O11 0.623138 0.277908 0.383132
O O12 0.846811 0.478120 0.605363
O O13 0.873677 0.957358 0.604929
O O14 0.000000 0.500000 0.500000
#
# Coordination Sequence:
#
# PCOD9011815 Si02
#       6
#     2   2   2   2   2   2
#     4   9  20  41  68  93 131 168 214 260 317 378
#     4  10  21  40  67  94 132 166 212 263 318 377
#     4  11  23  43  67  95 127 167 213 262 317 376
#     4  11  23  44  67  95 127 169 214 264 314 376
#     4   9  20  42  65  96 131 170 211 259 321 380
#     4  12  24  41  67  95 128 165 217 265 315 373
#
# _framework density 25.872731000000002
#
# number of rings (size 3 to 8) (size 9 to 14) (size 15 to 20)
#    0.000    1.667    1.667    2.500    0.000    0.000 
#    0.000   25.833    0.000    0.000    0.000    0.000 
#    0.000    0.000    0.000    0.000    0.000    0.000 
#
# Total GULP energy -67260.596627 kJ/mol
# GULP energy per Si atom -5605.049719 kJ/mol
# Density = 2.581384 g / cm^3
# Si number density = 25.872731 Si / 1000 Ang^3
#
#
#
# Elastic Constant Matrix: (Units=GPa)
#
#
# Indices 1 2 3 4 5 6 
#
# 1 230.9346 71.8121 52.5314 6.8694 -31.0128 -4.8734
# 2 71.8121 122.2871 51.8003 -17.4992 12.4628 13.4027
# 3 52.5314 51.8003 173.5786 -41.1045 6.9508 -15.5997
# 4 6.8694 -17.4992 -41.1045 36.4870 -12.4613 4.4522
# 5 -31.0128 12.4628 6.9508 -12.4613 58.0749 0.0517
# 6 -4.8734 13.4027 -15.5997 4.4522 0.0517 35.1920
#
#
#
# Elastic Compliance Matrix: (Units=1/GPa)
#
#
# Indices 1 2 3 4 5 6 
#
# 1 0.006850 -0.004618 -0.001652 -0.004336 0.003914 0.002518
# 2 -0.004618 0.013654 -0.002098 0.004527 -0.004167 -0.007336
# 3 -0.001652 -0.002098 0.009492 0.009743 0.000519 0.003544
# 4 -0.004336 0.004527 0.009743 0.043465 0.004876 -0.003512
# 5 0.003914 -0.004167 0.000519 0.004876 0.021186 0.001711
# 6 0.002518 -0.007336 0.003544 -0.003512 0.001711 0.033571
#
#
# Mechanical properties :
#
#
# Convention : Reuss Voigt Hill
#
# Bulk Modulus (GPa) = 75.41115 97.67643 86.54379
# Shear Modulus (GPa) = 33.47302 49.32789 41.40046
#
# Velocity S-wave (km/s) = 3.60079 4.37115 4.00454
# Velocity P-wave (km/s) = 6.81893 7.95679 7.40974
#
# Compressibility (1/GPa) = 0.01326064
#
# Stress axis : x y z
#
# Youngs Moduli (GPa) = 145.98948 73.23603 105.35110
#
# Poissons Ratio (x) = 0.33820 0.17406
# Poissons Ratio (y) = 0.67418 0.22100
# Poissons Ratio (z) = 0.24120 0.15363
#
# Static dielectric constant tensor:
#      x y z
#    x 2.027560 -0.016690 0.004020 
#    y -0.016690 2.168620 0.015890 
#    z 0.004020 0.015890 2.044140 
# 
# From -- ./inp_files/70109.got.cif
#   From: 2010.05.17/outbox.cif.g08.bks.cpg/sg2_36_cif.got.tgz:70109.got - 2010.06.03 11:33:40.
