data_PCOD9011186
_publ_section_title
;
Structure prediction by ZEFSAII (Michael W. Deem and Ramdas Pophale) SiO2 
 PCOD9011186
Probable space group: P -1
;
_chemical_formula_sum "Si O2"
_cell_formula_units_Z 14
_cell_length_a 6.803203
_cell_length_b 14.686609
_cell_length_c 12.968899
_cell_angle_alpha 33.056619
_cell_angle_beta 104.523387
_cell_angle_gamma 85.346731
_cell_volume 570.686224
_symmetry_space_group_name_H-M "P -1"
_symmetry_group_IT_number 2
_symmetry_cell_setting 'triclinic'
loop_
_space_group_symop_operation_xyz
x,y,z
-x,-y,-z
loop_
_atom_site_type_symbol
_atom_site_label
_atom_site_fract_x
_atom_site_fract_y
_atom_site_fract_z
Si Si1 0.966387 0.732211 0.563590
Si Si2 0.189574 0.062907 0.436978
Si Si3 0.461780 0.663728 0.757663
Si Si4 0.515151 0.013335 0.112727
Si Si5 0.256677 0.813454 0.251227
Si Si6 0.504713 0.614940 0.256629
Si Si7 0.893826 0.397390 0.913378
O O1 0.820503 0.833542 0.555585
O O2 0.792346 0.874662 0.315762
O O3 0.002560 0.516699 0.766208
O O4 0.213569 0.724416 0.610313
O O5 0.427269 0.854112 0.630792
O O6 0.000000 0.000000 0.500000
O O7 0.082206 0.210304 0.185462
O O8 0.687342 0.551791 0.818999
O O9 0.500000 0.500000 0.000000
O O10 0.375292 0.914989 0.231862
O O11 0.500000 0.000000 0.000000
O O12 0.423573 0.237818 0.920189
O O13 0.425462 0.699274 0.282019
O O14 0.285713 0.620998 0.492880
O O15 0.000000 0.000000 0.000000
O O16 0.261558 0.647531 0.142242
#
# Coordination Sequence:
#
# PCOD9011186 Si02
#       7
#     2   2   2   2   2   2   2
#     4  11  23  44  67  98 137 172 226 283 333 400
#     4  10  21  40  65  93 134 171 220 276 330 398
#     4  11  24  42  67  96 132 181 223 269 343 402
#     4  10  22  43  69  92 134 177 215 281 336 388
#     4  10  22  43  67  97 131 171 229 272 333 411
#     4  10  22  41  67  93 136 173 214 285 338 383
#     4  12  23  43  67  99 137 173 220 285 333 404
#
# _framework density 24.531870000000001
#
# number of rings (size 3 to 8) (size 9 to 14) (size 15 to 20)
#    0.000    1.429    4.286    2.143    0.000    4.571 
#    2.571    0.000    0.000    0.000    0.000    0.000 
#    0.000    0.000    0.000    0.000    0.000    0.000 
#
# Total GULP energy -78315.707757 kJ/mol
# GULP energy per Si atom -5593.979125 kJ/mol
# Density = 2.447603 g / cm^3
# Si number density = 24.531870 Si / 1000 Ang^3
#
#
#
# Elastic Constant Matrix: (Units=GPa)
#
#
# Indices 1 2 3 4 5 6 
#
# 1 54.8832 16.4302 37.2987 -23.4089 2.6885 15.2403
# 2 16.4302 90.9427 49.7720 -12.4043 -16.2043 28.2580
# 3 37.2987 49.7720 212.1807 -18.2721 -5.5145 31.0758
# 4 -23.4089 -12.4043 -18.2721 51.6006 15.0268 -3.6177
# 5 2.6885 -16.2043 -5.5145 15.0268 41.1812 -4.0315
# 6 15.2403 28.2580 31.0758 -3.6177 -4.0315 43.1083
#
#
#
# Elastic Compliance Matrix: (Units=1/GPa)
#
#
# Indices 1 2 3 4 5 6 
#
# 1 0.028639 -0.001083 -0.002788 0.013683 -0.008351 -0.007038
# 2 -0.001083 0.015807 -0.002187 0.000514 0.005038 -0.007888
# 3 -0.002788 -0.002187 0.006013 0.000249 -0.000151 -0.001909
# 4 0.013683 0.000514 0.000249 0.028894 -0.011594 -0.004013
# 5 -0.008351 0.005038 -0.000151 -0.011594 0.031187 0.001702
# 6 -0.007038 -0.007888 -0.001909 -0.004013 0.001702 0.032055
#
#
# Mechanical properties :
#
#
# Convention : Reuss Voigt Hill
#
# Bulk Modulus (GPa) = 26.08043 62.77871 44.42957
# Shear Modulus (GPa) = 29.85196 44.14507 36.99851
#
# Velocity S-wave (km/s) = 3.49214 4.24665 3.88774
# Velocity P-wave (km/s) = 5.18791 7.04923 6.18894
#
# Compressibility (1/GPa) = 0.03834293
#
# Stress axis : x y z
#
# Youngs Moduli (GPa) = 34.91718 63.26150 166.30118
#
# Poissons Ratio (x) = 0.06851 0.46371
# Poissons Ratio (y) = 0.03781 0.36372
# Poissons Ratio (z) = 0.09736 0.13836
#
# Static dielectric constant tensor:
#      x y z
#    x 2.151470 -0.020020 -0.113960 
#    y -0.020020 1.953140 0.003940 
#    z -0.113960 0.003940 2.041550 
# 
# From -- ./inp_files/188137.got.cif
#   From: 2010.05.17/outbox.cif.g08.bks.cpg/sg2_95_cif.got.tgz:188137.got - 2010.06.03 11:33:40.
