data_PCOD9011721
_publ_section_title
;
Structure prediction by ZEFSAII (Michael W. Deem and Ramdas Pophale) SiO2 
 PCOD9011721
Probable space group: P -1
;
_chemical_formula_sum "Si O2"
_cell_formula_units_Z 14
_cell_length_a 14.677105
_cell_length_b 6.651771
_cell_length_c 7.023363
_cell_angle_alpha 91.056516
_cell_angle_beta 120.259921
_cell_angle_gamma 75.823883
_cell_volume 569.691893
_symmetry_space_group_name_H-M "P -1"
_symmetry_group_IT_number 2
_symmetry_cell_setting 'triclinic'
loop_
_space_group_symop_operation_xyz
x,y,z
-x,-y,-z
loop_
_atom_site_type_symbol
_atom_site_label
_atom_site_fract_x
_atom_site_fract_y
_atom_site_fract_z
Si Si1 0.542692 0.362352 0.728628
Si Si2 0.903094 0.211468 0.875910
Si Si3 0.091851 0.492840 0.442530
Si Si4 0.775922 0.907912 0.628180
Si Si5 0.398980 0.181664 0.819450
Si Si6 0.710165 0.940546 0.958333
Si Si7 0.773716 0.332762 0.117468
O O1 0.500000 0.500000 0.500000
O O2 0.445822 0.359692 0.775367
O O3 0.603323 0.113261 0.760755
O O4 0.646069 0.427001 0.926671
O O5 0.941060 0.357961 0.770641
O O6 0.854470 0.325066 0.022488
O O7 0.804065 0.127142 0.682890
O O8 0.000000 0.000000 0.000000
O O9 0.136657 0.260618 0.404432
O O10 0.183486 0.577299 0.650998
O O11 0.000000 0.500000 0.500000
O O12 0.662024 0.911675 0.410312
O O13 0.773634 0.828596 0.841056
O O14 0.319968 0.204792 0.919432
O O15 0.500000 0.000000 0.000000
O O16 0.775660 0.086652 0.134642
#
# Coordination Sequence:
#
# PCOD9011721 Si02
#       7
#     2   2   2   2   2   2   2
#     4   9  20  41  71 107 145 192 230 288 347 423
#     4  11  26  49  75 101 142 184 237 310 370 421
#     4  12  28  48  74 107 137 187 246 298 369 431
#     4  11  25  44  74 107 145 185 237 301 349 428
#     4  10  21  40  67 107 137 187 234 277 340 425
#     4   8  20  43  68  99 144 187 234 280 347 412
#     4   9  22  45  70 100 143 183 235 286 358 427
#
# _framework density 24.574687000000001
#
# number of rings (size 3 to 8) (size 9 to 14) (size 15 to 20)
#    0.857    1.143    0.000    1.714    2.000   10.286 
#    2.571    0.714    0.000    0.000    0.000    0.000 
#    0.000    0.000    0.000    0.000    0.000    0.000 
#
# Total GULP energy -78241.603058 kJ/mol
# GULP energy per Si atom -5588.685933 kJ/mol
# Density = 2.451875 g / cm^3
# Si number density = 24.574687 Si / 1000 Ang^3
#
#
#
# Elastic Constant Matrix: (Units=GPa)
#
#
# Indices 1 2 3 4 5 6 
#
# 1 138.0961 15.2332 38.5924 -6.4710 -44.2466 17.2335
# 2 15.2332 68.1765 34.5980 7.6308 -21.1117 -0.2983
# 3 38.5924 34.5980 95.0053 -13.3448 -16.8614 17.6423
# 4 -6.4710 7.6308 -13.3448 46.8916 9.7924 -10.0504
# 5 -44.2466 -21.1117 -16.8614 9.7924 50.8159 1.6058
# 6 17.2335 -0.2983 17.6423 -10.0504 1.6058 37.8875
#
#
#
# Elastic Compliance Matrix: (Units=1/GPa)
#
#
# Indices 1 2 3 4 5 6 
#
# 1 0.011993 0.002896 -0.003415 -0.003260 0.011305 -0.005186
# 2 0.002896 0.022579 -0.008709 -0.007867 0.010517 0.000383
# 3 -0.003415 -0.008709 0.016304 0.004996 -0.001996 -0.004697
# 4 -0.003260 -0.007867 0.004996 0.027076 -0.009879 0.006696
# 5 0.011305 0.010517 -0.001996 -0.009879 0.035393 -0.008251
# 6 -0.005186 0.000383 -0.004697 0.006696 -0.008251 0.033069
#
#
# Mechanical properties :
#
#
# Convention : Reuss Voigt Hill
#
# Bulk Modulus (GPa) = 30.84421 53.12502 41.98461
# Shear Modulus (GPa) = 28.46140 41.30926 34.88533
#
# Velocity S-wave (km/s) = 3.40687 4.10441 3.77180
# Velocity P-wave (km/s) = 5.29661 6.64276 6.00751
#
# Compressibility (1/GPa) = 0.03242100
#
# Stress axis : x y z
#
# Youngs Moduli (GPa) = 83.38447 44.28885 61.33383
#
# Poissons Ratio (x) = -0.12827 0.20945
# Poissons Ratio (y) = -0.24150 0.53414
# Poissons Ratio (z) = 0.28475 0.38570
#
# Static dielectric constant tensor:
#      x y z
#    x 2.050150 -0.042790 0.059890 
#    y -0.042790 1.985570 -0.017260 
#    z 0.059890 -0.017260 1.931350 
# 
# From -- ./inp_files/294564.got.cif
#   From: 2010.05.17/outbox.cif.g08.bks.cpg/sg2_148_cif.got.tgz:294564.got - 2010.06.03 11:33:40.
