data_PCOD9011408
_publ_section_title
;
Structure prediction by ZEFSAII (Michael W. Deem and Ramdas Pophale) SiO2 
 PCOD9011408
Probable space group: P -1
;
_chemical_formula_sum "Si O2"
_cell_formula_units_Z 16
_cell_length_a 7.626883
_cell_length_b 8.534451
_cell_length_c 19.677241
_cell_angle_alpha 87.710497
_cell_angle_beta 145.571694
_cell_angle_gamma 88.682859
_cell_volume 720.007117
_symmetry_space_group_name_H-M "P -1"
_symmetry_group_IT_number 2
_symmetry_cell_setting 'triclinic'
loop_
_space_group_symop_operation_xyz
x,y,z
-x,-y,-z
loop_
_atom_site_type_symbol
_atom_site_label
_atom_site_fract_x
_atom_site_fract_y
_atom_site_fract_z
Si Si1 0.843128 0.594382 0.295157
Si Si2 0.344672 0.076431 0.844573
Si Si3 0.311418 0.505926 0.554745
Si Si4 0.035537 0.986596 0.883768
Si Si5 0.272518 0.309716 0.216830
Si Si6 0.233689 0.436659 0.962337
Si Si7 0.653141 0.259383 0.207317
Si Si8 0.356988 0.716176 0.253961
O O1 0.828692 0.421476 0.259384
O O2 0.564041 0.624029 0.262320
O O3 0.176217 0.576375 0.440098
O O4 0.777302 0.752960 0.227443
O O5 0.213586 0.062715 0.878521
O O6 0.239793 0.921732 0.774867
O O7 0.721326 0.055886 0.976797
O O8 0.552071 0.610860 0.667168
O O9 0.468182 0.326538 0.618333
O O10 0.000000 0.500000 0.500000
O O11 0.908513 0.832960 0.814274
O O12 0.732890 0.106488 0.801434
O O13 0.527485 0.255055 0.243518
O O14 0.993769 0.415727 0.086357
O O15 0.972508 0.352416 0.841674
O O16 0.500000 0.500000 0.000000
O O17 0.379980 0.314344 0.065849
#
# Coordination Sequence:
#
# PCOD9011408 Si02
#       8
#     2   2   2   2   2   2   2   2
#     4  11  23  43  68  95 127 168 221 273 312 375
#     4  11  26  42  64  96 139 170 211 262 329 389
#     4   9  19  44  64  93 124 163 221 267 318 374
#     4  11  24  43  59  96 136 172 205 266 328 389
#     4  11  22  38  68  91 125 169 217 266 317 382
#     4  11  22  35  59  94 130 165 205 256 327 392
#     4  12  22  38  66  99 124 166 216 266 320 379
#     4  10  21  40  66  89 128 168 212 260 323 381
#
# _framework density 22.222003000000001
#
# number of rings (size 3 to 8) (size 9 to 14) (size 15 to 20)
#    0.000    1.250    5.000    2.625    5.250    1.000 
#    2.250    3.125    0.000    0.000    0.000    0.000 
#    0.000    0.000    0.000    0.000    0.000    0.000 
#
# Total GULP energy -89113.926868 kJ/mol
# GULP energy per Si atom -5569.620429 kJ/mol
# Density = 2.217143 g / cm^3
# Si number density = 22.222003 Si / 1000 Ang^3
#
#
#
# Elastic Constant Matrix: (Units=GPa)
#
#
# Indices 1 2 3 4 5 6 
#
# 1 40.3849 16.8014 13.8037 1.7323 -4.5866 4.8639
# 2 16.8014 128.9178 54.4184 -3.2903 -7.0021 15.7653
# 3 13.8037 54.4184 124.7857 -20.1976 -13.1764 18.0860
# 4 1.7323 -3.2903 -20.1976 26.8258 9.9081 -8.3171
# 5 -4.5866 -7.0021 -13.1764 9.9081 16.6024 0.5473
# 6 4.8639 15.7653 18.0860 -8.3171 0.5473 35.3323
#
#
#
# Elastic Compliance Matrix: (Units=1/GPa)
#
#
# Indices 1 2 3 4 5 6 
#
# 1 0.028391 -0.001991 -0.001938 -0.008900 0.010919 -0.004292
# 2 -0.001991 0.010169 -0.004065 -0.003683 0.002812 -0.003093
# 3 -0.001938 -0.004065 0.011756 0.006505 0.003279 -0.002457
# 4 -0.008900 -0.003683 0.006505 0.059538 -0.034845 0.014093
# 5 0.010919 0.002812 0.003279 -0.034845 0.088294 -0.014006
# 6 -0.004292 -0.003093 -0.002457 0.014093 -0.014006 0.035066
#
#
# Mechanical properties :
#
#
# Convention : Reuss Voigt Hill
#
# Bulk Modulus (GPa) = 29.13083 51.57058 40.35070
# Shear Modulus (GPa) = 19.18310 29.68976 24.43643
#
# Velocity S-wave (km/s) = 2.94130 3.65917 3.31969
# Velocity P-wave (km/s) = 4.96713 6.41171 5.73509
#
# Compressibility (1/GPa) = 0.03432790
#
# Stress axis : x y z
#
# Youngs Moduli (GPa) = 35.22205 98.33366 85.06144
#
# Poissons Ratio (x) = 0.19582 0.16482
# Poissons Ratio (y) = 0.07014 0.34581
# Poissons Ratio (z) = 0.06825 0.39977
#
# Static dielectric constant tensor:
#      x y z
#    x 1.877070 -0.032520 0.000730 
#    y -0.032520 1.945190 -0.029040 
#    z 0.000730 -0.029040 1.861030 
# 
# From -- ./inp_files/217086.got.cif
#   From: 2010.05.17/outbox.cif.g08.bks.cpg/sg2_109_cif.got.tgz:217086.got - 2010.06.03 11:33:40.
