data_PCOD9011748
_publ_section_title
;
Structure prediction by ZEFSAII (Michael W. Deem and Ramdas Pophale) SiO2 
 PCOD9011748
Probable space group: P -1
;
_chemical_formula_sum "Si O2"
_cell_formula_units_Z 16
_cell_length_a 10.499391
_cell_length_b 10.223216
_cell_length_c 22.218826
_cell_angle_alpha 35.258846
_cell_angle_beta 35.950705
_cell_angle_gamma 58.509545
_cell_volume 737.524260
_symmetry_space_group_name_H-M "P -1"
_symmetry_group_IT_number 2
_symmetry_cell_setting 'triclinic'
loop_
_space_group_symop_operation_xyz
x,y,z
-x,-y,-z
loop_
_atom_site_type_symbol
_atom_site_label
_atom_site_fract_x
_atom_site_fract_y
_atom_site_fract_z
Si Si1 0.634832 0.446088 0.625281
Si Si2 0.199550 0.710252 0.937260
Si Si3 0.305767 0.657729 0.743000
Si Si4 0.943190 0.420573 0.817454
Si Si5 0.767106 0.041596 0.455085
Si Si6 0.077537 0.869796 0.328482
Si Si7 0.343032 0.261735 0.687745
Si Si8 0.528941 0.587569 0.026596
O O1 0.450093 0.514943 0.709090
O O2 0.758143 0.280659 0.670203
O O3 0.490335 0.298270 0.679158
O O4 0.860218 0.709407 0.427869
O O5 0.403546 0.609827 0.890238
O O6 0.291564 0.996772 0.779727
O O7 0.949632 0.542879 0.064810
O O8 0.132296 0.667664 0.051333
O O9 0.251084 0.830861 0.649757
O O10 0.499515 0.847475 0.642352
O O11 0.109278 0.716673 0.642284
O O12 0.093933 0.275984 0.791145
O O13 0.713639 0.383668 0.880017
O O14 0.937243 0.898293 0.431490
O O15 0.251959 0.151512 0.143315
O O16 0.500000 0.500000 0.500000
O O17 0.500000 0.500000 0.000000
#
# Coordination Sequence:
#
# PCOD9011748 Si02
#       8
#     2   2   2   2   2   2   2   2
#     4  10  20  32  52  81 114 142 177 220 274 318
#     4  10  19  33  55  80 103 137 179 232 270 310
#     4   9  16  28  52  83 107 132 169 227 271 319
#     4  10  19  33  56  83 106 140 177 230 270 315
#     4   9  15  28  49  83 112 129 164 226 283 309
#     4  10  18  30  53  89 111 133 172 234 278 310
#     4  12  25  38  52  75 114 153 183 218 266 327
#     4  10  17  29  53  85 112 130 167 230 281 316
#
# _framework density 21.694202000000001
#
# number of rings (size 3 to 8) (size 9 to 14) (size 15 to 20)
#    0.000    2.000    6.250    1.875    1.750    0.000 
#    0.000    0.625    0.000    3.750    0.000    0.000 
#    0.000    0.000    0.000    0.000    0.000    0.000 
#
# Total GULP energy -89256.925351 kJ/mol
# GULP energy per Si atom -5578.557834 kJ/mol
# Density = 2.164483 g / cm^3
# Si number density = 21.694202 Si / 1000 Ang^3
#
#
#
# Elastic Constant Matrix: (Units=GPa)
#
#
# Indices 1 2 3 4 5 6 
#
# 1 33.1181 33.1441 55.8975 17.8857 -18.3513 -16.3700
# 2 33.1441 83.0345 31.4538 5.9266 -4.9953 -25.2225
# 3 55.8975 31.4538 104.1753 -26.6640 -29.4956 -6.0831
# 4 17.8857 5.9266 -26.6640 32.6130 -2.2297 -12.5649
# 5 -18.3513 -4.9953 -29.4956 -2.2297 36.0776 5.1593
# 6 -16.3700 -25.2225 -6.0831 -12.5649 5.1593 30.5376
#
#
#
# Elastic Compliance Matrix: (Units=1/GPa)
#
#
# Indices 1 2 3 4 5 6 
#
# 1 -0.023664 -0.000603 0.025433 0.036587 0.010188 0.005216
# 2 -0.000603 0.019089 -0.007615 -0.004776 -0.006041 0.012982
# 3 0.025433 -0.007615 -0.003253 -0.014993 0.008425 -0.000896
# 4 0.036587 -0.004776 -0.014993 0.004880 0.003989 0.014016
# 5 0.010188 -0.006041 0.008425 0.003989 0.039613 -0.002901
# 6 0.005216 0.012982 -0.000896 0.014016 -0.002901 0.052344
#
#
# Mechanical properties :
#
#
# Convention : Reuss Voigt Hill
#
# Bulk Modulus (GPa) = 37.58870 51.25765 44.42317
# Shear Modulus (GPa) = 78.80557 26.50116 52.65337
#
# Velocity S-wave (km/s) = 6.03361 3.49890 4.93188
# Velocity P-wave (km/s) = 8.11810 6.32469 7.27686
#
# Compressibility (1/GPa) = 0.02660374
#
# Stress axis : x y z
#
# Youngs Moduli (GPa) = -42.25860 52.38540 -307.45166
#
# Poissons Ratio (x) = 0.03156 7.81940
# Poissons Ratio (y) = -0.02546 -2.34125
# Poissons Ratio (z) = 1.07476 0.39892
#
# Static dielectric constant tensor:
#      x y z
#    x 1.877950 0.019930 0.031340 
#    y 0.019930 1.797000 0.018880 
#    z 0.031340 0.018880 1.837260 
# 
# From -- ./inp_files/415308.got.cif
#   From: 2010.05.17/outbox.cif.g08.bks.cpg/sg2_208_cif.got.tgz:415308.got - 2010.06.03 11:33:40.
