data_PCOD9011735
_publ_section_title
;
Structure prediction by ZEFSAII (Michael W. Deem and Ramdas Pophale) SiO2 
 PCOD9011735
Probable space group: P -1
;
_chemical_formula_sum "Si O2"
_cell_formula_units_Z 16
_cell_length_a 13.934133
_cell_length_b 11.704257
_cell_length_c 14.553018
_cell_angle_alpha 150.284955
_cell_angle_beta 108.771018
_cell_angle_gamma 51.599593
_cell_volume 763.631026
_symmetry_space_group_name_H-M "P -1"
_symmetry_group_IT_number 2
_symmetry_cell_setting 'triclinic'
loop_
_space_group_symop_operation_xyz
x,y,z
-x,-y,-z
loop_
_atom_site_type_symbol
_atom_site_label
_atom_site_fract_x
_atom_site_fract_y
_atom_site_fract_z
Si Si1 0.223015 0.585762 0.790352
Si Si2 0.345499 0.857879 0.738586
Si Si3 0.988523 0.246356 0.305768
Si Si4 0.117769 0.793197 0.201552
Si Si5 0.242644 0.205727 0.693433
Si Si6 0.351850 0.397448 0.133485
Si Si7 0.141416 0.982763 0.609854
Si Si8 0.441519 0.548944 0.739385
O O1 0.158488 0.599669 0.683417
O O2 0.244900 0.325968 0.680086
O O3 0.363899 0.512191 0.762719
O O4 0.111431 0.936293 0.057574
O O5 0.500000 0.500000 0.500000
O O6 0.214705 0.991908 0.725559
O O7 0.333083 0.769556 0.774337
O O8 0.358869 0.112444 0.924342
O O9 0.000000 0.500000 0.500000
O O10 0.018880 0.098308 0.313228
O O11 0.255671 0.671123 0.212910
O O12 0.195091 0.475750 0.939964
O O13 0.011207 0.868780 0.299966
O O14 0.126101 0.195342 0.672031
O O15 0.403340 0.833133 0.504726
O O16 0.261002 0.603567 0.342710
O O17 0.505054 0.282141 0.099560
#
# Coordination Sequence:
#
# PCOD9011735 Si02
#       8
#     2   2   2   2   2   2   2   2
#     4  10  23  46  65  91 127 166 216 251 318 373
#     4  12  22  42  63  91 132 160 209 262 314 370
#     4  10  24  44  66  92 125 166 208 273 302 373
#     4  11  22  43  62  95 127 161 217 255 322 372
#     4  10  21  40  67  89 128 165 210 261 305 377
#     4  11  24  39  62  97 129 161 209 262 308 383
#     4  11  23  39  66  93 122 175 202 264 320 364
#     4  11  23  41  65  94 126 175 201 261 316 370
#
# _framework density 20.952527
#
# number of rings (size 3 to 8) (size 9 to 14) (size 15 to 20)
#    0.000    1.250    3.750    2.250    3.500    1.000 
#    4.500    1.250    0.000    0.000    0.000    0.000 
#    0.000    0.000    0.000    0.000    0.000    0.000 
#
# Total GULP energy -89288.981051 kJ/mol
# GULP energy per Si atom -5580.561316 kJ/mol
# Density = 2.090484 g / cm^3
# Si number density = 20.952527 Si / 1000 Ang^3
#
#
#
# Elastic Constant Matrix: (Units=GPa)
#
#
# Indices 1 2 3 4 5 6 
#
# 1 102.4045 33.3809 21.1842 -2.0865 0.8656 11.7274
# 2 33.3809 101.1931 22.4819 3.8890 16.2277 18.1688
# 3 21.1842 22.4819 68.6145 -5.8673 27.8403 0.2256
# 4 -2.0865 3.8890 -5.8673 23.1444 0.2681 5.0734
# 5 0.8656 16.2277 27.8403 0.2681 31.6068 -0.0442
# 6 11.7274 18.1688 0.2256 5.0734 -0.0442 32.9062
#
#
#
# Elastic Compliance Matrix: (Units=1/GPa)
#
#
# Indices 1 2 3 4 5 6 
#
# 1 0.012145 -0.003420 -0.004845 0.000933 0.005680 -0.002543
# 2 -0.003420 0.013287 -0.001049 -0.001447 -0.005801 -0.005895
# 3 -0.004845 -0.001049 0.025990 0.006340 -0.022274 0.001120
# 4 0.000933 -0.001447 0.006340 0.046689 -0.005273 -0.006782
# 5 0.005680 -0.005801 -0.022274 -0.005273 0.054129 0.002217
# 6 -0.002543 -0.005895 0.001120 -0.006782 0.002217 0.035592
#
#
# Mechanical properties :
#
#
# Convention : Reuss Voigt Hill
#
# Bulk Modulus (GPa) = 30.49322 47.36733 38.93028
# Shear Modulus (GPa) = 23.00007 30.54250 26.77129
#
# Velocity S-wave (km/s) = 3.31678 3.82213 3.57839
# Velocity P-wave (km/s) = 5.40862 6.49109 5.97442
#
# Compressibility (1/GPa) = 0.03279418
#
# Stress axis : x y z
#
# Youngs Moduli (GPa) = 82.34166 75.25890 38.47660
#
# Poissons Ratio (x) = 0.25737 0.18644
# Poissons Ratio (y) = 0.28159 0.04035
# Poissons Ratio (z) = 0.39898 0.07892
#
# Static dielectric constant tensor:
#      x y z
#    x 1.744980 0.018050 0.014540 
#    y 0.018050 1.810140 -0.004190 
#    z 0.014540 -0.004190 1.769530 
# 
# From -- ./inp_files/532800.got.cif
#   From: 2010.05.17/outbox.cif.g08.bks.cpg/sg2_267_cif.got.tgz:532800.got - 2010.06.03 11:33:40.
