data_PCOD9011474
_publ_section_title
;
Structure prediction by ZEFSAII (Michael W. Deem and Ramdas Pophale) SiO2 
 PCOD9011474
Probable space group: P -1
;
_chemical_formula_sum "Si O2"
_cell_formula_units_Z 16
_cell_length_a 13.570725
_cell_length_b 9.677163
_cell_length_c 9.374062
_cell_angle_alpha 136.345071
_cell_angle_beta 80.094578
_cell_angle_gamma 74.190673
_cell_volume 679.767888
_symmetry_space_group_name_H-M "P -1"
_symmetry_group_IT_number 2
_symmetry_cell_setting 'triclinic'
loop_
_space_group_symop_operation_xyz
x,y,z
-x,-y,-z
loop_
_atom_site_type_symbol
_atom_site_label
_atom_site_fract_x
_atom_site_fract_y
_atom_site_fract_z
Si Si1 0.424451 0.716779 0.066011
Si Si2 0.322530 0.576584 0.352185
Si Si3 0.195720 0.061669 0.865544
Si Si4 0.378434 0.157696 0.557427
Si Si5 0.823139 0.471458 0.891671
Si Si6 0.955363 0.138778 0.865345
Si Si7 0.802199 0.962537 0.814316
Si Si8 0.245396 0.440247 0.554428
O O1 0.538235 0.653871 0.891508
O O2 0.500000 0.500000 0.000000
O O3 0.312516 0.785165 0.042350
O O4 0.356695 0.959418 0.361030
O O5 0.274634 0.517167 0.459003
O O6 0.312300 0.824606 0.578869
O O7 0.235790 0.614773 0.269608
O O8 0.162005 0.329757 0.037570
O O9 0.085364 0.052595 0.829101
O O10 0.210907 0.021667 0.000493
O O11 0.279409 0.363132 0.840445
O O12 0.368341 0.287672 0.508224
O O13 0.500000 0.000000 0.500000
O O14 0.932823 0.259149 0.804073
O O15 0.858679 0.337103 0.155240
O O16 0.925189 0.937842 0.719990
O O17 0.797706 0.736204 0.600326
#
# Coordination Sequence:
#
# PCOD9011474 Si02
#       8
#     2   2   2   2   2   2   2   2
#     4  11  24  41  67  99 136 175 219 270 338 406
#     4  12  24  42  68 101 136 171 221 277 337 393
#     4  12  26  43  68 102 131 178 231 277 327 399
#     4  10  21  40  66  92 131 175 214 264 333 400
#     4  11  24  44  68 100 135 173 224 279 338 393
#     4  11  25  47  69  93 139 177 226 280 334 388
#     4  11  24  43  67 100 132 174 227 271 332 399
#     4  10  24  42  67 100 129 176 225 270 339 393
#
# _framework density 23.537445999999999
#
# number of rings (size 3 to 8) (size 9 to 14) (size 15 to 20)
#    0.000    1.000    3.750    2.250    1.750    7.500 
#    0.000    0.000    0.000    0.000    0.000    0.000 
#    0.000    0.000    0.000    0.000    0.000    0.000 
#
# Total GULP energy -89427.971876 kJ/mol
# GULP energy per Si atom -5589.248242 kJ/mol
# Density = 2.348387 g / cm^3
# Si number density = 23.537446 Si / 1000 Ang^3
#
#
#
# Elastic Constant Matrix: (Units=GPa)
#
#
# Indices 1 2 3 4 5 6 
#
# 1 72.3093 16.4390 4.1349 -4.9903 16.3388 -12.5121
# 2 16.4390 137.9814 30.2164 -20.0708 11.0358 -10.9325
# 3 4.1349 30.2164 83.9505 -5.3747 23.4393 0.8473
# 4 -4.9903 -20.0708 -5.3747 26.9425 1.8670 11.2538
# 5 16.3388 11.0358 23.4393 1.8670 30.9831 4.3589
# 6 -12.5121 -10.9325 0.8473 11.2538 4.3589 43.4594
#
#
#
# Elastic Compliance Matrix: (Units=1/GPa)
#
#
# Indices 1 2 3 4 5 6 
#
# 1 0.017705 -0.001125 0.002934 0.001535 -0.012031 0.005566
# 2 -0.001125 0.008897 -0.002466 0.005762 -0.001140 0.000584
# 3 0.002934 -0.002466 0.016579 0.002718 -0.013452 0.000547
# 4 0.001535 0.005762 0.002718 0.046693 -0.006379 -0.009613
# 5 -0.012031 -0.001140 -0.013452 -0.006379 0.050559 -0.006907
# 6 0.005566 0.000584 0.000547 -0.009613 -0.006907 0.027931
#
#
# Mechanical properties :
#
#
# Convention : Reuss Voigt Hill
#
# Bulk Modulus (GPa) = 23.88462 43.98020 33.93241
# Shear Modulus (GPa) = 27.22811 36.50705 31.86758
#
# Velocity S-wave (km/s) = 3.40487 3.94257 3.68354
# Velocity P-wave (km/s) = 5.06231 6.28100 5.70429
#
# Compressibility (1/GPa) = 0.04186794
#
# Stress axis : x y z
#
# Youngs Moduli (GPa) = 56.48048 112.39699 60.31684
#
# Poissons Ratio (x) = 0.12649 -0.17699
# Poissons Ratio (y) = 0.06356 0.14872
# Poissons Ratio (z) = -0.16573 0.27713
#
# Static dielectric constant tensor:
#      x y z
#    x 1.903840 0.015310 0.020350 
#    y 0.015310 1.929990 0.082390 
#    z 0.020350 0.082390 2.027910 
# 
# From -- ./inp_files/245979.got.cif
#   From: 2010.05.17/outbox.cif.g08.bks.cpg/sg2_123_cif.got.tgz:245979.got - 2010.06.03 11:33:40.
