data_PCOD9011154
_publ_section_title
;
Structure prediction by ZEFSAII (Michael W. Deem and Ramdas Pophale) SiO2 
 PCOD9011154
Probable space group: P -1
;
_chemical_formula_sum "Si O2"
_cell_formula_units_Z 16
_cell_length_a 16.336663
_cell_length_b 11.738940
_cell_length_c 11.154411
_cell_angle_alpha 141.906893
_cell_angle_beta 122.164552
_cell_angle_gamma 36.675393
_cell_volume 759.350742
_symmetry_space_group_name_H-M "P -1"
_symmetry_group_IT_number 2
_symmetry_cell_setting 'triclinic'
loop_
_space_group_symop_operation_xyz
x,y,z
-x,-y,-z
loop_
_atom_site_type_symbol
_atom_site_label
_atom_site_fract_x
_atom_site_fract_y
_atom_site_fract_z
Si Si1 0.873709 0.057101 0.301506
Si Si2 0.458248 0.844266 0.667294
Si Si3 0.170455 0.284521 0.693411
Si Si4 0.429799 0.690225 0.757720
Si Si5 0.168798 0.224515 0.379574
Si Si6 0.940529 0.363351 0.714144
Si Si7 0.324966 0.136282 0.204267
Si Si8 0.050922 0.085834 0.023167
O O1 0.993642 0.753513 0.199442
O O2 0.720532 0.180042 0.300564
O O3 0.893736 0.224783 0.520515
O O4 0.889819 0.068891 0.183406
O O5 0.482461 0.759469 0.754985
O O6 0.473629 0.627082 0.429883
O O7 0.572383 0.833569 0.704783
O O8 0.300056 0.138000 0.762196
O O9 0.230690 0.139739 0.490278
O O10 0.075541 0.597699 0.851573
O O11 0.065894 0.274424 0.656802
O O12 0.408165 0.833068 0.981579
O O13 0.247982 0.245661 0.364258
O O14 0.000000 0.500000 0.500000
O O15 0.165851 0.039765 0.150106
O O16 0.801829 0.678378 0.840104
O O17 0.000000 0.000000 0.000000
#
# Coordination Sequence:
#
# PCOD9011154 Si02
#       8
#     2   2   2   2   2   2   2   2
#     4  11  22  38  68 102 129 171 225 282 333 393
#     4  11  26  44  65  95 140 181 213 274 337 397
#     4  11  23  43  64  97 133 173 222 276 330 395
#     4  11  23  43  66  97 135 178 222 268 338 402
#     4  10  21  40  65  93 124 169 215 273 335 383
#     4  11  22  39  69 100 132 167 223 285 337 387
#     4  12  23  43  69  95 134 178 222 270 336 402
#     4  11  23  39  65  98 130 169 221 281 334 392
#
# _framework density 21.070633000000001
#
# number of rings (size 3 to 8) (size 9 to 14) (size 15 to 20)
#    0.000    1.000    6.250    1.125    3.500    1.500 
#    4.500    0.625    0.000    0.000    0.000    0.000 
#    0.000    0.000    0.000    0.000    0.000    0.000 
#
# Total GULP energy -89356.060549 kJ/mol
# GULP energy per Si atom -5584.753784 kJ/mol
# Density = 2.102267 g / cm^3
# Si number density = 21.070633 Si / 1000 Ang^3
#
#
#
# Elastic Constant Matrix: (Units=GPa)
#
#
# Indices 1 2 3 4 5 6 
#
# 1 163.5520 10.3079 15.2555 -9.4741 2.9319 -4.2339
# 2 10.3079 33.3868 -9.9206 0.8593 4.9087 -0.7063
# 3 15.2555 -9.9206 50.6924 -3.6343 -9.6170 8.6788
# 4 -9.4741 0.8593 -3.6343 23.0250 3.5042 -2.0667
# 5 2.9319 4.9087 -9.6170 3.5042 27.7477 -4.1248
# 6 -4.2339 -0.7063 8.6788 -2.0667 -4.1248 27.5633
#
#
#
# Elastic Compliance Matrix: (Units=1/GPa)
#
#
# Indices 1 2 3 4 5 6 
#
# 1 0.006806 -0.002824 -0.002980 0.002809 -0.001321 0.001924
# 2 -0.002824 0.033401 0.007082 -0.000990 -0.003386 -0.002389
# 3 -0.002980 0.007082 0.024474 0.000772 0.006411 -0.006965
# 4 0.002809 -0.000990 0.000772 0.045793 -0.005219 0.002816
# 5 -0.001321 -0.003386 0.006411 -0.005219 0.040151 0.003309
# 6 0.001924 -0.002389 -0.006965 0.002816 0.003309 0.039414
#
#
# Mechanical properties :
#
#
# Convention : Reuss Voigt Hill
#
# Bulk Modulus (GPa) = 14.87258 30.99076 22.93167
# Shear Modulus (GPa) = 23.82152 31.13310 27.47731
#
# Velocity S-wave (km/s) = 3.36602 3.84807 3.61509
# Velocity P-wave (km/s) = 4.70962 5.87227 5.32278
#
# Compressibility (1/GPa) = 0.06723783
#
# Stress axis : x y z
#
# Youngs Moduli (GPa) = 146.91975 29.93914 40.86029
#
# Poissons Ratio (x) = 0.08455 0.12175
# Poissons Ratio (y) = 0.41493 -0.28938
# Poissons Ratio (z) = 0.43778 -0.21204
#
# Static dielectric constant tensor:
#      x y z
#    x 1.767480 0.018660 -0.016580 
#    y 0.018660 1.752700 0.022860 
#    z -0.016580 0.022860 1.822500 
# 
# From -- ./inp_files/452141.got.cif
#   From: 2010.05.17/outbox.cif.g08.bks.cpg/sg2_227_cif.got.tgz:452141.got - 2010.06.03 11:33:40.
