data_PCOD9011953
_publ_section_title
;
Structure prediction by ZEFSAII (Michael W. Deem and Ramdas Pophale) SiO2 
 PCOD9011953
Probable space group: P -1
;
_chemical_formula_sum "Si O2"
_cell_formula_units_Z 14
_cell_length_a 27.433711
_cell_length_b 4.983255
_cell_length_c 24.443684
_cell_angle_alpha 76.325423
_cell_angle_beta 169.775586
_cell_angle_gamma 103.012756
_cell_volume 575.804489
_symmetry_space_group_name_H-M "P -1"
_symmetry_group_IT_number 2
_symmetry_cell_setting 'triclinic'
loop_
_space_group_symop_operation_xyz
x,y,z
-x,-y,-z
loop_
_atom_site_type_symbol
_atom_site_label
_atom_site_fract_x
_atom_site_fract_y
_atom_site_fract_z
Si Si1 0.273715 0.613169 0.660533
Si Si2 0.088476 0.205754 0.382699
Si Si3 0.101249 0.396679 0.032357
Si Si4 0.831899 0.354220 0.622834
Si Si5 0.623088 0.740958 0.554176
Si Si6 0.825303 0.732574 0.325307
Si Si7 0.331991 0.063847 0.122898
O O1 0.239692 0.416729 0.579782
O O2 0.200936 0.389032 0.637306
O O3 0.120912 0.903056 0.461013
O O4 0.544625 0.738169 0.981010
O O5 0.200982 0.319873 0.443558
O O6 0.769334 0.194873 0.011994
O O7 0.357548 0.571175 0.286352
O O8 0.234544 0.185396 0.234560
O O9 0.966735 0.294207 0.833503
O O10 0.858274 0.570682 0.787443
O O11 0.532037 0.234010 0.297986
O O12 0.056302 0.221930 0.834387
O O13 0.500370 0.971994 0.367106
O O14 0.000000 0.500000 0.500000
O O15 0.000000 0.000000 0.500000
#
# Coordination Sequence:
#
# PCOD9011953 Si02
#       7
#     2   2   2   2   2   2   2
#     4  11  26  48  74 110 153 190 248 298 369 442
#     4  12  26  49  69 112 148 206 248 306 374 454
#     4  10  21  40  68 100 140 192 254 322 388 452
#     4  12  27  46  72 105 148 201 256 318 381 455
#     4  10  21  40  68 100 140 192 254 322 388 452
#     4  11  24  47  78 114 148 193 240 303 361 436
#     4  12  27  46  72 105 148 201 256 318 381 455
#
# _framework density 24.313807000000001
#
# number of rings (size 3 to 8) (size 9 to 14) (size 15 to 20)
#    0.000    0.857    2.857    3.429    0.000    6.857 
#    5.143    0.000    0.000    0.000    0.000    0.000 
#    0.000    0.000    0.000    0.000    0.000    0.000 
#
# Total GULP energy -78029.961990 kJ/mol
# GULP energy per Si atom -5573.568714 kJ/mol
# Density = 2.425847 g / cm^3
# Si number density = 24.313807 Si / 1000 Ang^3
#
#
#
# Elastic Constant Matrix: (Units=GPa)
#
#
# Indices 1 2 3 4 5 6 
#
# 1 30.0480 27.8653 156.6619 -6.7769 -31.5745 -11.1447
# 2 27.8653 151.7621 60.4103 30.4521 4.5164 31.7195
# 3 156.6619 60.4103 46.8932 45.9682 22.0617 37.0452
# 4 -6.7769 30.4521 45.9682 66.9299 2.7762 -8.0564
# 5 -31.5745 4.5164 22.0617 2.7762 59.8005 -2.4869
# 6 -11.1447 31.7195 37.0452 -8.0564 -2.4869 49.5374
#
#
#
# Elastic Compliance Matrix: (Units=1/GPa)
#
#
# Indices 1 2 3 4 5 6 
#
# 1 0.000938 -0.000687 0.005557 -0.003853 -0.001499 -0.004207
# 2 -0.000687 0.009336 -0.002113 -0.003470 -0.000341 -0.005134
# 3 0.005557 -0.002113 0.000201 0.001604 0.003065 0.002868
# 4 -0.003853 -0.003470 0.001604 0.015455 -0.002977 0.002519
# 5 -0.001499 -0.000341 0.003065 -0.002977 0.014875 -0.002148
# 6 -0.004207 -0.005134 0.002868 0.002519 -0.002148 0.020685
#
#
# Mechanical properties :
#
#
# Convention : Reuss Voigt Hill
#
# Bulk Modulus (GPa) = 62.54113 79.84204 71.19159
# Shear Modulus (GPa) = 81.55935 34.17129 57.86532
#
# Velocity S-wave (km/s) = 5.79804 3.75297 4.88375
# Velocity P-wave (km/s) = 8.40246 7.18952 7.81954
#
# Compressibility (1/GPa) = 0.01598948
#
# Stress axis : x y z
#
# Youngs Moduli (GPa) = 1065.99885 107.11231 4977.32421
#
# Poissons Ratio (x) = 0.07363 -27.66109
# Poissons Ratio (y) = 0.73274 10.51614
# Poissons Ratio (z) = -5.92421 0.22631
#
# Static dielectric constant tensor:
#      x y z
#    x 1.897170 -0.056370 0.067570 
#    y -0.056370 1.972640 -0.002060 
#    z 0.067570 -0.002060 1.901050 
# 
# From -- ./inp_files/114522.got.cif
#   From: 2010.05.17/outbox.cif.g08.bks.cpg/sg2_58_cif.got.tgz:114522.got - 2010.06.03 11:33:40.
