data_PCOD9011947
_publ_section_title
;
Structure prediction by ZEFSAII (Michael W. Deem and Ramdas Pophale) SiO2 
 PCOD9011947
Probable space group: P -1
;
_chemical_formula_sum "Si O2"
_cell_formula_units_Z 16
_cell_length_a 15.350932
_cell_length_b 15.704484
_cell_length_c 9.485369
_cell_angle_alpha 98.028974
_cell_angle_beta 50.321903
_cell_angle_gamma 141.026661
_cell_volume 748.328804
_symmetry_space_group_name_H-M "P -1"
_symmetry_group_IT_number 2
_symmetry_cell_setting 'triclinic'
loop_
_space_group_symop_operation_xyz
x,y,z
-x,-y,-z
loop_
_atom_site_type_symbol
_atom_site_label
_atom_site_fract_x
_atom_site_fract_y
_atom_site_fract_z
Si Si1 0.295972 0.429254 0.634041
Si Si2 0.844480 0.706733 0.551653
Si Si3 0.764862 0.762781 0.895440
Si Si4 0.740622 0.151004 0.889327
Si Si5 0.912229 0.134261 0.200061
Si Si6 0.372982 0.900617 0.457127
Si Si7 0.902429 0.449925 0.428217
Si Si8 0.580505 0.782276 0.258774
O O1 0.500000 0.500000 0.500000
O O2 0.158466 0.286978 0.611908
O O3 0.431036 0.606845 0.468408
O O4 0.093739 0.309731 0.940714
O O5 0.881705 0.815569 0.635898
O O6 0.058207 0.778714 0.369486
O O7 0.551012 0.470757 0.838039
O O8 0.900845 0.792891 0.874954
O O9 0.781392 0.868297 0.970168
O O10 0.884598 0.340012 0.809175
O O11 0.500000 0.000000 0.000000
O O12 0.605669 0.029356 0.144325
O O13 0.745968 0.087844 0.452107
O O14 0.725610 0.945392 0.254516
O O15 0.144462 0.673249 0.626420
O O16 0.500000 0.000000 0.500000
O O17 0.629216 0.313458 0.647598
O O18 0.000000 0.500000 0.500000
#
# Coordination Sequence:
#
# PCOD9011947 Si02
#       8
#     2   2   2   2   2   2   2   2
#     4  11  22  42  70 101 136 185 224 288 359 422
#     4  10  21  40  68 100 137 177 232 290 352 411
#     4  10  21  40  71 101 134 184 226 293 355 415
#     4  12  24  46  73  99 147 190 237 297 358 419
#     4  12  24  44  73 104 144 181 239 286 366 426
#     4  12  27  44  72 108 141 193 239 296 358 424
#     4  12  26  46  73 104 143 195 245 289 360 428
#     4  11  24  44  72 101 146 182 231 300 353 426
#
# _framework density 21.380976
#
# number of rings (size 3 to 8) (size 9 to 14) (size 15 to 20)
#    0.000    0.750    7.500    1.875    0.000    1.500 
#    0.000    0.625    0.000    0.000    0.000    0.000 
#    0.000    0.000    0.000    0.000    0.000    0.000 
#
# Total GULP energy -89332.162609 kJ/mol
# GULP energy per Si atom -5583.260163 kJ/mol
# Density = 2.133231 g / cm^3
# Si number density = 21.380976 Si / 1000 Ang^3
#
#
#
# Elastic Constant Matrix: (Units=GPa)
#
#
# Indices 1 2 3 4 5 6 
#
# 1 129.7521 43.1575 32.6704 3.4007 -30.9630 12.9718
# 2 43.1575 141.7196 38.0992 5.1800 -12.9838 -10.1899
# 3 32.6704 38.0992 74.0441 3.9049 -16.0607 -0.2809
# 4 3.4007 5.1800 3.9049 32.4266 -3.2285 3.8160
# 5 -30.9630 -12.9838 -16.0607 -3.2285 41.1301 -0.4502
# 6 12.9718 -10.1899 -0.2809 3.8160 -0.4502 39.9945
#
#
#
# Elastic Compliance Matrix: (Units=1/GPa)
#
#
# Indices 1 2 3 4 5 6 
#
# 1 0.011104 -0.002503 -0.002207 0.000669 0.006713 -0.004243
# 2 -0.002503 0.009003 -0.003560 -0.001171 -0.000489 0.003187
# 3 -0.002207 -0.003560 0.017196 -0.000893 0.003860 0.000058
# 4 0.000669 -0.001171 -0.000893 0.031700 0.002235 -0.003521
# 5 0.006713 -0.000489 0.003860 0.002235 0.030872 -0.002141
# 6 -0.004243 0.003187 0.000058 -0.003521 -0.002141 0.027504
#
#
# Mechanical properties :
#
#
# Convention : Reuss Voigt Hill
#
# Bulk Modulus (GPa) = 48.16373 63.70777 55.93575
# Shear Modulus (GPa) = 33.14827 38.14950 35.64889
#
# Velocity S-wave (km/s) = 3.94174 4.22865 4.08771
# Velocity P-wave (km/s) = 6.57964 7.32824 6.96401
#
# Compressibility (1/GPa) = 0.02076251
#
# Stress axis : x y z
#
# Youngs Moduli (GPa) = 90.06028 111.08023 58.15409
#
# Poissons Ratio (x) = 0.27799 0.12833
# Poissons Ratio (y) = 0.22538 0.20705
# Poissons Ratio (z) = 0.19874 0.39548
#
# Static dielectric constant tensor:
#      x y z
#    x 1.800630 -0.018010 -0.016400 
#    y -0.018010 1.773630 0.008580 
#    z -0.016400 0.008580 1.811700 
# 
# From -- ./inp_files/315400.got.cif
#   From: 2010.05.17/outbox.cif.g08.bks.cpg/sg2_158_cif.got.tgz:315400.got - 2010.06.03 11:33:40.
