data_PCOD9011864
_publ_section_title
;
Structure prediction by ZEFSAII (Michael W. Deem and Ramdas Pophale) SiO2 
 PCOD9011864
Probable space group: P -1
;
_chemical_formula_sum "Si O2"
_cell_formula_units_Z 10
_cell_length_a 5.068549
_cell_length_b 7.109654
_cell_length_c 13.103571
_cell_angle_alpha 82.506682
_cell_angle_beta 60.104847
_cell_angle_gamma 73.591066
_cell_volume 392.660519
_symmetry_space_group_name_H-M "P -1"
_symmetry_group_IT_number 2
_symmetry_cell_setting 'triclinic'
loop_
_space_group_symop_operation_xyz
x,y,z
-x,-y,-z
loop_
_atom_site_type_symbol
_atom_site_label
_atom_site_fract_x
_atom_site_fract_y
_atom_site_fract_z
Si Si1 0.200314 0.917149 0.568261
Si Si2 0.701813 0.212246 0.227980
Si Si3 0.635985 0.164994 0.020722
Si Si4 0.002984 0.425175 0.392617
Si Si5 0.954779 0.467201 0.838395
O O1 0.271826 0.684482 0.556770
O O2 0.104999 0.917905 0.707538
O O3 0.500000 0.000000 0.500000
O O4 0.000000 0.000000 0.500000
O O5 0.763773 0.108083 0.114539
O O6 0.332165 0.259880 0.322449
O O7 0.994925 0.568585 0.289748
O O8 0.767203 0.430312 0.190469
O O9 0.333822 0.347631 0.090470
O O10 0.872975 0.279083 0.915181
O O11 0.500000 0.000000 0.000000
O O12 0.000000 0.500000 0.500000
#
# Coordination Sequence:
#
# PCOD9011864 Si02
#       5
#     2   2   2   2   2
#     4  11  22  41  65  94 133 178 221 280 336 399
#     4  10  21  41  65  94 142 176 224 282 345 403
#     4  10  21  40  67  96 131 180 228 281 344 407
#     4  10  22  41  65  97 134 181 224 277 345 409
#     4   9  21  40  62  94 137 174 224 285 338 408
#
# _framework density 25.467289000000001
#
# number of rings (size 3 to 8) (size 9 to 14) (size 15 to 20)
#    0.000    2.000    2.000    0.600    0.000    5.600 
#    0.000    0.000    0.000    0.000    0.000    0.000 
#    0.000    0.000    0.000    0.000    0.000    0.000 
#
# Total GULP energy -55800.007769 kJ/mol
# GULP energy per Si atom -5580.000777 kJ/mol
# Density = 2.540932 g / cm^3
# Si number density = 25.467289 Si / 1000 Ang^3
#
#
#
# Elastic Constant Matrix: (Units=GPa)
#
#
# Indices 1 2 3 4 5 6 
#
# 1 122.5437 63.4981 67.4493 -15.6386 34.4017 35.1974
# 2 63.4981 168.7511 121.3014 -20.3355 20.1897 28.3906
# 3 67.4493 121.3014 221.3151 -12.3647 54.7566 38.4356
# 4 -15.6386 -20.3355 -12.3647 38.8759 19.7872 -1.3403
# 5 34.4017 20.1897 54.7566 19.7872 54.2286 5.2551
# 6 35.1974 28.3906 38.4356 -1.3403 5.2551 51.2581
#
#
#
# Elastic Compliance Matrix: (Units=1/GPa)
#
#
# Indices 1 2 3 4 5 6 
#
# 1 0.018646 -0.003723 0.004029 0.016296 -0.019357 -0.011352
# 2 -0.003723 0.011147 -0.006095 0.000266 0.004218 0.000527
# 3 0.004029 -0.006095 0.012230 0.010061 -0.015658 -0.006692
# 4 0.016296 0.000266 0.010061 0.055236 -0.039452 -0.013392
# 5 -0.019357 0.004218 -0.015658 -0.039452 0.057830 0.015736
# 6 -0.011352 0.000527 -0.006692 -0.013392 0.015736 0.030067
#
#
# Mechanical properties :
#
#
# Convention : Reuss Voigt Hill
#
# Bulk Modulus (GPa) = 32.84704 113.01194 72.92949
# Shear Modulus (GPa) = 24.16838 46.22994 35.19916
#
# Velocity S-wave (km/s) = 3.08392 4.26522 3.72174
# Velocity P-wave (km/s) = 5.06029 8.29022 6.86783
#
# Compressibility (1/GPa) = 0.03044415
#
# Stress axis : x y z
#
# Youngs Moduli (GPa) = 53.63071 89.71293 81.76837
#
# Poissons Ratio (x) = 0.33397 -0.32942
# Poissons Ratio (y) = 0.19965 0.49840
# Poissons Ratio (z) = -0.21606 0.54682
#
# Static dielectric constant tensor:
#      x y z
#    x 2.222060 -0.049940 -0.008180 
#    y -0.049940 2.064010 0.043890 
#    z -0.008180 0.043890 2.107510 
# 
# From -- ./inp_files/129558.got.cif
#   From: 2010.05.17/outbox.cif.g08.bks.cpg/sg2_65_cif.got.tgz:129558.got - 2010.06.03 11:33:40.
