data_PCOD9011160
_publ_section_title
;
Structure prediction by ZEFSAII (Michael W. Deem and Ramdas Pophale) SiO2 
 PCOD9011160
Probable space group: P -1
;
_chemical_formula_sum "Si O2"
_cell_formula_units_Z 14
_cell_length_a 7.126355
_cell_length_b 11.697161
_cell_length_c 23.053252
_cell_angle_alpha 150.361337
_cell_angle_beta 134.818151
_cell_angle_gamma 64.021019
_cell_volume 584.682449
_symmetry_space_group_name_H-M "P -1"
_symmetry_group_IT_number 2
_symmetry_cell_setting 'triclinic'
loop_
_space_group_symop_operation_xyz
x,y,z
-x,-y,-z
loop_
_atom_site_type_symbol
_atom_site_label
_atom_site_fract_x
_atom_site_fract_y
_atom_site_fract_z
Si Si1 0.838169 0.718563 0.567877
Si Si2 0.892826 0.201766 0.086027
Si Si3 0.936121 0.338550 0.593660
Si Si4 0.055439 0.480431 0.877677
Si Si5 0.507049 0.987407 0.426144
Si Si6 0.729998 0.298854 0.266431
Si Si7 0.332172 0.089968 0.752583
O O1 0.686829 0.446931 0.378088
O O2 0.944005 0.683681 0.639346
O O3 0.641301 0.859081 0.572811
O O4 0.164648 0.913640 0.694640
O O5 0.955231 0.387213 0.125911
O O6 0.061358 0.400672 0.263690
O O7 0.534723 0.002109 0.932831
O O8 0.000000 0.000000 0.000000
O O9 0.239935 0.507357 0.695052
O O10 0.847422 0.143087 0.543902
O O11 0.731346 0.118127 0.403990
O O12 0.173944 0.273691 0.795850
O O13 0.734884 0.322565 0.771935
O O14 0.313685 0.711583 0.074304
O O15 0.500000 0.000000 0.500000
#
# Coordination Sequence:
#
# PCOD9011160 Si02
#       7
#     2   2   2   2   2   2   2
#     4   9  19  39  67  91 126 173 209 261 321 385
#     4  12  24  42  65  95 133 172 208 263 333 385
#     4  11  24  42  64  99 130 167 220 272 311 371
#     4  10  21  42  69  89 126 172 210 259 331 386
#     4  11  22  40  62  95 133 168 211 263 330 373
#     4  10  21  40  65  93 126 169 221 257 316 384
#     4   9  20  42  69  94 119 165 225 267 310 381
#
# _framework density 23.944621999999999
#
# number of rings (size 3 to 8) (size 9 to 14) (size 15 to 20)
#    0.000    1.714    2.857    1.286    0.000    1.714 
#    5.143    1.429    0.000    0.000    0.000    0.000 
#    0.000    0.000    0.000    0.000    0.000    0.000 
#
# Total GULP energy -77961.092819 kJ/mol
# GULP energy per Si atom -5568.649487 kJ/mol
# Density = 2.389012 g / cm^3
# Si number density = 23.944622 Si / 1000 Ang^3
#
#
#
# Elastic Constant Matrix: (Units=GPa)
#
#
# Indices 1 2 3 4 5 6 
#
# 1 45.6657 37.3836 37.1008 9.0050 -7.7011 10.4673
# 2 37.3836 99.1824 33.3576 20.9226 -3.5923 9.2185
# 3 37.1008 33.3576 193.4478 10.1687 -6.3672 11.0247
# 4 9.0050 20.9226 10.1687 33.7557 9.0744 3.1707
# 5 -7.7011 -3.5923 -6.3672 9.0744 37.6938 14.2556
# 6 10.4673 9.2185 11.0247 3.1707 14.2556 38.2706
#
#
#
# Elastic Compliance Matrix: (Units=1/GPa)
#
#
# Indices 1 2 3 4 5 6 
#
# 1 0.040069 -0.011213 -0.004516 -0.004460 0.011547 -0.010889
# 2 -0.011213 0.015952 -0.000158 -0.007098 0.001123 -0.000561
# 3 -0.004516 -0.000158 0.006147 -0.000621 0.000488 -0.000628
# 4 -0.004460 -0.007098 -0.000621 0.038376 -0.012692 0.004657
# 5 0.011547 0.001123 0.000488 -0.012692 0.038511 -0.016863
# 6 -0.010889 -0.000561 -0.000628 0.004657 -0.016863 0.035319
#
#
# Mechanical properties :
#
#
# Convention : Reuss Voigt Hill
#
# Bulk Modulus (GPa) = 32.90087 61.55334 47.22710
# Shear Modulus (GPa) = 23.11808 37.30759 30.21283
#
# Velocity S-wave (km/s) = 3.11059 3.95153 3.55601
# Velocity P-wave (km/s) = 5.16442 6.82509 6.05199
#
# Compressibility (1/GPa) = 0.03039433
#
# Stress axis : x y z
#
# Youngs Moduli (GPa) = 24.95666 62.68782 162.67426
#
# Poissons Ratio (x) = 0.70290 0.73467
# Poissons Ratio (y) = 0.27983 0.02574
# Poissons Ratio (z) = 0.11271 0.00992
#
# Static dielectric constant tensor:
#      x y z
#    x 2.099100 0.006690 0.104430 
#    y 0.006690 2.019030 0.013620 
#    z 0.104430 0.013620 1.954910 
# 
# From -- ./inp_files/607408.got.cif
#   From: 2010.05.17/outbox.cif.g08.bks.cpg/sg2_304_cif.got.tgz:607408.got - 2010.06.03 11:33:40.
