data_PCOD9011035
_publ_section_title
;
Structure prediction by ZEFSAII (Michael W. Deem and Ramdas Pophale) SiO2 
 PCOD9011035
Probable space group: P -1
;
_chemical_formula_sum "Si O2"
_cell_formula_units_Z 16
_cell_length_a 7.790966
_cell_length_b 7.409190
_cell_length_c 23.374241
_cell_angle_alpha 132.339156
_cell_angle_beta 134.628869
_cell_angle_gamma 49.194501
_cell_volume 666.769427
_symmetry_space_group_name_H-M "P -1"
_symmetry_group_IT_number 2
_symmetry_cell_setting 'triclinic'
loop_
_space_group_symop_operation_xyz
x,y,z
-x,-y,-z
loop_
_atom_site_type_symbol
_atom_site_label
_atom_site_fract_x
_atom_site_fract_y
_atom_site_fract_z
Si Si1 0.802430 0.416897 0.507734
Si Si2 0.985827 0.887483 0.797600
Si Si3 0.173138 0.578865 0.158665
Si Si4 0.364254 0.812999 0.761222
Si Si5 0.756335 0.888785 0.999585
Si Si6 0.751451 0.453028 0.633173
Si Si7 0.897543 0.883841 0.586833
Si Si8 0.574557 0.742862 0.086835
O O1 0.860037 0.357914 0.574840
O O2 0.543909 0.382337 0.416133
O O3 0.038610 0.245847 0.488261
O O4 0.742871 0.726549 0.549772
O O5 0.891950 0.645414 0.730540
O O6 0.221996 0.816831 0.791202
O O7 0.055260 0.002111 0.897646
O O8 0.780723 0.149007 0.779313
O O9 0.364412 0.412029 0.215831
O O10 0.870032 0.655641 0.116139
O O11 0.202741 0.406762 0.071066
O O12 0.166196 0.789649 0.663777
O O13 0.400852 0.090996 0.816946
O O14 0.668638 0.035482 0.951189
O O15 0.500000 0.000000 0.000000
O O16 0.787635 0.194540 0.623414
O O17 0.500000 0.500000 0.000000
#
# Coordination Sequence:
#
# PCOD9011035 Si02
#       8
#     2   2   2   2   2   2   2   2
#     4  10  24  46  68  99 126 176 211 265 345 390
#     4  11  22  39  63  96 128 167 215 274 319 382
#     4  10  21  40  65  86 131 172 219 257 320 385
#     4  10  22  40  62  93 127 173 212 262 326 383
#     4  11  20  38  62  90 122 171 218 251 321 375
#     4  11  24  44  69 101 131 164 222 271 328 392
#     4  11  23  45  70  95 135 169 216 270 327 397
#     4  10  23  39  59  86 129 172 212 269 316 373
#
# _framework density 23.996300999999999
#
# number of rings (size 3 to 8) (size 9 to 14) (size 15 to 20)
#    0.000    1.500    5.000    1.125    1.750    5.000 
#   11.250    0.000    0.000    0.000    0.000    0.000 
#    0.000    0.000    0.000    0.000    0.000    0.000 
#
# Total GULP energy -89161.854607 kJ/mol
# GULP energy per Si atom -5572.615913 kJ/mol
# Density = 2.394168 g / cm^3
# Si number density = 23.996301 Si / 1000 Ang^3
#
#
#
# Elastic Constant Matrix: (Units=GPa)
#
#
# Indices 1 2 3 4 5 6 
#
# 1 32.7014 7.9196 14.5668 6.6230 2.3517 1.4777
# 2 7.9196 94.0462 28.2096 16.2010 11.3882 5.9126
# 3 14.5668 28.2096 101.1623 -0.7763 20.5677 0.8394
# 4 6.6230 16.2010 -0.7763 38.1148 12.1799 4.5674
# 5 2.3517 11.3882 20.5677 12.1799 36.7446 12.2435
# 6 1.4777 5.9126 0.8394 4.5674 12.2435 20.4835
#
#
#
# Elastic Compliance Matrix: (Units=1/GPa)
#
#
# Indices 1 2 3 4 5 6 
#
# 1 0.034507 -0.000280 -0.005856 -0.007070 0.004616 -0.003351
# 2 -0.000280 0.012774 -0.003717 -0.005396 0.000872 -0.002833
# 3 -0.005856 -0.003717 0.013754 0.005341 -0.009809 0.005604
# 4 -0.007070 -0.005396 0.005341 0.033686 -0.012667 0.001909
# 5 0.004616 0.000872 -0.009809 -0.012667 0.044277 -0.023824
# 6 -0.003351 -0.002833 0.005604 0.001909 -0.023824 0.063464
#
#
# Mechanical properties :
#
#
# Convention : Reuss Voigt Hill
#
# Bulk Modulus (GPa) = 24.19567 36.58911 30.39239
# Shear Modulus (GPa) = 21.19151 30.88282 26.03717
#
# Velocity S-wave (km/s) = 2.97495 3.59135 3.29758
# Velocity P-wave (km/s) = 4.68032 5.69894 5.21456
#
# Compressibility (1/GPa) = 0.04132970
#
# Stress axis : x y z
#
# Youngs Moduli (GPa) = 28.97934 78.28687 72.70789
#
# Poissons Ratio (x) = 0.02190 0.42577
# Poissons Ratio (y) = 0.00811 0.27025
# Poissons Ratio (z) = 0.16970 0.29098
#
# Static dielectric constant tensor:
#      x y z
#    x 2.032100 0.060140 0.009410 
#    y 0.060140 2.092900 0.068610 
#    z 0.009410 0.068610 1.906770 
# 
# From -- ./inp_files/616727.got.cif
#   From: 2010.05.17/outbox.cif.g08.bks.cpg/sg2_309_cif.got.tgz:616727.got - 2010.06.03 11:33:40.
