data_PCOD9011646
_publ_section_title
;
Structure prediction by ZEFSAII (Michael W. Deem and Ramdas Pophale) SiO2 
 PCOD9011646
Probable space group: P -1
;
_chemical_formula_sum "Si O2"
_cell_formula_units_Z 12
_cell_length_a 6.856889
_cell_length_b 7.643676
_cell_length_c 10.565138
_cell_angle_alpha 75.094070
_cell_angle_beta 93.030182
_cell_angle_gamma 56.517831
_cell_volume 433.080577
_symmetry_space_group_name_H-M "P -1"
_symmetry_group_IT_number 2
_symmetry_cell_setting 'triclinic'
loop_
_space_group_symop_operation_xyz
x,y,z
-x,-y,-z
loop_
_atom_site_type_symbol
_atom_site_label
_atom_site_fract_x
_atom_site_fract_y
_atom_site_fract_z
Si Si1 0.636538 0.095355 0.629396
Si Si2 0.260909 0.512354 0.673498
Si Si3 0.057407 0.243146 0.821079
Si Si4 0.840615 0.892415 0.424351
Si Si5 0.802446 0.766902 0.914037
Si Si6 0.467790 0.407510 0.144033
O O1 0.512158 0.331823 0.646807
O O2 0.401391 0.097431 0.596872
O O3 0.763796 0.064780 0.506549
O O4 0.810522 0.890568 0.768774
O O5 0.176184 0.375102 0.768408
O O6 0.321294 0.639251 0.749476
O O7 0.054171 0.661993 0.537856
O O8 0.079353 0.117229 0.716063
O O9 0.779407 0.418902 0.820058
O O10 0.187117 0.117583 0.980926
O O11 0.565910 0.778621 0.871345
O O12 0.000000 0.500000 0.000000
O O13 0.500000 0.500000 0.000000
#
# Coordination Sequence:
#
# PCOD9011646 Si02
#       6
#     2   2   2   2   2   2
#     4  10  22  42  72 104 132 181 230 271 346 408
#     4  11  23  44  74  99 137 180 226 280 339 406
#     4  10  21  40  66  98 134 174 225 272 339 396
#     4  10  22  42  70 101 137 180 222 281 340 405
#     4  10  21  41  71  97 135 177 222 281 336 395
#     4  11  23  41  68 103 133 182 227 280 340 401
#
# _framework density 27.708468
#
# number of rings (size 3 to 8) (size 9 to 14) (size 15 to 20)
#    0.000    1.667    1.667    4.000    2.333    6.000 
#    0.000    8.333    0.000    0.000    0.000    0.000 
#    0.000    0.000    0.000    0.000    0.000    0.000 
#
# Total GULP energy -67160.771870 kJ/mol
# GULP energy per Si atom -5596.730989 kJ/mol
# Density = 2.764540 g / cm^3
# Si number density = 27.708468 Si / 1000 Ang^3
#
#
#
# Elastic Constant Matrix: (Units=GPa)
#
#
# Indices 1 2 3 4 5 6 
#
# 1 137.9903 28.3875 78.0401 8.0892 0.5307 -21.4205
# 2 28.3875 112.7461 74.1305 31.2291 11.6496 -33.3701
# 3 78.0401 74.1305 243.6738 27.5041 26.8117 0.9393
# 4 8.0892 31.2291 27.5041 59.0372 -10.0361 -2.2038
# 5 0.5307 11.6496 26.8117 -10.0361 49.9088 6.3442
# 6 -21.4205 -33.3701 0.9393 -2.2038 6.3442 46.1365
#
#
#
# Elastic Compliance Matrix: (Units=1/GPa)
#
#
# Indices 1 2 3 4 5 6 
#
# 1 0.009946 0.001640 -0.003779 -0.000121 0.000784 0.005767
# 2 0.001640 0.018870 -0.004785 -0.008343 -0.005417 0.014854
# 3 -0.003779 -0.004785 0.007125 -0.000833 -0.002189 -0.005100
# 4 -0.000121 -0.008343 -0.000833 0.022850 0.007760 -0.006050
# 5 0.000784 -0.005417 -0.002189 0.007760 0.024863 -0.006558
# 6 0.005767 0.014854 -0.005100 -0.006050 -0.006558 0.035813
#
#
# Mechanical properties :
#
#
# Convention : Reuss Voigt Hill
#
# Bulk Modulus (GPa) = 45.26563 95.05849 70.16206
# Shear Modulus (GPa) = 35.54192 51.93997 43.74095
#
# Velocity S-wave (km/s) = 3.58538 4.33427 3.97749
# Velocity P-wave (km/s) = 5.78894 7.70902 6.81692
#
# Compressibility (1/GPa) = 0.02209182
#
# Stress axis : x y z
#
# Youngs Moduli (GPa) = 100.54109 52.99414 140.36024
#
# Poissons Ratio (x) = -0.08692 0.53045
# Poissons Ratio (y) = -0.16490 0.67167
# Poissons Ratio (z) = 0.37997 0.25360
#
# Static dielectric constant tensor:
#      x y z
#    x 2.118080 -0.000560 0.040200 
#    y -0.000560 2.238290 0.029140 
#    z 0.040200 0.029140 2.106220 
# 
# From -- ./inp_files/360593.got.cif
#   From: 2010.05.17/outbox.cif.g08.bks.cpg/sg2_181_cif.got.tgz:360593.got - 2010.06.03 11:33:40.
