data_PCOD9011467
_publ_section_title
;
Structure prediction by ZEFSAII (Michael W. Deem and Ramdas Pophale) SiO2 
 PCOD9011467
Probable space group: P -1
;
_chemical_formula_sum "Si O2"
_cell_formula_units_Z 16
_cell_length_a 9.539393
_cell_length_b 16.096246
_cell_length_c 5.212337
_cell_angle_alpha 58.934063
_cell_angle_beta 97.507047
_cell_angle_gamma 71.161631
_cell_volume 603.637006
_symmetry_space_group_name_H-M "P -1"
_symmetry_group_IT_number 2
_symmetry_cell_setting 'triclinic'
loop_
_space_group_symop_operation_xyz
x,y,z
-x,-y,-z
loop_
_atom_site_type_symbol
_atom_site_label
_atom_site_fract_x
_atom_site_fract_y
_atom_site_fract_z
Si Si1 0.023383 0.149605 0.718963
Si Si2 0.564166 0.326194 0.380914
Si Si3 0.664329 0.397580 0.767738
Si Si4 0.767489 0.808441 0.639260
Si Si5 0.979684 0.363164 0.646826
Si Si6 0.490685 0.818209 0.779765
Si Si7 0.269327 0.353268 0.504019
Si Si8 0.847709 0.041828 0.573059
O O1 0.141556 0.129179 0.544213
O O2 0.967584 0.274160 0.594208
O O3 0.883060 0.122470 0.643876
O O4 0.129587 0.063202 0.093796
O O5 0.660817 0.312363 0.688777
O O6 0.556805 0.221430 0.431074
O O7 0.370619 0.399270 0.284368
O O8 0.638007 0.367477 0.099941
O O9 0.500000 0.500000 0.500000
O O10 0.812025 0.417931 0.674412
O O11 0.605085 0.870846 0.654843
O O12 0.732070 0.747362 0.492358
O O13 0.892878 0.711323 0.995841
O O14 0.081535 0.417190 0.442402
O O15 0.317983 0.898400 0.711434
O O16 0.607356 0.707833 0.136353
O O17 0.000000 0.000000 0.500000
#
# Coordination Sequence:
#
# PCOD9011467 Si02
#       8
#     2   2   2   2   2   2   2   2
#     4  10  22  39  58  89 126 169 216 272 322 389
#     4  11  23  44  70  98 135 174 218 264 333 393
#     4  12  27  44  69 105 137 168 215 273 331 398
#     4   9  20  38  64  89 121 168 224 264 322 385
#     4  10  22  42  69  92 130 173 218 269 334 392
#     4  10  21  40  66  92 126 174 217 271 319 387
#     4   9  20  41  68  97 124 175 226 264 321 396
#     4  11  24  36  56  92 129 165 220 268 326 380
#
# _framework density 26.505998000000002
#
# number of rings (size 3 to 8) (size 9 to 14) (size 15 to 20)
#    0.000    1.750    1.250    1.875    7.000    4.500 
#    0.000   10.000    0.000    0.000    0.000    0.000 
#    0.000    0.000    0.000    0.000    0.000    0.000 
#
# Total GULP energy -89286.078972 kJ/mol
# GULP energy per Si atom -5580.379936 kJ/mol
# Density = 2.644567 g / cm^3
# Si number density = 26.505998 Si / 1000 Ang^3
#
#
#
# Elastic Constant Matrix: (Units=GPa)
#
#
# Indices 1 2 3 4 5 6 
#
# 1 250.4177 47.4918 49.9621 -5.8346 -2.5167 -44.2980
# 2 47.4918 68.4474 4.8119 10.1024 4.3914 -17.7387
# 3 49.9621 4.8119 86.5645 10.6578 -4.1434 -14.2708
# 4 -5.8346 10.1024 10.6578 30.5262 -3.1442 6.4816
# 5 -2.5167 4.3914 -4.1434 -3.1442 51.0277 -0.1869
# 6 -44.2980 -17.7387 -14.2708 6.4816 -0.1869 56.6539
#
#
#
# Elastic Compliance Matrix: (Units=1/GPa)
#
#
# Indices 1 2 3 4 5 6 
#
# 1 0.005785 -0.003690 -0.003106 0.002990 0.000543 0.002245
# 2 -0.003690 0.019870 0.002959 -0.009643 -0.002227 0.005178
# 3 -0.003106 0.002959 0.014587 -0.007269 0.000340 0.003005
# 4 0.002990 -0.009643 -0.007269 0.040881 0.002880 -0.007180
# 5 0.000543 -0.002227 0.000340 0.002880 0.020019 -0.000450
# 6 0.002245 0.005178 0.003005 -0.007180 -0.000450 0.022605
#
#
# Mechanical properties :
#
#
# Convention : Reuss Voigt Hill
#
# Bulk Modulus (GPa) = 30.70406 67.77347 49.23877
# Shear Modulus (GPa) = 35.14315 47.85248 41.49781
#
# Velocity S-wave (km/s) = 3.64518 4.25355 3.96106
# Velocity P-wave (km/s) = 5.41530 7.05324 6.28783
#
# Compressibility (1/GPa) = 0.03256898
#
# Stress axis : x y z
#
# Youngs Moduli (GPa) = 172.85671 50.32750 68.55496
#
# Poissons Ratio (x) = 0.18571 0.21292
# Poissons Ratio (y) = 0.63783 -0.20288
# Poissons Ratio (z) = 0.53687 -0.14894
#
# Static dielectric constant tensor:
#      x y z
#    x 2.266840 -0.148980 -0.038670 
#    y -0.148980 2.362660 0.068380 
#    z -0.038670 0.068380 2.082050 
# 
# From -- ./inp_files/51041.got.cif
#   From: 2010.05.17/outbox.cif.g08.bks.cpg/sg2_26_cif.got.tgz:51041.got - 2010.06.03 11:33:40.
