data_PCOD9011496
_publ_section_title
;
Structure prediction by ZEFSAII (Michael W. Deem and Ramdas Pophale) SiO2 
 PCOD9011496
Probable space group: P -1
;
_chemical_formula_sum "Si O2"
_cell_formula_units_Z 16
_cell_length_a 8.556133
_cell_length_b 14.437348
_cell_length_c 11.842657
_cell_angle_alpha 74.023759
_cell_angle_beta 126.658884
_cell_angle_gamma 136.804724
_cell_volume 768.405893
_symmetry_space_group_name_H-M "P -1"
_symmetry_group_IT_number 2
_symmetry_cell_setting 'triclinic'
loop_
_space_group_symop_operation_xyz
x,y,z
-x,-y,-z
loop_
_atom_site_type_symbol
_atom_site_label
_atom_site_fract_x
_atom_site_fract_y
_atom_site_fract_z
Si Si1 0.676069 0.705210 0.075338
Si Si2 0.281273 0.409261 0.093315
Si Si3 0.264496 0.133666 0.315384
Si Si4 0.961485 0.698211 0.599934
Si Si5 0.541651 0.404080 0.425580
Si Si6 0.196627 0.888433 0.965493
Si Si7 0.577062 0.873854 0.866497
Si Si8 0.159484 0.892104 0.405974
O O1 0.401177 0.558400 0.069218
O O2 0.954002 0.791448 0.245640
O O3 0.686196 0.647475 0.983373
O O4 0.645324 0.806250 0.996134
O O5 0.471664 0.434553 0.268466
O O6 0.950700 0.268524 0.029319
O O7 0.524817 0.284488 0.435038
O O8 0.357426 0.129991 0.233267
O O9 0.139591 0.999963 0.375266
O O10 0.025261 0.128087 0.196062
O O11 0.834481 0.551040 0.551266
O O12 0.709385 0.657515 0.574782
O O13 0.246060 0.781829 0.764986
O O14 0.051839 0.795305 0.499995
O O15 0.239817 0.967139 0.071260
O O16 0.500000 0.000000 0.000000
O O17 0.500000 0.000000 0.500000
#
# Coordination Sequence:
#
# PCOD9011496 Si02
#       8
#     2   2   2   2   2   2   2   2
#     4  11  22  41  67  98 130 162 224 277 321 377
#     4  10  21  40  66  93 129 172 210 275 322 379
#     4  11  22  40  66  94 128 169 219 274 316 389
#     4  11  25  42  68  91 136 180 211 268 337 398
#     4  10  22  46  63  92 135 178 217 258 338 400
#     4  11  22  39  64  97 131 171 213 265 331 392
#     4  12  21  40  67 100 126 172 225 268 326 388
#     4  12  24  42  66 101 133 169 216 277 331 383
#
# _framework density 20.822330000000001
#
# number of rings (size 3 to 8) (size 9 to 14) (size 15 to 20)
#    0.000    1.000    6.250    2.625    0.000    1.000 
#    4.500    5.000    0.000    0.000    0.000    0.000 
#    0.000    0.000    0.000    0.000    0.000    0.000 
#
# Total GULP energy -89372.115718 kJ/mol
# GULP energy per Si atom -5585.757232 kJ/mol
# Density = 2.077494 g / cm^3
# Si number density = 20.822330 Si / 1000 Ang^3
#
#
#
# Elastic Constant Matrix: (Units=GPa)
#
#
# Indices 1 2 3 4 5 6 
#
# 1 34.3787 26.8669 7.8012 -5.5206 -6.6478 7.3670
# 2 26.8669 132.1583 37.6624 20.9338 -3.4722 12.5451
# 3 7.8012 37.6624 90.0869 8.8546 -7.2676 5.1921
# 4 -5.5206 20.9338 8.8546 35.4070 -2.9117 -9.0869
# 5 -6.6478 -3.4722 -7.2676 -2.9117 26.3197 9.7055
# 6 7.3670 12.5451 5.1921 -9.0869 9.7055 28.5660
#
#
#
# Elastic Compliance Matrix: (Units=1/GPa)
#
#
# Indices 1 2 3 4 5 6 
#
# 1 0.042558 -0.009495 0.000788 0.011106 0.013950 -0.008156
# 2 -0.009495 0.012352 -0.003193 -0.009360 -0.000805 -0.005100
# 3 0.000788 -0.003193 0.013075 -0.001724 0.004383 -0.003215
# 4 0.011106 -0.009360 -0.001724 0.039569 0.000292 0.014048
# 5 0.013950 -0.000805 0.004383 0.000292 0.050428 -0.021081
# 6 -0.008156 -0.005100 -0.003215 0.014048 -0.021081 0.051565
#
#
# Mechanical properties :
#
#
# Convention : Reuss Voigt Hill
#
# Bulk Modulus (GPa) = 22.63162 44.58723 33.60942
# Shear Modulus (GPa) = 20.15513 30.34476 25.24994
#
# Velocity S-wave (km/s) = 3.11458 3.82163 3.48607
# Velocity P-wave (km/s) = 4.88125 6.39787 5.69032
#
# Compressibility (1/GPa) = 0.04418596
#
# Stress axis : x y z
#
# Youngs Moduli (GPa) = 23.49742 80.95603 76.47960
#
# Poissons Ratio (x) = 0.76866 -0.06026
# Poissons Ratio (y) = 0.22310 0.24420
# Poissons Ratio (z) = -0.01852 0.25849
#
# Static dielectric constant tensor:
#      x y z
#    x 1.782910 0.011760 -0.021080 
#    y 0.011760 1.791210 0.025920 
#    z -0.021080 0.025920 1.754450 
# 
# From -- ./inp_files/282913.got.cif
#   From: 2010.05.17/outbox.cif.g08.bks.cpg/sg2_142_cif.got.tgz:282913.got - 2010.06.03 11:33:40.
