data_PCOD9011227
_publ_section_title
;
Structure prediction by ZEFSAII (Michael W. Deem and Ramdas Pophale) SiO2 
 PCOD9011227
Probable space group: P -1
;
_chemical_formula_sum "Si O2"
_cell_formula_units_Z 14
_cell_length_a 7.582047
_cell_length_b 11.932849
_cell_length_c 9.539196
_cell_angle_alpha 112.796388
_cell_angle_beta 114.909150
_cell_angle_gamma 42.033326
_cell_volume 520.146797
_symmetry_space_group_name_H-M "P -1"
_symmetry_group_IT_number 2
_symmetry_cell_setting 'triclinic'
loop_
_space_group_symop_operation_xyz
x,y,z
-x,-y,-z
loop_
_atom_site_type_symbol
_atom_site_label
_atom_site_fract_x
_atom_site_fract_y
_atom_site_fract_z
Si Si1 0.890805 0.313207 0.415892
Si Si2 0.599835 0.538398 0.185481
Si Si3 0.469889 0.740406 0.839800
Si Si4 0.436424 0.983635 0.766107
Si Si5 0.657266 0.139316 0.853757
Si Si6 0.794534 0.029588 0.554836
Si Si7 0.137634 0.623137 0.252804
O O1 0.859037 0.391198 0.293474
O O2 0.692828 0.280948 0.324206
O O3 0.828385 0.410273 0.584925
O O4 0.162555 0.128394 0.460765
O O5 0.609369 0.672718 0.200403
O O6 0.368063 0.613419 0.261922
O O7 0.500000 0.500000 0.000000
O O8 0.760228 0.549173 0.862438
O O9 0.487343 0.870272 0.855948
O O10 0.295708 0.815618 0.962070
O O11 0.633745 0.009873 0.821631
O O12 0.453800 0.882706 0.590524
O O13 0.146670 0.183801 0.777880
O O14 0.823761 0.080902 0.739330
O O15 0.000000 0.000000 0.500000
#
# Coordination Sequence:
#
# PCOD9011227 Si02
#       7
#     2   2   2   2   2   2   2
#     4  10  21  40  65  95 121 172 224 264 319 381
#     4  11  21  39  62  95 127 164 220 272 314 377
#     4  11  22  42  66  98 133 174 213 269 328 384
#     4  11  25  44  65  96 134 178 213 266 331 391
#     4  12  25  41  63 100 136 164 219 273 328 391
#     4  11  23  44  68  94 123 175 224 268 323 387
#     4  10  23  43  68  93 129 175 224 260 325 385
#
# _framework density 26.915479000000001
#
# number of rings (size 3 to 8) (size 9 to 14) (size 15 to 20)
#    0.000    1.143    4.286    4.286    2.000    2.286 
#    2.571    1.429    0.000    0.000    0.000    0.000 
#    0.000    0.000    0.000    0.000    0.000    0.000 
#
# Total GULP energy -77965.943206 kJ/mol
# GULP energy per Si atom -5568.995943 kJ/mol
# Density = 2.685422 g / cm^3
# Si number density = 26.915479 Si / 1000 Ang^3
#
#
#
# Elastic Constant Matrix: (Units=GPa)
#
#
# Indices 1 2 3 4 5 6 
#
# 1 69.8909 19.2701 22.8472 0.6903 -8.5094 19.7235
# 2 19.2701 142.6580 24.2320 -4.5043 -15.0935 36.6105
# 3 22.8472 24.2320 169.3226 -6.0508 -34.3220 -3.3635
# 4 0.6903 -4.5043 -6.0508 36.6395 0.2068 -10.7351
# 5 -8.5094 -15.0935 -34.3220 0.2068 34.2229 -2.2270
# 6 19.7235 36.6105 -3.3635 -10.7351 -2.2270 51.4335
#
#
#
# Elastic Compliance Matrix: (Units=1/GPa)
#
#
# Indices 1 2 3 4 5 6 
#
# 1 0.017336 0.000000 -0.002267 -0.002856 0.001578 -0.007324
# 2 0.000000 0.009125 -0.000934 -0.000995 0.002661 -0.006649
# 3 -0.002267 -0.000934 0.007919 0.002010 0.007135 0.002781
# 4 -0.002856 -0.000995 0.002010 0.029964 0.001222 0.008242
# 5 0.001578 0.002661 0.007135 0.001222 0.037925 -0.000135
# 6 -0.007324 -0.006649 0.002781 0.008242 -0.000135 0.028880
#
#
# Mechanical properties :
#
#
# Convention : Reuss Voigt Hill
#
# Bulk Modulus (GPa) = 35.74383 57.17447 46.45915
# Shear Modulus (GPa) = 34.04191 45.49399 39.76795
#
# Velocity S-wave (km/s) = 3.56022 4.11573 3.84801
# Velocity P-wave (km/s) = 5.49628 6.62374 6.08618
#
# Compressibility (1/GPa) = 0.02797685
#
# Stress axis : x y z
#
# Youngs Moduli (GPa) = 57.68259 109.59127 126.28243
#
# Poissons Ratio (x) = 0.00005 0.28627
# Poissons Ratio (y) = 0.00003 0.11796
# Poissons Ratio (z) = 0.13076 0.10237
#
# Static dielectric constant tensor:
#      x y z
#    x 2.172600 -0.156800 -0.016040 
#    y -0.156800 2.329440 0.091020 
#    z -0.016040 0.091020 2.177860 
# 
# From -- ./inp_files/181621.got.cif
#   From: 2010.05.17/outbox.cif.g08.bks.cpg/sg2_91_cif.got.tgz:181621.got - 2010.06.03 11:33:40.
