data_PCOD9011354
_publ_section_title
;
Structure prediction by ZEFSAII (Michael W. Deem and Ramdas Pophale) SiO2 
 PCOD9011354
Probable space group: P -1
;
_chemical_formula_sum "Si O2"
_cell_formula_units_Z 15
_cell_length_a 12.120183
_cell_length_b 13.014238
_cell_length_c 6.020545
_cell_angle_alpha 56.681239
_cell_angle_beta 55.101997
_cell_angle_gamma 69.119138
_cell_volume 649.617763
_symmetry_space_group_name_H-M "P -1"
_symmetry_group_IT_number 2
_symmetry_cell_setting 'triclinic'
loop_
_space_group_symop_operation_xyz
x,y,z
-x,-y,-z
loop_
_atom_site_type_symbol
_atom_site_label
_atom_site_fract_x
_atom_site_fract_y
_atom_site_fract_z
Si Si1 0.294334 0.318662 0.147790
Si Si2 0.509806 0.663258 0.713286
Si Si3 0.007264 0.362891 0.248735
Si Si4 0.056540 0.828863 0.796377
Si Si5 0.593658 0.878943 0.078337
Si Si6 0.500000 0.500000 0.500000
Si Si7 0.176768 0.998099 0.078874
Si Si8 0.230837 0.746806 0.079075
O O1 0.354915 0.331328 0.307245
O O2 0.134592 0.341906 0.288726
O O3 0.341007 0.186925 0.137763
O O4 0.366950 0.418280 0.795140
O O5 0.504562 0.780014 0.415358
O O6 0.493432 0.548668 0.709165
O O7 0.380763 0.687458 0.992648
O O8 0.024620 0.264151 0.147291
O O9 0.869659 0.327264 0.566704
O O10 0.000000 0.500000 0.000000
O O11 0.127346 0.921956 0.440169
O O12 0.167722 0.750637 0.901884
O O13 0.949060 0.912827 0.962943
O O14 0.500000 0.000000 0.000000
O O15 0.708024 0.918702 0.067391
O O16 0.226575 0.890094 0.984421
#
# Coordination Sequence:
#
# PCOD9011354 Si02
#       8
#     2   2   2   2   2   1   2   2
#     4  11  25  46  73 101 136 188 238 290 353 421
#     4  11  26  46  72 106 137 187 238 286 354 420
#     4  11  27  46  71 103 142 186 238 296 350 413
#     4  10  22  43  65 100 142 183 229 284 357 408
#     4  11  23  42  70 101 146 183 232 290 344 416
#     4  10  26  48  72  92 142 180 232 296 354 408
#     4  10  21  40  66 100 141 183 226 285 347 415
#     4  11  25  42  71 105 139 182 237 290 350 422
#
# _framework density 23.090503999999999
#
# number of rings (size 3 to 8) (size 9 to 14) (size 15 to 20)
#    0.000    1.333    1.333    2.400    5.600    5.867 
#    0.000    0.000    0.000    0.000    0.000    0.000 
#    0.000    0.000    0.000    0.000    0.000    0.000 
#
# Total GULP energy -83703.799764 kJ/mol
# GULP energy per Si atom -5580.253318 kJ/mol
# Density = 2.303795 g / cm^3
# Si number density = 23.090504 Si / 1000 Ang^3
#
#
#
# Elastic Constant Matrix: (Units=GPa)
#
#
# Indices 1 2 3 4 5 6 
#
# 1 119.9129 63.0562 -0.9240 4.3777 -8.9451 9.4001
# 2 63.0562 99.3339 35.6431 -0.6871 -12.8926 3.7396
# 3 -0.9240 35.6431 32.1908 -10.9160 -5.6781 2.1829
# 4 4.3777 -0.6871 -10.9160 35.0373 1.1095 4.7468
# 5 -8.9451 -12.8926 -5.6781 1.1095 25.6107 -2.8640
# 6 9.4001 3.7396 2.1829 4.7468 -2.8640 39.6809
#
#
#
# Elastic Compliance Matrix: (Units=1/GPa)
#
#
# Indices 1 2 3 4 5 6 
#
# 1 0.021454 -0.024031 0.030129 0.006904 0.001194 -0.005215
# 2 -0.024031 0.045415 -0.055700 -0.014445 0.003468 0.006455
# 3 0.030129 -0.055700 0.104806 0.029172 0.003236 -0.010910
# 4 0.006904 -0.014445 0.029172 0.037374 -0.000728 -0.006402
# 5 0.001194 0.003468 0.003236 -0.000728 0.042220 0.002347
# 6 -0.005215 0.006455 -0.010910 -0.006402 0.002347 0.027363
#
#
# Mechanical properties :
#
#
# Convention : Reuss Voigt Hill
#
# Bulk Modulus (GPa) = 13.79849 49.66535 31.73192
# Shear Modulus (GPa) = 12.43806 30.30992 21.37399
#
# Velocity S-wave (km/s) = 2.32344 3.62699 3.04577
# Velocity P-wave (km/s) = 3.63134 6.25266 5.11285
#
# Compressibility (1/GPa) = 0.07247168
#
# Stress axis : x y z
#
# Youngs Moduli (GPa) = 46.61176 22.01925 9.54147
#
# Poissons Ratio (x) = 0.52914 -0.28747
# Poissons Ratio (y) = 1.12011 0.53146
# Poissons Ratio (z) = -1.40436 1.22646
#
# Static dielectric constant tensor:
#      x y z
#    x 1.832060 -0.019170 0.013280 
#    y -0.019170 1.859100 0.012420 
#    z 0.013280 0.012420 1.867820 
# 
# From -- ./inp_files/68305.got.cif
#   From: 2010.05.17/outbox.cif.g08.bks.cpg/sg2_35_cif.got.tgz:68305.got - 2010.06.03 11:33:40.
