data_PCOD9011903
_publ_section_title
;
Structure prediction by ZEFSAII (Michael W. Deem and Ramdas Pophale) SiO2 
 PCOD9011903
Probable space group: P -1
;
_chemical_formula_sum "Si O2"
_cell_formula_units_Z 16
_cell_length_a 10.367412
_cell_length_b 20.761111
_cell_length_c 20.542333
_cell_angle_alpha 155.546768
_cell_angle_beta 155.191619
_cell_angle_gamma 33.897186
_cell_volume 767.781658
_symmetry_space_group_name_H-M "P -1"
_symmetry_group_IT_number 2
_symmetry_cell_setting 'triclinic'
loop_
_space_group_symop_operation_xyz
x,y,z
-x,-y,-z
loop_
_atom_site_type_symbol
_atom_site_label
_atom_site_fract_x
_atom_site_fract_y
_atom_site_fract_z
Si Si1 0.732637 0.335123 0.781925
Si Si2 0.641314 0.869458 0.398493
Si Si3 0.751994 0.373368 0.978095
Si Si4 0.682306 0.596238 0.568211
Si Si5 0.155009 0.836727 0.943978
Si Si6 0.714361 0.001496 0.419036
Si Si7 0.150265 0.619963 0.440448
Si Si8 0.447048 0.413695 0.167539
O O1 0.703513 0.330459 0.841716
O O2 0.616559 0.180344 0.551634
O O3 0.559586 0.482071 0.805280
O O4 0.100469 0.350333 0.953897
O O5 0.336787 0.771712 0.152309
O O6 0.889994 0.753832 0.439473
O O7 0.500000 0.000000 0.500000
O O8 0.799752 0.936081 0.468860
O O9 0.500000 0.500000 0.000000
O O10 0.059998 0.462959 0.214804
O O11 0.446455 0.671230 0.582474
O O12 0.815808 0.447136 0.533019
O O13 0.519856 0.526230 0.365075
O O14 0.922664 0.724795 0.773151
O O15 0.303858 0.725665 0.853762
O O16 0.447823 0.894275 0.171664
O O17 0.000000 0.000000 0.000000
O O18 0.000000 0.000000 0.500000
#
# Coordination Sequence:
#
# PCOD9011903 Si02
#       8
#     2   2   2   2   2   2   2   2
#     4  11  23  42  72 104 132 176 240 287 346 408
#     4  11  24  39  68 102 134 177 231 288 338 407
#     4  10  21  40  67  98 132 165 229 287 337 396
#     4  11  24  46  67  98 137 184 228 280 352 416
#     4  12  28  44  67 101 140 186 224 281 354 423
#     4  12  26  44  70 101 146 183 229 289 353 411
#     4  10  24  41  71  96 133 181 228 282 344 415
#     4  11  25  42  70  99 134 180 231 292 339 413
#
# _framework density 20.839258000000001
#
# number of rings (size 3 to 8) (size 9 to 14) (size 15 to 20)
#    0.000    1.000    3.750    1.875   10.500    1.000 
#    0.000    0.000    0.000    4.500    0.000    0.000 
#    0.000    0.000    0.000    0.000    0.000    0.000 
#
# Total GULP energy -89264.174301 kJ/mol
# GULP energy per Si atom -5579.010894 kJ/mol
# Density = 2.079183 g / cm^3
# Si number density = 20.839258 Si / 1000 Ang^3
#
#
#
# Elastic Constant Matrix: (Units=GPa)
#
#
# Indices 1 2 3 4 5 6 
#
# 1 115.3660 36.9735 33.5057 4.0361 16.6225 8.2406
# 2 36.9735 107.6121 8.4583 5.4905 9.3036 0.1993
# 3 33.5057 8.4583 104.1503 11.0169 11.9679 -1.0719
# 4 4.0361 5.4905 11.0169 27.3335 2.0549 -3.8279
# 5 16.6225 9.3036 11.9679 2.0549 37.1534 2.0017
# 6 8.2406 0.1993 -1.0719 -3.8279 2.0017 30.2416
#
#
#
# Elastic Compliance Matrix: (Units=1/GPa)
#
#
# Indices 1 2 3 4 5 6 
#
# 1 0.011281 -0.003369 -0.003039 0.000053 -0.003069 -0.002950
# 2 -0.003369 0.010600 0.000552 -0.001654 -0.001273 0.000743
# 3 -0.003039 0.000552 0.011210 -0.003891 -0.002222 0.000876
# 4 0.000053 -0.001654 -0.003891 0.039220 -0.000788 0.004875
# 5 -0.003069 -0.001273 -0.002222 -0.000788 0.029436 -0.001282
# 6 -0.002950 0.000743 0.000876 0.004875 -0.001282 0.034599
#
#
# Mechanical properties :
#
#
# Convention : Reuss Voigt Hill
#
# Bulk Modulus (GPa) = 46.77456 53.88928 50.33192
# Shear Modulus (GPa) = 32.21966 35.49176 33.85571
#
# Velocity S-wave (km/s) = 3.93632 4.13136 4.03502
# Velocity P-wave (km/s) = 6.56914 6.97662 6.77594
#
# Compressibility (1/GPa) = 0.02137914
#
# Stress axis : x y z
#
# Youngs Moduli (GPa) = 88.64078 94.34001 89.20425
#
# Poissons Ratio (x) = 0.31785 0.27110
# Poissons Ratio (y) = 0.29865 -0.04924
# Poissons Ratio (z) = 0.26939 -0.05208
#
# Static dielectric constant tensor:
#      x y z
#    x 1.747400 0.019140 0.024420 
#    y 0.019140 1.773630 -0.052380 
#    z 0.024420 -0.052380 1.864150 
# 
# From -- ./inp_files/562113.got.cif
#   From: 2010.05.17/outbox.cif.g08.bks.cpg/sg2_282_cif.got.tgz:562113.got - 2010.06.03 11:33:40.
