data_PCOD9011593
_publ_section_title
;
Structure prediction by ZEFSAII (Michael W. Deem and Ramdas Pophale) SiO2 
 PCOD9011593
Probable space group: P -1
;
_chemical_formula_sum "Si O2"
_cell_formula_units_Z 12
_cell_length_a 9.220011
_cell_length_b 9.271399
_cell_length_c 12.014411
_cell_angle_alpha 139.254446
_cell_angle_beta 116.400285
_cell_angle_gamma 84.042581
_cell_volume 550.647947
_symmetry_space_group_name_H-M "P -1"
_symmetry_group_IT_number 2
_symmetry_cell_setting 'triclinic'
loop_
_space_group_symop_operation_xyz
x,y,z
-x,-y,-z
loop_
_atom_site_type_symbol
_atom_site_label
_atom_site_fract_x
_atom_site_fract_y
_atom_site_fract_z
Si Si1 0.487291 0.510603 0.631176
Si Si2 0.690376 0.478713 0.069512
Si Si3 0.190316 0.618156 0.702402
Si Si4 0.661986 0.023360 0.641283
Si Si5 0.865422 0.910560 0.007326
Si Si6 0.010903 0.246360 0.825120
O O1 0.500000 0.500000 0.500000
O O2 0.353764 0.630557 0.690430
O O3 0.389080 0.237483 0.477471
O O4 0.693232 0.659050 0.817026
O O5 0.770222 0.485536 0.225796
O O6 0.833501 0.695547 0.174237
O O7 0.500000 0.500000 0.000000
O O8 0.686104 0.232096 0.863905
O O9 0.000000 0.500000 0.500000
O O10 0.208023 0.884728 0.889654
O O11 0.500000 0.000000 0.500000
O O12 0.812412 0.083761 0.632618
O O13 0.974752 0.893407 0.141159
O O14 0.000000 0.000000 0.000000
O O15 0.000000 0.500000 0.000000
#
# Coordination Sequence:
#
# PCOD9011593 Si02
#       6
#     2   2   2   2   2   2
#     4  12  25  43  66  96 135 182 230 288 351 416
#     4  11  24  46  72 102 142 185 234 293 351 417
#     4  12  26  45  69 104 140 183 239 295 353 421
#     4  11  23  42  68 100 136 181 232 281 346 421
#     4  12  24  44  70 100 139 183 234 293 354 421
#     4  10  21  40  66  96 133 180 225 278 343 414
#
# _framework density 21.792507000000001
#
# number of rings (size 3 to 8) (size 9 to 14) (size 15 to 20)
#    0.000    0.667    0.000   10.500    0.000    2.667 
#    0.000    7.500    0.000    0.000    0.000    0.000 
#    0.000    0.000    0.000    0.000    0.000    0.000 
#
# Total GULP energy -66835.996975 kJ/mol
# GULP energy per Si atom -5569.666415 kJ/mol
# Density = 2.174291 g / cm^3
# Si number density = 21.792507 Si / 1000 Ang^3
#
#
#
# Elastic Constant Matrix: (Units=GPa)
#
#
# Indices 1 2 3 4 5 6 
#
# 1 204.2843 62.8407 44.1435 6.2886 18.1591 15.9807
# 2 62.8407 123.6434 10.3020 2.2683 0.0573 8.8129
# 3 44.1435 10.3020 68.1102 -0.3223 19.5280 9.3443
# 4 6.2886 2.2683 -0.3223 50.5939 -3.0235 2.5492
# 5 18.1591 0.0573 19.5280 -3.0235 54.1089 4.5987
# 6 15.9807 8.8129 9.3443 2.5492 4.5987 39.0329
#
#
#
# Elastic Compliance Matrix: (Units=1/GPa)
#
#
# Indices 1 2 3 4 5 6 
#
# 1 0.006791 -0.003067 -0.003518 -0.000731 -0.000955 -0.001085
# 2 -0.003067 0.009694 0.000400 0.000065 0.000976 -0.001148
# 3 -0.003518 0.000400 0.018790 0.000346 -0.005366 -0.002538
# 4 -0.000731 0.000065 0.000346 0.019999 0.001345 -0.001263
# 5 -0.000955 0.000976 -0.005366 0.001345 0.020906 -0.001096
# 6 -0.001085 -0.001148 -0.002538 -0.001263 -0.001096 0.027142
#
#
# Mechanical properties :
#
#
# Convention : Reuss Voigt Hill
#
# Bulk Modulus (GPa) = 43.66200 70.06782 56.86491
# Shear Modulus (GPa) = 40.54206 47.33058 43.93632
#
# Velocity S-wave (km/s) = 4.31788 4.66539 4.49499
# Velocity P-wave (km/s) = 6.70355 7.82581 7.28632
#
# Compressibility (1/GPa) = 0.02290321
#
# Stress axis : x y z
#
# Youngs Moduli (GPa) = 147.24863 103.16171 53.21865
#
# Poissons Ratio (x) = 0.31642 0.18725
# Poissons Ratio (y) = 0.45164 -0.02127
# Poissons Ratio (z) = 0.51808 -0.04123
#
# Static dielectric constant tensor:
#      x y z
#    x 0.900360 0.205580 -0.360680 
#    y 0.205580 1.739750 0.075890 
#    z -0.360680 0.075890 1.735750 
# 
# From -- ./inp_files/151687.got.cif
#   From: 2010.05.17/outbox.cif.g08.bks.cpg/sg2_76_cif.got.tgz:151687.got - 2010.06.03 11:33:40.
