data_PCOD9011318
_publ_section_title
;
Structure prediction by ZEFSAII (Michael W. Deem and Ramdas Pophale) SiO2 
 PCOD9011318
Probable space group: P -1
;
_chemical_formula_sum "Si O2"
_cell_formula_units_Z 16
_cell_length_a 12.951645
_cell_length_b 8.472362
_cell_length_c 8.651177
_cell_angle_alpha 109.197303
_cell_angle_beta 53.525093
_cell_angle_gamma 106.957841
_cell_volume 715.095201
_symmetry_space_group_name_H-M "P -1"
_symmetry_group_IT_number 2
_symmetry_cell_setting 'triclinic'
loop_
_space_group_symop_operation_xyz
x,y,z
-x,-y,-z
loop_
_atom_site_type_symbol
_atom_site_label
_atom_site_fract_x
_atom_site_fract_y
_atom_site_fract_z
Si Si1 0.408332 0.786192 0.148950
Si Si2 0.138557 0.723289 0.493105
Si Si3 0.851199 0.676144 0.684627
Si Si4 0.540941 0.362168 0.656110
Si Si5 0.248788 0.261073 0.857219
Si Si6 0.292175 0.314200 0.506157
Si Si7 0.454135 0.850131 0.796475
Si Si8 0.720026 0.130212 0.304427
O O1 0.261378 0.819712 0.324023
O O2 0.431521 0.630910 0.185086
O O3 0.512242 0.949966 0.140593
O O4 0.428513 0.747958 0.942778
O O5 0.145370 0.524657 0.402598
O O6 0.166022 0.770300 0.663905
O O7 0.999972 0.761615 0.573211
O O8 0.773135 0.729562 0.619160
O O9 0.807327 0.704053 0.910954
O O10 0.392252 0.361453 0.760435
O O11 0.633806 0.497856 0.522940
O O12 0.589430 0.179828 0.519396
O O13 0.201433 0.300936 0.736415
O O14 0.258883 0.062271 0.779539
O O15 0.410447 0.205202 0.400163
O O16 0.320243 0.819404 0.813279
#
# Coordination Sequence:
#
# PCOD9011318 Si02
#       8
#     2   2   2   2   2   2   2   2
#     4  10  21  40  65  97 134 182 212 273 348 404
#     4  10  24  48  67  87 140 186 224 277 336 387
#     4  11  26  47  66  98 133 187 232 277 322 398
#     4  11  21  39  63  98 137 173 206 280 352 393
#     4  12  25  41  71  99 139 174 224 279 339 405
#     4  12  24  40  67 106 136 168 224 285 333 404
#     4  11  23  37  67 108 135 167 223 274 355 406
#     4  11  22  44  65  97 139 175 214 278 341 403
#
# _framework density 22.374644
#
# number of rings (size 3 to 8) (size 9 to 14) (size 15 to 20)
#    0.000    1.000    5.000    3.000    3.500    1.500 
#    2.250    3.750    0.000    0.000    0.000    0.000 
#    0.000    0.000    0.000    0.000    0.000    0.000 
#
# Total GULP energy -89164.374920 kJ/mol
# GULP energy per Si atom -5572.773432 kJ/mol
# Density = 2.232372 g / cm^3
# Si number density = 22.374644 Si / 1000 Ang^3
#
#
#
# Elastic Constant Matrix: (Units=GPa)
#
#
# Indices 1 2 3 4 5 6 
#
# 1 112.9610 20.8691 47.0531 0.7850 17.0857 8.2084
# 2 20.8691 70.0077 29.3125 24.3171 13.9544 -0.1122
# 3 47.0531 29.3125 105.0746 -1.0301 34.0635 0.2584
# 4 0.7850 24.3171 -1.0301 27.6371 -3.5871 7.7186
# 5 17.0857 13.9544 34.0635 -3.5871 33.4469 -8.0841
# 6 8.2084 -0.1122 0.2584 7.7186 -8.0841 29.8941
#
#
#
# Elastic Compliance Matrix: (Units=1/GPa)
#
#
# Indices 1 2 3 4 5 6 
#
# 1 0.011450 -0.002348 -0.003906 0.002562 -0.001637 -0.004223
# 2 -0.002348 0.027792 -0.004670 -0.027124 -0.007131 0.005864
# 3 -0.003906 -0.004670 0.017180 0.004143 -0.014067 -0.003967
# 4 0.002562 -0.027124 0.004143 0.065590 0.009123 -0.015309
# 5 -0.001637 -0.007131 -0.014067 0.009123 0.051974 0.012244
# 6 -0.004223 0.005864 -0.003967 -0.015309 0.012244 0.041931
#
#
# Mechanical properties :
#
#
# Convention : Reuss Voigt Hill
#
# Bulk Modulus (GPa) = 28.92435 53.61250 41.26843
# Shear Modulus (GPa) = 20.05690 30.91619 25.48655
#
# Velocity S-wave (km/s) = 2.99726 3.72122 3.37869
# Velocity P-wave (km/s) = 4.99334 6.51741 5.80561
#
# Compressibility (1/GPa) = 0.03457294
#
# Stress axis : x y z
#
# Youngs Moduli (GPa) = 87.33436 35.98185 58.20771
#
# Poissons Ratio (x) = 0.08449 0.22737
# Poissons Ratio (y) = 0.20508 0.27184
# Poissons Ratio (z) = 0.34114 0.16804
#
# Static dielectric constant tensor:
#      x y z
#    x 1.929400 -0.003230 0.124220 
#    y -0.003230 1.848190 0.032830 
#    z 0.124220 0.032830 1.984330 
# 
# From -- ./inp_files/299120.got.cif
#   From: 2010.05.17/outbox.cif.g08.bks.cpg/sg2_150_cif.got.tgz:299120.got - 2010.06.03 11:33:40.
