data_PCOD9011253
_publ_section_title
;
Structure prediction by ZEFSAII (Michael W. Deem and Ramdas Pophale) SiO2 
 PCOD9011253
Probable space group: P -1
;
_chemical_formula_sum "Si O2"
_cell_formula_units_Z 16
_cell_length_a 11.391066
_cell_length_b 13.851686
_cell_length_c 15.090118
_cell_angle_alpha 150.661034
_cell_angle_beta 36.310907
_cell_angle_gamma 127.735549
_cell_volume 656.421750
_symmetry_space_group_name_H-M "P -1"
_symmetry_group_IT_number 2
_symmetry_cell_setting 'triclinic'
loop_
_space_group_symop_operation_xyz
x,y,z
-x,-y,-z
loop_
_atom_site_type_symbol
_atom_site_label
_atom_site_fract_x
_atom_site_fract_y
_atom_site_fract_z
Si Si1 0.809228 0.170280 0.371990
Si Si2 0.046656 0.254753 0.121787
Si Si3 0.912781 0.777053 0.462847
Si Si4 0.651828 0.614986 0.846654
Si Si5 0.741732 0.996446 0.564919
Si Si6 0.298401 0.697299 0.777579
Si Si7 0.206982 0.156220 0.217549
Si Si8 0.048801 0.372475 0.958655
O O1 0.628836 0.387834 0.665659
O O2 0.948673 0.199259 0.227082
O O3 0.972228 0.150068 0.336043
O O4 0.786515 0.947703 0.186384
O O5 0.170305 0.404141 0.202117
O O6 0.851071 0.314744 0.223169
O O7 0.769261 0.868101 0.537679
O O8 0.788768 0.786404 0.636802
O O9 0.053298 0.541944 0.165302
O O10 0.061014 0.919745 0.495257
O O11 0.727262 0.693170 0.770685
O O12 0.455822 0.801320 0.146408
O O13 0.760799 0.832654 0.342640
O O14 0.500000 0.500000 0.500000
O O15 0.154293 0.693301 0.946394
O O16 0.338330 0.917776 0.927387
O O17 0.000000 0.500000 0.000000
#
# Coordination Sequence:
#
# PCOD9011253 Si02
#       8
#     2   2   2   2   2   2   2   2
#     4   9  20  39  61  91 131 169 201 261 318 374
#     4   9  20  41  62  91 136 164 201 268 325 362
#     4  10  22  42  64  86 130 172 202 267 325 356
#     4  11  23  39  69  95 126 169 218 255 314 388
#     4  10  23  44  61  92 130 168 215 259 308 389
#     4  11  24  40  69 100 127 162 215 268 315 382
#     4  10  21  40  65  95 131 156 212 273 312 369
#     4  10  23  43  64  87 133 173 205 257 323 380
#
# _framework density 24.374573000000002
#
# number of rings (size 3 to 8) (size 9 to 14) (size 15 to 20)
#    0.000    2.000    1.250    2.250    7.000    2.500 
#    0.000    1.250    0.000    0.000    0.000    0.000 
#    0.000    0.000    0.000    0.000    0.000    0.000 
#
# Total GULP energy -89401.627450 kJ/mol
# GULP energy per Si atom -5587.601716 kJ/mol
# Density = 2.431910 g / cm^3
# Si number density = 24.374573 Si / 1000 Ang^3
#
#
#
# Elastic Constant Matrix: (Units=GPa)
#
#
# Indices 1 2 3 4 5 6 
#
# 1 85.7197 25.8895 59.6832 -0.0114 13.8744 -16.1404
# 2 25.8895 58.1554 29.2663 9.9579 10.0572 -7.0463
# 3 59.6832 29.2663 209.0581 36.6378 8.2854 -7.4289
# 4 -0.0114 9.9579 36.6378 43.3447 7.2142 8.9462
# 5 13.8744 10.0572 8.2854 7.2142 32.1794 5.3028
# 6 -16.1404 -7.0463 -7.4289 8.9462 5.3028 21.3461
#
#
#
# Elastic Compliance Matrix: (Units=1/GPa)
#
#
# Indices 1 2 3 4 5 6 
#
# 1 0.020403 -0.004043 -0.005172 0.004198 -0.009258 0.012834
# 2 -0.004043 0.021941 -0.000522 -0.005307 -0.005022 0.007475
# 3 -0.005172 -0.000522 0.007459 -0.006666 0.001826 0.000853
# 4 0.004198 -0.005307 -0.006666 0.033419 -0.003619 -0.014005
# 5 -0.009258 -0.005022 0.001826 -0.003619 0.039674 -0.016361
# 6 0.012834 0.007475 0.000853 -0.014005 -0.016361 0.069249
#
#
# Mechanical properties :
#
#
# Convention : Reuss Voigt Hill
#
# Bulk Modulus (GPa) = 32.97193 64.73459 48.85326
# Shear Modulus (GPa) = 22.54991 35.24697 28.89844
#
# Velocity S-wave (km/s) = 3.04491 3.80683 3.44699
# Velocity P-wave (km/s) = 5.09103 6.77779 5.99404
#
# Compressibility (1/GPa) = 0.03032883
#
# Stress axis : x y z
#
# Youngs Moduli (GPa) = 49.01162 45.57639 134.06354
#
# Poissons Ratio (x) = 0.18428 0.69331
# Poissons Ratio (y) = 0.19817 0.07005
# Poissons Ratio (z) = 0.25347 0.02381
#
# Static dielectric constant tensor:
#      x y z
#    x 1.935960 -0.033580 0.002920 
#    y -0.033580 1.967260 0.037790 
#    z 0.002920 0.037790 1.988040 
# 
# From -- ./inp_files/522566.got.cif
#   From: 2010.05.17/outbox.cif.g08.bks.cpg/sg2_262_cif.got.tgz:522566.got - 2010.06.03 11:33:40.
