data_PCOD9011411
_publ_section_title
;
Structure prediction by ZEFSAII (Michael W. Deem and Ramdas Pophale) SiO2 
 PCOD9011411
Probable space group: P -1
;
_chemical_formula_sum "Si O2"
_cell_formula_units_Z 16
_cell_length_a 14.985746
_cell_length_b 7.442764
_cell_length_c 14.866587
_cell_angle_alpha 95.201324
_cell_angle_beta 26.516546
_cell_angle_gamma 81.379520
_cell_volume 629.923430
_symmetry_space_group_name_H-M "P -1"
_symmetry_group_IT_number 2
_symmetry_cell_setting 'triclinic'
loop_
_space_group_symop_operation_xyz
x,y,z
-x,-y,-z
loop_
_atom_site_type_symbol
_atom_site_label
_atom_site_fract_x
_atom_site_fract_y
_atom_site_fract_z
Si Si1 0.733016 0.171168 0.711551
Si Si2 0.765654 0.429629 0.238536
Si Si3 0.717319 0.609365 0.753612
Si Si4 0.438365 0.142841 0.648413
Si Si5 0.190721 0.006665 0.563754
Si Si6 0.105451 0.337981 0.090685
Si Si7 0.720361 0.632557 0.552160
Si Si8 0.761307 0.313598 0.051801
O O1 0.701997 0.400352 0.753165
O O2 0.733849 0.105398 0.604598
O O3 0.491373 0.223418 0.983878
O O4 0.000000 0.000000 0.500000
O O5 0.500000 0.500000 0.500000
O O6 0.743276 0.633201 0.220182
O O7 0.901489 0.390948 0.205699
O O8 0.854818 0.263131 0.068302
O O9 0.663137 0.711660 0.708775
O O10 0.000000 0.500000 0.500000
O O11 0.500000 0.000000 0.500000
O O12 0.664172 0.129671 0.487734
O O13 0.311144 0.121923 0.851441
O O14 0.230837 0.205235 0.537157
O O15 0.917859 0.117020 0.836805
O O16 0.962159 0.402970 0.315700
O O17 0.214863 0.489832 0.994816
O O18 0.503770 0.623434 0.709921
#
# Coordination Sequence:
#
# PCOD9011411 Si02
#       8
#     2   2   2   2   2   2   2   2
#     4  11  26  49  71 105 145 181 230 291 361 411
#     4  11  21  40  66  90 127 183 227 271 332 403
#     4  11  27  46  76 102 140 184 231 288 354 427
#     4  11  23  41  62  94 139 170 219 280 337 388
#     4  11  25  42  68  99 137 175 219 287 342 403
#     4  10  22  40  66  89 132 177 221 275 335 396
#     4  11  23  43  68  99 126 175 232 269 342 412
#     4  10  21  40  66  89 131 173 221 271 337 391
#
# _framework density 25.399913000000002
#
# number of rings (size 3 to 8) (size 9 to 14) (size 15 to 20)
#    0.000    1.250    1.250    5.250    5.250    5.000 
#    2.250    1.250    0.000    0.000    0.000    0.000 
#    0.000    0.000    0.000    0.000    0.000    0.000 
#
# Total GULP energy -89280.299296 kJ/mol
# GULP energy per Si atom -5580.018706 kJ/mol
# Density = 2.534210 g / cm^3
# Si number density = 25.399913 Si / 1000 Ang^3
#
#
#
# Elastic Constant Matrix: (Units=GPa)
#
#
# Indices 1 2 3 4 5 6 
#
# 1 102.1978 1.1435 49.5375 4.3505 18.6810 16.0078
# 2 1.1435 47.5277 19.4252 -6.7354 -3.6133 10.0178
# 3 49.5375 19.4252 220.2141 -3.4399 36.7633 19.6327
# 4 4.3505 -6.7354 -3.4399 42.4156 7.7579 -3.2677
# 5 18.6810 -3.6133 36.7633 7.7579 62.5207 3.8951
# 6 16.0078 10.0178 19.6327 -3.2677 3.8951 28.2039
#
#
#
# Elastic Compliance Matrix: (Units=1/GPa)
#
#
# Indices 1 2 3 4 5 6 
#
# 1 0.012055 0.001455 -0.002040 -0.001293 -0.001794 -0.005841
# 2 0.001455 0.024070 -0.002101 0.002454 0.002383 -0.007958
# 3 -0.002040 -0.002101 0.005835 0.000757 -0.002933 -0.001665
# 4 -0.001293 0.002454 0.000757 0.024946 -0.003179 0.002664
# 5 -0.001794 0.002383 -0.002933 -0.003179 0.018835 -0.000756
# 6 -0.005841 -0.007958 -0.001665 0.002664 -0.000756 0.043170
#
#
# Mechanical properties :
#
#
# Convention : Reuss Voigt Hill
#
# Bulk Modulus (GPa) = 27.32985 56.68356 42.00671
# Shear Modulus (GPa) = 34.13441 46.61694 40.37567
#
# Velocity S-wave (km/s) = 3.66987 4.28871 3.99130
# Velocity P-wave (km/s) = 5.36101 6.84755 6.14937
#
# Compressibility (1/GPa) = 0.03659002
#
# Stress axis : x y z
#
# Youngs Moduli (GPa) = 82.94969 41.54524 171.37281
#
# Poissons Ratio (x) = -0.06046 0.34964
# Poissons Ratio (y) = -0.12072 0.35999
# Poissons Ratio (z) = 0.16924 0.08727
#
# Static dielectric constant tensor:
#      x y z
#    x 2.015110 -0.032410 0.064940 
#    y -0.032410 2.103920 -0.033810 
#    z 0.064940 -0.033810 2.209130 
# 
# From -- ./inp_files/529864.got.cif
#   From: 2010.05.17/outbox.cif.g08.bks.cpg/sg2_265_cif.got.tgz:529864.got - 2010.06.03 11:33:40.
