data_PCOD9011425
_publ_section_title
;
Structure prediction by ZEFSAII (Michael W. Deem and Ramdas Pophale) SiO2 
 PCOD9011425
Probable space group: P -1
;
_chemical_formula_sum "Si O2"
_cell_formula_units_Z 14
_cell_length_a 8.247533
_cell_length_b 14.858968
_cell_length_c 10.923559
_cell_angle_alpha 142.157699
_cell_angle_beta 57.021616
_cell_angle_gamma 140.575799
_cell_volume 514.083274
_symmetry_space_group_name_H-M "P -1"
_symmetry_group_IT_number 2
_symmetry_cell_setting 'triclinic'
loop_
_space_group_symop_operation_xyz
x,y,z
-x,-y,-z
loop_
_atom_site_type_symbol
_atom_site_label
_atom_site_fract_x
_atom_site_fract_y
_atom_site_fract_z
Si Si1 0.052858 0.780758 0.225953
Si Si2 0.168876 0.227314 0.340854
Si Si3 0.689388 0.859935 0.057351
Si Si4 0.511335 0.628399 0.238586
Si Si5 0.218438 0.645396 0.197502
Si Si6 0.301039 0.539212 0.480384
Si Si7 0.435076 0.919304 0.802970
O O1 0.111818 0.747765 0.303342
O O2 0.807967 0.763838 0.303893
O O3 0.298550 0.973770 0.265119
O O4 0.983243 0.591974 0.979474
O O5 0.134452 0.381909 0.488463
O O6 0.402902 0.321501 0.437886
O O7 0.919690 0.997838 0.209166
O O8 0.272689 0.231655 0.167575
O O9 0.692340 0.014889 0.149522
O O10 0.422120 0.706999 0.071579
O O11 0.395193 0.717762 0.322614
O O12 0.325984 0.494353 0.283297
O O13 0.500000 0.500000 0.000000
O O14 0.255257 0.688051 0.641453
O O15 0.500000 0.000000 0.000000
#
# Coordination Sequence:
#
# PCOD9011425 Si02
#       7
#     2   2   2   2   2   2   2
#     4   9  20  38  63  94 125 169 212 269 323 381
#     4  10  22  41  66  95 131 170 218 272 323 392
#     4  10  21  41  68  93 131 175 212 269 331 388
#     4  10  21  40  66  90 127 172 217 265 321 389
#     4   9  19  38  63  95 122 170 219 257 324 396
#     4  11  24  42  64 101 128 170 224 266 327 392
#     4  11  23  41  64  97 134 168 216 272 328 390
#
# _framework density 27.232939999999999
#
# number of rings (size 3 to 8) (size 9 to 14) (size 15 to 20)
#    0.000    2.000    1.429    1.714    2.000    3.429 
#    2.571    1.429    0.000    0.000    0.000    0.000 
#    0.000    0.000    0.000    0.000    0.000    0.000 
#
# Total GULP energy -78359.600511 kJ/mol
# GULP energy per Si atom -5597.114322 kJ/mol
# Density = 2.717096 g / cm^3
# Si number density = 27.232940 Si / 1000 Ang^3
#
#
#
# Elastic Constant Matrix: (Units=GPa)
#
#
# Indices 1 2 3 4 5 6 
#
# 1 167.3617 31.0690 -6.4083 -5.7217 17.0819 -13.1647
# 2 31.0690 97.5949 22.5922 0.4758 14.6111 -5.7553
# 3 -6.4083 22.5922 78.5882 -3.8204 15.4902 -5.8215
# 4 -5.7217 0.4758 -3.8204 32.5382 -1.7600 2.1890
# 5 17.0819 14.6111 15.4902 -1.7600 30.3866 9.8822
# 6 -13.1647 -5.7553 -5.8215 2.1890 9.8822 44.4821
#
#
#
# Elastic Compliance Matrix: (Units=1/GPa)
#
#
# Indices 1 2 3 4 5 6 
#
# 1 0.007293 -0.001882 0.002533 0.001078 -0.005537 0.003423
# 2 -0.001882 0.012188 -0.002818 -0.001160 -0.003949 0.001585
# 3 0.002533 -0.002818 0.016055 0.001544 -0.009644 0.004553
# 4 0.001078 -0.001160 0.001544 0.031301 0.001464 -0.001495
# 5 -0.005537 -0.003949 -0.009644 0.001464 0.047486 -0.014033
# 6 0.003423 0.001585 0.004553 -0.001495 -0.014033 0.027486
#
#
# Mechanical properties :
#
#
# Convention : Reuss Voigt Hill
#
# Bulk Modulus (GPa) = 32.05039 48.67229 40.36134
# Shear Modulus (GPa) = 31.94010 41.23418 36.58714
#
# Velocity S-wave (km/s) = 3.42840 3.89540 3.66934
# Velocity P-wave (km/s) = 5.24084 6.17605 5.72757
#
# Compressibility (1/GPa) = 0.03120087
#
# Stress axis : x y z
#
# Youngs Moduli (GPa) = 137.12225 82.04534 62.28782
#
# Poissons Ratio (x) = 0.15445 -0.15778
# Poissons Ratio (y) = 0.25813 0.17553
# Poissons Ratio (z) = -0.34735 0.23121
#
# Static dielectric constant tensor:
#      x y z
#    x 2.172540 -0.000020 -0.045890 
#    y -0.000020 2.071200 0.079300 
#    z -0.045890 0.079300 2.251230 
# 
# From -- ./inp_files/285060.got.cif
#   From: 2010.05.17/outbox.cif.g08.bks.cpg/sg2_143_cif.got.tgz:285060.got - 2010.06.03 11:33:40.
