data_PCOD9011997
_publ_section_title
;
Structure prediction by ZEFSAII (Michael W. Deem and Ramdas Pophale) SiO2 
 PCOD9011997
Probable space group: P -1
;
_chemical_formula_sum "Si O2"
_cell_formula_units_Z 14
_cell_length_a 15.129293
_cell_length_b 5.490189
_cell_length_c 12.043519
_cell_angle_alpha 113.880073
_cell_angle_beta 136.654367
_cell_angle_gamma 88.605616
_cell_volume 566.772537
_symmetry_space_group_name_H-M "P -1"
_symmetry_group_IT_number 2
_symmetry_cell_setting 'triclinic'
loop_
_space_group_symop_operation_xyz
x,y,z
-x,-y,-z
loop_
_atom_site_type_symbol
_atom_site_label
_atom_site_fract_x
_atom_site_fract_y
_atom_site_fract_z
Si Si1 0.988263 0.668343 0.713564
Si Si2 0.391931 0.396460 0.778025
Si Si3 0.144768 0.295519 0.695058
Si Si4 0.667837 0.670163 0.668933
Si Si5 0.323274 0.724379 0.582055
Si Si6 0.801165 0.750343 0.034090
Si Si7 0.119380 0.729245 0.072483
O O1 0.832658 0.406195 0.527627
O O2 0.092986 0.547884 0.727198
O O3 0.036120 0.994249 0.767936
O O4 0.025610 0.761132 0.892808
O O5 0.241538 0.358096 0.687430
O O6 0.411498 0.604501 0.724997
O O7 0.382263 0.073033 0.683665
O O8 0.500000 0.500000 0.000000
O O9 0.240942 0.270196 0.880784
O O10 0.000000 0.000000 0.500000
O O11 0.500000 0.500000 0.500000
O O12 0.698573 0.422922 0.586903
O O13 0.757392 0.953923 0.724936
O O14 0.719039 0.799422 0.863912
O O15 0.799003 0.444632 0.939498
O O16 0.000000 0.500000 0.000000
#
# Coordination Sequence:
#
# PCOD9011997 Si02
#       7
#     2   2   2   2   2   2   2
#     4  10  22  40  70 110 141 188 251 315 381 441
#     4  12  30  49  74 108 153 202 252 320 384 464
#     4  11  23  43  74 105 145 196 253 313 376 456
#     4  11  27  45  71 106 150 203 253 311 386 476
#     4  12  27  48  77 107 148 201 258 314 386 462
#     4  10  23  40  68 104 145 188 243 317 376 445
#     4  10  21  40  68 103 144 184 242 316 379 441
#
# _framework density 24.701269
#
# number of rings (size 3 to 8) (size 9 to 14) (size 15 to 20)
#    0.000    1.143    1.429    3.000   10.000    7.429 
#    0.000    0.000    0.000    0.000    0.000    0.000 
#    0.000    0.000    0.000    0.000    0.000    0.000 
#
# Total GULP energy -78054.224529 kJ/mol
# GULP energy per Si atom -5575.301752 kJ/mol
# Density = 2.464505 g / cm^3
# Si number density = 24.701269 Si / 1000 Ang^3
#
#
#
# Elastic Constant Matrix: (Units=GPa)
#
#
# Indices 1 2 3 4 5 6 
#
# 1 84.0223 23.4440 16.5857 5.6269 -6.2367 11.5407
# 2 23.4440 92.4483 36.1943 11.6182 -12.9866 5.6639
# 3 16.5857 36.1943 110.7786 12.8497 0.9582 4.5009
# 4 5.6269 11.6182 12.8497 49.2468 -1.2358 -20.2642
# 5 -6.2367 -12.9866 0.9582 -1.2358 42.5280 -6.1166
# 6 11.5407 5.6639 4.5009 -20.2642 -6.1166 33.0469
#
#
#
# Elastic Compliance Matrix: (Units=1/GPa)
#
#
# Indices 1 2 3 4 5 6 
#
# 1 0.013829 -0.002389 -0.000627 -0.003487 0.000288 -0.006419
# 2 -0.002389 0.013894 -0.003808 -0.002768 0.003602 -0.002059
# 3 -0.000627 -0.003808 0.010859 -0.003098 -0.002003 -0.002878
# 4 -0.003487 -0.002768 -0.003098 0.031181 0.002746 0.021742
# 5 0.000288 0.003602 -0.002003 0.002746 0.025642 0.005985
# 6 -0.006419 -0.002059 -0.002878 0.021742 0.005985 0.047687
#
#
# Mechanical properties :
#
#
# Convention : Reuss Voigt Hill
#
# Bulk Modulus (GPa) = 40.10922 48.85523 44.48223
# Shear Modulus (GPa) = 30.29390 39.03268 34.66329
#
# Velocity S-wave (km/s) = 3.50581 3.97947 3.75013
# Velocity P-wave (km/s) = 5.71495 6.39815 6.06617
#
# Compressibility (1/GPa) = 0.02493192
#
# Stress axis : x y z
#
# Youngs Moduli (GPa) = 72.31369 71.97560 92.09265
#
# Poissons Ratio (x) = 0.17198 0.05774
# Poissons Ratio (y) = 0.17279 0.35070
# Poissons Ratio (z) = 0.04534 0.27409
#
# Static dielectric constant tensor:
#      x y z
#    x 2.021020 0.083260 0.014150 
#    y 0.083260 2.189630 -0.109730 
#    z 0.014150 -0.109730 2.043670 
# 
# From -- ./inp_files/28312.got.cif
#   From: 2010.05.17/outbox.cif.g08.bks.cpg/sg2_15_cif.got.tgz:28312.got - 2010.06.03 11:33:40.
