data_PCOD9011190
_publ_section_title
;
Structure prediction by ZEFSAII (Michael W. Deem and Ramdas Pophale) SiO2 
 PCOD9011190
Probable space group: P -1
;
_chemical_formula_sum "Si O2"
_cell_formula_units_Z 16
_cell_length_a 15.160025
_cell_length_b 8.692540
_cell_length_c 17.715077
_cell_angle_alpha 49.197809
_cell_angle_beta 23.762438
_cell_angle_gamma 61.718319
_cell_volume 650.304468
_symmetry_space_group_name_H-M "P -1"
_symmetry_group_IT_number 2
_symmetry_cell_setting 'triclinic'
loop_
_space_group_symop_operation_xyz
x,y,z
-x,-y,-z
loop_
_atom_site_type_symbol
_atom_site_label
_atom_site_fract_x
_atom_site_fract_y
_atom_site_fract_z
Si Si1 0.207170 0.465525 0.801383
Si Si2 0.880352 0.017191 0.007883
Si Si3 0.233969 0.030041 0.256694
Si Si4 0.026568 0.240186 0.238059
Si Si5 0.786175 0.501629 0.398599
Si Si6 0.489639 0.405900 0.299406
Si Si7 0.596105 0.058545 0.522983
Si Si8 0.730164 0.380045 0.715272
O O1 0.223977 0.477422 0.691236
O O2 0.409781 0.715318 0.577368
O O3 0.158952 0.207769 0.932957
O O4 0.000000 0.500000 0.000000
O O5 0.625023 0.022767 0.220576
O O6 0.045821 0.262903 0.771229
O O7 0.000000 0.000000 0.000000
O O8 0.262610 0.802927 0.291500
O O9 0.158288 0.096926 0.213586
O O10 0.000000 0.000000 0.500000
O O11 0.499448 0.232844 0.997485
O O12 0.881883 0.310749 0.392414
O O13 0.839750 0.121697 0.357779
O O14 0.230697 0.473563 0.977549
O O15 0.546348 0.456749 0.645872
O O16 0.346944 0.447491 0.326397
O O17 0.429293 0.147530 0.442277
O O18 0.000000 0.500000 0.500000
#
# Coordination Sequence:
#
# PCOD9011190 Si02
#       8
#     2   2   2   2   2   2   2   2
#     4  10  22  42  62  92 124 161 214 270 320 387
#     4  10  21  42  62  90 125 165 212 267 324 389
#     4  10  21  40  65  93 137 176 216 268 325 382
#     4  10  22  42  62  95 129 170 217 265 317 383
#     4  10  21  42  63  92 127 167 215 263 324 385
#     4  11  22  42  67  90 134 172 206 273 321 375
#     4  11  22  42  64  91 127 166 216 265 318 390
#     4  10  22  40  63  99 135 171 224 265 320 392
#
# _framework density 24.603860000000001
#
# number of rings (size 3 to 8) (size 9 to 14) (size 15 to 20)
#    0.000    1.750    1.250    2.625    0.000    0.500 
#   24.750    3.750    0.000    0.000    0.000    0.000 
#    0.000    0.000    0.000    0.000    0.000    0.000 
#
# Total GULP energy -89247.348151 kJ/mol
# GULP energy per Si atom -5577.959259 kJ/mol
# Density = 2.454786 g / cm^3
# Si number density = 24.603860 Si / 1000 Ang^3
#
#
#
# Elastic Constant Matrix: (Units=GPa)
#
#
# Indices 1 2 3 4 5 6 
#
# 1 81.9711 30.6580 40.4381 -7.9251 -28.5097 2.5051
# 2 30.6580 159.8307 33.1167 0.0535 -7.1848 22.7119
# 3 40.4381 33.1167 118.8956 2.8186 -21.0618 28.5347
# 4 -7.9251 0.0535 2.8186 50.3510 9.3823 3.0080
# 5 -28.5097 -7.1848 -21.0618 9.3823 40.3235 6.3491
# 6 2.5051 22.7119 28.5347 3.0080 6.3491 37.3284
#
#
#
# Elastic Compliance Matrix: (Units=1/GPa)
#
#
# Indices 1 2 3 4 5 6 
#
# 1 0.018860 -0.002515 -0.004412 0.001245 0.010003 0.001835
# 2 -0.002515 0.007377 -0.000156 -0.000173 0.000158 -0.004214
# 3 -0.004412 -0.000156 0.013749 -0.001966 0.006227 -0.011020
# 4 0.001245 -0.000173 -0.001966 0.021093 -0.005197 0.000709
# 5 0.010003 0.000158 0.006227 -0.005197 0.038189 -0.011604
# 6 0.001835 -0.004214 -0.011020 0.000709 -0.011604 0.039570
#
#
# Mechanical properties :
#
#
# Convention : Reuss Voigt Hill
#
# Bulk Modulus (GPa) = 38.72912 63.23589 50.98251
# Shear Modulus (GPa) = 30.93838 42.69955 36.81896
#
# Velocity S-wave (km/s) = 3.54992 4.17043 3.87262
# Velocity P-wave (km/s) = 5.70770 6.99624 6.38456
#
# Compressibility (1/GPa) = 0.02582036
#
# Stress axis : x y z
#
# Youngs Moduli (GPa) = 53.02219 135.55087 72.73153
#
# Poissons Ratio (x) = 0.34092 0.32089
# Poissons Ratio (y) = 0.13335 0.01135
# Poissons Ratio (z) = 0.23393 0.02115
#
# Static dielectric constant tensor:
#      x y z
#    x 2.094360 -0.028760 0.059770 
#    y -0.028760 1.930730 0.015360 
#    z 0.059770 0.015360 2.104910 
# 
# From -- ./inp_files/599438.got.cif
#   From: 2010.05.17/outbox.cif.g08.bks.cpg/sg2_300_cif.got.tgz:599438.got - 2010.06.03 11:33:40.
