data_PCOD9011466
_publ_section_title
;
Structure prediction by ZEFSAII (Michael W. Deem and Ramdas Pophale) SiO2 
 PCOD9011466
Probable space group: P -1
;
_chemical_formula_sum "Si O2"
_cell_formula_units_Z 15
_cell_length_a 6.242508
_cell_length_b 9.575697
_cell_length_c 23.663240
_cell_angle_alpha 143.263419
_cell_angle_beta 52.126568
_cell_angle_gamma 126.717217
_cell_volume 650.850608
_symmetry_space_group_name_H-M "P -1"
_symmetry_group_IT_number 2
_symmetry_cell_setting 'triclinic'
loop_
_space_group_symop_operation_xyz
x,y,z
-x,-y,-z
loop_
_atom_site_type_symbol
_atom_site_label
_atom_site_fract_x
_atom_site_fract_y
_atom_site_fract_z
Si Si1 0.508296 0.654613 0.198268
Si Si2 0.082770 0.205660 0.434448
Si Si3 0.549801 0.804122 0.364341
Si Si4 0.765169 0.203957 0.008705
Si Si5 0.954183 0.038493 0.808768
Si Si6 0.302515 0.430914 0.364549
Si Si7 0.000000 0.000000 0.500000
Si Si8 0.762153 0.454890 0.905838
O O1 0.473758 0.646795 0.268502
O O2 0.656945 0.440619 0.086852
O O3 0.271291 0.617438 0.177931
O O4 0.716580 0.908783 0.236489
O O5 0.945850 0.429656 0.543868
O O6 0.320531 0.309315 0.383106
O O7 0.158873 0.093958 0.444129
O O8 0.837288 0.002497 0.379048
O O9 0.553829 0.625604 0.359100
O O10 0.286388 0.925682 0.453138
O O11 0.996924 0.304017 0.050265
O O12 0.909130 0.104239 0.901321
O O13 0.500000 0.000000 0.000000
O O14 0.848812 0.233804 0.851155
O O15 0.790388 0.780260 0.733486
O O16 0.500000 0.500000 0.000000
#
# Coordination Sequence:
#
# PCOD9011466 Si02
#       8
#     2   2   2   2   2   2   1   2
#     4  11  22  40  64  92 127 178 215 276 329 399
#     4  10  22  44  64  90 133 170 215 273 334 391
#     4  11  23  43  66  92 134 172 219 274 338 391
#     4  11  23  39  64  94 133 172 218 275 334 397
#     4  11  21  40  64  92 131 173 224 264 336 400
#     4  10  21  40  66  92 126 174 216 267 327 400
#     4  10  22  38  66  94 120 168 216 266 324 390
#     4  11  21  41  65  91 128 176 223 270 332 397
#
# _framework density 23.046761
#
# number of rings (size 3 to 8) (size 9 to 14) (size 15 to 20)
#    0.000    1.333    4.000    3.200    1.867    0.533 
#    0.000   17.333    0.000    0.000    0.000    0.000 
#    0.000    0.000    0.000    0.000    0.000    0.000 
#
# Total GULP energy -83518.595086 kJ/mol
# GULP energy per Si atom -5567.906339 kJ/mol
# Density = 2.299431 g / cm^3
# Si number density = 23.046761 Si / 1000 Ang^3
#
#
#
# Elastic Constant Matrix: (Units=GPa)
#
#
# Indices 1 2 3 4 5 6 
#
# 1 56.9454 38.7127 18.2775 2.5222 12.4122 -14.1254
# 2 38.7127 137.2673 25.0064 -3.4355 17.7610 -10.7102
# 3 18.2775 25.0064 95.7641 5.8582 28.6864 1.0376
# 4 2.5222 -3.4355 5.8582 38.2748 -2.0486 12.0484
# 5 12.4122 17.7610 28.6864 -2.0486 30.5218 -11.0443
# 6 -14.1254 -10.7102 1.0376 12.0484 -11.0443 35.9114
#
#
#
# Elastic Compliance Matrix: (Units=1/GPa)
#
#
# Indices 1 2 3 4 5 6 
#
# 1 0.025250 -0.005847 -0.002756 -0.004830 -0.001150 0.009534
# 2 -0.005847 0.009366 -0.000598 0.001424 -0.002703 -0.000799
# 3 -0.002756 -0.000598 0.016042 -0.001223 -0.015940 -0.006218
# 4 -0.004830 0.001424 -0.001223 0.030421 0.000127 -0.011607
# 5 -0.001150 -0.002703 -0.015940 0.000127 0.055687 0.016286
# 6 0.009534 -0.000799 -0.006218 -0.011607 0.016286 0.040441
#
#
# Mechanical properties :
#
#
# Convention : Reuss Voigt Hill
#
# Bulk Modulus (GPa) = 31.00299 50.44111 40.72205
# Shear Modulus (GPa) = 24.22938 34.80693 29.51816
#
# Velocity S-wave (km/s) = 3.24591 3.89044 3.58270
# Velocity P-wave (km/s) = 5.24684 6.48958 5.90102
#
# Compressibility (1/GPa) = 0.03225495
#
# Stress axis : x y z
#
# Youngs Moduli (GPa) = 39.60426 106.76609 62.33758
#
# Poissons Ratio (x) = 0.62429 0.17179
# Poissons Ratio (y) = 0.23158 0.03731
# Poissons Ratio (z) = 0.10914 0.06389
#
# Static dielectric constant tensor:
#      x y z
#    x 1.891370 0.023170 0.002180 
#    y 0.023170 1.898310 -0.058260 
#    z 0.002180 -0.058260 1.888700 
# 
# From -- ./inp_files/116734.got.cif
#   From: 2010.05.17/outbox.cif.g08.bks.cpg/sg2_59_cif.got.tgz:116734.got - 2010.06.03 11:33:40.
