data_PCOD9011780
_publ_section_title
;
Structure prediction by ZEFSAII (Michael W. Deem and Ramdas Pophale) SiO2 
 PCOD9011780
Probable space group: P -1
;
_chemical_formula_sum "Si O2"
_cell_formula_units_Z 16
_cell_length_a 8.827285
_cell_length_b 9.003158
_cell_length_c 14.160540
_cell_angle_alpha 59.371828
_cell_angle_beta 84.445284
_cell_angle_gamma 119.386480
_cell_volume 748.102791
_symmetry_space_group_name_H-M "P -1"
_symmetry_group_IT_number 2
_symmetry_cell_setting 'triclinic'
loop_
_space_group_symop_operation_xyz
x,y,z
-x,-y,-z
loop_
_atom_site_type_symbol
_atom_site_label
_atom_site_fract_x
_atom_site_fract_y
_atom_site_fract_z
Si Si1 0.773441 0.168397 0.091047
Si Si2 0.155126 0.492506 0.873520
Si Si3 0.709707 0.241282 0.413761
Si Si4 0.019603 0.060860 0.229949
Si Si5 0.642368 0.694785 0.002248
Si Si6 0.940364 0.771660 0.619594
Si Si7 0.486314 0.682761 0.211317
Si Si8 0.330106 0.425020 0.607098
O O1 0.768113 0.335416 0.100052
O O2 0.901542 0.121180 0.158194
O O3 0.569842 0.928079 0.160394
O O4 0.917921 0.315132 0.947532
O O5 0.238558 0.634521 0.729094
O O6 0.238930 0.364277 0.927336
O O7 0.694271 0.388892 0.438936
O O8 0.881712 0.226038 0.420854
O O9 0.500000 0.000000 0.500000
O O10 0.080786 0.201967 0.275693
O O11 0.868017 0.801765 0.345034
O O12 0.192813 0.106598 0.140266
O O13 0.528847 0.711833 0.086509
O O14 0.500000 0.500000 0.000000
O O15 0.735686 0.532692 0.683640
O O16 0.000000 0.000000 0.500000
O O17 0.612798 0.630496 0.279854
O O18 0.500000 0.500000 0.500000
#
# Coordination Sequence:
#
# PCOD9011780 Si02
#       8
#     2   2   2   2   2   2   2   2
#     4   9  21  39  69  93 130 168 216 280 322 401
#     4  10  21  41  64  98 127 174 229 264 331 405
#     4  12  25  42  70  96 128 181 233 270 329 410
#     4  10  21  40  67  92 132 173 218 272 333 401
#     4  11  22  39  65  99 134 174 214 272 343 395
#     4  12  25  45  66  99 138 178 220 283 342 394
#     4  11  23  41  68 100 134 172 219 279 346 389
#     4  11  24  44  68  97 129 177 231 278 324 403
#
# _framework density 21.387433999999999
#
# number of rings (size 3 to 8) (size 9 to 14) (size 15 to 20)
#    0.000    1.250    3.750    2.250    3.500    1.500 
#    2.250    3.750    0.000    0.000    0.000    0.000 
#    0.000    0.000    0.000    0.000    0.000    0.000 
#
# Total GULP energy -89346.226922 kJ/mol
# GULP energy per Si atom -5584.139183 kJ/mol
# Density = 2.133875 g / cm^3
# Si number density = 21.387434 Si / 1000 Ang^3
#
#
#
# Elastic Constant Matrix: (Units=GPa)
#
#
# Indices 1 2 3 4 5 6 
#
# 1 64.6186 25.1037 27.2667 -12.2341 -19.9135 -9.3613
# 2 25.1037 92.3379 39.8559 -26.5426 -18.7984 0.0774
# 3 27.2667 39.8559 125.1337 -18.8366 -24.0332 -3.3329
# 4 -12.2341 -26.5426 -18.8366 50.3066 7.1960 -5.5944
# 5 -19.9135 -18.7984 -24.0332 7.1960 25.6110 -2.6981
# 6 -9.3613 0.0774 -3.3329 -5.5944 -2.6981 32.4591
#
#
#
# Elastic Compliance Matrix: (Units=1/GPa)
#
#
# Indices 1 2 3 4 5 6 
#
# 1 0.023271 -0.001879 -0.000694 0.003051 0.016103 0.008509
# 2 -0.001879 0.015291 -0.002415 0.005939 0.005900 0.000688
# 3 -0.000694 -0.002415 0.010631 0.001682 0.007381 0.001801
# 4 0.003051 0.005939 0.001682 0.024713 0.001941 0.005459
# 5 0.016103 0.005900 0.007381 0.001941 0.063436 0.010996
# 6 0.008509 0.000688 0.001801 0.005459 0.010996 0.035300
#
#
# Mechanical properties :
#
#
# Convention : Reuss Voigt Hill
#
# Bulk Modulus (GPa) = 25.49966 51.83810 38.66888
# Shear Modulus (GPa) = 25.55076 34.33292 29.94184
#
# Velocity S-wave (km/s) = 3.46014 4.01095 3.74568
# Velocity P-wave (km/s) = 5.28318 6.76317 6.06847
#
# Compressibility (1/GPa) = 0.03921622
#
# Stress axis : x y z
#
# Youngs Moduli (GPa) = 42.97209 65.39869 94.06836
#
# Poissons Ratio (x) = 0.12289 0.06525
# Poissons Ratio (y) = 0.08075 0.22721
# Poissons Ratio (z) = 0.02981 0.15796
#
# Static dielectric constant tensor:
#      x y z
#    x 1.828220 -0.026870 -0.019790 
#    y -0.026870 1.808140 0.040760 
#    z -0.019790 0.040760 1.812500 
# 
# From -- ./inp_files/223493.got.cif
#   From: 2010.05.17/outbox.cif.g08.bks.cpg/sg2_112_cif.got.tgz:223493.got - 2010.06.03 11:33:40.
