data_PCOD9011768
_publ_section_title
;
Structure prediction by ZEFSAII (Michael W. Deem and Ramdas Pophale) SiO2 
 PCOD9011768
Probable space group: P -1
;
_chemical_formula_sum "Si O2"
_cell_formula_units_Z 16
_cell_length_a 18.320467
_cell_length_b 9.098841
_cell_length_c 15.886383
_cell_angle_alpha 139.551453
_cell_angle_beta 142.054801
_cell_angle_gamma 29.083247
_cell_volume 768.335402
_symmetry_space_group_name_H-M "P -1"
_symmetry_group_IT_number 2
_symmetry_cell_setting 'triclinic'
loop_
_space_group_symop_operation_xyz
x,y,z
-x,-y,-z
loop_
_atom_site_type_symbol
_atom_site_label
_atom_site_fract_x
_atom_site_fract_y
_atom_site_fract_z
Si Si1 0.043242 0.526435 0.689528
Si Si2 0.456170 0.463607 0.309539
Si Si3 0.157634 0.941391 0.139535
Si Si4 0.345062 0.050163 0.859859
Si Si5 0.897046 0.355723 0.379818
Si Si6 0.549788 0.067956 0.388110
Si Si7 0.370013 0.843083 0.136052
Si Si8 0.715567 0.134911 0.119130
O O1 0.029964 0.701657 0.671671
O O2 0.020037 0.303509 0.535964
O O3 0.216817 0.340012 0.809182
O O4 0.907432 0.761385 0.736428
O O5 0.283664 0.648356 0.187827
O O6 0.589485 0.249588 0.264755
O O7 0.494769 0.239051 0.322086
O O8 0.456011 0.714593 0.458206
O O9 0.254718 0.895481 0.125970
O O10 0.000000 0.000000 0.000000
O O11 0.261189 0.083592 0.884185
O O12 0.500000 0.000000 0.000000
O O13 0.842856 0.171191 0.262810
O O14 0.731609 0.725250 0.395284
O O15 0.433108 0.014375 0.284998
O O16 0.533172 0.475135 0.116825
O O17 0.284108 0.948570 0.012793
#
# Coordination Sequence:
#
# PCOD9011768 Si02
#       8
#     2   2   2   2   2   2   2   2
#     4  11  24  40  63  92 130 164 199 255 317 365
#     4  11  22  40  64  96 120 166 208 250 310 365
#     4  12  24  40  61  93 127 164 204 256 314 372
#     4  12  24  40  64  94 126 163 211 255 299 372
#     4  10  21  41  64  92 127 164 202 255 312 372
#     4  10  21  40  67  92 124 158 213 259 299 369
#     4  10  22  40  63  93 122 164 208 258 307 363
#     4  10  22  39  65  91 121 165 212 253 306 366
#
# _framework density 20.824238000000001
#
# number of rings (size 3 to 8) (size 9 to 14) (size 15 to 20)
#    0.000    1.250    3.750    2.250    3.500    2.000 
#    0.000    3.750    0.000    0.000    0.000    0.000 
#    0.000    0.000    0.000    0.000    0.000    0.000 
#
# Total GULP energy -89465.321756 kJ/mol
# GULP energy per Si atom -5591.582610 kJ/mol
# Density = 2.077684 g / cm^3
# Si number density = 20.824238 Si / 1000 Ang^3
#
#
#
# Elastic Constant Matrix: (Units=GPa)
#
#
# Indices 1 2 3 4 5 6 
#
# 1 117.2859 0.3894 64.9357 -4.3256 2.7755 -9.7820
# 2 0.3894 39.0713 23.3454 -11.3338 -4.3669 -1.3177
# 3 64.9357 23.3454 101.4884 -18.1977 0.6700 4.0831
# 4 -4.3256 -11.3338 -18.1977 32.1690 -2.7898 -1.7069
# 5 2.7755 -4.3669 0.6700 -2.7898 39.8115 1.0530
# 6 -9.7820 -1.3177 4.0831 -1.7069 1.0530 24.8571
#
#
#
# Elastic Compliance Matrix: (Units=1/GPa)
#
#
# Indices 1 2 3 4 5 6 
#
# 1 0.016207 0.007063 -0.012720 -0.002111 -0.000520 0.008719
# 2 0.007063 0.035309 -0.011593 0.007538 0.003921 0.006907
# 3 -0.012720 -0.011593 0.022135 0.006251 -0.000086 -0.008823
# 4 -0.002111 0.007538 0.006251 0.037345 0.003460 0.000960
# 5 -0.000520 0.003921 -0.000086 0.003460 0.025851 -0.000840
# 6 0.008719 0.006907 -0.008823 0.000960 -0.000840 0.045578
#
#
# Mechanical properties :
#
#
# Convention : Reuss Voigt Hill
#
# Bulk Modulus (GPa) = 25.54300 48.35408 36.94854
# Shear Modulus (GPa) = 21.74141 30.64587 26.19364
#
# Velocity S-wave (km/s) = 3.23467 3.84036 3.55046
# Velocity P-wave (km/s) = 5.12283 6.55248 5.88126
#
# Compressibility (1/GPa) = 0.03914967
#
# Stress axis : x y z
#
# Youngs Moduli (GPa) = 61.70223 28.32166 45.17674
#
# Poissons Ratio (x) = -0.20002 0.57465
# Poissons Ratio (y) = -0.43578 0.52374
# Poissons Ratio (z) = 0.78486 0.32833
#
# Static dielectric constant tensor:
#      x y z
#    x 1.706780 0.001770 -0.016550 
#    y 0.001770 1.778740 0.008970 
#    z -0.016550 0.008970 1.759000 
# 
# From -- ./inp_files/331866.got.cif
#   From: 2010.05.17/outbox.cif.g08.bks.cpg/sg2_166_cif.got.tgz:331866.got - 2010.06.03 11:33:40.
