data_PCOD9011313
_publ_section_title
;
Structure prediction by ZEFSAII (Michael W. Deem and Ramdas Pophale) SiO2 
 PCOD9011313
Probable space group: P -1
;
_chemical_formula_sum "Si O2"
_cell_formula_units_Z 14
_cell_length_a 8.505551
_cell_length_b 16.975678
_cell_length_c 11.279129
_cell_angle_alpha 41.082908
_cell_angle_beta 139.957149
_cell_angle_gamma 148.997390
_cell_volume 515.755566
_symmetry_space_group_name_H-M "P -1"
_symmetry_group_IT_number 2
_symmetry_cell_setting 'triclinic'
loop_
_space_group_symop_operation_xyz
x,y,z
-x,-y,-z
loop_
_atom_site_type_symbol
_atom_site_label
_atom_site_fract_x
_atom_site_fract_y
_atom_site_fract_z
Si Si1 0.490756 0.605919 0.728613
Si Si2 0.366898 0.164823 0.005851
Si Si3 0.395944 0.859712 0.183646
Si Si4 0.979509 0.769396 0.432425
Si Si5 0.361862 0.990432 0.617222
Si Si6 0.798112 0.456343 0.612248
Si Si7 0.309851 0.292328 0.039869
O O1 0.457302 0.596194 0.580665
O O2 0.729621 0.748617 0.797479
O O3 0.146711 0.544020 0.650925
O O4 0.530383 0.479384 0.928946
O O5 0.303582 0.252803 0.779313
O O6 0.592408 0.124253 0.160821
O O7 0.458075 0.238595 0.106227
O O8 0.000000 0.000000 0.000000
O O9 0.319828 0.715494 0.228825
O O10 0.625168 0.917031 0.366606
O O11 0.046828 0.785722 0.121278
O O12 0.500000 0.000000 0.000000
O O13 0.077767 0.875987 0.486495
O O14 0.860053 0.592614 0.574118
O O15 0.311974 0.878410 0.421643
#
# Coordination Sequence:
#
# PCOD9011313 Si02
#       7
#     2   2   2   2   2   2   2
#     4   9  17  27  56  81 111 132 170 243 289 326
#     4  10  17  29  52  84 113 131 172 234 292 325
#     4  11  23  39  54  75 116 160 192 219 266 345
#     4  10  18  33  58  88 111 135 181 241 297 329
#     4  10  20  34  57  88 112 146 177 234 297 330
#     4  10  18  34  54  82 112 145 185 231 285 331
#     4  10  17  32  51  87 110 136 178 227 290 330
#
# _framework density 27.144639999999999
#
# number of rings (size 3 to 8) (size 9 to 14) (size 15 to 20)
#    0.000    2.000    4.286    2.571    0.000    2.286 
#    0.000    1.429    0.000    0.857    0.000    0.000 
#    0.000    0.000    0.000    0.000    0.000    0.000 
#
# Total GULP energy -78194.209826 kJ/mol
# GULP energy per Si atom -5585.300702 kJ/mol
# Density = 2.708286 g / cm^3
# Si number density = 27.144640 Si / 1000 Ang^3
#
#
#
# Elastic Constant Matrix: (Units=GPa)
#
#
# Indices 1 2 3 4 5 6 
#
# 1 66.9561 36.8758 -13.7817 0.5258 -7.6702 -3.3875
# 2 36.8758 153.3745 54.2257 5.4209 -13.8966 -34.5420
# 3 -13.7817 54.2257 111.7025 8.0773 -3.3802 2.5673
# 4 0.5258 5.4209 8.0773 59.6635 -7.7302 -2.1894
# 5 -7.6702 -13.8966 -3.3802 -7.7302 21.2283 0.9181
# 6 -3.3875 -34.5420 2.5673 -2.1894 0.9181 33.4306
#
#
#
# Elastic Compliance Matrix: (Units=1/GPa)
#
#
# Indices 1 2 3 4 5 6 
#
# 1 0.021625 -0.009433 0.007549 -0.000256 0.003104 -0.008237
# 2 -0.009433 0.016266 -0.009360 0.001186 0.005468 0.016497
# 3 0.007549 -0.009360 0.014748 -0.001746 -0.001249 -0.010118
# 4 -0.000256 0.001186 -0.001746 0.017859 0.006809 0.002316
# 5 0.003104 0.005468 -0.001249 0.006809 0.053871 0.005026
# 6 -0.008237 0.016497 -0.010118 0.002316 0.005026 0.046914
#
#
# Mechanical properties :
#
#
# Convention : Reuss Voigt Hill
#
# Bulk Modulus (GPa) = 33.16523 54.07475 43.61999
# Shear Modulus (GPa) = 24.53125 39.84538 32.18832
#
# Velocity S-wave (km/s) = 3.00946 3.83546 3.44729
# Velocity P-wave (km/s) = 4.93156 6.29115 5.65238
#
# Compressibility (1/GPa) = 0.03015206
#
# Stress axis : x y z
#
# Youngs Moduli (GPa) = 46.24251 61.47784 67.80405
#
# Poissons Ratio (x) = 0.57994 -0.51186
# Poissons Ratio (y) = 0.43622 0.63462
# Poissons Ratio (z) = -0.34909 0.57541
#
# Static dielectric constant tensor:
#      x y z
#    x 1.955230 -1.336690 -0.735860 
#    y -1.336690 -6.430930 -4.594830 
#    z -0.735860 -4.594830 -0.249370 
# 
# From -- ./inp_files/331632.got.cif
#   From: 2010.05.17/outbox.cif.g08.bks.cpg/sg2_166_cif.got.tgz:331632.got - 2010.06.03 11:33:40.
