data_PCOD9011001
_publ_section_title
;
Structure prediction by ZEFSAII (Michael W. Deem and Ramdas Pophale) SiO2 
 PCOD9011001
Probable space group: P -1
;
_chemical_formula_sum "Si O2"
_cell_formula_units_Z 16
_cell_length_a 13.798277
_cell_length_b 7.763758
_cell_length_c 8.173973
_cell_angle_alpha 101.917097
_cell_angle_beta 134.987704
_cell_angle_gamma 69.983817
_cell_volume 581.071210
_symmetry_space_group_name_H-M "P -1"
_symmetry_group_IT_number 2
_symmetry_cell_setting 'triclinic'
loop_
_space_group_symop_operation_xyz
x,y,z
-x,-y,-z
loop_
_atom_site_type_symbol
_atom_site_label
_atom_site_fract_x
_atom_site_fract_y
_atom_site_fract_z
Si Si1 0.069990 0.448642 0.895781
Si Si2 0.608540 0.282261 0.340816
Si Si3 0.135477 0.720816 0.536791
Si Si4 0.242919 0.155869 0.538622
Si Si5 0.723589 0.307601 0.821550
Si Si6 0.505491 0.143066 0.681177
Si Si7 0.030959 0.929091 0.791190
Si Si8 0.319757 0.196675 0.998443
O O1 0.173185 0.570132 0.985654
O O2 0.197059 0.256064 0.999880
O O3 0.000000 0.500000 0.000000
O O4 0.944555 0.433721 0.619551
O O5 0.694935 0.334209 0.303277
O O6 0.664062 0.363190 0.582152
O O7 0.440084 0.305414 0.152729
O O8 0.672513 0.061538 0.395275
O O9 0.097396 0.827586 0.681985
O O10 0.059507 0.868863 0.333646
O O11 0.344956 0.236021 0.565341
O O12 0.084867 0.167565 0.299023
O O13 0.242466 0.218801 0.737134
O O14 0.589236 0.285826 0.757377
O O15 0.838418 0.105464 0.934764
O O16 0.500000 0.000000 0.500000
O O17 0.595053 0.014792 0.906276
#
# Coordination Sequence:
#
# PCOD9011001 Si02
#       8
#     2   2   2   2   2   2   2   2
#     4  12  26  46  64  93 136 181 217 261 332 401
#     4  10  21  40  65 101 127 166 218 273 322 387
#     4  10  21  44  67  98 125 174 222 263 332 390
#     4  10  21  40  69 101 126 169 220 268 329 380
#     4  12  25  41  62 101 135 168 218 271 324 384
#     4  11  22  42  66 103 131 159 219 280 322 376
#     4  10  23  40  73  97 127 167 225 277 320 378
#     4  11  23  44  71  92 132 176 220 264 326 395
#
# _framework density 27.535350999999999
#
# number of rings (size 3 to 8) (size 9 to 14) (size 15 to 20)
#    0.000    1.250    5.000    2.250    5.250    4.000 
#    0.000    0.625    0.000    0.000    0.000    0.000 
#    0.000    0.000    0.000    0.000    0.000    0.000 
#
# Total GULP energy -89635.632690 kJ/mol
# GULP energy per Si atom -5602.227043 kJ/mol
# Density = 2.747268 g / cm^3
# Si number density = 27.535351 Si / 1000 Ang^3
#
#
#
# Elastic Constant Matrix: (Units=GPa)
#
#
# Indices 1 2 3 4 5 6 
#
# 1 206.7757 26.8029 50.0727 5.4435 51.6186 -8.1199
# 2 26.8029 63.8246 17.1995 7.2700 12.4895 15.0040
# 3 50.0727 17.1995 107.9776 2.1834 16.3510 -4.5494
# 4 5.4435 7.2700 2.1834 40.4848 2.6692 13.2369
# 5 51.6186 12.4895 16.3510 2.6692 58.3641 0.6001
# 6 -8.1199 15.0040 -4.5494 13.2369 0.6001 44.6967
#
#
#
# Elastic Compliance Matrix: (Units=1/GPa)
#
#
# Indices 1 2 3 4 5 6 
#
# 1 0.006950 -0.001710 -0.002068 -0.000807 -0.005185 0.001935
# 2 -0.001710 0.018995 -0.002221 -0.000762 -0.001827 -0.006663
# 3 -0.002068 -0.002221 0.010756 -0.000375 -0.000708 0.001585
# 4 -0.000807 -0.000762 -0.000375 0.027631 -0.000199 -0.008109
# 5 -0.005185 -0.001827 -0.000708 -0.000199 0.022324 -0.000642
# 6 0.001935 -0.006663 0.001585 -0.008109 -0.000642 0.027532
#
#
# Mechanical properties :
#
#
# Convention : Reuss Voigt Hill
#
# Bulk Modulus (GPa) = 40.48113 62.96981 51.72547
# Shear Modulus (GPa) = 37.19683 47.67597 42.43640
#
# Velocity S-wave (km/s) = 3.67941 4.16558 3.93002
# Velocity P-wave (km/s) = 5.72575 6.78634 6.27848
#
# Compressibility (1/GPa) = 0.02470287
#
# Stress axis : x y z
#
# Youngs Moduli (GPa) = 143.88615 52.64475 92.97568
#
# Poissons Ratio (x) = 0.09001 0.19224
# Poissons Ratio (y) = 0.24601 0.20654
# Poissons Ratio (z) = 0.29751 0.11695
#
# Static dielectric constant tensor:
#      x y z
#    x 2.137970 0.009090 0.017040 
#    y 0.009090 2.332770 0.010190 
#    z 0.017040 0.010190 2.103090 
# 
# From -- ./inp_files/299381.got.cif
#   From: 2010.05.17/outbox.cif.g08.bks.cpg/sg2_150_cif.got.tgz:299381.got - 2010.06.03 11:33:40.
