data_PCOD9011375
_publ_section_title
;
Structure prediction by ZEFSAII (Michael W. Deem and Ramdas Pophale) SiO2 
 PCOD9011375
Probable space group: P -1
;
_chemical_formula_sum "Si O2"
_cell_formula_units_Z 12
_cell_length_a 9.927361
_cell_length_b 6.973059
_cell_length_c 10.756556
_cell_angle_alpha 54.971230
_cell_angle_beta 121.598837
_cell_angle_gamma 86.168021
_cell_volume 441.354798
_symmetry_space_group_name_H-M "P -1"
_symmetry_group_IT_number 2
_symmetry_cell_setting 'triclinic'
loop_
_space_group_symop_operation_xyz
x,y,z
-x,-y,-z
loop_
_atom_site_type_symbol
_atom_site_label
_atom_site_fract_x
_atom_site_fract_y
_atom_site_fract_z
Si Si1 0.161872 0.059747 0.032494
Si Si2 0.528506 0.553507 0.288310
Si Si3 0.228906 0.042710 0.349900
Si Si4 0.297659 0.195097 0.584384
Si Si5 0.332900 0.362131 0.942006
Si Si6 0.100470 0.956958 0.696003
O O1 0.165970 0.302716 0.869414
O O2 0.209906 0.127424 0.167574
O O3 0.658112 0.574434 0.447914
O O4 0.000000 0.000000 0.000000
O O5 0.576797 0.245196 0.432883
O O6 0.263664 0.635959 0.887951
O O7 0.599004 0.602260 0.173159
O O8 0.322693 0.788983 0.139000
O O9 0.173775 0.161323 0.641265
O O10 0.223796 0.218365 0.400201
O O11 0.492650 0.904490 0.810949
O O12 0.942267 0.006159 0.695597
O O13 0.000000 0.000000 0.500000
#
# Coordination Sequence:
#
# PCOD9011375 Si02
#       6
#     2   2   2   2   2   2
#     4  11  27  44  67 103 138 176 223 281 344 392
#     4  11  24  45  72  98 132 184 227 269 336 403
#     4  11  25  43  67 101 142 172 223 281 335 400
#     4  10  22  40  70 101 131 176 227 276 329 390
#     4  11  23  44  72 100 132 182 230 270 332 407
#     4  10  21  40  66 104 131 171 224 278 331 386
#
# _framework density 27.189008000000001
#
# number of rings (size 3 to 8) (size 9 to 14) (size 15 to 20)
#    0.000    1.333    3.333    3.000    4.667    6.667 
#    0.000    1.667    0.000    0.000    0.000    0.000 
#    0.000    0.000    0.000    0.000    0.000    0.000 
#
# Total GULP energy -67188.191610 kJ/mol
# GULP energy per Si atom -5599.015968 kJ/mol
# Density = 2.712712 g / cm^3
# Si number density = 27.189008 Si / 1000 Ang^3
#
#
#
# Elastic Constant Matrix: (Units=GPa)
#
#
# Indices 1 2 3 4 5 6 
#
# 1 179.6822 26.8098 16.6240 3.1873 2.1831 -5.4568
# 2 26.8098 91.6032 24.3953 15.1796 5.5548 -17.3244
# 3 16.6240 24.3953 73.1990 12.0537 -14.3602 -14.9330
# 4 3.1873 15.1796 12.0537 35.0492 -11.6021 7.0099
# 5 2.1831 5.5548 -14.3602 -11.6021 38.7130 8.2161
# 6 -5.4568 -17.3244 -14.9330 7.0099 8.2161 52.1769
#
#
#
# Elastic Compliance Matrix: (Units=1/GPa)
#
#
# Indices 1 2 3 4 5 6 
#
# 1 0.005878 -0.001540 -0.000988 0.000404 -0.000317 -0.000184
# 2 -0.001540 0.015470 -0.003473 -0.009131 -0.007514 0.006391
# 3 -0.000988 -0.003473 0.017291 -0.003261 0.005291 0.003297
# 4 0.000404 -0.009131 -0.003261 0.040818 0.014802 -0.011737
# 5 -0.000317 -0.007514 0.005291 0.014802 0.035137 -0.008535
# 6 -0.000184 0.006391 0.003297 -0.011737 -0.008535 0.025133
#
#
# Mechanical properties :
#
#
# Convention : Reuss Voigt Hill
#
# Bulk Modulus (GPa) = 37.54055 53.34918 45.44486
# Shear Modulus (GPa) = 31.13229 43.63152 37.38190
#
# Velocity S-wave (km/s) = 3.38750 4.01028 3.71197
# Velocity P-wave (km/s) = 5.39791 6.41150 5.92641
#
# Compressibility (1/GPa) = 0.02663786
#
# Stress axis : x y z
#
# Youngs Moduli (GPa) = 170.13736 64.64305 57.83503
#
# Poissons Ratio (x) = 0.09952 0.05713
# Poissons Ratio (y) = 0.26193 0.20083
# Poissons Ratio (z) = 0.16808 0.22447
#
# Static dielectric constant tensor:
#      x y z
#    x 2.192830 -0.002400 0.132970 
#    y -0.002400 2.108900 -0.019070 
#    z 0.132970 -0.019070 2.236480 
# 
# From -- ./inp_files/411977.got.cif
#   From: 2010.05.17/outbox.cif.g08.bks.cpg/sg2_206_cif.got.tgz:411977.got - 2010.06.03 11:33:40.
