data_PCOD9011692
_publ_section_title
;
Structure prediction by ZEFSAII (Michael W. Deem and Ramdas Pophale) SiO2 
 PCOD9011692
Probable space group: P -1
;
_chemical_formula_sum "Si O2"
_cell_formula_units_Z 12
_cell_length_a 5.411628
_cell_length_b 11.284738
_cell_length_c 19.222176
_cell_angle_alpha 24.713390
_cell_angle_beta 78.386190
_cell_angle_gamma 76.884517
_cell_volume 477.937633
_symmetry_space_group_name_H-M "P -1"
_symmetry_group_IT_number 2
_symmetry_cell_setting 'triclinic'
loop_
_space_group_symop_operation_xyz
x,y,z
-x,-y,-z
loop_
_atom_site_type_symbol
_atom_site_label
_atom_site_fract_x
_atom_site_fract_y
_atom_site_fract_z
Si Si1 0.117254 0.835018 0.924665
Si Si2 0.220487 0.646746 0.369806
Si Si3 0.252672 0.204467 0.426976
Si Si4 0.052301 0.230598 0.272459
Si Si5 0.488060 0.066473 0.677346
Si Si6 0.717192 0.163888 0.934342
O O1 0.267844 0.898103 0.812346
O O2 0.977901 0.548931 0.079666
O O3 0.304423 0.798333 0.000229
O O4 0.921999 0.116012 0.797793
O O5 0.402650 0.370268 0.483678
O O6 0.365829 0.826387 0.320778
O O7 0.000000 0.500000 0.500000
O O8 0.074122 0.254160 0.342025
O O9 0.308781 0.524767 0.264640
O O10 0.500000 0.000000 0.500000
O O11 0.118660 0.029143 0.586969
O O12 0.322170 0.128669 0.277518
O O13 0.500000 0.000000 0.000000
O O14 0.000000 0.000000 0.000000
#
# Coordination Sequence:
#
# PCOD9011692 Si02
#       6
#     2   2   2   2   2   2
#     4  10  23  42  67 101 142 179 240 293 351 434
#     4   9  21  39  60  96 141 177 226 286 346 421
#     4  10  25  46  69  96 144 182 243 296 351 435
#     4  10  23  42  66 100 134 185 233 286 365 418
#     4  10  21  40  67 100 138 181 231 294 357 426
#     4  11  28  47  76 108 142 194 244 299 365 425
#
# _framework density 25.107879000000001
#
# number of rings (size 3 to 8) (size 9 to 14) (size 15 to 20)
#    0.000    2.000    0.000    0.500    9.333   10.000 
#    0.000    0.000    0.000    0.000    0.000    0.000 
#    0.000    0.000    0.000    0.000    0.000    0.000 
#
# Total GULP energy -67128.058490 kJ/mol
# GULP energy per Si atom -5594.004874 kJ/mol
# Density = 2.505073 g / cm^3
# Si number density = 25.107879 Si / 1000 Ang^3
#
#
#
# Elastic Constant Matrix: (Units=GPa)
#
#
# Indices 1 2 3 4 5 6 
#
# 1 81.5200 12.1890 71.6702 -2.2238 -4.0461 -1.7922
# 2 12.1890 72.6102 57.4430 6.5613 -2.3984 -3.2732
# 3 71.6702 57.4430 268.2475 -5.9115 -5.0096 -6.8413
# 4 -2.2238 6.5613 -5.9115 46.1267 4.4130 4.3629
# 5 -4.0461 -2.3984 -5.0096 4.4130 46.6869 -6.3367
# 6 -1.7922 -3.2732 -6.8413 4.3629 -6.3367 51.1355
#
#
#
# Elastic Compliance Matrix: (Units=1/GPa)
#
#
# Indices 1 2 3 4 5 6 
#
# 1 0.016120 0.000874 -0.004472 -0.000028 0.000985 0.000147
# 2 0.000874 0.017076 -0.003915 -0.003073 0.000956 0.000981
# 3 -0.004472 -0.003915 0.005791 0.001061 -0.000031 0.000273
# 4 -0.000028 -0.003073 0.001061 0.022709 -0.002506 -0.002304
# 5 0.000985 0.000956 -0.000031 -0.002506 0.022202 0.003057
# 6 0.000147 0.000981 0.000273 -0.002304 0.003057 0.020236
#
#
# Mechanical properties :
#
#
# Convention : Reuss Voigt Hill
#
# Bulk Modulus (GPa) = 41.73679 78.33136 60.03408
# Shear Modulus (GPa) = 39.32450 47.52820 43.42635
#
# Velocity S-wave (km/s) = 3.96184 4.35554 4.16335
# Velocity P-wave (km/s) = 6.13085 7.52063 6.86102
#
# Compressibility (1/GPa) = 0.02395968
#
# Stress axis : x y z
#
# Youngs Moduli (GPa) = 62.03600 58.56104 172.68155
#
# Poissons Ratio (x) = -0.05118 0.77232
# Poissons Ratio (y) = -0.05422 0.67606
# Poissons Ratio (z) = 0.27746 0.22927
#
# Static dielectric constant tensor:
#      x y z
#    x 2.037890 0.030540 -0.065970 
#    y 0.030540 2.061940 0.090720 
#    z -0.065970 0.090720 2.123960 
# 
# From -- ./inp_files/59744.got.cif
#   From: 2010.05.17/outbox.cif.g08.bks.cpg/sg2_30_cif.got.tgz:59744.got - 2010.06.03 11:33:40.
