data_PCOD9011983
_publ_section_title
;
Structure prediction by ZEFSAII (Michael W. Deem and Ramdas Pophale) SiO2 
 PCOD9011983
Probable space group: P -1
;
_chemical_formula_sum "Si O2"
_cell_formula_units_Z 16
_cell_length_a 23.492681
_cell_length_b 25.261754
_cell_length_c 5.077031
_cell_angle_alpha 79.409384
_cell_angle_beta 102.478058
_cell_angle_gamma 168.567529
_cell_volume 576.987343
_symmetry_space_group_name_H-M "P -1"
_symmetry_group_IT_number 2
_symmetry_cell_setting 'triclinic'
loop_
_space_group_symop_operation_xyz
x,y,z
-x,-y,-z
loop_
_atom_site_type_symbol
_atom_site_label
_atom_site_fract_x
_atom_site_fract_y
_atom_site_fract_z
Si Si1 0.107707 0.472517 0.059582
Si Si2 0.667836 0.596715 0.009092
Si Si3 0.531672 0.769163 0.131299
Si Si4 0.139131 0.068635 0.646672
Si Si5 0.857179 0.106707 0.680651
Si Si6 0.169214 0.676197 0.261754
Si Si7 0.377152 0.999454 0.603544
Si Si8 0.399179 0.557364 0.554216
O O1 0.280593 0.584033 0.975655
O O2 0.357461 0.733589 0.212313
O O3 0.910501 0.266576 0.269176
O O4 0.892303 0.316096 0.826132
O O5 0.432156 0.347760 0.844394
O O6 0.500000 0.500000 0.000000
O O7 0.721598 0.610056 0.314758
O O8 0.923636 0.842329 0.834328
O O9 0.378457 0.576486 0.256854
O O10 0.704289 0.947632 0.401183
O O11 0.759769 0.977914 0.930781
O O12 0.259975 0.150114 0.425385
O O13 0.000000 0.000000 0.500000
O O14 0.203050 0.416923 0.683174
O O15 0.717465 0.039549 0.660976
O O16 0.490323 0.940878 0.356072
O O17 0.000000 0.500000 0.500000
O O18 0.000000 0.500000 0.000000
#
# Coordination Sequence:
#
# PCOD9011983 Si02
#       8
#     2   2   2   2   2   2   2   2
#     4  10  21  44  68 103 142 191 244 306 368 436
#     4  12  28  49  78 110 149 190 243 301 371 437
#     4  11  26  47  71 105 150 197 248 305 369 440
#     4  12  28  49  78 110 149 190 243 301 371 437
#     4  11  26  47  71 105 150 197 248 305 369 440
#     4  10  21  40  68 102 138 188 244 305 369 435
#     4  10  21  44  68 103 142 191 244 306 368 436
#     4  12  28  44  76 103 150 192 252 294 374 437
#
# _framework density 27.730243999999999
#
# number of rings (size 3 to 8) (size 9 to 14) (size 15 to 20)
#    0.000    1.000    2.500    2.625    7.000    0.000 
#    0.000   17.500    0.000    0.000    0.000    0.000 
#    0.000    0.000    0.000    0.000    0.000    0.000 
#
# Total GULP energy -89504.442629 kJ/mol
# GULP energy per Si atom -5594.027664 kJ/mol
# Density = 2.766713 g / cm^3
# Si number density = 27.730244 Si / 1000 Ang^3
#
#
#
# Elastic Constant Matrix: (Units=GPa)
#
#
# Indices 1 2 3 4 5 6 
#
# 1 158.3384 46.2775 58.4320 2.1718 50.4215 53.2577
# 2 46.2775 198.8180 69.6601 -53.0696 6.0564 -3.1633
# 3 58.4320 69.6601 191.2550 -46.4156 22.0454 0.0065
# 4 2.1718 -53.0696 -46.4156 72.0529 -6.4081 -4.7139
# 5 50.4215 6.0564 22.0454 -6.4081 65.9636 14.3081
# 6 53.2577 -3.1633 0.0065 -4.7139 14.3081 66.9032
#
#
#
# Elastic Compliance Matrix: (Units=1/GPa)
#
#
# Indices 1 2 3 4 5 6 
#
# 1 0.015781 -0.004204 -0.004195 -0.007785 -0.008540 -0.011483
# 2 -0.004204 0.007726 -0.000341 0.006050 0.002420 0.003621
# 3 -0.004195 -0.000341 0.007859 0.005204 0.000332 0.003618
# 4 -0.007785 0.006050 0.005204 0.022775 0.004314 0.007165
# 5 -0.008540 0.002420 0.000332 0.004314 0.021192 0.002685
# 6 -0.011483 0.003621 0.003618 0.007165 0.002685 0.024189
#
#
# Mechanical properties :
#
#
# Convention : Reuss Voigt Hill
#
# Bulk Modulus (GPa) = 72.00614 99.68341 85.84478
# Shear Modulus (GPa) = 41.10850 65.92008 53.51429
#
# Velocity S-wave (km/s) = 3.85443 4.88093 4.39773
# Velocity P-wave (km/s) = 6.76992 8.23348 7.53731
#
# Compressibility (1/GPa) = 0.01388770
#
# Stress axis : x y z
#
# Youngs Moduli (GPa) = 63.36776 129.42553 127.24484
#
# Poissons Ratio (x) = 0.54412 0.53375
# Poissons Ratio (y) = 0.26640 0.04333
# Poissons Ratio (z) = 0.26581 0.04407
#
# Static dielectric constant tensor:
#      x y z
#    x 2.390250 0.016980 -0.006100 
#    y 0.016980 2.090510 0.136270 
#    z -0.006100 0.136270 2.270480 
# 
# From -- ./inp_files/127848.got.cif
#   From: 2010.05.17/outbox.cif.g08.bks.cpg/sg2_64_cif.got.tgz:127848.got - 2010.06.03 11:33:40.
