data_PCOD9011003
_publ_section_title
;
Structure prediction by ZEFSAII (Michael W. Deem and Ramdas Pophale) SiO2 
 PCOD9011003
Probable space group: P -1
;
_chemical_formula_sum "Si O2"
_cell_formula_units_Z 16
_cell_length_a 8.475017
_cell_length_b 12.942419
_cell_length_c 16.478578
_cell_angle_alpha 31.463349
_cell_angle_beta 119.264449
_cell_angle_gamma 128.766817
_cell_volume 731.027615
_symmetry_space_group_name_H-M "P -1"
_symmetry_group_IT_number 2
_symmetry_cell_setting 'triclinic'
loop_
_space_group_symop_operation_xyz
x,y,z
-x,-y,-z
loop_
_atom_site_type_symbol
_atom_site_label
_atom_site_fract_x
_atom_site_fract_y
_atom_site_fract_z
Si Si1 0.438477 0.986308 0.131312
Si Si2 0.166449 0.168051 0.171712
Si Si3 0.323601 0.664670 0.902695
Si Si4 0.391493 0.239955 0.791702
Si Si5 0.334410 0.272038 0.414729
Si Si6 0.974976 0.166097 0.275151
Si Si7 0.573013 0.031895 0.588357
Si Si8 0.045196 0.922174 0.149449
O O1 0.551632 0.848684 0.217340
O O2 0.224862 0.855789 0.215948
O O3 0.575008 0.189432 0.089680
O O4 0.394709 0.088275 0.969969
O O5 0.213599 0.969890 0.348261
O O6 0.977532 0.137297 0.199186
O O7 0.142896 0.133367 0.093482
O O8 0.315132 0.425310 0.057840
O O9 0.101351 0.652149 0.846837
O O10 0.441714 0.815928 0.754876
O O11 0.574527 0.485087 0.688099
O O12 0.168100 0.230180 0.755257
O O13 0.196079 0.242411 0.320055
O O14 0.182203 0.068567 0.568789
O O15 0.527256 0.226793 0.477591
O O16 0.500000 0.000000 0.500000
O O17 0.000000 0.000000 0.000000
#
# Coordination Sequence:
#
# PCOD9011003 Si02
#       8
#     2   2   2   2   2   2   2   2
#     4  10  21  40  65 101 130 169 231 282 324 404
#     4  12  22  41  69  98 132 171 222 286 337 387
#     4  11  23  39  69 100 131 168 222 286 345 387
#     4  10  22  42  67  89 136 183 217 276 339 393
#     4  10  22  43  62  94 137 179 215 269 347 404
#     4  10  22  39  65  99 131 164 227 280 331 412
#     4  11  23  39  63  97 136 171 214 272 338 408
#     4  10  23  40  63  98 132 169 229 275 325 405
#
# _framework density 21.886998999999999
#
# number of rings (size 3 to 8) (size 9 to 14) (size 15 to 20)
#    0.000    1.500    2.500    2.250    0.000    4.000 
#    2.250    6.250    0.000    0.000    0.000    0.000 
#    0.000    0.000    0.000    0.000    0.000    0.000 
#
# Total GULP energy -89141.280795 kJ/mol
# GULP energy per Si atom -5571.330050 kJ/mol
# Density = 2.183718 g / cm^3
# Si number density = 21.886999 Si / 1000 Ang^3
#
#
#
# Elastic Constant Matrix: (Units=GPa)
#
#
# Indices 1 2 3 4 5 6 
#
# 1 126.4679 53.2556 33.2430 -13.5266 12.0297 -14.2439
# 2 53.2556 106.9185 19.1503 -14.4572 3.7902 -19.9299
# 3 33.2430 19.1503 22.0514 -13.4256 9.7733 -2.5380
# 4 -13.5266 -14.4572 -13.4256 29.8021 -0.9542 -2.2552
# 5 12.0297 3.7902 9.7733 -0.9542 29.2560 6.9345
# 6 -14.2439 -19.9299 -2.5380 -2.2552 6.9345 41.6101
#
#
#
# Elastic Compliance Matrix: (Units=1/GPa)
#
#
# Indices 1 2 3 4 5 6 
#
# 1 0.015039 -0.003883 -0.023040 -0.005287 0.001525 0.001342
# 2 -0.003883 0.013233 -0.002509 0.003903 -0.000368 0.005129
# 3 -0.023040 -0.002509 0.123202 0.043277 -0.031369 0.005999
# 4 -0.005287 0.003903 0.043277 0.052715 -0.012896 0.007706
# 5 0.001525 -0.000368 -0.031369 -0.012896 0.046015 -0.009935
# 6 0.001342 0.005129 0.005999 0.007706 -0.009935 0.029388
#
#
# Mechanical properties :
#
#
# Convention : Reuss Voigt Hill
#
# Bulk Modulus (GPa) = 10.79781 51.85954 31.32867
# Shear Modulus (GPa) = 13.53818 30.11956 21.82887
#
# Velocity S-wave (km/s) = 2.48976 3.71366 3.16150
# Velocity P-wave (km/s) = 3.63447 6.49107 5.26039
#
# Compressibility (1/GPa) = 0.09261139
#
# Stress axis : x y z
#
# Youngs Moduli (GPa) = 66.49329 75.56736 8.11675
#
# Poissons Ratio (x) = 0.29342 0.18701
# Poissons Ratio (y) = 0.25819 0.02036
# Poissons Ratio (z) = 1.53200 0.18958
#
# Static dielectric constant tensor:
#      x y z
#    x 1.862630 0.051650 0.003190 
#    y 0.051650 1.805330 0.033090 
#    z 0.003190 0.033090 1.752570 
# 
# From -- ./inp_files/307666.got.cif
#   From: 2010.05.17/outbox.cif.g08.bks.cpg/sg2_154_cif.got.tgz:307666.got - 2010.06.03 11:33:40.
