data_PCOD9011161
_publ_section_title
;
Structure prediction by ZEFSAII (Michael W. Deem and Ramdas Pophale) SiO2 
 PCOD9011161
Probable space group: P -1
;
_chemical_formula_sum "Si O2"
_cell_formula_units_Z 16
_cell_length_a 16.810994
_cell_length_b 9.534798
_cell_length_c 13.148909
_cell_angle_alpha 41.682317
_cell_angle_beta 145.294548
_cell_angle_gamma 138.113321
_cell_volume 749.103467
_symmetry_space_group_name_H-M "P -1"
_symmetry_group_IT_number 2
_symmetry_cell_setting 'triclinic'
loop_
_space_group_symop_operation_xyz
x,y,z
-x,-y,-z
loop_
_atom_site_type_symbol
_atom_site_label
_atom_site_fract_x
_atom_site_fract_y
_atom_site_fract_z
Si Si1 0.104868 0.600367 0.461619
Si Si2 0.881042 0.454309 0.132637
Si Si3 0.243276 0.072362 0.423372
Si Si4 0.533670 0.898201 0.197969
Si Si5 0.586983 0.573075 0.756635
Si Si6 0.002168 0.267132 0.082385
Si Si7 0.254567 0.963989 0.928399
Si Si8 0.600813 0.512675 0.198840
O O1 0.266053 0.576198 0.639701
O O2 0.000000 0.500000 0.500000
O O3 0.002027 0.465387 0.336538
O O4 0.137305 0.865597 0.359029
O O5 0.834189 0.215988 0.153143
O O6 0.729197 0.499227 0.978473
O O7 0.967314 0.668474 0.037071
O O8 0.320245 0.987364 0.643688
O O9 0.356834 0.233395 0.373982
O O10 0.143652 0.203596 0.297621
O O11 0.521924 0.646614 0.296252
O O12 0.398888 0.893640 0.132823
O O13 0.500000 0.000000 0.000000
O O14 0.503283 0.609957 0.749366
O O15 0.852239 0.078824 0.063520
O O16 0.000000 0.500000 0.000000
O O17 0.318422 0.225333 0.827434
O O18 0.500000 0.500000 0.000000
#
# Coordination Sequence:
#
# PCOD9011161 Si02
#       8
#     2   2   2   2   2   2   2   2
#     4  12  27  40  62  92 130 174 218 268 321 396
#     4   9  22  41  64  91 124 168 218 262 332 381
#     4  11  25  43  66  96 133 173 216 269 333 384
#     4  11  22  41  69  98 129 172 213 268 329 389
#     4  10  23  42  66  94 128 171 218 269 320 392
#     4   9  20  42  66  96 130 164 214 272 322 388
#     4  10  21  40  65  93 126 170 209 276 315 380
#     4  12  25  40  62  95 131 174 220 266 323 384
#
# _framework density 21.358865000000002
#
# number of rings (size 3 to 8) (size 9 to 14) (size 15 to 20)
#    0.000    1.500    1.250    3.375    3.500    7.000 
#    0.000    0.000    0.000    0.000    0.000    0.000 
#    0.000    0.000    0.000    0.000    0.000    0.000 
#
# Total GULP energy -89245.819819 kJ/mol
# GULP energy per Si atom -5577.863739 kJ/mol
# Density = 2.131025 g / cm^3
# Si number density = 21.358865 Si / 1000 Ang^3
#
#
#
# Elastic Constant Matrix: (Units=GPa)
#
#
# Indices 1 2 3 4 5 6 
#
# 1 138.4394 14.2973 41.5668 1.7681 23.4056 22.1215
# 2 14.2973 88.8469 15.3340 -7.6295 -4.0684 7.5489
# 3 41.5668 15.3340 85.9769 14.9719 9.4808 -6.4483
# 4 1.7681 -7.6295 14.9719 25.1809 5.7983 -0.0247
# 5 23.4056 -4.0684 9.4808 5.7983 20.0516 -6.9597
# 6 22.1215 7.5489 -6.4483 -0.0247 -6.9597 29.4221
#
#
#
# Elastic Compliance Matrix: (Units=1/GPa)
#
#
# Indices 1 2 3 4 5 6 
#
# 1 0.017947 0.000225 -0.009197 0.010526 -0.027235 -0.022001
# 2 0.000225 0.012776 -0.003830 0.005890 0.001036 -0.004037
# 3 -0.009197 -0.003830 0.019220 -0.014233 0.010007 0.014465
# 4 0.010526 0.005890 -0.014233 0.055404 -0.026933 -0.018869
# 5 -0.027235 0.001036 0.010007 -0.026933 0.100989 0.046270
# 6 -0.022001 -0.004037 0.014465 -0.018869 0.046270 0.065665
#
#
# Mechanical properties :
#
#
# Convention : Reuss Voigt Hill
#
# Bulk Modulus (GPa) = 41.08414 50.62882 45.85648
# Shear Modulus (GPa) = 16.35489 31.06858 23.71174
#
# Velocity S-wave (km/s) = 2.77017 3.81806 3.33552
# Velocity P-wave (km/s) = 5.43219 6.57207 6.02913
#
# Compressibility (1/GPa) = 0.02434029
#
# Stress axis : x y z
#
# Youngs Moduli (GPa) = 55.71910 78.26948 52.02798
#
# Poissons Ratio (x) = -0.01763 0.47849
# Poissons Ratio (y) = -0.01255 0.19928
# Poissons Ratio (z) = 0.51244 0.29979
#
# Static dielectric constant tensor:
#      x y z
#    x 1.780550 0.014920 0.080190 
#    y 0.014920 1.789720 -0.023990 
#    z 0.080190 -0.023990 1.702720 
# 
# From -- ./inp_files/446850.got.cif
#   From: 2010.05.17/outbox.cif.g08.bks.cpg/sg2_224_cif.got.tgz:446850.got - 2010.06.03 11:33:40.
