data_PCOD9011492
_publ_section_title
;
Structure prediction by ZEFSAII (Michael W. Deem and Ramdas Pophale) SiO2 
 PCOD9011492
Probable space group: P -1
;
_chemical_formula_sum "Si O2"
_cell_formula_units_Z 16
_cell_length_a 29.698557
_cell_length_b 12.221752
_cell_length_c 18.361474
_cell_angle_alpha 30.381859
_cell_angle_beta 20.002331
_cell_angle_gamma 21.523117
_cell_volume 832.859097
_symmetry_space_group_name_H-M "P -1"
_symmetry_group_IT_number 2
_symmetry_cell_setting 'triclinic'
loop_
_space_group_symop_operation_xyz
x,y,z
-x,-y,-z
loop_
_atom_site_type_symbol
_atom_site_label
_atom_site_fract_x
_atom_site_fract_y
_atom_site_fract_z
Si Si1 0.954649 0.304486 0.655891
Si Si2 0.853685 0.339485 0.499812
Si Si3 0.439909 0.096317 0.286090
Si Si4 0.859370 0.649760 0.919899
Si Si5 0.541917 0.838159 0.950938
Si Si6 0.308858 0.788799 0.660240
Si Si7 0.992793 0.005077 0.103716
Si Si8 0.791400 0.040679 0.664342
O O1 0.000000 0.500000 0.500000
O O2 0.742529 0.525930 0.837347
O O3 0.013793 0.070767 0.761876
O O4 0.053292 0.130742 0.532301
O O5 0.704777 0.565543 0.658099
O O6 0.760827 0.306345 0.596218
O O7 0.983400 0.395504 0.250584
O O8 0.000000 0.000000 0.500000
O O9 0.356997 0.966914 0.515949
O O10 0.453139 0.059483 0.198080
O O11 0.642497 0.905188 0.120133
O O12 0.853432 0.780793 0.775824
O O13 0.919174 0.331839 0.014401
O O14 0.389417 0.832545 0.173587
O O15 0.500000 0.000000 0.000000
O O16 0.500000 0.500000 0.500000
O O17 0.148706 0.984361 0.731306
O O18 0.202085 0.759398 0.897453
#
# Coordination Sequence:
#
# PCOD9011492 Si02
#       8
#     2   2   2   2   2   2   2   2
#     4  12  25  40  62  90 131 168 200 255 326 380
#     4  10  21  40  66  93 127 162 215 269 313 364
#     4  11  22  39  66  96 125 166 213 266 314 370
#     4  10  21  41  65  93 122 161 216 263 311 373
#     4  11  23  37  61  90 129 165 207 251 316 388
#     4  11  23  36  62  92 126 162 208 262 317 366
#     4  11  25  37  61  94 126 165 213 256 319 384
#     4  10  24  41  64  92 124 164 212 257 316 374
#
# _framework density 19.210934000000002
#
# number of rings (size 3 to 8) (size 9 to 14) (size 15 to 20)
#    0.000    1.250    3.750    2.250    5.250    5.500 
#    0.000    0.625    0.000    1.500    0.000    0.000 
#    0.000    0.000    0.000    0.000    0.000    0.000 
#
# Total GULP energy -89091.424005 kJ/mol
# GULP energy per Si atom -5568.214000 kJ/mol
# Density = 1.916721 g / cm^3
# Si number density = 19.210934 Si / 1000 Ang^3
#
#
#
# Elastic Constant Matrix: (Units=GPa)
#
#
# Indices 1 2 3 4 5 6 
#
# 1 94.3469 29.1944 53.1291 2.8162 -17.5086 14.0640
# 2 29.1944 85.7026 53.9712 16.2649 0.8944 9.4303
# 3 53.1291 53.9712 123.6309 24.6929 -8.6963 9.4529
# 4 2.8162 16.2649 24.6929 32.6735 0.0260 4.2567
# 5 -17.5086 0.8944 -8.6963 0.0260 34.4288 2.5216
# 6 14.0640 9.4303 9.4529 4.2567 2.5216 25.7965
#
#
#
# Elastic Compliance Matrix: (Units=1/GPa)
#
#
# Indices 1 2 3 4 5 6 
#
# 1 0.017383 -0.002070 -0.006497 0.005480 0.007835 -0.008009
# 2 -0.002070 0.016998 -0.005854 -0.003587 -0.002819 -0.002073
# 3 -0.006497 -0.005854 0.014964 -0.008027 0.000526 0.001472
# 4 0.005480 -0.003587 -0.008027 0.038666 0.001207 -0.005233
# 5 0.007835 -0.002819 0.000526 0.001207 0.033743 -0.006931
# 6 -0.008009 -0.002073 0.001472 -0.005233 -0.006931 0.044891
#
#
# Mechanical properties :
#
#
# Convention : Reuss Voigt Hill
#
# Bulk Modulus (GPa) = 48.77667 64.02997 56.40332
# Shear Modulus (GPa) = 24.71289 29.73881 27.22585
#
# Velocity S-wave (km/s) = 3.59053 3.93875 3.76866
# Velocity P-wave (km/s) = 6.52950 7.35441 6.95420
#
# Compressibility (1/GPa) = 0.02050161
#
# Stress axis : x y z
#
# Youngs Moduli (GPa) = 57.52748 58.82875 66.82602
#
# Poissons Ratio (x) = 0.12179 0.43419
# Poissons Ratio (y) = 0.11909 0.39123
# Poissons Ratio (z) = 0.37378 0.34441
#
# Static dielectric constant tensor:
#      x y z
#    x 1.720230 0.029250 -0.018060 
#    y 0.029250 1.696500 0.007090 
#    z -0.018060 0.007090 1.684190 
# 
# From -- ./inp_files/523458.got.cif
#   From: 2010.05.17/outbox.cif.g08.bks.cpg/sg2_262_cif.got.tgz:523458.got - 2010.06.03 11:33:40.
