data_PCOD9011941
_publ_section_title
;
Structure prediction by ZEFSAII (Michael W. Deem and Ramdas Pophale) SiO2 
 PCOD9011941
Probable space group: P -1
;
_chemical_formula_sum "Si O2"
_cell_formula_units_Z 10
_cell_length_a 6.926248
_cell_length_b 9.368581
_cell_length_c 6.374824
_cell_angle_alpha 80.840373
_cell_angle_beta 66.958548
_cell_angle_gamma 72.539168
_cell_volume 362.705368
_symmetry_space_group_name_H-M "P -1"
_symmetry_group_IT_number 2
_symmetry_cell_setting 'triclinic'
loop_
_space_group_symop_operation_xyz
x,y,z
-x,-y,-z
loop_
_atom_site_type_symbol
_atom_site_label
_atom_site_fract_x
_atom_site_fract_y
_atom_site_fract_z
Si Si1 0.195634 0.855842 0.472318
Si Si2 0.729512 0.402740 0.182349
Si Si3 0.348386 0.102694 0.776989
Si Si4 0.433654 0.785168 0.984678
Si Si5 0.089485 0.398825 0.684550
O O1 0.163624 0.740616 0.686196
O O2 0.410025 0.914104 0.408713
O O3 0.270727 0.767605 0.243691
O O4 0.000000 0.000000 0.500000
O O5 0.711394 0.542702 0.310593
O O6 0.536650 0.351773 0.156218
O O7 0.895832 0.422478 0.928718
O O8 0.364183 0.181935 0.982200
O O9 0.187012 0.220168 0.671025
O O10 0.316984 0.942026 0.884726
O O11 0.000000 0.500000 0.500000
#
# Coordination Sequence:
#
# PCOD9011941 Si02
#       5
#     2   2   2   2   2
#     4  10  21  40  68 100 129 170 218 274 329 380
#     4  11  24  41  67  98 128 179 218 268 327 388
#     4   9  22  45  67  98 135 167 218 270 330 391
#     4   9  21  44  66 102 129 167 218 281 321 389
#     4  11  25  46  63  95 139 178 215 264 327 399
#
# _framework density 27.570585999999999
#
# number of rings (size 3 to 8) (size 9 to 14) (size 15 to 20)
#    1.200    0.800    0.000    2.400    0.000    7.200 
#    7.200    0.000    0.000    0.000    0.000    0.000 
#    0.000    0.000    0.000    0.000    0.000    0.000 
#
# Total GULP energy -55979.841544 kJ/mol
# GULP energy per Si atom -5597.984154 kJ/mol
# Density = 2.750783 g / cm^3
# Si number density = 27.570586 Si / 1000 Ang^3
#
#
#
# Elastic Constant Matrix: (Units=GPa)
#
#
# Indices 1 2 3 4 5 6 
#
# 1 86.5667 45.1923 25.8179 -1.9609 5.6538 -0.4782
# 2 45.1923 134.0797 53.6784 -27.0891 36.7918 8.0814
# 3 25.8179 53.6784 190.5016 -43.9796 20.1202 -10.5760
# 4 -1.9609 -27.0891 -43.9796 62.7390 -2.8759 25.0247
# 5 5.6538 36.7918 20.1202 -2.8759 26.5968 -2.7903
# 6 -0.4782 8.0814 -10.5760 25.0247 -2.7903 67.2252
#
#
#
# Elastic Compliance Matrix: (Units=1/GPa)
#
#
# Indices 1 2 3 4 5 6 
#
# 1 0.015778 -0.008449 -0.001791 -0.005251 0.009456 0.003193
# 2 -0.008449 0.019569 0.000199 0.010029 -0.025091 -0.007156
# 3 -0.001791 0.000199 0.007084 0.005197 -0.004803 -0.001056
# 4 -0.005251 0.010029 0.005197 0.027576 -0.014893 -0.011309
# 5 0.009456 -0.025091 -0.004803 -0.014893 0.073466 0.010921
# 6 0.003193 -0.007156 -0.001056 -0.011309 0.010921 0.020255
#
#
# Mechanical properties :
#
#
# Convention : Reuss Voigt Hill
#
# Bulk Modulus (GPa) = 44.74481 73.39170 59.06826
# Shear Modulus (GPa) = 26.14237 50.40949 38.27593
#
# Velocity S-wave (km/s) = 3.08262 4.28059 3.73002
# Velocity P-wave (km/s) = 5.37908 7.14903 6.32626
#
# Compressibility (1/GPa) = 0.02234896
#
# Stress axis : x y z
#
# Youngs Moduli (GPa) = 63.37965 51.10169 141.15491
#
# Poissons Ratio (x) = 0.43176 0.25284
# Poissons Ratio (y) = 0.53549 -0.02810
# Poissons Ratio (z) = 0.11353 -0.01017
#
# Static dielectric constant tensor:
#      x y z
#    x 2.191250 0.125350 0.089610 
#    y 0.125350 2.163070 0.099330 
#    z 0.089610 0.099330 2.146520 
# 
# From -- ./inp_files/15170.got.cif
#   From: 2010.05.17/outbox.cif.g08.bks.cpg/sg2_8_cif.got.tgz:15170.got - 2010.06.03 11:33:40.
