data_PCOD9011576
_publ_section_title
;
Structure prediction by ZEFSAII (Michael W. Deem and Ramdas Pophale) SiO2 
 PCOD9011576
Probable space group: P -1
;
_chemical_formula_sum "Si O2"
_cell_formula_units_Z 16
_cell_length_a 10.656872
_cell_length_b 7.752288
_cell_length_c 14.273674
_cell_angle_alpha 135.935625
_cell_angle_beta 74.895076
_cell_angle_gamma 121.205241
_cell_volume 688.974326
_symmetry_space_group_name_H-M "P -1"
_symmetry_group_IT_number 2
_symmetry_cell_setting 'triclinic'
loop_
_space_group_symop_operation_xyz
x,y,z
-x,-y,-z
loop_
_atom_site_type_symbol
_atom_site_label
_atom_site_fract_x
_atom_site_fract_y
_atom_site_fract_z
Si Si1 0.900522 0.638114 0.608368
Si Si2 0.591336 0.324280 0.141668
Si Si3 0.453854 0.595707 0.141498
Si Si4 0.941575 0.143480 0.665274
Si Si5 0.864521 0.790014 0.878959
Si Si6 0.895483 0.365738 0.055811
Si Si7 0.747807 0.774008 0.415507
Si Si8 0.623914 0.070566 0.423558
O O1 0.908895 0.677892 0.734331
O O2 0.731052 0.405981 0.525045
O O3 0.000000 0.500000 0.500000
O O4 0.939192 0.932803 0.665148
O O5 0.506806 0.464453 0.162336
O O6 0.759490 0.432850 0.113702
O O7 0.621513 0.449008 0.291043
O O8 0.500000 0.000000 0.000000
O O9 0.276793 0.450659 0.131575
O O10 0.547402 0.925086 0.283286
O O11 0.500000 0.500000 0.000000
O O12 0.987257 0.456256 0.815434
O O13 0.095317 0.225326 0.611944
O O14 0.783027 0.976583 0.577994
O O15 0.822352 0.027236 0.941132
O O16 0.000000 0.000000 0.000000
O O17 0.000000 0.500000 0.000000
O O18 0.725918 0.946567 0.401225
O O19 0.500000 0.000000 0.500000
#
# Coordination Sequence:
#
# PCOD9011576 Si02
#       8
#     2   2   2   2   2   2   2   2
#     4  12  25  43  69  99 135 180 223 273 333 403
#     4  10  21  41  67  91 130 178 220 270 337 392
#     4  11  26  45  66  97 136 177 226 277 337 402
#     4  10  21  40  66  96 125 170 223 268 326 386
#     4  12  28  43  69 104 136 174 230 282 336 401
#     4  11  23  41  67  94 134 174 218 276 331 392
#     4   9  21  38  64  93 127 167 218 273 323 386
#     4  11  23  43  65  91 138 175 214 273 336 388
#
# _framework density 23.222926000000001
#
# number of rings (size 3 to 8) (size 9 to 14) (size 15 to 20)
#    0.000    1.250    5.000    0.000    5.250    2.000 
#    0.000    0.625    0.000    0.000    0.000    0.000 
#    0.000    0.000    0.000    0.000    0.000    0.000 
#
# Total GULP energy -89176.287856 kJ/mol
# GULP energy per Si atom -5573.517991 kJ/mol
# Density = 2.317007 g / cm^3
# Si number density = 23.222926 Si / 1000 Ang^3
#
#
#
# Elastic Constant Matrix: (Units=GPa)
#
#
# Indices 1 2 3 4 5 6 
#
# 1 80.6787 5.1509 30.6306 -3.3669 13.4033 22.1355
# 2 5.1509 54.0118 37.4978 9.1477 10.8796 20.0300
# 3 30.6306 37.4978 197.7180 7.8004 36.5846 23.6025
# 4 -3.3669 9.1477 7.8004 40.3130 3.6909 -1.9309
# 5 13.4033 10.8796 36.5846 3.6909 48.8760 5.7374
# 6 22.1355 20.0300 23.6025 -1.9309 5.7374 28.2130
#
#
#
# Elastic Compliance Matrix: (Units=1/GPa)
#
#
# Indices 1 2 3 4 5 6 
#
# 1 0.017477 0.005895 -0.001294 -0.000106 -0.003231 -0.016166
# 2 0.005895 0.030573 -0.003106 -0.006717 -0.002818 -0.023619
# 3 -0.001294 -0.003106 0.006769 -0.000448 -0.003787 -0.001703
# 4 -0.000106 -0.006717 -0.000448 0.026850 -0.001022 0.007273
# 5 -0.003231 -0.002818 -0.003787 -0.001022 0.024575 0.002636
# 6 -0.016166 -0.023619 -0.001703 0.007273 0.002636 0.066284
#
#
# Mechanical properties :
#
#
# Convention : Reuss Voigt Hill
#
# Bulk Modulus (GPa) = 17.29787 53.21857 35.25822
# Shear Modulus (GPa) = 26.48218 40.75568 33.61893
#
# Velocity S-wave (km/s) = 3.38057 4.19379 3.80894
# Velocity P-wave (km/s) = 4.76471 6.81297 5.87873
#
# Compressibility (1/GPa) = 0.05781059
#
# Stress axis : x y z
#
# Youngs Moduli (GPa) = 57.21684 32.70894 147.73650
#
# Poissons Ratio (x) = -0.19283 0.19115
# Poissons Ratio (y) = -0.33731 0.45881
# Poissons Ratio (z) = 0.07403 0.10158
#
# Static dielectric constant tensor:
#      x y z
#    x 1.814590 -0.070240 0.187860 
#    y -0.070240 1.861850 0.072840 
#    z 0.187860 0.072840 1.860500 
# 
# From -- ./inp_files/307636.got.cif
#   From: 2010.05.17/outbox.cif.g08.bks.cpg/sg2_154_cif.got.tgz:307636.got - 2010.06.03 11:33:40.
