data_PCOD9011866
_publ_section_title
;
Structure prediction by ZEFSAII (Michael W. Deem and Ramdas Pophale) SiO2 
 PCOD9011866
Probable space group: P -1
;
_chemical_formula_sum "Si O2"
_cell_formula_units_Z 16
_cell_length_a 7.920757
_cell_length_b 13.723743
_cell_length_c 11.786235
_cell_angle_alpha 39.300000
_cell_angle_beta 118.102085
_cell_angle_gamma 99.760796
_cell_volume 670.814304
_symmetry_space_group_name_H-M "P -1"
_symmetry_group_IT_number 2
_symmetry_cell_setting 'triclinic'
loop_
_space_group_symop_operation_xyz
x,y,z
-x,-y,-z
loop_
_atom_site_type_symbol
_atom_site_label
_atom_site_fract_x
_atom_site_fract_y
_atom_site_fract_z
Si Si1 0.449436 0.033626 0.087732
Si Si2 0.470856 0.963589 0.391402
Si Si3 0.534619 0.396405 0.320126
Si Si4 0.005346 0.124797 0.131200
Si Si5 0.897483 0.361332 0.093706
Si Si6 0.239153 0.763913 0.264547
Si Si7 0.888036 0.683151 0.338674
Si Si8 0.037915 0.756126 0.527876
O O1 0.577116 0.001858 0.275483
O O2 0.319336 0.913326 0.170805
O O3 0.324529 0.227635 0.868699
O O4 0.500000 0.000000 0.000000
O O5 0.512089 0.769880 0.571905
O O6 0.500000 0.000000 0.500000
O O7 0.233161 0.077600 0.196978
O O8 0.592681 0.387318 0.480970
O O9 0.743735 0.362362 0.347068
O O10 0.344559 0.550061 0.083737
O O11 0.986279 0.230535 0.141493
O O12 0.834664 0.228470 0.894398
O O13 0.991770 0.947157 0.314326
O O14 0.948983 0.274366 0.308769
O O15 0.000000 0.500000 0.000000
O O16 0.035639 0.781409 0.256318
O O17 0.000000 0.500000 0.500000
O O18 0.875085 0.701655 0.453786
#
# Coordination Sequence:
#
# PCOD9011866 Si02
#       8
#     2   2   2   2   2   2   2   2
#     4  11  23  43  67  99 136 176 228 283 335 408
#     4  10  21  40  67  96 132 179 224 267 339 414
#     4   9  22  42  66  94 131 178 216 280 331 400
#     4  11  22  43  74  92 128 189 224 269 334 418
#     4  12  26  41  65 102 141 169 218 286 344 397
#     4  10  21  46  70  92 133 180 229 263 345 402
#     4  11  23  41  70  99 128 177 226 282 336 403
#     4  10  23  44  67  93 133 179 230 263 338 419
#
# _framework density 23.851609
#
# number of rings (size 3 to 8) (size 9 to 14) (size 15 to 20)
#    0.000    1.500    2.500    2.625    1.750    4.500 
#    9.000    0.000    0.000    0.000    0.000    0.000 
#    0.000    0.000    0.000    0.000    0.000    0.000 
#
# Total GULP energy -89307.543224 kJ/mol
# GULP energy per Si atom -5581.721452 kJ/mol
# Density = 2.379732 g / cm^3
# Si number density = 23.851609 Si / 1000 Ang^3
#
#
#
# Elastic Constant Matrix: (Units=GPa)
#
#
# Indices 1 2 3 4 5 6 
#
# 1 47.1857 26.6850 25.6652 11.1766 -10.0591 -17.8371
# 2 26.6850 117.9253 56.7248 26.7663 -22.4653 -32.2299
# 3 25.6652 56.7248 132.3754 42.1816 -14.2483 -21.6762
# 4 11.1766 26.7663 42.1816 52.7040 -13.4813 -5.6273
# 5 -10.0591 -22.4653 -14.2483 -13.4813 29.7074 11.5241
# 6 -17.8371 -32.2299 -21.6762 -5.6273 11.5241 32.3305
#
#
#
# Elastic Compliance Matrix: (Units=1/GPa)
#
#
# Indices 1 2 3 4 5 6 
#
# 1 0.028510 -0.001333 -0.002221 -0.001768 0.002192 0.011822
# 2 -0.001333 0.014154 -0.003050 -0.002427 0.004012 0.009477
# 3 -0.002221 -0.003050 0.012096 -0.007846 -0.002064 0.003214
# 4 -0.001768 -0.002427 -0.007846 0.028535 0.009496 -0.007073
# 5 0.002192 0.004012 -0.002064 0.009496 0.044831 -0.010503
# 6 0.011822 0.009477 0.003214 -0.007073 -0.010503 0.051568
#
#
# Mechanical properties :
#
#
# Convention : Reuss Voigt Hill
#
# Bulk Modulus (GPa) = 24.06612 57.29293 40.67952
# Shear Modulus (GPa) = 24.18350 35.50912 29.84631
#
# Velocity S-wave (km/s) = 3.18766 3.86262 3.54126
# Velocity P-wave (km/s) = 4.86416 6.63067 5.81489
#
# Compressibility (1/GPa) = 0.04155220
#
# Stress axis : x y z
#
# Youngs Moduli (GPa) = 35.07547 70.65221 82.67133
#
# Poissons Ratio (x) = 0.09418 0.18362
# Poissons Ratio (y) = 0.04676 0.25213
# Poissons Ratio (z) = 0.07790 0.21547
#
# Static dielectric constant tensor:
#      x y z
#    x 2.042750 0.009780 0.034020 
#    y 0.009780 1.910010 0.078410 
#    z 0.034020 0.078410 1.940760 
# 
# From -- ./inp_files/396982.got.cif
#   From: 2010.05.17/outbox.cif.g08.bks.cpg/sg2_199_cif.got.tgz:396982.got - 2010.06.03 11:33:40.
