data_PCOD9011555
_publ_section_title
;
Structure prediction by ZEFSAII (Michael W. Deem and Ramdas Pophale) SiO2 
 PCOD9011555
Probable space group: P -1
;
_chemical_formula_sum "Si O2"
_cell_formula_units_Z 14
_cell_length_a 12.292857
_cell_length_b 22.030247
_cell_length_c 7.011674
_cell_angle_alpha 47.288243
_cell_angle_beta 68.292199
_cell_angle_gamma 32.229200
_cell_volume 635.396851
_symmetry_space_group_name_H-M "P -1"
_symmetry_group_IT_number 2
_symmetry_cell_setting 'triclinic'
loop_
_space_group_symop_operation_xyz
x,y,z
-x,-y,-z
loop_
_atom_site_type_symbol
_atom_site_label
_atom_site_fract_x
_atom_site_fract_y
_atom_site_fract_z
Si Si1 0.475628 0.503330 0.777890
Si Si2 0.981681 0.725890 0.518828
Si Si3 0.455399 0.697536 0.409869
Si Si4 0.733718 0.023129 0.255780
Si Si5 0.795992 0.692198 0.972472
Si Si6 0.133713 0.842654 0.652617
Si Si7 0.013852 0.595497 0.421860
O O1 0.440223 0.618168 0.485935
O O2 0.251181 0.586719 0.689908
O O3 0.500000 0.500000 0.000000
O O4 0.721112 0.307445 0.983608
O O5 0.965623 0.700540 0.370111
O O6 0.819070 0.904435 0.297024
O O7 0.905826 0.697332 0.766379
O O8 0.329971 0.762983 0.554799
O O9 0.736123 0.545335 0.553164
O O10 0.318586 0.854793 0.057778
O O11 0.480844 0.150603 0.235055
O O12 0.947096 0.903510 0.522042
O O13 0.938830 0.517345 0.246753
O O14 0.814978 0.704640 0.157854
O O15 0.000000 0.000000 0.500000
#
# Coordination Sequence:
#
# PCOD9011555 Si02
#       7
#     2   2   2   2   2   2   2
#     4  10  21  40  66  95 131 172 212 267 331 388
#     4  12  23  42  70  96 131 177 226 268 331 394
#     4  10  22  45  63  93 138 164 217 276 319 398
#     4  11  24  43  64  98 135 173 215 277 326 386
#     4  10  23  46  62  95 138 168 225 279 317 395
#     4  11  24  41  66 100 133 172 214 269 343 389
#     4  10  24  42  71  94 126 181 222 270 336 383
#
# _framework density 22.033476
#
# number of rings (size 3 to 8) (size 9 to 14) (size 15 to 20)
#    0.000    1.429    2.857    3.000    4.000    2.286 
#    7.714    0.000    0.000    0.000    0.000    0.000 
#    0.000    0.000    0.000    0.000    0.000    0.000 
#
# Total GULP energy -78287.322169 kJ/mol
# GULP energy per Si atom -5591.951583 kJ/mol
# Density = 2.198333 g / cm^3
# Si number density = 22.033476 Si / 1000 Ang^3
#
#
#
# Elastic Constant Matrix: (Units=GPa)
#
#
# Indices 1 2 3 4 5 6 
#
# 1 107.8219 30.5560 41.8529 -1.4417 -28.6862 3.0626
# 2 30.5560 61.7200 45.6227 -6.2165 -24.5995 0.3417
# 3 41.8529 45.6227 85.1302 -16.0315 -28.3798 -1.3968
# 4 -1.4417 -6.2165 -16.0315 25.0571 9.8703 -8.6053
# 5 -28.6862 -24.5995 -28.3798 9.8703 34.1292 -0.6501
# 6 3.0626 0.3417 -1.3968 -8.6053 -0.6501 42.5477
#
#
#
# Elastic Compliance Matrix: (Units=1/GPa)
#
#
# Indices 1 2 3 4 5 6 
#
# 1 0.013641 -0.000142 -0.004875 -0.006826 0.009238 -0.002380
# 2 -0.000142 0.030524 -0.013336 -0.006576 0.012659 -0.001809
# 3 -0.004875 -0.013336 0.024807 0.012226 0.003454 0.003798
# 4 -0.006826 -0.006576 0.012226 0.056302 -0.016363 0.012083
# 5 0.009238 0.012659 0.003454 -0.016363 0.053735 -0.003142
# 6 -0.002380 -0.001809 0.003798 0.012083 -0.003142 0.026209
#
#
# Mechanical properties :
#
#
# Convention : Reuss Voigt Hill
#
# Bulk Modulus (GPa) = 30.99340 54.52616 42.75978
# Shear Modulus (GPa) = 19.78791 29.45616 24.62203
#
# Velocity S-wave (km/s) = 3.00006 3.66031 3.34650
# Velocity P-wave (km/s) = 5.10857 6.53180 5.86353
#
# Compressibility (1/GPa) = 0.03226494
#
# Stress axis : x y z
#
# Youngs Moduli (GPa) = 73.30628 32.76155 40.31152
#
# Poissons Ratio (x) = 0.00466 0.19652
# Poissons Ratio (y) = 0.01042 0.53760
# Poissons Ratio (z) = 0.35738 0.43691
#
# Static dielectric constant tensor:
#      x y z
#    x 1.800720 0.010550 -0.018460 
#    y 0.010550 1.829320 0.019690 
#    z -0.018460 0.019690 1.844650 
# 
# From -- ./inp_files/284614.got.cif
#   From: 2010.05.17/outbox.cif.g08.bks.cpg/sg2_143_cif.got.tgz:284614.got - 2010.06.03 11:33:40.
