data_PCOD9011277
_publ_section_title
;
Structure prediction by ZEFSAII (Michael W. Deem and Ramdas Pophale) SiO2 
 PCOD9011277
Probable space group: P -1
;
_chemical_formula_sum "Si O2"
_cell_formula_units_Z 16
_cell_length_a 15.825032
_cell_length_b 6.371524
_cell_length_c 15.782318
_cell_angle_alpha 74.080202
_cell_angle_beta 146.861109
_cell_angle_gamma 89.325979
_cell_volume 743.117286
_symmetry_space_group_name_H-M "P -1"
_symmetry_group_IT_number 2
_symmetry_cell_setting 'triclinic'
loop_
_space_group_symop_operation_xyz
x,y,z
-x,-y,-z
loop_
_atom_site_type_symbol
_atom_site_label
_atom_site_fract_x
_atom_site_fract_y
_atom_site_fract_z
Si Si1 0.671018 0.777265 0.046313
Si Si2 0.178701 0.634703 0.912663
Si Si3 0.106441 0.053420 0.676044
Si Si4 0.276713 0.649284 0.742047
Si Si5 0.625459 0.115238 0.618650
Si Si6 0.471991 0.332731 0.782462
Si Si7 0.391747 0.397505 0.521586
Si Si8 0.090738 0.330415 0.174728
O O1 0.741484 0.634079 0.033476
O O2 0.642123 0.580698 0.100399
O O3 0.821683 0.809400 0.217644
O O4 0.519208 0.054929 0.880292
O O5 0.087632 0.844882 0.740252
O O6 0.046355 0.660541 0.872153
O O7 0.342582 0.670725 0.077767
O O8 0.251504 0.891840 0.745690
O O9 0.928046 0.250060 0.463344
O O10 0.377896 0.540423 0.751793
O O11 0.575153 0.175479 0.668118
O O12 0.585215 0.365858 0.509902
O O13 0.500000 0.000000 0.500000
O O14 0.811471 0.931357 0.760276
O O15 0.365982 0.390483 0.600213
O O16 0.234351 0.389997 0.336664
O O17 0.000000 0.500000 0.000000
#
# Coordination Sequence:
#
# PCOD9011277 Si02
#       8
#     2   2   2   2   2   2   2   2
#     4  10  22  41  63  93 134 172 217 266 323 389
#     4  10  25  41  61  96 136 167 221 272 322 381
#     4   9  21  42  64  94 132 172 217 272 319 390
#     4  10  21  40  65  96 128 175 217 268 324 380
#     4   9  22  44  67  92 127 163 218 265 324 385
#     4  11  25  39  66  96 134 169 218 271 321 387
#     4  10  24  44  68  98 128 174 217 265 328 394
#     4  11  26  43  69  97 130 174 215 271 327 390
#
# _framework density 21.530923000000001
#
# number of rings (size 3 to 8) (size 9 to 14) (size 15 to 20)
#    0.000    2.000    0.000    0.750   10.500    8.000 
#    0.000    0.000    0.000    0.000    0.000    0.000 
#    0.000    0.000    0.000    0.000    0.000    0.000 
#
# Total GULP energy -89265.744969 kJ/mol
# GULP energy per Si atom -5579.109061 kJ/mol
# Density = 2.148192 g / cm^3
# Si number density = 21.530923 Si / 1000 Ang^3
#
#
#
# Elastic Constant Matrix: (Units=GPa)
#
#
# Indices 1 2 3 4 5 6 
#
# 1 158.8855 51.2788 47.5178 -2.2593 9.8552 -21.1117
# 2 51.2788 104.3775 33.2045 -4.4471 7.2620 -8.8474
# 3 47.5178 33.2045 91.6248 0.6703 -5.0415 -9.4932
# 4 -2.2593 -4.4471 0.6703 23.6389 -8.2349 2.7328
# 5 9.8552 7.2620 -5.0415 -8.2349 30.1227 2.5710
# 6 -21.1117 -8.8474 -9.4932 2.7328 2.5710 35.3764
#
#
#
# Elastic Compliance Matrix: (Units=1/GPa)
#
#
# Indices 1 2 3 4 5 6 
#
# 1 0.008950 -0.002779 -0.003395 -0.001271 -0.003523 0.004089
# 2 -0.002779 0.012176 -0.003038 0.001255 -0.002246 0.000638
# 3 -0.003395 -0.003038 0.014075 0.000076 0.004161 0.000683
# 4 -0.001271 0.001255 0.000076 0.047748 0.013615 -0.005102
# 5 -0.003523 -0.002246 0.004161 0.013615 0.039778 -0.005490
# 6 0.004089 0.000638 0.000683 -0.005102 -0.005490 0.031844
#
#
# Mechanical properties :
#
#
# Convention : Reuss Voigt Hill
#
# Bulk Modulus (GPa) = 59.60806 68.76554 64.18680
# Shear Modulus (GPa) = 27.99729 32.68673 30.34201
#
# Velocity S-wave (km/s) = 3.60992 3.90055 3.75804
# Velocity P-wave (km/s) = 6.71717 7.23139 6.97902
#
# Compressibility (1/GPa) = 0.01677625
#
# Stress axis : x y z
#
# Youngs Moduli (GPa) = 111.73136 82.12712 71.04811
#
# Poissons Ratio (x) = 0.22826 0.24123
# Poissons Ratio (y) = 0.31054 0.21584
# Poissons Ratio (z) = 0.37935 0.24950
#
# Static dielectric constant tensor:
#      x y z
#    x 1.792720 0.001790 0.007530 
#    y 0.001790 1.727720 0.043410 
#    z 0.007530 0.043410 1.749170 
# 
# From -- ./inp_files/525620.got.cif
#   From: 2010.05.17/outbox.cif.g08.bks.cpg/sg2_263_cif.got.tgz:525620.got - 2010.06.03 11:33:40.
