data_PCOD9011233
_publ_section_title
;
Structure prediction by ZEFSAII (Michael W. Deem and Ramdas Pophale) SiO2 
 PCOD9011233
Probable space group: P -1
;
_chemical_formula_sum "Si O2"
_cell_formula_units_Z 14
_cell_length_a 7.644673
_cell_length_b 21.829754
_cell_length_c 20.497304
_cell_angle_alpha 160.554758
_cell_angle_beta 44.656620
_cell_angle_gamma 123.684538
_cell_volume 694.823428
_symmetry_space_group_name_H-M "P -1"
_symmetry_group_IT_number 2
_symmetry_cell_setting 'triclinic'
loop_
_space_group_symop_operation_xyz
x,y,z
-x,-y,-z
loop_
_atom_site_type_symbol
_atom_site_label
_atom_site_fract_x
_atom_site_fract_y
_atom_site_fract_z
Si Si1 0.600295 0.265386 0.710407
Si Si2 0.484731 0.966798 0.881826
Si Si3 0.612353 0.262721 0.210573
Si Si4 0.909351 0.115309 0.341195
Si Si5 0.980959 0.429323 0.008788
Si Si6 0.880652 0.064018 0.668562
Si Si7 0.544754 0.861623 0.610568
O O1 0.727878 0.221106 0.559478
O O2 0.301008 0.267586 0.785611
O O3 0.853375 0.089398 0.509889
O O4 0.500000 0.500000 0.000000
O O5 0.335405 0.872506 0.872495
O O6 0.462383 0.938696 0.783470
O O7 0.825887 0.838851 0.681645
O O8 0.406476 0.203580 0.162985
O O9 0.500000 0.500000 0.500000
O O10 0.905805 0.144111 0.971647
O O11 0.694007 0.172259 0.395961
O O12 0.804689 0.306009 0.937279
O O13 0.000000 0.500000 0.000000
O O14 0.834699 0.636229 0.300346
O O15 0.622816 0.020342 0.710441
O O16 0.000000 0.000000 0.500000
#
# Coordination Sequence:
#
# PCOD9011233 Si02
#       7
#     2   2   2   2   2   2   2
#     4  12  21  40  66  91 135 177 211 268 321 377
#     4   9  21  42  64  90 125 161 203 271 323 378
#     4   9  20  44  68  90 127 161 210 272 324 386
#     4  10  21  40  65  95 125 168 213 259 326 387
#     4  12  23  40  60  89 134 177 215 263 316 379
#     4  12  23  39  59  90 129 175 224 266 308 382
#     4  12  23  41  63  95 133 165 219 265 321 384
#
# _framework density 20.149003
#
# number of rings (size 3 to 8) (size 9 to 14) (size 15 to 20)
#    0.857    0.286    5.714    0.429    0.000    2.857 
#    2.571    2.143    0.000    0.000    0.000    0.000 
#    0.000    0.000    0.000    0.000    0.000    0.000 
#
# Total GULP energy -77968.503722 kJ/mol
# GULP energy per Si atom -5569.178837 kJ/mol
# Density = 2.010314 g / cm^3
# Si number density = 20.149003 Si / 1000 Ang^3
#
#
#
# Elastic Constant Matrix: (Units=GPa)
#
#
# Indices 1 2 3 4 5 6 
#
# 1 98.0421 27.5590 10.1809 -8.0439 10.7722 -19.7046
# 2 27.5590 64.9594 28.9489 -2.8468 26.8608 -6.8767
# 3 10.1809 28.9489 120.0720 -3.3571 37.6982 -4.6071
# 4 -8.0439 -2.8468 -3.3571 32.7757 -2.3816 9.4724
# 5 10.7722 26.8608 37.6982 -2.3816 43.4513 -13.6276
# 6 -19.7046 -6.8767 -4.6071 9.4724 -13.6276 35.2309
#
#
#
# Elastic Compliance Matrix: (Units=1/GPa)
#
#
# Indices 1 2 3 4 5 6 
#
# 1 0.013020 -0.005790 -0.000315 0.000848 0.002864 0.006990
# 2 -0.005790 0.023467 -0.001105 0.000739 -0.013383 -0.004178
# 3 -0.000315 -0.001105 0.011803 0.001204 -0.010417 -0.003202
# 4 0.000848 0.000739 0.001204 0.033385 -0.002792 -0.009280
# 5 0.002864 -0.013383 -0.010417 -0.002792 0.044331 0.015526
# 6 0.006990 -0.004178 -0.003202 -0.009280 0.015526 0.039560
#
#
# Mechanical properties :
#
#
# Convention : Reuss Voigt Hill
#
# Bulk Modulus (GPa) = 29.52551 46.27233 37.89892
# Shear Modulus (GPa) = 26.14012 36.71725 31.42868
#
# Velocity S-wave (km/s) = 3.60577 4.27346 3.95373
# Velocity P-wave (km/s) = 5.65869 6.88221 6.30022
#
# Compressibility (1/GPa) = 0.03386902
#
# Stress axis : x y z
#
# Youngs Moduli (GPa) = 76.80561 42.61307 84.72541
#
# Poissons Ratio (x) = 0.24674 0.02671
# Poissons Ratio (y) = 0.44473 0.09361
# Poissons Ratio (z) = 0.02421 0.04708
#
# Static dielectric constant tensor:
#      x y z
#    x 1.781160 0.022530 -0.005390 
#    y 0.022530 1.816240 0.021370 
#    z -0.005390 0.021370 1.792690 
# 
# From -- ./inp_files/499692.got.cif
#   From: 2010.05.17/outbox.cif.g08.bks.cpg/sg2_250_cif.got.tgz:499692.got - 2010.06.03 11:33:40.
