data_PCOD9011366
_publ_section_title
;
Structure prediction by ZEFSAII (Michael W. Deem and Ramdas Pophale) SiO2 
 PCOD9011366
Probable space group: P -1
;
_chemical_formula_sum "Si O2"
_cell_formula_units_Z 12
_cell_length_a 19.459097
_cell_length_b 8.513732
_cell_length_c 4.962177
_cell_angle_alpha 86.001520
_cell_angle_beta 74.551094
_cell_angle_gamma 37.866183
_cell_volume 472.451290
_symmetry_space_group_name_H-M "P -1"
_symmetry_group_IT_number 2
_symmetry_cell_setting 'triclinic'
loop_
_space_group_symop_operation_xyz
x,y,z
-x,-y,-z
loop_
_atom_site_type_symbol
_atom_site_label
_atom_site_fract_x
_atom_site_fract_y
_atom_site_fract_z
Si Si1 0.105856 0.851937 0.197692
Si Si2 0.691472 0.288050 0.116240
Si Si3 0.474637 0.868048 0.451984
Si Si4 0.947764 0.355929 0.931569
Si Si5 0.143642 0.222108 0.609992
Si Si6 0.651116 0.054235 0.934435
O O1 0.222890 0.748512 0.143534
O O2 0.143890 0.609955 0.091457
O O3 0.000000 0.000000 0.500000
O O4 0.041381 0.073510 0.015758
O O5 0.598713 0.553114 0.353918
O O6 0.767639 0.043410 0.270174
O O7 0.624119 0.286914 0.988470
O O8 0.419637 0.923854 0.211801
O O9 0.500000 0.000000 0.500000
O O10 0.379190 0.969778 0.748809
O O11 0.899012 0.561758 0.178952
O O12 0.031803 0.307062 0.648873
O O13 0.214036 0.167408 0.290139
#
# Coordination Sequence:
#
# PCOD9011366 Si02
#       6
#     2   2   2   2   2   2
#     4  10  21  40  66 101 142 179 228 280 349 405
#     4  11  25  42  72 100 141 185 232 284 349 412
#     4  12  29  48  70 106 138 180 233 296 346 410
#     4   9  21  41  63 104 140 177 229 287 334 417
#     4  10  22  41  71 100 137 186 232 277 352 405
#     4  12  25  49  73 101 139 182 234 286 348 416
#
# _framework density 25.399443000000002
#
# number of rings (size 3 to 8) (size 9 to 14) (size 15 to 20)
#    0.000    1.333    1.667    2.500    4.667    2.667 
#    0.000    5.000    0.000    0.000    0.000    0.000 
#    0.000    0.000    0.000    0.000    0.000    0.000 
#
# Total GULP energy -67151.345045 kJ/mol
# GULP energy per Si atom -5595.945420 kJ/mol
# Density = 2.534163 g / cm^3
# Si number density = 25.399443 Si / 1000 Ang^3
#
#
#
# Elastic Constant Matrix: (Units=GPa)
#
#
# Indices 1 2 3 4 5 6 
#
# 1 181.3559 48.2110 12.1549 12.0860 -6.5444 28.4550
# 2 48.2110 89.1866 20.7554 25.9454 2.6431 21.4711
# 3 12.1549 20.7554 97.2395 10.7893 -16.0912 17.0937
# 4 12.0860 25.9454 10.7893 43.4522 6.6420 8.0393
# 5 -6.5444 2.6431 -16.0912 6.6420 57.1246 0.3566
# 6 28.4550 21.4711 17.0937 8.0393 0.3566 44.1161
#
#
#
# Elastic Compliance Matrix: (Units=1/GPa)
#
#
# Indices 1 2 3 4 5 6 
#
# 1 0.006833 -0.003176 0.000517 0.000283 0.001062 -0.003122
# 2 -0.003176 0.016542 -0.001697 -0.007741 -0.000683 -0.003929
# 3 0.000517 -0.001697 0.012114 -0.002005 0.003807 -0.003867
# 4 0.000283 -0.007741 -0.002005 0.028749 -0.003512 -0.000848
# 5 0.001062 -0.000683 0.003807 -0.003512 0.019148 -0.001343
# 6 -0.003122 -0.003929 -0.003867 -0.000848 -0.001343 0.028257
#
#
# Mechanical properties :
#
#
# Convention : Reuss Voigt Hill
#
# Bulk Modulus (GPa) = 37.34658 58.89162 48.11910
# Shear Modulus (GPa) = 38.67530 48.04929 43.36229
#
# Velocity S-wave (km/s) = 3.90639 4.35414 4.13633
# Velocity P-wave (km/s) = 5.92302 6.96524 6.46516
#
# Compressibility (1/GPa) = 0.02677621
#
# Stress axis : x y z
#
# Youngs Moduli (GPa) = 146.34820 60.45053 82.55103
#
# Poissons Ratio (x) = 0.19200 -0.04268
# Poissons Ratio (y) = 0.46482 0.14012
# Poissons Ratio (z) = -0.07566 0.10260
#
# Static dielectric constant tensor:
#      x y z
#    x 2.048840 -0.039580 0.005550 
#    y -0.039580 2.055550 -0.012270 
#    z 0.005550 -0.012270 1.967090 
# 
# From -- ./inp_files/105292.got.cif
#   From: 2010.05.17/outbox.cif.g08.bks.cpg/sg2_53_cif.got.tgz:105292.got - 2010.06.03 11:33:40.
