data_PCOD9011264
_publ_section_title
;
Structure prediction by ZEFSAII (Michael W. Deem and Ramdas Pophale) SiO2 
 PCOD9011264
Probable space group: P -1
;
_chemical_formula_sum "Si O2"
_cell_formula_units_Z 14
_cell_length_a 21.569776
_cell_length_b 11.823645
_cell_length_c 21.620597
_cell_angle_alpha 21.539094
_cell_angle_beta 161.692757
_cell_angle_gamma 151.700339
_cell_volume 635.719887
_symmetry_space_group_name_H-M "P -1"
_symmetry_group_IT_number 2
_symmetry_cell_setting 'triclinic'
loop_
_space_group_symop_operation_xyz
x,y,z
-x,-y,-z
loop_
_atom_site_type_symbol
_atom_site_label
_atom_site_fract_x
_atom_site_fract_y
_atom_site_fract_z
Si Si1 0.924801 0.366508 0.086765
Si Si2 0.298068 0.702918 0.214095
Si Si3 0.397905 0.228787 0.354550
Si Si4 0.181052 0.093227 0.678275
Si Si5 0.912517 0.212187 0.755258
Si Si6 0.300901 0.147181 0.093730
Si Si7 0.403625 0.676829 0.013619
O O1 0.135745 0.513780 0.196497
O O2 0.938070 0.114013 0.281660
O O3 0.822108 0.237477 0.993370
O O4 0.761641 0.616403 0.829292
O O5 0.500000 0.500000 0.500000
O O6 0.348679 0.021524 0.134840
O O7 0.412277 0.455279 0.195073
O O8 0.295801 0.918102 0.393997
O O9 0.599911 0.123971 0.631723
O O10 0.098534 0.435567 0.415283
O O11 0.392024 0.146711 0.885220
O O12 0.237365 0.923675 0.753779
O O13 0.066113 0.169031 0.867147
O O14 0.000000 0.000000 0.000000
O O15 0.367435 0.467828 0.025263
#
# Coordination Sequence:
#
# PCOD9011264 Si02
#       7
#     2   2   2   2   2   2   2
#     4  10  23  45  68  93 132 170 217 274 329 370
#     4  11  23  43  70  97 122 174 231 271 313 384
#     4  11  20  40  66  97 133 170 210 266 320 397
#     4  10  23  43  63  98 138 172 205 269 331 387
#     4  12  23  39  66  99 133 174 213 257 330 401
#     4  12  22  37  67  97 126 172 223 262 318 384
#     4  10  21  40  65  95 137 171 201 262 331 388
#
# _framework density 22.022276999999999
#
# number of rings (size 3 to 8) (size 9 to 14) (size 15 to 20)
#    0.000    1.143    5.714    1.286    0.000    0.571 
#    2.571    1.429    0.000    0.000    0.000    0.000 
#    0.000    0.000    0.000    0.000    0.000    0.000 
#
# Total GULP energy -78225.781346 kJ/mol
# GULP energy per Si atom -5587.555810 kJ/mol
# Density = 2.197215 g / cm^3
# Si number density = 22.022277 Si / 1000 Ang^3
#
#
#
# Elastic Constant Matrix: (Units=GPa)
#
#
# Indices 1 2 3 4 5 6 
#
# 1 100.2722 52.4655 42.0124 -6.4939 27.1830 -20.0888
# 2 52.4655 102.7213 31.7188 -5.3273 -1.6419 -19.3189
# 3 42.0124 31.7188 123.6434 -18.2545 20.0088 -5.3454
# 4 -6.4939 -5.3273 -18.2545 36.9612 -11.1216 9.6550
# 5 27.1830 -1.6419 20.0088 -11.1216 35.1484 -2.2091
# 6 -20.0888 -19.3189 -5.3454 9.6550 -2.2091 50.6532
#
#
#
# Elastic Compliance Matrix: (Units=1/GPa)
#
#
# Indices 1 2 3 4 5 6 
#
# 1 0.021332 -0.009745 -0.002592 -0.005240 -0.016837 0.004734
# 2 -0.009745 0.016009 -0.002052 0.002128 0.010256 0.002066
# 3 -0.002592 -0.002052 0.010482 0.003967 -0.002902 -0.001587
# 4 -0.005240 0.002128 0.003967 0.033831 0.012173 -0.006765
# 5 -0.016837 0.010256 -0.002902 0.012173 0.047246 -0.003332
# 6 0.004734 0.002066 -0.001587 -0.006765 -0.003332 0.023384
#
#
# Mechanical properties :
#
#
# Convention : Reuss Voigt Hill
#
# Bulk Modulus (GPa) = 52.51145 64.33670 58.42407
# Shear Modulus (GPa) = 26.67943 37.91524 32.29734
#
# Velocity S-wave (km/s) = 3.48440 4.15381 3.83374
# Velocity P-wave (km/s) = 6.33123 7.23072 6.79588
#
# Compressibility (1/GPa) = 0.01904347
#
# Stress axis : x y z
#
# Youngs Moduli (GPa) = 46.87867 62.46519 95.40447
#
# Poissons Ratio (x) = 0.60874 0.24733
# Poissons Ratio (y) = 0.45685 0.19574
# Poissons Ratio (z) = 0.12153 0.12816
#
# Static dielectric constant tensor:
#      x y z
#    x 1.833430 -0.020640 0.032840 
#    y -0.020640 1.843770 0.024180 
#    z 0.032840 0.024180 1.853250 
# 
# From -- ./inp_files/308097.got.cif
#   From: 2010.05.17/outbox.cif.g08.bks.cpg/sg2_155_cif.got.tgz:308097.got - 2010.06.03 11:33:40.
