data_PCOD9011690
_publ_section_title
;
Structure prediction by ZEFSAII (Michael W. Deem and Ramdas Pophale) SiO2 
 PCOD9011690
Probable space group: P -1
;
_chemical_formula_sum "Si O2"
_cell_formula_units_Z 14
_cell_length_a 8.899330
_cell_length_b 13.643067
_cell_length_c 8.061966
_cell_angle_alpha 121.003720
_cell_angle_beta 51.986855
_cell_angle_gamma 132.456930
_cell_volume 560.599588
_symmetry_space_group_name_H-M "P -1"
_symmetry_group_IT_number 2
_symmetry_cell_setting 'triclinic'
loop_
_space_group_symop_operation_xyz
x,y,z
-x,-y,-z
loop_
_atom_site_type_symbol
_atom_site_label
_atom_site_fract_x
_atom_site_fract_y
_atom_site_fract_z
Si Si1 0.871869 0.692544 0.335742
Si Si2 0.674385 0.051464 0.778883
Si Si3 0.244778 0.448183 0.180927
Si Si4 0.146887 0.543598 0.683335
Si Si5 0.624077 0.906674 0.227010
Si Si6 0.907525 0.818597 0.781975
Si Si7 0.434700 0.216996 0.494664
O O1 0.837011 0.548186 0.268011
O O2 0.874279 0.752025 0.568113
O O3 0.685776 0.699320 0.363769
O O4 0.110764 0.805074 0.200479
O O5 0.720214 0.932865 0.605378
O O6 0.553200 0.065865 0.711990
O O7 0.500000 0.000000 0.000000
O O8 0.211603 0.502341 0.427622
O O9 0.115869 0.287770 0.157880
O O10 0.100157 0.480592 0.183038
O O11 0.500000 0.500000 0.000000
O O12 0.338517 0.700585 0.693944
O O13 0.523986 0.806934 0.364715
O O14 0.709783 0.844790 0.977169
O O15 0.852985 0.043787 0.244068
#
# Coordination Sequence:
#
# PCOD9011690 Si02
#       7
#     2   2   2   2   2   2   2
#     4  11  25  45  67  96 140 183 221 280 343 399
#     4  12  27  43  67  99 138 176 227 279 344 402
#     4  10  21  40  67 100 136 177 228 280 340 404
#     4  10  24  42  69  97 138 180 227 278 343 402
#     4  11  24  39  71 101 132 172 231 281 334 406
#     4  10  22  40  67  97 134 173 228 272 345 398
#     4  12  24  45  70  98 138 178 227 279 339 402
#
# _framework density 24.973261000000001
#
# number of rings (size 3 to 8) (size 9 to 14) (size 15 to 20)
#    0.000    1.143    1.429    3.857   12.000    0.000 
#    2.571    0.714    0.000    0.000    0.000    0.000 
#    0.000    0.000    0.000    0.000    0.000    0.000 
#
# Total GULP energy -78473.594272 kJ/mol
# GULP energy per Si atom -5605.256734 kJ/mol
# Density = 2.491642 g / cm^3
# Si number density = 24.973261 Si / 1000 Ang^3
#
#
#
# Elastic Constant Matrix: (Units=GPa)
#
#
# Indices 1 2 3 4 5 6 
#
# 1 128.1108 54.8203 33.1045 -14.6521 -25.5173 -32.3039
# 2 54.8203 139.3792 37.4258 -24.4682 -14.9961 -19.1164
# 3 33.1045 37.4258 123.5839 -15.1515 -17.3173 -8.5142
# 4 -14.6521 -24.4682 -15.1515 31.9374 1.8769 -5.6868
# 5 -25.5173 -14.9961 -17.3173 1.8769 44.4063 2.9278
# 6 -32.3039 -19.1164 -8.5142 -5.6868 2.9278 43.1618
#
#
#
# Elastic Compliance Matrix: (Units=1/GPa)
#
#
# Indices 1 2 3 4 5 6 
#
# 1 0.012832 -0.002133 -0.000778 0.005124 0.005553 0.008804
# 2 -0.002133 0.010137 -0.001269 0.006730 0.001191 0.003448
# 3 -0.000778 -0.001269 0.009513 0.003203 0.002635 0.000975
# 4 0.005124 0.006730 0.003203 0.042387 0.003833 0.012772
# 5 0.005553 0.001191 0.002635 0.003833 0.026721 0.003895
# 6 0.008804 0.003448 0.000975 0.012772 0.003895 0.032896
#
#
# Mechanical properties :
#
#
# Convention : Reuss Voigt Hill
#
# Bulk Modulus (GPa) = 41.45776 71.30833 56.38305
# Shear Modulus (GPa) = 33.13731 41.61598 37.37665
#
# Velocity S-wave (km/s) = 3.64663 4.08661 3.87287
# Velocity P-wave (km/s) = 5.86238 7.13324 6.52880
#
# Compressibility (1/GPa) = 0.02412094
#
# Stress axis : x y z
#
# Youngs Moduli (GPa) = 77.93135 98.64858 105.11388
#
# Poissons Ratio (x) = 0.21047 0.08181
# Poissons Ratio (y) = 0.16627 0.13338
# Poissons Ratio (z) = 0.06065 0.12517
#
# Static dielectric constant tensor:
#      x y z
#    x 1.942260 0.019640 0.020760 
#    y 0.019640 1.973000 0.034900 
#    z 0.020760 0.034900 2.003230 
# 
# From -- ./inp_files/188976.got.cif
#   From: 2010.05.17/outbox.cif.g08.bks.cpg/sg2_95_cif.got.tgz:188976.got - 2010.06.03 11:33:40.
