data_PCOD9011826
_publ_section_title
;
Structure prediction by ZEFSAII (Michael W. Deem and Ramdas Pophale) SiO2 
 PCOD9011826
Probable space group: P -1
;
_chemical_formula_sum "Si O2"
_cell_formula_units_Z 14
_cell_length_a 8.055121
_cell_length_b 11.116039
_cell_length_c 9.132912
_cell_angle_alpha 41.796548
_cell_angle_beta 82.009301
_cell_angle_gamma 80.014100
_cell_volume 536.717757
_symmetry_space_group_name_H-M "P -1"
_symmetry_group_IT_number 2
_symmetry_cell_setting 'triclinic'
loop_
_space_group_symop_operation_xyz
x,y,z
-x,-y,-z
loop_
_atom_site_type_symbol
_atom_site_label
_atom_site_fract_x
_atom_site_fract_y
_atom_site_fract_z
Si Si1 0.245717 0.551700 0.844244
Si Si2 0.841696 0.919304 0.349430
Si Si3 0.087599 0.214780 0.229381
Si Si4 0.342179 0.816085 0.066689
Si Si5 0.883597 0.378819 0.531975
Si Si6 0.309648 0.077337 0.095993
Si Si7 0.496287 0.831633 0.537340
O O1 0.188322 0.547561 0.682985
O O2 0.411885 0.652673 0.754288
O O3 0.090547 0.674049 0.827587
O O4 0.232278 0.355379 0.094838
O O5 0.882335 0.920804 0.515414
O O6 0.681850 0.800586 0.474082
O O7 0.996879 0.807513 0.349848
O O8 0.765235 0.115101 0.123011
O O9 0.129750 0.143279 0.126593
O O10 0.268487 0.660952 0.307306
O O11 0.308205 0.995978 0.009921
O O12 0.541635 0.790195 0.038179
O O13 0.000000 0.500000 0.500000
O O14 0.377384 0.916438 0.343794
O O15 0.500000 0.000000 0.500000
#
# Coordination Sequence:
#
# PCOD9011826 Si02
#       7
#     2   2   2   2   2   2   2
#     4  10  24  43  64  91 137 164 213 264 312 387
#     4  10  23  41  65  97 124 162 221 262 312 380
#     4  10  22  44  64  96 126 172 208 263 325 370
#     4  10  22  41  66  95 128 164 213 268 308 385
#     4  11  24  44  63  94 130 173 211 257 320 382
#     4  10  21  40  67  95 125 166 215 259 323 372
#     4  11  21  41  65  96 124 165 210 265 317 370
#
# _framework density 26.084474
#
# number of rings (size 3 to 8) (size 9 to 14) (size 15 to 20)
#    0.000    1.714    2.857    0.429    2.000    3.429 
#   15.429    1.429    0.000    0.000    0.000    0.000 
#    0.000    0.000    0.000    0.000    0.000    0.000 
#
# Total GULP energy -78368.091912 kJ/mol
# GULP energy per Si atom -5597.720851 kJ/mol
# Density = 2.602510 g / cm^3
# Si number density = 26.084474 Si / 1000 Ang^3
#
#
#
# Elastic Constant Matrix: (Units=GPa)
#
#
# Indices 1 2 3 4 5 6 
#
# 1 93.8449 29.6911 18.6370 15.0583 -14.9197 7.3632
# 2 29.6911 98.7010 35.4765 19.1757 -3.5937 12.7627
# 3 18.6370 35.4765 101.3556 21.9105 -10.0240 10.9764
# 4 15.0583 19.1757 21.9105 28.0158 -2.6096 -12.6636
# 5 -14.9197 -3.5937 -10.0240 -2.6096 36.7902 2.6778
# 6 7.3632 12.7627 10.9764 -12.6636 2.6778 52.7912
#
#
#
# Elastic Compliance Matrix: (Units=1/GPa)
#
#
# Indices 1 2 3 4 5 6 
#
# 1 0.013518 -0.002254 0.000828 -0.007501 0.005216 -0.003577
# 2 -0.002254 0.013859 -0.002058 -0.008829 -0.000405 -0.004705
# 3 0.000828 -0.002058 0.014040 -0.012245 0.003503 -0.005652
# 4 -0.007501 -0.008829 -0.012245 0.064648 -0.004216 0.021449
# 5 0.005216 -0.000405 0.003503 -0.004216 0.030196 -0.003901
# 6 -0.003577 -0.004705 -0.005652 0.021449 -0.003901 0.027097
#
#
# Mechanical properties :
#
#
# Convention : Reuss Voigt Hill
#
# Bulk Modulus (GPa) = 29.02919 51.27895 40.15407
# Shear Modulus (GPa) = 27.50128 37.52589 32.51358
#
# Velocity S-wave (km/s) = 3.25055 3.79704 3.53437
# Velocity P-wave (km/s) = 5.02406 6.23898 5.66419
#
# Compressibility (1/GPa) = 0.03444809
#
# Stress axis : x y z
#
# Youngs Moduli (GPa) = 73.97437 72.15776 71.22475
#
# Poissons Ratio (x) = 0.16267 -0.05899
# Poissons Ratio (y) = 0.16677 0.14659
# Poissons Ratio (z) = -0.06126 0.14851
#
# Static dielectric constant tensor:
#      x y z
#    x 2.052040 0.079250 -0.054820 
#    y 0.079250 2.093590 -0.018660 
#    z -0.054820 -0.018660 2.005540 
# 
# From -- ./inp_files/183739.got.cif
#   From: 2010.05.17/outbox.cif.g08.bks.cpg/sg2_92_cif.got.tgz:183739.got - 2010.06.03 11:33:40.
