data_PCOD9011916
_publ_section_title
;
Structure prediction by ZEFSAII (Michael W. Deem and Ramdas Pophale) SiO2 
 PCOD9011916
Probable space group: P -1
;
_chemical_formula_sum "Si O2"
_cell_formula_units_Z 14
_cell_length_a 11.924407
_cell_length_b 11.623717
_cell_length_c 11.386700
_cell_angle_alpha 38.483081
_cell_angle_beta 38.295268
_cell_angle_gamma 52.228992
_cell_volume 608.631541
_symmetry_space_group_name_H-M "P -1"
_symmetry_group_IT_number 2
_symmetry_cell_setting 'triclinic'
loop_
_space_group_symop_operation_xyz
x,y,z
-x,-y,-z
loop_
_atom_site_type_symbol
_atom_site_label
_atom_site_fract_x
_atom_site_fract_y
_atom_site_fract_z
Si Si1 0.909062 0.150152 0.037789
Si Si2 0.470869 0.782988 0.723487
Si Si3 0.206417 0.153143 0.437772
Si Si4 0.450351 0.460132 0.368370
Si Si5 0.780113 0.015657 0.680166
Si Si6 0.561245 0.749138 0.221640
Si Si7 0.934224 0.468984 0.445008
O O1 0.730306 0.221490 0.059982
O O2 0.855704 0.030584 0.292230
O O3 0.021262 0.337126 0.812096
O O4 0.000000 0.000000 0.000000
O O5 0.637823 0.737762 0.705592
O O6 0.468828 0.662067 0.704393
O O7 0.500000 0.000000 0.500000
O O8 0.042005 0.294325 0.446565
O O9 0.283329 0.086894 0.304549
O O10 0.578273 0.600743 0.221213
O O11 0.390479 0.327162 0.630286
O O12 0.278496 0.559697 0.373116
O O13 0.654026 0.198740 0.637785
O O14 0.000000 0.000000 0.500000
O O15 0.697909 0.911609 0.943610
O O16 0.000000 0.500000 0.500000
#
# Coordination Sequence:
#
# PCOD9011916 Si02
#       7
#     2   2   2   2   2   2   2
#     4  11  23  39  63  98 137 183 220 282 357 414
#     4  10  21  40  67  98 138 178 222 288 353 422
#     4  11  24  44  66 102 138 176 237 286 357 422
#     4  11  23  46  69 102 141 181 236 285 356 422
#     4  11  25  48  71 102 138 186 245 289 349 427
#     4  10  25  47  72 100 141 193 230 292 352 419
#     4  12  23  41  66 102 140 177 233 285 349 424
#
# _framework density 23.002424000000001
#
# number of rings (size 3 to 8) (size 9 to 14) (size 15 to 20)
#    0.000    1.143    2.857    3.429    4.000    1.714 
#    2.571    2.143    0.000    0.000    0.000    0.000 
#    0.000    0.000    0.000    0.000    0.000    0.000 
#
# Total GULP energy -78175.411285 kJ/mol
# GULP energy per Si atom -5583.957949 kJ/mol
# Density = 2.295007 g / cm^3
# Si number density = 23.002424 Si / 1000 Ang^3
#
#
#
# Elastic Constant Matrix: (Units=GPa)
#
#
# Indices 1 2 3 4 5 6 
#
# 1 85.3277 29.5232 14.5481 11.3995 5.5715 -13.2295
# 2 29.5232 129.4791 7.2502 3.7441 -1.0979 -0.4480
# 3 14.5481 7.2502 74.3390 -1.9622 10.2215 -14.9322
# 4 11.3995 3.7441 -1.9622 27.9670 -7.7403 2.8664
# 5 5.5715 -1.0979 10.2215 -7.7403 32.5047 11.3857
# 6 -13.2295 -0.4480 -14.9322 2.8664 11.3857 37.9545
#
#
#
# Elastic Compliance Matrix: (Units=1/GPa)
#
#
# Indices 1 2 3 4 5 6 
#
# 1 0.016003 -0.003409 -0.000237 -0.009156 -0.007949 0.008521
# 2 -0.003409 0.008531 -0.000862 0.000996 0.002130 -0.002141
# 3 -0.000237 -0.000862 0.016627 -0.002054 -0.008961 0.009292
# 4 -0.009156 0.000996 -0.002054 0.045346 0.017481 -0.012656
# 5 -0.007949 0.002130 -0.008961 0.017481 0.046751 -0.021616
# 6 0.008521 -0.002141 0.009292 -0.012656 -0.021616 0.040388
#
#
# Mechanical properties :
#
#
# Convention : Reuss Voigt Hill
#
# Bulk Modulus (GPa) = 31.10794 43.53210 37.32002
# Shear Modulus (GPa) = 25.85664 35.54018 30.69841
#
# Velocity S-wave (km/s) = 3.35637 3.93499 3.65714
# Velocity P-wave (km/s) = 5.34541 6.29378 5.83888
#
# Compressibility (1/GPa) = 0.03214613
#
# Stress axis : x y z
#
# Youngs Moduli (GPa) = 62.48999 117.22511 60.14492
#
# Poissons Ratio (x) = 0.39959 0.01423
# Poissons Ratio (y) = 0.21301 0.05182
# Poissons Ratio (z) = 0.01478 0.10099
#
# Static dielectric constant tensor:
#      x y z
#    x 1.858190 -0.061250 -0.056660 
#    y -0.061250 1.847020 -0.032850 
#    z -0.056660 -0.032850 2.019760 
# 
# From -- ./inp_files/424834.got.cif
#   From: 2010.05.17/outbox.cif.g08.bks.cpg/sg2_213_cif.got.tgz:424834.got - 2010.06.03 11:33:40.
