data_PCOD9011358
_publ_section_title
;
Structure prediction by ZEFSAII (Michael W. Deem and Ramdas Pophale) SiO2 
 PCOD9011358
Probable space group: P -1
;
_chemical_formula_sum "Si O2"
_cell_formula_units_Z 16
_cell_length_a 11.059258
_cell_length_b 7.825416
_cell_length_c 10.383622
_cell_angle_alpha 68.138394
_cell_angle_beta 64.629913
_cell_angle_gamma 65.106979
_cell_volume 716.034903
_symmetry_space_group_name_H-M "P -1"
_symmetry_group_IT_number 2
_symmetry_cell_setting 'triclinic'
loop_
_space_group_symop_operation_xyz
x,y,z
-x,-y,-z
loop_
_atom_site_type_symbol
_atom_site_label
_atom_site_fract_x
_atom_site_fract_y
_atom_site_fract_z
Si Si1 0.221004 0.363277 0.563642
Si Si2 0.115775 0.037052 0.311006
Si Si3 0.497967 0.973066 0.854495
Si Si4 0.482834 0.730926 0.448593
Si Si5 0.186413 0.765947 0.579807
Si Si6 0.775819 0.656534 0.725024
Si Si7 0.018503 0.716139 0.157061
Si Si8 0.186361 0.027563 0.007372
O O1 0.384762 0.240588 0.545095
O O2 0.199018 0.541247 0.624835
O O3 0.215293 0.424674 0.400268
O O4 0.096541 0.275539 0.680426
O O5 0.138681 0.189226 0.359856
O O6 0.206001 0.047842 0.144220
O O7 0.954595 0.111824 0.320443
O O8 0.161860 0.839191 0.422139
O O9 0.618521 0.779415 0.805808
O O10 0.520607 0.156807 0.716432
O O11 0.500000 0.000000 0.000000
O O12 0.340806 0.969754 0.892016
O O13 0.500000 0.500000 0.500000
O O14 0.325211 0.807874 0.555440
O O15 0.863071 0.491208 0.828589
O O16 0.106971 0.866522 0.080768
O O17 0.917930 0.778008 0.061536
#
# Coordination Sequence:
#
# PCOD9011358 Si02
#       8
#     2   2   2   2   2   2   2   2
#     4  11  23  42  68  95 136 168 220 281 328 398
#     4  11  22  39  69  98 127 175 223 270 331 405
#     4  12  24  47  69  98 140 180 220 278 335 407
#     4  10  22  43  68 100 131 178 222 272 341 391
#     4  10  21  40  66 101 129 167 221 275 334 391
#     4  12  25  41  71 101 130 176 224 276 341 392
#     4  11  25  45  66  99 132 179 221 280 334 390
#     4  11  25  46  67  92 139 180 223 270 335 406
#
# _framework density 22.345278
#
# number of rings (size 3 to 8) (size 9 to 14) (size 15 to 20)
#    0.000    1.000    5.000    1.125    3.500    2.500 
#    9.000    0.000    0.000    0.000    0.000    0.000 
#    0.000    0.000    0.000    0.000    0.000    0.000 
#
# Total GULP energy -89252.779853 kJ/mol
# GULP energy per Si atom -5578.298741 kJ/mol
# Density = 2.229442 g / cm^3
# Si number density = 22.345278 Si / 1000 Ang^3
#
#
#
# Elastic Constant Matrix: (Units=GPa)
#
#
# Indices 1 2 3 4 5 6 
#
# 1 108.0064 30.4211 20.5525 -1.3808 -42.0902 -33.9196
# 2 30.4211 59.9785 30.9809 -15.0055 -16.1240 -18.3578
# 3 20.5525 30.9809 83.1115 -10.1862 -21.1594 -14.8874
# 4 -1.3808 -15.0055 -10.1862 25.8895 -10.1544 -1.7710
# 5 -42.0902 -16.1240 -21.1594 -10.1544 41.0342 7.6229
# 6 -33.9196 -18.3578 -14.8874 -1.7710 7.6229 42.6283
#
#
#
# Elastic Compliance Matrix: (Units=1/GPa)
#
#
# Indices 1 2 3 4 5 6 
#
# 1 0.026480 0.003087 0.006759 0.020232 0.033214 0.019661
# 2 0.003087 0.031688 -0.002445 0.025629 0.018276 0.013045
# 3 0.006759 -0.002445 0.018964 0.013894 0.017634 0.008372
# 4 0.020232 0.025629 0.013894 0.082852 0.053693 0.025829
# 5 0.033214 0.018276 0.017634 0.053693 0.082820 0.027878
# 6 0.019661 0.013045 0.008372 0.025829 0.027878 0.043733
#
#
# Mechanical properties :
#
#
# Convention : Reuss Voigt Hill
#
# Bulk Modulus (GPa) = 10.87754 46.11172 28.49463
# Shear Modulus (GPa) = 16.53552 33.18653 24.86103
#
# Velocity S-wave (km/s) = 2.72325 3.85797 3.33916
# Velocity P-wave (km/s) = 3.84273 6.36601 5.25798
#
# Compressibility (1/GPa) = 0.09193258
#
# Stress axis : x y z
#
# Youngs Moduli (GPa) = 37.76457 31.55804 52.73218
#
# Poissons Ratio (x) = -0.09741 -0.35640
# Poissons Ratio (y) = -0.11657 0.12891
# Poissons Ratio (z) = -0.25524 0.07715
#
# Static dielectric constant tensor:
#      x y z
#    x 1.893540 -0.021840 0.005740 
#    y -0.021840 1.831670 -0.015390 
#    z 0.005740 -0.015390 1.804370 
# 
# From -- ./inp_files/416250.got.cif
#   From: 2010.05.17/outbox.cif.g08.bks.cpg/sg2_209_cif.got.tgz:416250.got - 2010.06.03 11:33:40.
