data_PCOD9011332
_publ_section_title
;
Structure prediction by ZEFSAII (Michael W. Deem and Ramdas Pophale) SiO2 
 PCOD9011332
Probable space group: P -1
;
_chemical_formula_sum "Si O2"
_cell_formula_units_Z 16
_cell_length_a 12.672703
_cell_length_b 13.825940
_cell_length_c 8.980890
_cell_angle_alpha 53.385540
_cell_angle_beta 60.152301
_cell_angle_gamma 29.794525
_cell_volume 626.814557
_symmetry_space_group_name_H-M "P -1"
_symmetry_group_IT_number 2
_symmetry_cell_setting 'triclinic'
loop_
_space_group_symop_operation_xyz
x,y,z
-x,-y,-z
loop_
_atom_site_type_symbol
_atom_site_label
_atom_site_fract_x
_atom_site_fract_y
_atom_site_fract_z
Si Si1 0.368799 0.076828 0.237531
Si Si2 0.506515 0.363155 0.850282
Si Si3 0.462145 0.763477 0.580872
Si Si4 0.756445 0.431635 0.436917
Si Si5 0.824980 0.660792 0.157777
Si Si6 0.066244 0.964012 0.314909
Si Si7 0.274185 0.362572 0.228499
Si Si8 0.215508 0.800707 0.940135
O O1 0.324873 0.974680 0.398130
O O2 0.608684 0.878307 0.190698
O O3 0.350853 0.166191 0.318161
O O4 0.216204 0.261570 0.053409
O O5 0.336212 0.534469 0.687787
O O6 0.711339 0.161494 0.787556
O O7 0.400842 0.341124 0.039024
O O8 0.604271 0.370686 0.905046
O O9 0.559411 0.602293 0.532528
O O10 0.663608 0.651033 0.636204
O O11 0.321186 0.822700 0.754577
O O12 0.838949 0.502811 0.301679
O O13 0.901566 0.204159 0.598603
O O14 0.975022 0.438107 0.815712
O O15 0.000000 0.000000 0.500000
O O16 0.886159 0.184298 0.145218
O O17 0.000000 0.000000 0.000000
#
# Coordination Sequence:
#
# PCOD9011332 Si02
#       8
#     2   2   2   2   2   2   2   2
#     4  10  21  40  65  98 136 181 229 271 327 410
#     4  10  22  43  66  94 135 171 225 275 339 405
#     4  10  23  41  67  99 137 181 222 283 334 403
#     4  11  23  43  65  99 134 174 227 278 337 404
#     4  10  23  41  67 101 142 183 222 279 340 400
#     4  11  24  45  71  98 128 177 228 286 341 406
#     4  11  22  43  65 101 140 184 223 277 342 397
#     4   9  21  43  66  97 132 167 224 274 339 399
#
# _framework density 25.525891000000001
#
# number of rings (size 3 to 8) (size 9 to 14) (size 15 to 20)
#    0.000    1.750    1.250    1.875    1.750    2.000 
#    6.750   12.500    0.000    0.000    0.000    0.000 
#    0.000    0.000    0.000    0.000    0.000    0.000 
#
# Total GULP energy -89324.652783 kJ/mol
# GULP energy per Si atom -5582.790799 kJ/mol
# Density = 2.546779 g / cm^3
# Si number density = 25.525891 Si / 1000 Ang^3
#
#
#
# Elastic Constant Matrix: (Units=GPa)
#
#
# Indices 1 2 3 4 5 6 
#
# 1 84.7355 39.5859 23.5566 -2.9443 16.3133 -18.8452
# 2 39.5859 102.8031 37.5418 -2.9742 -2.3212 0.4279
# 3 23.5566 37.5418 146.6167 4.1233 3.7756 -4.4823
# 4 -2.9443 -2.9742 4.1233 43.9935 0.5055 5.1578
# 5 16.3133 -2.3212 3.7756 0.5055 55.9102 8.8360
# 6 -18.8452 0.4279 -4.4823 5.1578 8.8360 46.2147
#
#
#
# Elastic Compliance Matrix: (Units=1/GPa)
#
#
# Indices 1 2 3 4 5 6 
#
# 1 0.018708 -0.007146 -0.000713 -0.000138 -0.007129 0.009004
# 2 -0.007146 0.013543 -0.002564 0.001115 0.003454 -0.004073
# 3 -0.000713 -0.002564 0.007654 -0.001013 -0.000515 0.000687
# 4 -0.000138 0.001115 -0.001013 0.023219 0.000392 -0.002831
# 5 -0.007129 0.003454 -0.000515 0.000392 0.021262 -0.007098
# 6 0.009004 -0.004073 0.000687 -0.002831 -0.007098 0.027087
#
#
# Mechanical properties :
#
#
# Convention : Reuss Voigt Hill
#
# Bulk Modulus (GPa) = 52.47081 59.50267 55.98674
# Shear Modulus (GPa) = 36.05584 44.78840 40.42212
#
# Velocity S-wave (km/s) = 3.76243 4.19337 3.98373
# Velocity P-wave (km/s) = 6.28292 6.84157 6.56819
#
# Compressibility (1/GPa) = 0.01905822
#
# Stress axis : x y z
#
# Youngs Moduli (GPa) = 53.45237 73.84094 130.64251
#
# Poissons Ratio (x) = 0.52765 0.09320
# Poissons Ratio (y) = 0.38196 0.33502
# Poissons Ratio (z) = 0.03813 0.18936
#
# Static dielectric constant tensor:
#      x y z
#    x 2.110660 -0.034330 0.010940 
#    y -0.034330 2.045940 -0.008180 
#    z 0.010940 -0.008180 2.013040 
# 
# From -- ./inp_files/314776.got.cif
#   From: 2010.05.17/outbox.cif.g08.bks.cpg/sg2_158_cif.got.tgz:314776.got - 2010.06.03 11:33:40.
