data_PCOD9011873
_publ_section_title
;
Structure prediction by ZEFSAII (Michael W. Deem and Ramdas Pophale) SiO2 
 PCOD9011873
Probable space group: P -1
;
_chemical_formula_sum "Si O2"
_cell_formula_units_Z 14
_cell_length_a 14.863413
_cell_length_b 8.578651
_cell_length_c 8.730420
_cell_angle_alpha 46.455515
_cell_angle_beta 121.320300
_cell_angle_gamma 96.923892
_cell_volume 636.558247
_symmetry_space_group_name_H-M "P -1"
_symmetry_group_IT_number 2
_symmetry_cell_setting 'triclinic'
loop_
_space_group_symop_operation_xyz
x,y,z
-x,-y,-z
loop_
_atom_site_type_symbol
_atom_site_label
_atom_site_fract_x
_atom_site_fract_y
_atom_site_fract_z
Si Si1 0.363999 0.855281 0.176872
Si Si2 0.629277 0.382730 0.137545
Si Si3 0.808522 0.164682 0.707290
Si Si4 0.294108 0.094646 0.652464
Si Si5 0.389527 0.387121 0.337249
Si Si6 0.000076 0.315121 0.902403
Si Si7 0.974678 0.774752 0.665066
O O1 0.259592 0.881543 0.177915
O O2 0.384108 0.625619 0.248686
O O3 0.480075 0.798020 0.412835
O O4 0.340972 0.056841 0.893546
O O5 0.717122 0.314625 0.400802
O O6 0.646341 0.141967 0.230186
O O7 0.500000 0.500000 0.000000
O O8 0.649968 0.549647 0.914558
O O9 0.892429 0.295026 0.736067
O O10 0.889787 0.912827 0.884869
O O11 0.315544 0.292091 0.442858
O O12 0.161033 0.147515 0.505780
O O13 0.018455 0.555978 0.736211
O O14 0.976332 0.305751 0.068435
O O15 0.000000 0.000000 0.500000
#
# Coordination Sequence:
#
# PCOD9011873 Si02
#       7
#     2   2   2   2   2   2   2
#     4  10  21  40  67  96 138 177 227 286 341 415
#     4  11  23  43  67 100 142 182 225 284 348 414
#     4  11  21  46  70 108 143 176 234 296 345 410
#     4  11  23  42  66  99 131 185 230 281 349 421
#     4  10  22  41  66  95 138 186 225 277 347 424
#     4  10  24  43  72 100 139 179 233 294 347 409
#     4  11  23  46  71 100 133 186 235 288 352 417
#
# _framework density 21.993275000000001
#
# number of rings (size 3 to 8) (size 9 to 14) (size 15 to 20)
#    0.000    1.429    2.857    2.143    0.000    4.000 
#    2.571    9.286    0.000    0.000    0.000    0.000 
#    0.000    0.000    0.000    0.000    0.000    0.000 
#
# Total GULP energy -78312.684858 kJ/mol
# GULP energy per Si atom -5593.763204 kJ/mol
# Density = 2.194322 g / cm^3
# Si number density = 21.993275 Si / 1000 Ang^3
#
#
#
# Elastic Constant Matrix: (Units=GPa)
#
#
# Indices 1 2 3 4 5 6 
#
# 1 82.6464 19.6867 69.0087 6.3637 5.6188 10.9980
# 2 19.6867 78.0443 50.2478 -3.2619 12.6471 -1.4801
# 3 69.0087 50.2478 118.1316 9.1811 -5.0650 -6.6806
# 4 6.3637 -3.2619 9.1811 30.7742 2.5497 -12.2948
# 5 5.6188 12.6471 -5.0650 2.5497 49.1769 -5.7295
# 6 10.9980 -1.4801 -6.6806 -12.2948 -5.7295 23.6136
#
#
#
# Elastic Compliance Matrix: (Units=1/GPa)
#
#
# Indices 1 2 3 4 5 6 
#
# 1 0.042598 0.010407 -0.031118 -0.012386 -0.014530 -0.037966
# 2 0.010407 0.022533 -0.016801 0.002320 -0.009928 -0.009388
# 3 -0.031118 -0.016801 0.035737 0.004557 0.014758 0.029504
# 4 -0.012386 0.002320 0.004557 0.046537 0.002611 0.032067
# 5 -0.014530 -0.009928 0.014758 0.002611 0.028088 0.018495
# 6 -0.037966 -0.009388 0.029504 0.032067 0.018495 0.088973
#
#
# Mechanical properties :
#
#
# Convention : Reuss Voigt Hill
#
# Bulk Modulus (GPa) = 38.69522 61.85652 50.27587
# Shear Modulus (GPa) = 14.36350 30.03824 22.20087
#
# Velocity S-wave (km/s) = 2.55833 3.69967 3.18061
# Velocity P-wave (km/s) = 5.13410 6.81442 6.03305
#
# Compressibility (1/GPa) = 0.02584299
#
# Stress axis : x y z
#
# Youngs Moduli (GPa) = 23.47533 44.37969 27.98241
#
# Poissons Ratio (x) = -0.46184 0.87076
# Poissons Ratio (y) = -0.24430 0.47012
# Poissons Ratio (z) = 0.73051 0.74560
#
# Static dielectric constant tensor:
#      x y z
#    x 1.776190 -0.002460 -0.009210 
#    y -0.002460 1.827750 -0.018740 
#    z -0.009210 -0.018740 1.840560 
# 
# From -- ./inp_files/297339.got.cif
#   From: 2010.05.17/outbox.cif.g08.bks.cpg/sg2_149_cif.got.tgz:297339.got - 2010.06.03 11:33:40.
