data_PCOD9011222
_publ_section_title
;
Structure prediction by ZEFSAII (Michael W. Deem and Ramdas Pophale) SiO2 
 PCOD9011222
Probable space group: P -1
;
_chemical_formula_sum "Si O2"
_cell_formula_units_Z 16
_cell_length_a 13.771108
_cell_length_b 6.167884
_cell_length_c 9.399318
_cell_angle_alpha 84.173343
_cell_angle_beta 110.040475
_cell_angle_gamma 77.147190
_cell_volume 717.330485
_symmetry_space_group_name_H-M "P -1"
_symmetry_group_IT_number 2
_symmetry_cell_setting 'triclinic'
loop_
_space_group_symop_operation_xyz
x,y,z
-x,-y,-z
loop_
_atom_site_type_symbol
_atom_site_label
_atom_site_fract_x
_atom_site_fract_y
_atom_site_fract_z
Si Si1 0.398108 0.900610 0.953540
Si Si2 0.975992 0.684006 0.100703
Si Si3 0.386013 0.726244 0.271971
Si Si4 0.796947 0.868205 0.526857
Si Si5 0.805002 0.669643 0.245370
Si Si6 0.403251 0.314803 0.498217
Si Si7 0.678912 0.344597 0.304940
Si Si8 0.860940 0.052893 0.803206
O O1 0.394390 0.770520 0.106987
O O2 0.289346 0.106649 0.864141
O O3 0.500000 0.000000 0.000000
O O4 0.402042 0.737318 0.831960
O O5 0.904622 0.625692 0.193182
O O6 0.082615 0.746785 0.203018
O O7 0.000000 0.500000 0.000000
O O8 0.905486 0.916376 0.976746
O O9 0.404124 0.467131 0.350059
O O10 0.474980 0.821384 0.392774
O O11 0.265958 0.848338 0.252144
O O12 0.837282 0.713387 0.420243
O O13 0.692932 0.800524 0.539364
O O14 0.755213 0.123035 0.430348
O O15 0.879357 0.878185 0.692238
O O16 0.749250 0.467138 0.237022
O O17 0.375681 0.485285 0.609471
#
# Coordination Sequence:
#
# PCOD9011222 Si02
#       8
#     2   2   2   2   2   2   2   2
#     4  11  23  41  64  99 136 175 218 267 333 400
#     4  11  27  46  68  99 129 172 234 283 323 395
#     4  11  22  42  66  97 138 177 215 270 333 393
#     4  10  22  43  69  96 136 171 215 278 331 398
#     4  10  23  42  67  96 132 177 218 274 339 390
#     4  10  23  41  64 105 134 173 225 261 330 410
#     4  10  21  40  65  94 138 170 218 270 317 409
#     4  11  25  45  68  96 134 172 225 281 332 386
#
# _framework density 22.304919999999999
#
# number of rings (size 3 to 8) (size 9 to 14) (size 15 to 20)
#    0.000    1.500    2.500    2.250    3.500    4.000 
#    4.500    1.250    0.000    0.000    0.000    0.000 
#    0.000    0.000    0.000    0.000    0.000    0.000 
#
# Total GULP energy -89517.424154 kJ/mol
# GULP energy per Si atom -5594.839010 kJ/mol
# Density = 2.225415 g / cm^3
# Si number density = 22.304920 Si / 1000 Ang^3
#
#
#
# Elastic Constant Matrix: (Units=GPa)
#
#
# Indices 1 2 3 4 5 6 
#
# 1 140.3169 45.6881 38.5758 20.6394 -20.7240 22.5591
# 2 45.6881 64.4718 22.3788 14.0135 -1.8856 25.4909
# 3 38.5758 22.3788 105.5287 7.9391 -9.9291 21.7934
# 4 20.6394 14.0135 7.9391 45.3764 10.6342 1.4326
# 5 -20.7240 -1.8856 -9.9291 10.6342 33.0979 -4.1818
# 6 22.5591 25.4909 21.7934 1.4326 -4.1818 34.5911
#
#
#
# Elastic Compliance Matrix: (Units=1/GPa)
#
#
# Indices 1 2 3 4 5 6 
#
# 1 0.011558 -0.005926 -0.001655 -0.004952 0.007871 -0.000972
# 2 -0.005926 0.027017 -0.000171 -0.004448 -0.002827 -0.016095
# 3 -0.001655 -0.000171 0.011641 -0.001568 0.002218 -0.005796
# 4 -0.004952 -0.004448 -0.001568 0.028702 -0.012439 0.004802
# 5 0.007871 -0.002827 0.002218 -0.012439 0.039753 0.000873
# 6 -0.000972 -0.016095 -0.005796 0.004802 0.000873 0.044962
#
#
# Mechanical properties :
#
#
# Convention : Reuss Voigt Hill
#
# Bulk Modulus (GPa) = 28.80690 58.17807 43.49248
# Shear Modulus (GPa) = 26.21840 36.19139 31.20489
#
# Velocity S-wave (km/s) = 3.43221 4.03249 3.74440
# Velocity P-wave (km/s) = 5.35255 6.91527 6.18348
#
# Compressibility (1/GPa) = 0.03471391
#
# Stress axis : x y z
#
# Youngs Moduli (GPa) = 86.51864 37.01414 85.90490
#
# Poissons Ratio (x) = 0.21933 0.14214
# Poissons Ratio (y) = 0.51267 0.01466
# Poissons Ratio (z) = 0.14315 0.00632
#
# Static dielectric constant tensor:
#      x y z
#    x 1.799370 -0.018710 0.025110 
#    y -0.018710 1.846860 0.002640 
#    z 0.025110 0.002640 1.843410 
# 
# From -- ./inp_files/288901.got.cif
#   From: 2010.05.17/outbox.cif.g08.bks.cpg/sg2_145_cif.got.tgz:288901.got - 2010.06.03 11:33:40.
