data_PCOD9011371
_publ_section_title
;
Structure prediction by ZEFSAII (Michael W. Deem and Ramdas Pophale) SiO2 
 PCOD9011371
Probable space group: P -1
;
_chemical_formula_sum "Si O2"
_cell_formula_units_Z 12
_cell_length_a 9.479951
_cell_length_b 5.094367
_cell_length_c 9.233931
_cell_angle_alpha 86.581590
_cell_angle_beta 74.906703
_cell_angle_gamma 83.751456
_cell_volume 427.777530
_symmetry_space_group_name_H-M "P -1"
_symmetry_group_IT_number 2
_symmetry_cell_setting 'triclinic'
loop_
_space_group_symop_operation_xyz
x,y,z
-x,-y,-z
loop_
_atom_site_type_symbol
_atom_site_label
_atom_site_fract_x
_atom_site_fract_y
_atom_site_fract_z
Si Si1 0.801642 0.330262 0.330524
Si Si2 0.588326 0.314021 0.862209
Si Si3 0.439132 0.248800 0.602198
Si Si4 0.242849 0.909900 0.932161
Si Si5 0.995158 0.681344 0.147410
Si Si6 0.123675 0.671162 0.389856
O O1 0.730465 0.633730 0.363199
O O2 0.708292 0.195652 0.237248
O O3 0.955835 0.397491 0.220114
O O4 0.814644 0.197061 0.487982
O O5 0.487928 0.232209 0.758409
O O6 0.725154 0.432507 0.734225
O O7 0.500000 0.500000 0.000000
O O8 0.655174 0.074272 0.956389
O O9 0.500000 0.500000 0.500000
O O10 0.500000 0.000000 0.500000
O O11 0.129475 0.157683 0.917701
O O12 0.144679 0.680672 0.019879
O O13 0.034115 0.828393 0.281337
O O14 0.000000 0.500000 0.500000
#
# Coordination Sequence:
#
# PCOD9011371 Si02
#       6
#     2   2   2   2   2   2
#     4  11  21  39  69  98 144 191 251 303 376 446
#     4  11  22  44  72 109 148 197 252 317 383 457
#     4  12  28  50  75 109 153 202 254 315 384 464
#     4  10  21  40  66 102 147 186 247 309 380 446
#     4   9  21  39  62 100 143 193 241 311 372 452
#     4   9  20  40  68 102 146 194 248 306 377 452
#
# _framework density 28.051966
#
# number of rings (size 3 to 8) (size 9 to 14) (size 15 to 20)
#    0.000    1.667    3.333    0.500    2.333    0.667 
#    3.000   15.000    0.000    0.000    0.000    0.000 
#    0.000    0.000    0.000    0.000    0.000    0.000 
#
# Total GULP energy -66939.744402 kJ/mol
# GULP energy per Si atom -5578.312033 kJ/mol
# Density = 2.798812 g / cm^3
# Si number density = 28.051966 Si / 1000 Ang^3
#
#
#
# Elastic Constant Matrix: (Units=GPa)
#
#
# Indices 1 2 3 4 5 6 
#
# 1 124.5968 20.8128 67.9956 2.1876 24.4805 -3.4982
# 2 20.8128 101.9658 50.2108 20.5309 12.7124 0.6914
# 3 67.9956 50.2108 256.8306 14.0045 39.6622 -2.6985
# 4 2.1876 20.5309 14.0045 52.2670 -1.8773 -3.1782
# 5 24.4805 12.7124 39.6622 -1.8773 100.1476 -18.4157
# 6 -3.4982 0.6914 -2.6985 -3.1782 -18.4157 27.0094
#
#
#
# Elastic Compliance Matrix: (Units=1/GPa)
#
#
# Indices 1 2 3 4 5 6 
#
# 1 0.009625 -0.000807 -0.002208 0.000470 -0.001331 0.000194
# 2 -0.000807 0.011826 -0.001724 -0.004295 -0.001030 -0.001787
# 3 -0.002208 -0.001724 0.005061 -0.000684 -0.001400 -0.000771
# 4 0.000470 -0.004295 -0.000684 0.021282 0.001806 0.003838
# 5 -0.001331 -0.001030 -0.001400 0.001806 0.012596 0.008515
# 6 0.000194 -0.001787 -0.000771 0.003838 0.008515 0.043275
#
#
# Mechanical properties :
#
#
# Convention : Reuss Voigt Hill
#
# Bulk Modulus (GPa) = 58.70910 84.60352 71.65631
# Shear Modulus (GPa) = 42.08050 58.84306 50.46178
#
# Velocity S-wave (km/s) = 3.87730 4.58497 4.24591
# Velocity P-wave (km/s) = 6.40459 7.63245 7.04532
#
# Compressibility (1/GPa) = 0.01703313
#
# Stress axis : x y z
#
# Youngs Moduli (GPa) = 103.90065 84.55742 197.60136
#
# Poissons Ratio (x) = 0.06824 0.43637
# Poissons Ratio (y) = 0.08385 0.34063
# Poissons Ratio (z) = 0.22945 0.14576
#
# Static dielectric constant tensor:
#      x y z
#    x 2.493380 0.100180 -0.104090 
#    y 0.100180 2.262700 0.083020 
#    z -0.104090 0.083020 2.344930 
# 
# From -- ./inp_files/229087.got.cif
#   From: 2010.05.17/outbox.cif.g08.bks.cpg/sg2_115_cif.got.tgz:229087.got - 2010.06.03 11:33:40.
