data_PCOD9011943
_publ_section_title
;
Structure prediction by ZEFSAII (Michael W. Deem and Ramdas Pophale) SiO2 
 PCOD9011943
Probable space group: P -1
;
_chemical_formula_sum "Si O2"
_cell_formula_units_Z 16
_cell_length_a 8.498150
_cell_length_b 7.067384
_cell_length_c 12.593064
_cell_angle_alpha 62.263563
_cell_angle_beta 97.694842
_cell_angle_gamma 89.791447
_cell_volume 661.524639
_symmetry_space_group_name_H-M "P -1"
_symmetry_group_IT_number 2
_symmetry_cell_setting 'triclinic'
loop_
_space_group_symop_operation_xyz
x,y,z
-x,-y,-z
loop_
_atom_site_type_symbol
_atom_site_label
_atom_site_fract_x
_atom_site_fract_y
_atom_site_fract_z
Si Si1 0.652243 0.095923 0.642876
Si Si2 0.858791 0.650786 0.814624
Si Si3 0.945418 0.747091 0.451175
Si Si4 0.261730 0.733482 0.602795
Si Si5 0.535606 0.667745 0.261851
Si Si6 0.238601 0.484937 0.365319
Si Si7 0.177428 0.867206 0.792403
Si Si8 0.611441 0.349587 0.971753
O O1 0.629596 0.150459 0.502749
O O2 0.510650 0.150630 0.701413
O O3 0.766603 0.286427 0.636535
O O4 0.743332 0.866726 0.728961
O O5 0.886274 0.529880 0.736167
O O6 0.755456 0.494157 0.913192
O O7 0.029275 0.725329 0.844298
O O8 0.784524 0.716919 0.511129
O O9 0.000000 0.500000 0.500000
O O10 0.903376 0.904035 0.310004
O O11 0.301415 0.475492 0.668586
O O12 0.266692 0.784153 0.714327
O O13 0.085469 0.810428 0.525568
O O14 0.409498 0.489823 0.325122
O O15 0.486519 0.719770 0.122497
O O16 0.302827 0.848796 0.903831
O O17 0.500000 0.500000 0.000000
#
# Coordination Sequence:
#
# PCOD9011943 Si02
#       8
#     2   2   2   2   2   2   2   2
#     4  10  21  40  68 100 133 167 222 270 337 393
#     4  11  21  43  70  93 130 179 223 271 330 390
#     4  12  21  39  62 101 136 164 216 276 332 396
#     4  12  20  38  69  95 140 163 217 276 335 393
#     4   9  22  43  64  91 138 174 215 277 325 392
#     4   9  20  37  63  94 136 167 209 273 329 388
#     4  12  24  40  68 100 129 180 221 268 331 398
#     4  11  24  48  65  92 134 176 234 271 315 401
#
# _framework density 24.186551000000001
#
# number of rings (size 3 to 8) (size 9 to 14) (size 15 to 20)
#    0.750    0.500    5.000    1.875    0.000    0.000 
#    4.500    4.375    0.000    0.000    0.000    0.000 
#    0.000    0.000    0.000    0.000    0.000    0.000 
#
# Total GULP energy -89270.613100 kJ/mol
# GULP energy per Si atom -5579.413319 kJ/mol
# Density = 2.413150 g / cm^3
# Si number density = 24.186551 Si / 1000 Ang^3
#
#
#
# Elastic Constant Matrix: (Units=GPa)
#
#
# Indices 1 2 3 4 5 6 
#
# 1 64.6426 25.6845 46.1147 6.2658 6.3796 10.9071
# 2 25.6845 75.0294 25.7074 12.6925 0.5133 -9.8731
# 3 46.1147 25.7074 149.9337 3.1675 13.4090 -8.3181
# 4 6.2658 12.6925 3.1675 28.0242 -9.6036 -10.4213
# 5 6.3796 0.5133 13.4090 -9.6036 40.5993 -8.9029
# 6 10.9071 -9.8731 -8.3181 -10.4213 -8.9029 32.8500
#
#
#
# Elastic Compliance Matrix: (Units=1/GPa)
#
#
# Indices 1 2 3 4 5 6 
#
# 1 0.030300 -0.008111 -0.007943 -0.013635 -0.009984 -0.021541
# 2 -0.008111 0.017613 -0.000244 -0.002489 0.002241 0.007743
# 3 -0.007943 -0.000244 0.009403 0.003117 0.000196 0.005987
# 4 -0.013635 -0.002489 0.003117 0.057229 0.020908 0.028390
# 5 -0.009984 0.002241 0.000196 0.020908 0.035502 0.020293
# 6 -0.021541 0.007743 0.005987 0.028390 0.020293 0.055943
#
#
# Mechanical properties :
#
#
# Convention : Reuss Voigt Hill
#
# Bulk Modulus (GPa) = 40.45010 53.84655 47.14832
# Shear Modulus (GPa) = 20.25729 33.10131 26.67930
#
# Velocity S-wave (km/s) = 2.89717 3.70345 3.32484
# Velocity P-wave (km/s) = 5.28697 6.37171 5.85452
#
# Compressibility (1/GPa) = 0.02472182
#
# Stress axis : x y z
#
# Youngs Moduli (GPa) = 33.00318 56.77766 106.34775
#
# Poissons Ratio (x) = 0.46050 0.84469
# Poissons Ratio (y) = 0.26768 0.02590
# Poissons Ratio (z) = 0.26214 0.01383
#
# Static dielectric constant tensor:
#      x y z
#    x 2.033570 -0.035490 -0.059910 
#    y -0.035490 1.980860 0.064300 
#    z -0.059910 0.064300 1.931950 
# 
# From -- ./inp_files/494366.got.cif
#   From: 2010.05.17/outbox.cif.g08.bks.cpg/sg2_248_cif.got.tgz:494366.got - 2010.06.03 11:33:40.
