data_PCOD9011597
_publ_section_title
;
Structure prediction by ZEFSAII (Michael W. Deem and Ramdas Pophale) SiO2 
 PCOD9011597
Probable space group: P -1
;
_chemical_formula_sum "Si O2"
_cell_formula_units_Z 16
_cell_length_a 9.096600
_cell_length_b 14.707684
_cell_length_c 16.374490
_cell_angle_alpha 28.043932
_cell_angle_beta 137.709689
_cell_angle_gamma 119.764830
_cell_volume 602.376941
_symmetry_space_group_name_H-M "P -1"
_symmetry_group_IT_number 2
_symmetry_cell_setting 'triclinic'
loop_
_space_group_symop_operation_xyz
x,y,z
-x,-y,-z
loop_
_atom_site_type_symbol
_atom_site_label
_atom_site_fract_x
_atom_site_fract_y
_atom_site_fract_z
Si Si1 0.984038 0.593753 0.107905
Si Si2 0.219104 0.198025 0.912778
Si Si3 0.124871 0.312402 0.550313
Si Si4 0.465936 0.591059 0.321973
Si Si5 0.807254 0.022755 0.275072
Si Si6 0.006258 0.737899 0.740282
Si Si7 0.817127 0.157480 0.703561
Si Si8 0.531653 0.023759 0.588510
O O1 0.116765 0.407324 0.378956
O O2 0.175354 0.688975 0.103008
O O3 0.942669 0.501142 0.079419
O O4 0.713477 0.769388 0.890789
O O5 0.087725 0.460460 0.672646
O O6 0.077368 0.162560 0.804291
O O7 0.516378 0.087944 0.114565
O O8 0.155139 0.056750 0.064811
O O9 0.388866 0.269097 0.731511
O O10 0.109454 0.098621 0.682084
O O11 0.500000 0.500000 0.500000
O O12 0.626952 0.376652 0.501516
O O13 0.995041 0.856137 0.554858
O O14 0.820844 0.240861 0.136827
O O15 0.724643 0.867170 0.555290
O O16 0.679288 0.154298 0.567560
O O17 0.500000 0.000000 0.500000
#
# Coordination Sequence:
#
# PCOD9011597 Si02
#       8
#     2   2   2   2   2   2   2   2
#     4  10  18  33  53  73 109 143 178 218 267 313
#     4  10  17  29  53  80 110 136 165 221 288 320
#     4   9  17  27  49  86 109 132 162 213 280 336
#     4   9  16  27  51  82 111 132 163 223 286 327
#     4  10  19  32  55  79 115 139 168 216 276 335
#     4  10  21  37  50  78 112 146 177 218 263 329
#     4  10  18  32  50  80 116 131 177 228 267 323
#     4  12  24  37  53  76 110 152 192 221 251 310
#
# _framework density 26.561440999999999
#
# number of rings (size 3 to 8) (size 9 to 14) (size 15 to 20)
#    0.000    2.000    3.750    1.500    3.500    1.500 
#    0.000    3.750    0.000    0.750    0.000    2.625 
#    0.000    0.000    0.000    0.000    0.000    0.000 
#
# Total GULP energy -89449.006881 kJ/mol
# GULP energy per Si atom -5590.562930 kJ/mol
# Density = 2.650099 g / cm^3
# Si number density = 26.561441 Si / 1000 Ang^3
#
#
#
# Elastic Constant Matrix: (Units=GPa)
#
#
# Indices 1 2 3 4 5 6 
#
# 1 54.6132 28.7691 18.1330 -8.0890 5.8535 7.9928
# 2 28.7691 238.8951 32.9101 -2.0884 12.8213 -18.6519
# 3 18.1330 32.9101 70.3447 -11.6326 11.0211 10.1327
# 4 -8.0890 -2.0884 -11.6326 38.7273 -3.3944 7.7032
# 5 5.8535 12.8213 11.0211 -3.3944 52.1918 1.6871
# 6 7.9928 -18.6519 10.1327 7.7032 1.6871 42.6931
#
#
#
# Elastic Compliance Matrix: (Units=1/GPa)
#
#
# Indices 1 2 3 4 5 6 
#
# 1 0.022201 -0.002629 -0.002816 0.004666 -0.000770 -0.005448
# 2 -0.002629 0.005148 -0.002450 -0.001798 -0.000688 0.003674
# 3 -0.002816 -0.002450 0.018240 0.005705 -0.002375 -0.005808
# 4 0.004666 -0.001798 0.005705 0.030187 0.000952 -0.008498
# 5 -0.000770 -0.000688 -0.002375 0.000952 0.019997 -0.000555
# 6 -0.005448 0.003674 -0.005808 -0.008498 -0.000555 0.028982
#
#
# Mechanical properties :
#
#
# Convention : Reuss Voigt Hill
#
# Bulk Modulus (GPa) = 33.55706 58.16414 45.86060
# Shear Modulus (GPa) = 33.22765 45.65849 39.44307
#
# Velocity S-wave (km/s) = 3.54075 4.15055 3.85772
# Velocity P-wave (km/s) = 5.42006 6.70186 6.09475
#
# Compressibility (1/GPa) = 0.02979999
#
# Stress axis : x y z
#
# Youngs Moduli (GPa) = 45.04227 194.24674 54.82511
#
# Poissons Ratio (x) = 0.51066 0.15439
# Poissons Ratio (y) = 0.11841 0.13430
# Poissons Ratio (z) = 0.12684 0.47584
#
# Static dielectric constant tensor:
#      x y z
#    x 1.991750 0.050160 -0.111350 
#    y 0.050160 2.141520 -0.019130 
#    z -0.111350 -0.019130 2.099180 
# 
# From -- ./inp_files/387142.got.cif
#   From: 2010.05.17/outbox.cif.g08.bks.cpg/sg2_194_cif.got.tgz:387142.got - 2010.06.03 11:33:40.
