data_PCOD9011497
_publ_section_title
;
Structure prediction by ZEFSAII (Michael W. Deem and Ramdas Pophale) SiO2 
 PCOD9011497
Probable space group: P -1
;
_chemical_formula_sum "Si O2"
_cell_formula_units_Z 16
_cell_length_a 17.917141
_cell_length_b 8.507810
_cell_length_c 13.405154
_cell_angle_alpha 102.909374
_cell_angle_beta 22.562974
_cell_angle_gamma 94.185024
_cell_volume 714.026502
_symmetry_space_group_name_H-M "P -1"
_symmetry_group_IT_number 2
_symmetry_cell_setting 'triclinic'
loop_
_space_group_symop_operation_xyz
x,y,z
-x,-y,-z
loop_
_atom_site_type_symbol
_atom_site_label
_atom_site_fract_x
_atom_site_fract_y
_atom_site_fract_z
Si Si1 0.924074 0.619098 0.500050
Si Si2 0.943324 0.917659 0.656108
Si Si3 0.751106 0.444471 0.336813
Si Si4 0.197476 0.281814 0.828388
Si Si5 0.306149 0.636203 0.203504
Si Si6 0.515855 0.003414 0.255642
Si Si7 0.348475 0.350910 0.858346
Si Si8 0.376755 0.261700 0.298669
O O1 0.890099 0.768499 0.642633
O O2 0.834531 0.482309 0.638369
O O3 0.781904 0.706116 0.592214
O O4 0.160533 0.516826 0.156149
O O5 0.139685 0.819911 0.470522
O O6 0.000000 0.000000 0.500000
O O7 0.740440 0.027114 0.982285
O O8 0.780592 0.539714 0.213551
O O9 0.545742 0.395920 0.583513
O O10 0.721600 0.590569 0.477714
O O11 0.966145 0.295654 0.082702
O O12 0.364838 0.122915 0.541983
O O13 0.245838 0.277460 0.885016
O O14 0.500000 0.500000 0.000000
O O15 0.417708 0.702439 0.986555
O O16 0.427916 0.080231 0.266411
O O17 0.558552 0.804328 0.199016
#
# Coordination Sequence:
#
# PCOD9011497 Si02
#       8
#     2   2   2   2   2   2   2   2
#     4  11  24  40  68  97 130 174 225 272 322 402
#     4  12  24  43  62  97 138 172 216 269 334 394
#     4  10  22  41  74  95 128 175 220 280 327 393
#     4  10  23  46  65  97 135 169 221 276 334 392
#     4  10  21  40  66  93 129 173 221 265 322 394
#     4  11  25  41  66  94 138 172 211 279 335 383
#     4  12  23  42  72 101 124 174 226 274 331 396
#     4  10  21  44  64  97 135 174 217 272 337 390
#
# _framework density 22.408131000000001
#
# number of rings (size 3 to 8) (size 9 to 14) (size 15 to 20)
#    0.000    1.250    3.750    1.875    3.500    1.000 
#    0.000    1.250    0.000    0.000    0.000    0.000 
#    0.000    0.000    0.000    0.000    0.000    0.000 
#
# Total GULP energy -89218.628334 kJ/mol
# GULP energy per Si atom -5576.164271 kJ/mol
# Density = 2.235713 g / cm^3
# Si number density = 22.408131 Si / 1000 Ang^3
#
#
#
# Elastic Constant Matrix: (Units=GPa)
#
#
# Indices 1 2 3 4 5 6 
#
# 1 72.0408 13.7154 13.1584 11.3148 -16.3523 -22.5693
# 2 13.7154 59.1600 9.4795 -7.5796 -17.8144 -19.8850
# 3 13.1584 9.4795 155.9000 5.0453 -23.0251 0.8662
# 4 11.3148 -7.5796 5.0453 36.4431 -3.7521 -6.7563
# 5 -16.3523 -17.8144 -23.0251 -3.7521 30.1939 0.1373
# 6 -22.5693 -19.8850 0.8662 -6.7563 0.1373 28.1141
#
#
#
# Elastic Compliance Matrix: (Units=1/GPa)
#
#
# Indices 1 2 3 4 5 6 
#
# 1 0.024303 0.008621 -0.000060 0.000901 0.018197 0.025737
# 2 0.008621 0.038141 0.000588 0.015123 0.029330 0.037371
# 3 -0.000060 0.000588 0.007250 -0.000254 0.005811 0.000055
# 4 0.000901 0.015123 -0.000254 0.035418 0.013527 0.019873
# 5 0.018197 0.029330 0.005811 0.013527 0.066218 0.038102
# 6 0.025737 0.037371 0.000055 0.019873 0.038102 0.087250
#
#
# Mechanical properties :
#
#
# Convention : Reuss Voigt Hill
#
# Bulk Modulus (GPa) = 11.36476 39.97861 25.67168
# Shear Modulus (GPa) = 18.54519 35.66673 27.10596
#
# Velocity S-wave (km/s) = 2.87994 3.99392 3.48177
# Velocity P-wave (km/s) = 4.01765 6.25687 5.25785
#
# Compressibility (1/GPa) = 0.08799133
#
# Stress axis : x y z
#
# Youngs Moduli (GPa) = 41.14790 26.21857 137.93379
#
# Poissons Ratio (x) = -0.22603 0.00827
# Poissons Ratio (y) = -0.35474 -0.08109
# Poissons Ratio (z) = 0.00247 -0.01541
#
# Static dielectric constant tensor:
#      x y z
#    x 1.914190 -0.081810 -0.045170 
#    y -0.081810 1.717660 0.007990 
#    z -0.045170 0.007990 2.013090 
# 
# From -- ./inp_files/540499.got.cif
#   From: 2010.05.17/outbox.cif.g08.bks.cpg/sg2_271_cif.got.tgz:540499.got - 2010.06.03 11:33:40.
