data_PCOD9011130
_publ_section_title
;
Structure prediction by ZEFSAII (Michael W. Deem and Ramdas Pophale) SiO2 
 PCOD9011130
Probable space group: P -1
;
_chemical_formula_sum "Si O2"
_cell_formula_units_Z 14
_cell_length_a 9.074862
_cell_length_b 17.311350
_cell_length_c 18.129966
_cell_angle_alpha 29.118104
_cell_angle_beta 150.122643
_cell_angle_gamma 142.831936
_cell_volume 681.247371
_symmetry_space_group_name_H-M "P -1"
_symmetry_group_IT_number 2
_symmetry_cell_setting 'triclinic'
loop_
_space_group_symop_operation_xyz
x,y,z
-x,-y,-z
loop_
_atom_site_type_symbol
_atom_site_label
_atom_site_fract_x
_atom_site_fract_y
_atom_site_fract_z
Si Si1 0.411322 0.162857 0.295788
Si Si2 0.596805 0.421702 0.288308
Si Si3 0.168758 0.271552 0.672406
Si Si4 0.561927 0.687521 0.394213
Si Si5 0.706760 0.541467 0.723103
Si Si6 0.392248 0.606619 0.929620
Si Si7 0.197811 0.930057 0.970981
O O1 0.479447 0.287977 0.287818
O O2 0.584112 0.224739 0.243260
O O3 0.066404 0.141265 0.138996
O O4 0.500000 0.000000 0.500000
O O5 0.378493 0.416377 0.267027
O O6 0.916777 0.381071 0.486265
O O7 0.600384 0.587975 0.106020
O O8 0.181260 0.246896 0.608957
O O9 0.488693 0.373463 0.749557
O O10 0.109181 0.094032 0.829851
O O11 0.500000 0.500000 0.500000
O O12 0.638271 0.675083 0.522971
O O13 0.294834 0.788801 0.180451
O O14 0.055758 0.538185 0.865297
O O15 0.500000 0.500000 0.000000
O O16 0.500000 0.000000 0.000000
#
# Coordination Sequence:
#
# PCOD9011130 Si02
#       7
#     2   2   2   2   2   2   2
#     4  11  23  43  67  92 128 163 223 264 322 389
#     4  11  23  41  64  97 130 167 212 274 328 371
#     4  10  21  40  65  92 127 171 216 262 317 388
#     4   9  20  35  64  90 123 161 220 254 306 379
#     4  11  23  41  64  97 131 167 214 273 321 377
#     4  10  24  39  66  93 124 170 219 261 314 389
#     4  10  22  38  66  94 120 168 219 265 316 375
#
# _framework density 20.550539000000001
#
# number of rings (size 3 to 8) (size 9 to 14) (size 15 to 20)
#    0.000    1.714    1.429    2.571   18.000    0.000 
#    0.000    2.857    0.000    0.000    0.000    0.000 
#    0.000    0.000    0.000    0.000    0.000    0.000 
#
# Total GULP energy -78050.598109 kJ/mol
# GULP energy per Si atom -5575.042722 kJ/mol
# Density = 2.050377 g / cm^3
# Si number density = 20.550539 Si / 1000 Ang^3
#
#
#
# Elastic Constant Matrix: (Units=GPa)
#
#
# Indices 1 2 3 4 5 6 
#
# 1 123.2155 15.5478 42.1486 -1.6293 -1.1157 4.9707
# 2 15.5478 68.8143 21.6222 0.6212 5.4151 9.8653
# 3 42.1486 21.6222 162.0281 -19.5430 -7.3980 6.2081
# 4 -1.6293 0.6212 -19.5430 31.2767 14.6388 2.5199
# 5 -1.1157 5.4151 -7.3980 14.6388 24.4598 9.5800
# 6 4.9707 9.8653 6.2081 2.5199 9.5800 22.1619
#
#
#
# Elastic Compliance Matrix: (Units=1/GPa)
#
#
# Indices 1 2 3 4 5 6 
#
# 1 0.009093 -0.001256 -0.002261 -0.001458 0.001382 -0.001279
# 2 -0.001256 0.016324 -0.001737 -0.000129 -0.001902 -0.005661
# 3 -0.002261 -0.001737 0.007627 0.004597 0.000454 -0.001575
# 4 -0.001458 -0.000129 0.004597 0.048372 -0.030203 0.006652
# 5 0.001382 -0.001902 0.000454 -0.030203 0.069912 -0.026377
# 6 -0.001279 -0.005661 -0.001575 0.006652 -0.026377 0.059016
#
#
# Mechanical properties :
#
#
# Convention : Reuss Voigt Hill
#
# Bulk Modulus (GPa) = 44.37603 56.96613 50.67108
# Shear Modulus (GPa) = 21.89474 33.89565 27.89519
#
# Velocity S-wave (km/s) = 3.26760 4.06566 3.68828
# Velocity P-wave (km/s) = 5.98972 7.05830 6.54586
#
# Compressibility (1/GPa) = 0.02253469
#
# Stress axis : x y z
#
# Youngs Moduli (GPa) = 109.97751 61.25964 131.10616
#
# Poissons Ratio (x) = 0.07695 0.29650
# Poissons Ratio (y) = 0.13815 0.22774
# Poissons Ratio (z) = 0.24871 0.10641
#
# Static dielectric constant tensor:
#      x y z
#    x 1.733690 0.032070 -0.017440 
#    y 0.032070 1.800810 -0.038930 
#    z -0.017440 -0.038930 1.857990 
# 
# From -- ./inp_files/176594.got.cif
#   From: 2010.05.17/outbox.cif.g08.bks.cpg/sg2_89_cif.got.tgz:176594.got - 2010.06.03 11:33:40.
