data_PCOD9011447
_publ_section_title
;
Structure prediction by ZEFSAII (Michael W. Deem and Ramdas Pophale) SiO2 
 PCOD9011447
Probable space group: P -1
;
_chemical_formula_sum "Si O2"
_cell_formula_units_Z 16
_cell_length_a 8.767245
_cell_length_b 11.698660
_cell_length_c 13.833617
_cell_angle_alpha 55.594556
_cell_angle_beta 69.477571
_cell_angle_gamma 36.987448
_cell_volume 689.635131
_symmetry_space_group_name_H-M "P -1"
_symmetry_group_IT_number 2
_symmetry_cell_setting 'triclinic'
loop_
_space_group_symop_operation_xyz
x,y,z
-x,-y,-z
loop_
_atom_site_type_symbol
_atom_site_label
_atom_site_fract_x
_atom_site_fract_y
_atom_site_fract_z
Si Si1 0.027885 0.628653 0.982667
Si Si2 0.752063 0.215303 0.392820
Si Si3 0.195203 0.049748 0.275992
Si Si4 0.965346 0.492657 0.380118
Si Si5 0.589873 0.272573 0.948247
Si Si6 0.443041 0.172622 0.526290
Si Si7 0.985170 0.766801 0.137582
Si Si8 0.547867 0.623871 0.292255
O O1 0.328573 0.468397 0.973078
O O2 0.971140 0.691672 0.076552
O O3 0.811222 0.855160 0.862850
O O4 0.000000 0.500000 0.000000
O O5 0.588287 0.189186 0.420248
O O6 0.574405 0.441881 0.378535
O O7 0.000000 0.000000 0.500000
O O8 0.896237 0.210527 0.283349
O O9 0.345517 0.015897 0.350598
O O10 0.339728 0.815734 0.323100
O O11 0.236440 0.238304 0.468928
O O12 0.993888 0.637811 0.276932
O O13 0.766401 0.617181 0.454717
O O14 0.819348 0.512322 0.316414
O O15 0.766719 0.294500 0.893921
O O16 0.524058 0.286837 0.843513
O O17 0.750524 0.034150 0.068312
#
# Coordination Sequence:
#
# PCOD9011447 Si02
#       8
#     2   2   2   2   2   2   2   2
#     4  12  25  41  71 102 137 172 220 279 334 404
#     4  10  21  40  66  91 129 173 223 271 327 392
#     4  10  22  39  67 100 131 172 223 263 335 399
#     4  10  22  39  67  95 132 171 225 271 330 390
#     4  11  24  43  70  96 139 175 221 271 338 405
#     4   9  21  42  63  92 132 171 216 279 318 393
#     4  11  25  44  67 103 132 178 219 277 340 398
#     4  11  21  40  70  95 131 176 220 275 335 396
#
# _framework density 23.200672999999998
#
# number of rings (size 3 to 8) (size 9 to 14) (size 15 to 20)
#    0.000    1.500    2.500    1.875    3.500    5.500 
#    0.000    2.500    2.750    1.500    0.000    0.000 
#    0.000    0.000    0.000    0.000    0.000    0.000 
#
# Total GULP energy -89233.291119 kJ/mol
# GULP energy per Si atom -5577.080695 kJ/mol
# Density = 2.314787 g / cm^3
# Si number density = 23.200673 Si / 1000 Ang^3
#
#
#
# Elastic Constant Matrix: (Units=GPa)
#
#
# Indices 1 2 3 4 5 6 
#
# 1 86.2304 9.7300 13.9438 -3.3929 11.3362 -6.3423
# 2 9.7300 57.8345 17.1514 -13.3288 0.2115 5.4968
# 3 13.9438 17.1514 86.6433 -2.8585 7.9600 0.0581
# 4 -3.3929 -13.3288 -2.8585 30.4685 5.3069 3.1353
# 5 11.3362 0.2115 7.9600 5.3069 34.3617 -5.3242
# 6 -6.3423 5.4968 0.0581 3.1353 -5.3242 36.6546
#
#
#
# Elastic Compliance Matrix: (Units=1/GPa)
#
#
# Indices 1 2 3 4 5 6 
#
# 1 0.012664 -0.001657 -0.001334 0.001024 -0.003736 0.001812
# 2 -0.001657 0.021196 -0.003535 0.009363 -0.000891 -0.004390
# 3 -0.001334 -0.003535 0.012682 -0.000066 -0.002477 -0.000075
# 4 0.001024 0.009363 -0.000066 0.038864 -0.007251 -0.005604
# 5 -0.003736 -0.000891 -0.002477 -0.007251 0.032789 0.004874
# 6 0.001812 -0.004390 -0.000075 -0.005604 0.004874 0.029441
#
#
# Mechanical properties :
#
#
# Convention : Reuss Voigt Hill
#
# Bulk Modulus (GPa) = 29.86117 34.70650 32.28383
# Shear Modulus (GPa) = 29.09448 32.95583 31.02515
#
# Velocity S-wave (km/s) = 3.54508 3.77300 3.66081
# Velocity P-wave (km/s) = 5.44569 5.82859 5.64039
#
# Compressibility (1/GPa) = 0.03348831
#
# Stress axis : x y z
#
# Youngs Moduli (GPa) = 78.96189 47.17767 78.85442
#
# Poissons Ratio (x) = 0.07819 0.10521
# Poissons Ratio (y) = 0.13087 0.27879
# Poissons Ratio (z) = 0.10535 0.16680
#
# Static dielectric constant tensor:
#      x y z
#    x 2.027870 0.037440 -0.060950 
#    y 0.037440 1.955250 -0.017820 
#    z -0.060950 -0.017820 1.968350 
# 
# From -- ./inp_files/500174.got.cif
#   From: 2010.05.17/outbox.cif.g08.bks.cpg/sg2_251_cif.got.tgz:500174.got - 2010.06.03 11:33:40.
