data_PCOD9011140
_publ_section_title
;
Structure prediction by ZEFSAII (Michael W. Deem and Ramdas Pophale) SiO2 
 PCOD9011140
Probable space group: P -1
;
_chemical_formula_sum "Si O2"
_cell_formula_units_Z 16
_cell_length_a 9.009233
_cell_length_b 24.751600
_cell_length_c 8.861960
_cell_angle_alpha 124.597995
_cell_angle_beta 93.696704
_cell_angle_gamma 133.331598
_cell_volume 771.174081
_symmetry_space_group_name_H-M "P -1"
_symmetry_group_IT_number 2
_symmetry_cell_setting 'triclinic'
loop_
_space_group_symop_operation_xyz
x,y,z
-x,-y,-z
loop_
_atom_site_type_symbol
_atom_site_label
_atom_site_fract_x
_atom_site_fract_y
_atom_site_fract_z
Si Si1 0.940374 0.309997 0.992832
Si Si2 0.009344 0.062958 0.219017
Si Si3 0.786746 0.757558 0.713370
Si Si4 0.742140 0.951406 0.339640
Si Si5 0.936459 0.796301 0.127307
Si Si6 0.131091 0.515866 0.388811
Si Si7 0.442259 0.661316 0.115188
Si Si8 0.622646 0.484951 0.900804
O O1 0.591739 0.191767 0.835167
O O2 0.004754 0.257857 0.931392
O O3 0.150306 0.445105 0.311845
O O4 0.052146 0.370295 0.927176
O O5 0.997720 0.121729 0.201719
O O6 0.323850 0.199661 0.556433
O O7 0.756793 0.954160 0.162884
O O8 0.000000 0.000000 0.000000
O O9 0.643725 0.638178 0.434271
O O10 0.462430 0.670168 0.594099
O O11 0.932748 0.804572 0.960564
O O12 0.000000 0.000000 0.500000
O O13 0.818037 0.056117 0.555592
O O14 0.627431 0.701309 0.047337
O O15 0.000000 0.500000 0.500000
O O16 0.868851 0.425677 0.102366
O O17 0.356267 0.568820 0.074042
O O18 0.500000 0.500000 0.000000
#
# Coordination Sequence:
#
# PCOD9011140 Si02
#       8
#     2   2   2   2   2   2   2   2
#     4  11  24  39  66  95 125 169 219 259 330 380
#     4  10  22  39  64  91 127 163 211 267 321 377
#     4  10  23  38  63  91 127 169 212 263 324 377
#     4  11  24  42  70  92 125 171 216 267 325 381
#     4  11  21  41  66  92 128 168 216 264 319 392
#     4  11  23  38  63  96 129 161 220 267 312 390
#     4  10  21  40  67  94 125 173 210 266 328 376
#     4  10  21  40  65  92 131 164 209 266 323 388
#
# _framework density 20.747585999999998
#
# number of rings (size 3 to 8) (size 9 to 14) (size 15 to 20)
#    0.000    1.500    2.500    2.625    1.750    8.500 
#    0.000    0.625    8.250    0.000    0.000    0.000 
#    0.000    0.000    0.000    0.000    0.000    0.000 
#
# Total GULP energy -89202.805652 kJ/mol
# GULP energy per Si atom -5575.175353 kJ/mol
# Density = 2.070036 g / cm^3
# Si number density = 20.747586 Si / 1000 Ang^3
#
#
#
# Elastic Constant Matrix: (Units=GPa)
#
#
# Indices 1 2 3 4 5 6 
#
# 1 100.2418 40.1470 29.1755 -4.6101 -28.6163 6.0049
# 2 40.1470 162.4582 32.8938 1.0092 -10.5165 16.9989
# 3 29.1755 32.8938 46.8044 -16.9402 -21.6564 -3.2542
# 4 -4.6101 1.0092 -16.9402 38.4777 9.9565 -6.0261
# 5 -28.6163 -10.5165 -21.6564 9.9565 33.0484 0.6966
# 6 6.0049 16.9989 -3.2542 -6.0261 0.6966 34.0640
#
#
#
# Elastic Compliance Matrix: (Units=1/GPa)
#
#
# Indices 1 2 3 4 5 6 
#
# 1 0.015081 -0.001733 -0.004805 -0.003452 0.010463 -0.003077
# 2 -0.001733 0.008658 -0.008154 -0.004180 -0.002714 -0.005478
# 3 -0.004805 -0.008154 0.045088 0.016822 0.017473 0.011842
# 4 -0.003452 -0.004180 0.016822 0.035895 -0.004337 0.010741
# 5 0.010463 -0.002714 0.017473 -0.004337 0.051225 -0.000636
# 6 -0.003077 -0.005478 0.011842 0.010741 -0.000636 0.035677
#
#
# Mechanical properties :
#
#
# Convention : Reuss Voigt Hill
#
# Bulk Modulus (GPa) = 25.35332 57.10410 41.22871
# Shear Modulus (GPa) = 21.35319 34.93724 28.14522
#
# Velocity S-wave (km/s) = 3.21158 4.10801 3.68714
# Velocity P-wave (km/s) = 5.09890 7.07700 6.16777
#
# Compressibility (1/GPa) = 0.03944257
#
# Stress axis : x y z
#
# Youngs Moduli (GPa) = 66.30831 115.49607 22.17891
#
# Poissons Ratio (x) = 0.20018 0.10656
# Poissons Ratio (y) = 0.11493 0.18085
# Poissons Ratio (z) = 0.31859 0.94180
#
# Static dielectric constant tensor:
#      x y z
#    x 1.756330 0.014700 -0.010240 
#    y 0.014700 1.809080 -0.002690 
#    z -0.010240 -0.002690 1.778350 
# 
# From -- ./inp_files/225535.got.cif
#   From: 2010.05.17/outbox.cif.g08.bks.cpg/sg2_113_cif.got.tgz:225535.got - 2010.06.03 11:33:40.
