data_PCOD9011387
_publ_section_title
;
Structure prediction by ZEFSAII (Michael W. Deem and Ramdas Pophale) SiO2 
 PCOD9011387
Probable space group: P -1
;
_chemical_formula_sum "Si O2"
_cell_formula_units_Z 14
_cell_length_a 23.382188
_cell_length_b 25.311652
_cell_length_c 5.392371
_cell_angle_alpha 65.556072
_cell_angle_beta 62.313202
_cell_angle_gamma 11.115591
_cell_volume 527.981908
_symmetry_space_group_name_H-M "P -1"
_symmetry_group_IT_number 2
_symmetry_cell_setting 'triclinic'
loop_
_space_group_symop_operation_xyz
x,y,z
-x,-y,-z
loop_
_atom_site_type_symbol
_atom_site_label
_atom_site_fract_x
_atom_site_fract_y
_atom_site_fract_z
Si Si1 0.105668 0.972998 0.815751
Si Si2 0.043149 0.185474 0.899153
Si Si3 0.784620 0.296202 0.332291
Si Si4 0.576056 0.747378 0.051000
Si Si5 0.579661 0.642704 0.582878
Si Si6 0.502599 0.074697 0.833882
Si Si7 0.094939 0.364560 0.807088
O O1 0.976123 0.112094 0.550605
O O2 0.464951 0.678030 0.687576
O O3 0.950037 0.135034 0.057836
O O4 0.000000 0.000000 0.000000
O O5 0.855040 0.396541 0.703658
O O6 0.285853 0.935208 0.726512
O O7 0.787990 0.363410 0.177495
O O8 0.271908 0.011454 0.980632
O O9 0.500000 0.500000 0.500000
O O10 0.655247 0.613512 0.245444
O O11 0.489066 0.864602 0.238610
O O12 0.883531 0.508635 0.777910
O O13 0.401891 0.136821 0.648604
O O14 0.185598 0.343453 0.121463
O O15 0.783972 0.791155 0.937798
#
# Coordination Sequence:
#
# PCOD9011387 Si02
#       7
#     2   2   2   2   2   2   2
#     4  11  23  44  67 102 135 184 229 292 345 416
#     4  11  26  42  62  97 130 167 225 276 335 406
#     4  11  23  44  67 102 135 184 229 292 345 416
#     4  10  21  40  66  86 128 174 208 270 340 390
#     4  11  26  42  62  97 130 167 225 276 335 406
#     4   8  16  30  57  90 117 162 212 256 326 396
#     4   8  16  30  57  90 117 162 212 256 326 396
#
# _framework density 26.516062000000002
#
# number of rings (size 3 to 8) (size 9 to 14) (size 15 to 20)
#    0.857    1.143    1.429    1.714    4.000    2.286 
#    0.000    0.000    0.000    6.857    0.000    0.000 
#    0.000    0.000    0.000    0.000    0.000    0.000 
#
# Total GULP energy -78006.757064 kJ/mol
# GULP energy per Si atom -5571.911219 kJ/mol
# Density = 2.645571 g / cm^3
# Si number density = 26.516062 Si / 1000 Ang^3
#
#
#
# Elastic Constant Matrix: (Units=GPa)
#
#
# Indices 1 2 3 4 5 6 
#
# 1 113.0177 36.6171 25.7162 8.3361 -13.0230 -42.3425
# 2 36.6171 118.8774 49.9644 -23.6874 -3.9618 -26.4770
# 3 25.7162 49.9644 106.0221 -22.4561 3.5789 -7.8546
# 4 8.3361 -23.6874 -22.4561 53.1870 -4.1872 5.9793
# 5 -13.0230 -3.9618 3.5789 -4.1872 45.9068 2.7747
# 6 -42.3425 -26.4770 -7.8546 5.9793 2.7747 69.4675
#
#
#
# Elastic Compliance Matrix: (Units=1/GPa)
#
#
# Indices 1 2 3 4 5 6 
#
# 1 0.013763 -0.002247 -0.002880 -0.004980 0.003026 0.007515
# 2 -0.002247 0.012229 -0.004265 0.003798 0.000949 0.002445
# 3 -0.002880 -0.004265 0.012905 0.004117 -0.001682 -0.002209
# 4 -0.004980 0.003798 0.004117 0.023442 0.000924 -0.003177
# 5 0.003026 0.000949 -0.001682 0.000924 0.022877 0.001023
# 6 0.007515 0.002445 -0.002209 -0.003177 0.001023 0.019890
#
#
# Mechanical properties :
#
#
# Convention : Reuss Voigt Hill
#
# Bulk Modulus (GPa) = 49.71365 62.50140 56.10753
# Shear Modulus (GPa) = 38.28646 48.75357 43.52002
#
# Velocity S-wave (km/s) = 3.80399 4.29259 4.05565
# Velocity P-wave (km/s) = 6.17114 6.94196 6.56787
#
# Compressibility (1/GPa) = 0.02011520
#
# Stress axis : x y z
#
# Youngs Moduli (GPa) = 72.65968 81.76961 77.48667
#
# Poissons Ratio (x) = 0.18371 0.22314
# Poissons Ratio (y) = 0.16324 0.33047
# Poissons Ratio (z) = 0.20924 0.34874
#
# Static dielectric constant tensor:
#      x y z
#    x 2.209960 -0.019700 -0.015110 
#    y -0.019700 2.062110 0.107000 
#    z -0.015110 0.107000 2.177440 
# 
# From -- ./inp_files/12390.got.cif
#   From: 2010.05.17/outbox.cif.g08.bks.cpg/sg2_7_cif.got.tgz:12390.got - 2010.06.03 11:33:40.
