data_PCOD9011772
_publ_section_title
;
Structure prediction by ZEFSAII (Michael W. Deem and Ramdas Pophale) SiO2 
 PCOD9011772
Probable space group: P -1
;
_chemical_formula_sum "Si O2"
_cell_formula_units_Z 15
_cell_length_a 18.259168
_cell_length_b 14.080586
_cell_length_c 8.857198
_cell_angle_alpha 62.965529
_cell_angle_beta 119.197016
_cell_angle_gamma 160.081107
_cell_volume 677.179306
_symmetry_space_group_name_H-M "P -1"
_symmetry_group_IT_number 2
_symmetry_cell_setting 'triclinic'
loop_
_space_group_symop_operation_xyz
x,y,z
-x,-y,-z
loop_
_atom_site_type_symbol
_atom_site_label
_atom_site_fract_x
_atom_site_fract_y
_atom_site_fract_z
Si Si1 0.867577 0.657353 0.839257
Si Si2 0.420964 0.491758 0.715166
Si Si3 0.024055 0.573784 0.302947
Si Si4 0.225854 0.648346 0.240315
Si Si5 0.528138 0.212423 0.380020
Si Si6 0.000000 0.000000 0.500000
Si Si7 0.179664 0.129720 0.027040
Si Si8 0.385032 0.749828 0.892585
O O1 0.880124 0.570127 0.805519
O O2 0.887899 0.788874 0.668994
O O3 0.647796 0.376564 0.919091
O O4 0.058328 0.892713 0.986634
O O5 0.410002 0.605926 0.606607
O O6 0.663444 0.730438 0.785985
O O7 0.241552 0.231793 0.613523
O O8 0.327492 0.363245 0.883246
O O9 0.046333 0.507181 0.249059
O O10 0.000000 0.500000 0.500000
O O11 0.820306 0.410747 0.183767
O O12 0.268243 0.909640 0.309476
O O13 0.383616 0.778925 0.431635
O O14 0.389787 0.918461 0.117962
O O15 0.630669 0.320174 0.239242
O O16 0.000000 0.000000 0.000000
#
# Coordination Sequence:
#
# PCOD9011772 Si02
#       8
#     2   2   2   2   2   1   2   2
#     4  11  23  42  66  97 138 174 225 289 340 400
#     4  10  21  40  67  92 128 175 222 281 339 400
#     4  11  20  37  63  96 133 179 229 265 337 415
#     4  11  22  39  63  96 137 175 217 282 340 396
#     4  11  20  37  67  94 132 177 223 272 336 411
#     4  10  22  42  68  96 132 176 224 290 346 388
#     4  10  22  43  67  93 127 175 232 275 338 411
#     4  11  22  39  64  98 133 182 224 273 336 414
#
# _framework density 22.150704999999999
#
# number of rings (size 3 to 8) (size 9 to 14) (size 15 to 20)
#    0.000    1.333    4.000    2.800    0.000    0.533 
#    0.000    8.000    2.933    0.000    0.000    0.000 
#    0.000    0.000    0.000    0.000    0.000    0.000 
#
# Total GULP energy -83512.760625 kJ/mol
# GULP energy per Si atom -5567.517375 kJ/mol
# Density = 2.210029 g / cm^3
# Si number density = 22.150705 Si / 1000 Ang^3
#
#
#
# Elastic Constant Matrix: (Units=GPa)
#
#
# Indices 1 2 3 4 5 6 
#
# 1 71.9974 51.7415 25.3171 7.4147 -7.1246 17.0565
# 2 51.7415 76.4782 45.8107 8.5023 0.5294 15.4737
# 3 25.3171 45.8107 105.7004 -18.7927 8.1936 7.7100
# 4 7.4147 8.5023 -18.7927 57.4744 -2.9362 1.4625
# 5 -7.1246 0.5294 8.1936 -2.9362 27.6091 4.0385
# 6 17.0565 15.4737 7.7100 1.4625 4.0385 36.7299
#
#
#
# Elastic Compliance Matrix: (Units=1/GPa)
#
#
# Indices 1 2 3 4 5 6 
#
# 1 0.030232 -0.019828 0.001179 0.000046 0.008847 -0.006908
# 2 -0.019828 0.034067 -0.010699 -0.006069 -0.002898 -0.002338
# 3 0.001179 -0.010699 0.015113 0.006172 -0.003454 0.000922
# 4 0.000046 -0.006069 0.006172 0.020320 0.000401 0.000386
# 5 0.008847 -0.002898 -0.003454 0.000401 0.040598 -0.006642
# 6 -0.006908 -0.002338 0.000922 0.000386 -0.006642 0.031940
#
#
# Mechanical properties :
#
#
# Convention : Reuss Voigt Hill
#
# Bulk Modulus (GPa) = 48.27443 55.54605 51.91024
# Shear Modulus (GPa) = 21.01967 33.11645 27.06806
#
# Velocity S-wave (km/s) = 3.08383 3.87078 3.49950
# Velocity P-wave (km/s) = 5.87545 6.71626 6.30988
#
# Compressibility (1/GPa) = 0.02071490
#
# Stress axis : x y z
#
# Youngs Moduli (GPa) = 33.07772 29.35379 66.16654
#
# Poissons Ratio (x) = 0.58204 -0.07800
# Poissons Ratio (y) = 0.65588 0.70793
# Poissons Ratio (z) = -0.03899 0.31406
#
# Static dielectric constant tensor:
#      x y z
#    x 1.882620 0.011360 0.170870 
#    y 0.011360 1.936170 0.249530 
#    z 0.170870 0.249530 2.572420 
# 
# From -- ./inp_files/335244.got.cif
#   From: 2010.05.17/outbox.cif.g08.bks.cpg/sg2_168_cif.got.tgz:335244.got - 2010.06.03 11:33:40.
