data_PCOD9011229
_publ_section_title
;
Structure prediction by ZEFSAII (Michael W. Deem and Ramdas Pophale) SiO2 
 PCOD9011229
Probable space group: P -1
;
_chemical_formula_sum "Si O2"
_cell_formula_units_Z 16
_cell_length_a 14.326654
_cell_length_b 7.537814
_cell_length_c 9.736006
_cell_angle_alpha 96.359063
_cell_angle_beta 44.526783
_cell_angle_gamma 111.034308
_cell_volume 671.032438
_symmetry_space_group_name_H-M "P -1"
_symmetry_group_IT_number 2
_symmetry_cell_setting 'triclinic'
loop_
_space_group_symop_operation_xyz
x,y,z
-x,-y,-z
loop_
_atom_site_type_symbol
_atom_site_label
_atom_site_fract_x
_atom_site_fract_y
_atom_site_fract_z
Si Si1 0.071598 0.819910 0.476137
Si Si2 0.672833 0.296381 0.095703
Si Si3 0.638034 0.477939 0.420321
Si Si4 0.995529 0.533328 0.297818
Si Si5 0.382681 0.057925 0.052273
Si Si6 0.888425 0.862253 0.908556
Si Si7 0.437980 0.400946 0.853414
Si Si8 0.052782 0.274311 0.891902
O O1 0.989159 0.703810 0.417544
O O2 0.092728 0.661523 0.542733
O O3 0.966287 0.885068 0.682662
O O4 0.228904 0.976061 0.284192
O O5 0.677338 0.345109 0.257532
O O6 0.639085 0.074082 0.075159
O O7 0.568005 0.387606 0.141734
O O8 0.832200 0.417774 0.875669
O O9 0.500000 0.500000 0.500000
O O10 0.576260 0.397234 0.626453
O O11 0.776850 0.681313 0.305582
O O12 0.957192 0.560268 0.183441
O O13 0.430546 0.285290 0.990723
O O14 0.500000 0.000000 0.000000
O O15 0.717535 0.737717 0.064091
O O16 0.955960 0.756417 0.937638
O O17 0.933714 0.076096 0.940638
#
# Coordination Sequence:
#
# PCOD9011229 Si02
#       8
#     2   2   2   2   2   2   2   2
#     4  10  22  42  62  88 135 170 215 264 339 385
#     4  10  21  45  68  91 134 173 211 272 343 385
#     4  10  21  41  66  95 131 177 213 261 345 403
#     4  10  21  40  65  95 123 171 222 269 320 398
#     4  11  27  44  61 101 131 169 233 268 310 412
#     4  11  22  42  65 101 131 170 220 282 327 386
#     4  11  23  45  68  92 137 177 212 271 340 391
#     4  11  23  38  68 101 133 161 232 280 317 391
#
# _framework density 23.843855000000001
#
# number of rings (size 3 to 8) (size 9 to 14) (size 15 to 20)
#    0.000    1.500    3.750    1.500    1.750    7.000 
#    0.000    0.000    0.000    0.000    0.000    0.000 
#    0.000    0.000    0.000    0.000    0.000    0.000 
#
# Total GULP energy -89297.444285 kJ/mol
# GULP energy per Si atom -5581.090268 kJ/mol
# Density = 2.378959 g / cm^3
# Si number density = 23.843855 Si / 1000 Ang^3
#
#
#
# Elastic Constant Matrix: (Units=GPa)
#
#
# Indices 1 2 3 4 5 6 
#
# 1 82.3022 -3.8209 1.2892 -1.3007 16.4679 -15.8856
# 2 -3.8209 62.8142 5.7172 -4.7409 3.1982 -16.6109
# 3 1.2892 5.7172 137.2449 1.0081 5.1781 -2.2880
# 4 -1.3007 -4.7409 1.0081 32.7254 -0.6137 12.8826
# 5 16.4679 3.1982 5.1781 -0.6137 36.6342 -10.7982
# 6 -15.8856 -16.6109 -2.2880 12.8826 -10.7982 41.0703
#
#
#
# Elastic Compliance Matrix: (Units=1/GPa)
#
#
# Indices 1 2 3 4 5 6 
#
# 1 0.014348 0.002523 0.000055 -0.001401 -0.005024 0.005692
# 2 0.002523 0.018343 -0.000636 -0.000571 -0.000150 0.008499
# 3 0.000055 -0.000636 0.007353 -0.000341 -0.001010 0.000015
# 4 -0.001401 -0.000571 -0.000341 0.035300 -0.002361 -0.012485
# 5 -0.005024 -0.000150 -0.001010 -0.002361 0.031742 0.007026
# 6 0.005692 0.008499 0.000015 -0.012485 0.007026 0.035752
#
#
# Mechanical properties :
#
#
# Convention : Reuss Voigt Hill
#
# Bulk Modulus (GPa) = 22.76455 32.08136 27.42296
# Shear Modulus (GPa) = 32.55234 40.69769 36.62501
#
# Velocity S-wave (km/s) = 3.69891 4.13588 3.92348
# Velocity P-wave (km/s) = 5.27358 6.02422 5.66136
#
# Compressibility (1/GPa) = 0.04392795
#
# Stress axis : x y z
#
# Youngs Moduli (GPa) = 69.69479 54.51543 135.99725
#
# Poissons Ratio (x) = -0.13754 -0.00746
# Poissons Ratio (y) = -0.17584 0.08653
# Poissons Ratio (z) = -0.00382 0.03469
#
# Static dielectric constant tensor:
#      x y z
#    x 1.963510 -0.049360 0.062650 
#    y -0.049360 1.992940 0.039430 
#    z 0.062650 0.039430 1.905020 
# 
# From -- ./inp_files/295420.got.cif
#   From: 2010.05.17/outbox.cif.g08.bks.cpg/sg2_148_cif.got.tgz:295420.got - 2010.06.03 11:33:40.
