data_PCOD9011834
_publ_section_title
;
Structure prediction by ZEFSAII (Michael W. Deem and Ramdas Pophale) SiO2 
 PCOD9011834
Probable space group: P -1
;
_chemical_formula_sum "Si O2"
_cell_formula_units_Z 16
_cell_length_a 14.779613
_cell_length_b 26.844196
_cell_length_c 7.912269
_cell_angle_alpha 143.319588
_cell_angle_beta 44.814378
_cell_angle_gamma 160.220120
_cell_volume 618.460334
_symmetry_space_group_name_H-M "P -1"
_symmetry_group_IT_number 2
_symmetry_cell_setting 'triclinic'
loop_
_space_group_symop_operation_xyz
x,y,z
-x,-y,-z
loop_
_atom_site_type_symbol
_atom_site_label
_atom_site_fract_x
_atom_site_fract_y
_atom_site_fract_z
Si Si1 0.206700 0.672138 0.579291
Si Si2 0.347397 0.421045 0.666684
Si Si3 0.879876 0.735856 0.968025
Si Si4 0.102908 0.446486 0.667131
Si Si5 0.576593 0.137334 0.712265
Si Si6 0.720853 0.806304 0.761682
Si Si7 0.683876 0.892981 0.743280
Si Si8 0.172018 0.840101 0.198316
O O1 0.489886 0.784331 0.540069
O O2 0.000000 0.500000 0.500000
O O3 0.048376 0.598594 0.415176
O O4 0.268207 0.802639 0.917687
O O5 0.500000 0.500000 0.500000
O O6 0.562791 0.578620 0.946785
O O7 0.270361 0.285088 0.457348
O O8 0.062477 0.305661 0.744222
O O9 0.891107 0.650396 0.633075
O O10 0.023641 0.797756 0.121583
O O11 0.042933 0.900841 0.103467
O O12 0.418580 0.657869 0.832821
O O13 0.891863 0.337516 0.802385
O O14 0.500000 0.000000 0.500000
O O15 0.408794 0.037369 0.486352
O O16 0.456648 0.131177 0.990385
O O17 0.724333 0.831390 0.626291
O O18 0.000000 0.000000 0.000000
#
# Coordination Sequence:
#
# PCOD9011834 Si02
#       8
#     2   2   2   2   2   2   2   2
#     4  11  22  42  65  99 135 175 212 275 341 399
#     4  11  24  44  70  95 130 180 231 274 323 399
#     4  10  21  40  67  95 127 179 223 269 329 393
#     4  10  22  40  66  96 133 175 221 271 335 402
#     4  12  22  38  64 104 130 170 226 276 331 395
#     4  11  24  42  64  94 135 173 215 276 336 392
#     4  12  23  42  68  98 137 171 218 284 339 392
#     4  11  23  41  69  97 134 172 229 273 326 405
#
# _framework density 25.870695999999999
#
# number of rings (size 3 to 8) (size 9 to 14) (size 15 to 20)
#    0.000    1.000    3.750    3.375    1.750    2.500 
#    2.250    0.625    0.000    0.000    0.000    0.000 
#    0.000    0.000    0.000    0.000    0.000    0.000 
#
# Total GULP energy -89572.863596 kJ/mol
# GULP energy per Si atom -5598.303975 kJ/mol
# Density = 2.581181 g / cm^3
# Si number density = 25.870696 Si / 1000 Ang^3
#
#
#
# Elastic Constant Matrix: (Units=GPa)
#
#
# Indices 1 2 3 4 5 6 
#
# 1 165.3652 31.0623 31.5320 18.6273 7.4480 -6.8541
# 2 31.0623 143.3341 37.6136 40.5193 8.7299 -1.8281
# 3 31.5320 37.6136 86.5272 22.7814 8.2693 0.6861
# 4 18.6273 40.5193 22.7814 52.5430 3.5668 5.1645
# 5 7.4480 8.7299 8.2693 3.5668 32.4508 19.1300
# 6 -6.8541 -1.8281 0.6861 5.1645 19.1300 41.2806
#
#
#
# Elastic Compliance Matrix: (Units=1/GPa)
#
#
# Indices 1 2 3 4 5 6 
#
# 1 0.006817 -0.000467 -0.001721 -0.001390 -0.002232 0.002348
# 2 -0.000467 0.009634 -0.002093 -0.006413 -0.002677 0.002427
# 3 -0.001721 -0.002093 0.014413 -0.003945 -0.003038 0.001283
# 4 -0.001390 -0.006413 -0.003945 0.026478 0.003243 -0.005265
# 5 -0.002232 -0.002677 -0.003038 0.003243 0.045354 -0.021862
# 6 0.002348 0.002427 0.001283 -0.005265 -0.021862 0.035490
#
#
# Mechanical properties :
#
#
# Convention : Reuss Voigt Hill
#
# Bulk Modulus (GPa) = 44.83622 66.18249 55.50935
# Shear Modulus (GPa) = 32.42927 44.92279 38.67603
#
# Velocity S-wave (km/s) = 3.54434 4.17158 3.87068
# Velocity P-wave (km/s) = 5.84109 6.98858 6.44044
#
# Compressibility (1/GPa) = 0.02230340
#
# Stress axis : x y z
#
# Youngs Moduli (GPa) = 146.68159 103.79823 69.38363
#
# Poissons Ratio (x) = 0.04848 0.11939
# Poissons Ratio (y) = 0.06851 0.14519
# Poissons Ratio (z) = 0.25240 0.21721
#
# Static dielectric constant tensor:
#      x y z
#    x 2.120480 0.037610 0.043000 
#    y 0.037610 2.058100 -0.059000 
#    z 0.043000 -0.059000 2.094910 
# 
# From -- ./inp_files/262667.got.cif
#   From: 2010.05.17/outbox.cif.g08.bks.cpg/sg2_132_cif.got.tgz:262667.got - 2010.06.03 11:33:40.
