data_PCOD9011351
_publ_section_title
;
Structure prediction by ZEFSAII (Michael W. Deem and Ramdas Pophale) SiO2 
 PCOD9011351
Probable space group: P -1
;
_chemical_formula_sum "Si O2"
_cell_formula_units_Z 12
_cell_length_a 6.897422
_cell_length_b 13.315974
_cell_length_c 7.710594
_cell_angle_alpha 105.533632
_cell_angle_beta 135.854740
_cell_angle_gamma 68.628146
_cell_volume 459.298337
_symmetry_space_group_name_H-M "P -1"
_symmetry_group_IT_number 2
_symmetry_cell_setting 'triclinic'
loop_
_space_group_symop_operation_xyz
x,y,z
-x,-y,-z
loop_
_atom_site_type_symbol
_atom_site_label
_atom_site_fract_x
_atom_site_fract_y
_atom_site_fract_z
Si Si1 0.053299 0.238923 0.303306
Si Si2 0.177397 0.538787 0.873627
Si Si3 0.880967 0.157990 0.627275
Si Si4 0.390849 0.094933 0.148433
Si Si5 0.218534 0.595452 0.321558
Si Si6 0.592853 0.138677 0.810149
O O1 0.997458 0.367137 0.318986
O O2 0.257876 0.189188 0.571036
O O3 0.235116 0.188304 0.226000
O O4 0.752791 0.205849 0.069573
O O5 0.779766 0.877924 0.128272
O O6 0.500000 0.500000 0.000000
O O7 0.172097 0.592783 0.084394
O O8 0.776057 0.284423 0.573214
O O9 0.750129 0.138142 0.723276
O O10 0.723859 0.096415 0.364540
O O11 0.353756 0.983848 0.151456
O O12 0.500000 0.500000 0.500000
O O13 0.962244 0.559669 0.234568
#
# Coordination Sequence:
#
# PCOD9011351 Si02
#       6
#     2   2   2   2   2   2
#     4  10  18  33  51  83 124 153 206 259 303 380
#     4  11  25  42  63  93 130 173 215 263 325 383
#     4  10  18  30  52  83 123 152 201 260 308 372
#     4  10  17  29  52  88 120 155 203 260 314 376
#     4  11  23  41  65  90 130 169 217 272 314 380
#     4  10  17  29  53  86 121 155 203 261 314 373
#
# _framework density 26.126811
#
# number of rings (size 3 to 8) (size 9 to 14) (size 15 to 20)
#    0.000    1.667    3.333    7.000    2.333    0.667 
#    0.000    0.000    0.000    0.000    0.000   12.833 
#    0.000    0.000    0.000    0.000    0.000    0.000 
#
# Total GULP energy -67312.248613 kJ/mol
# GULP energy per Si atom -5609.354051 kJ/mol
# Density = 2.606735 g / cm^3
# Si number density = 26.126811 Si / 1000 Ang^3
#
#
#
# Elastic Constant Matrix: (Units=GPa)
#
#
# Indices 1 2 3 4 5 6 
#
# 1 116.5099 60.1030 51.7154 -3.2442 14.1796 13.3544
# 2 60.1030 113.5853 34.9929 -19.9593 -1.3957 18.8236
# 3 51.7154 34.9929 212.8261 -17.7755 18.6957 12.0938
# 4 -3.2442 -19.9593 -17.7755 53.5512 6.5893 -3.5398
# 5 14.1796 -1.3957 18.6957 6.5893 51.1726 8.7918
# 6 13.3544 18.8236 12.0938 -3.5398 8.7918 38.3323
#
#
#
# Elastic Compliance Matrix: (Units=1/GPa)
#
#
# Indices 1 2 3 4 5 6 
#
# 1 0.013283 -0.006766 -0.002027 -0.002056 -0.002824 -0.000208
# 2 -0.006766 0.013991 -0.000283 0.004079 0.002634 -0.004652
# 3 -0.002027 -0.000283 0.005553 0.001793 -0.001643 -0.000364
# 4 -0.002056 0.004079 0.001793 0.021060 -0.002812 0.000737
# 5 -0.002824 0.002634 -0.001643 -0.002812 0.022244 -0.005152
# 6 -0.000208 -0.004652 -0.000364 0.000737 -0.005152 0.029809
#
#
# Mechanical properties :
#
#
# Convention : Reuss Voigt Hill
#
# Bulk Modulus (GPa) = 68.13980 81.83820 74.98900
# Shear Modulus (GPa) = 38.76497 48.35189 43.55843
#
# Velocity S-wave (km/s) = 3.85609 4.30660 4.08756
# Velocity P-wave (km/s) = 6.77960 7.49136 7.14435
#
# Compressibility (1/GPa) = 0.01467571
#
# Stress axis : x y z
#
# Youngs Moduli (GPa) = 75.28280 71.47341 180.09876
#
# Poissons Ratio (x) = 0.48358 0.36509
# Poissons Ratio (y) = 0.50935 0.05091
# Poissons Ratio (z) = 0.15261 0.02020
#
# Static dielectric constant tensor:
#      x y z
#    x 2.120790 -0.061300 -0.002860 
#    y -0.061300 1.987980 0.037790 
#    z -0.002860 0.037790 2.129550 
# 
# From -- ./inp_files/213144.got.cif
#   From: 2010.05.17/outbox.cif.g08.bks.cpg/sg2_107_cif.got.tgz:213144.got - 2010.06.03 11:33:40.
