data_PCOD9011969
_publ_section_title
;
Structure prediction by ZEFSAII (Michael W. Deem and Ramdas Pophale) SiO2 
 PCOD9011969
Probable space group: P -1
;
_chemical_formula_sum "Si O2"
_cell_formula_units_Z 16
_cell_length_a 9.281738
_cell_length_b 5.178000
_cell_length_c 23.100863
_cell_angle_alpha 99.406522
_cell_angle_beta 128.923129
_cell_angle_gamma 52.350099
_cell_volume 638.640964
_symmetry_space_group_name_H-M "P -1"
_symmetry_group_IT_number 2
_symmetry_cell_setting 'triclinic'
loop_
_space_group_symop_operation_xyz
x,y,z
-x,-y,-z
loop_
_atom_site_type_symbol
_atom_site_label
_atom_site_fract_x
_atom_site_fract_y
_atom_site_fract_z
Si Si1 0.576691 0.146570 0.979595
Si Si2 0.277500 0.347534 0.277101
Si Si3 0.878670 0.323619 0.177451
Si Si4 0.892879 0.248535 0.873965
Si Si5 0.469780 0.660310 0.560501
Si Si6 0.765910 0.707720 0.316058
Si Si7 0.184923 0.433081 0.496277
Si Si8 0.655359 0.253260 0.217128
O O1 0.500000 0.500000 0.000000
O O2 0.387006 0.290641 0.884340
O O3 0.871608 0.858602 0.036258
O O4 0.500000 0.000000 0.000000
O O5 0.180861 0.532063 0.196290
O O6 0.323515 0.522356 0.344211
O O7 0.088963 0.313539 0.254069
O O8 0.547754 0.975767 0.316843
O O9 0.802833 0.147678 0.190911
O O10 0.000381 0.119667 0.139958
O O11 0.642474 0.454161 0.854319
O O12 0.500000 0.500000 0.500000
O O13 0.262440 0.659163 0.534028
O O14 0.406709 0.019217 0.542701
O O15 0.736401 0.434234 0.280739
O O16 0.031019 0.533887 0.402446
O O17 0.714288 0.945168 0.257957
O O18 0.000000 0.500000 0.500000
#
# Coordination Sequence:
#
# PCOD9011969 Si02
#       8
#     2   2   2   2   2   2   2   2
#     4  10  21  40  68 101 137 182 227 277 346 412
#     4  11  24  43  73  93 140 184 232 283 357 413
#     4  11  24  43  70 101 139 185 229 284 349 415
#     4  10  23  43  69 100 142 179 231 286 343 414
#     4  12  29  46  68 106 141 181 235 295 355 416
#     4  11  25  46  68  99 135 180 235 291 341 423
#     4  12  26  48  71  96 132 186 232 287 356 419
#     4  11  26  41  70 105 136 181 236 282 348 409
#
# _framework density 25.053197999999998
#
# number of rings (size 3 to 8) (size 9 to 14) (size 15 to 20)
#    0.000    1.000    3.750    1.500    8.750    1.500 
#    0.000    0.000    0.000    5.250    0.000    0.000 
#    0.000    0.000    0.000    0.000    0.000    0.000 
#
# Total GULP energy -89521.287531 kJ/mol
# GULP energy per Si atom -5595.080471 kJ/mol
# Density = 2.499618 g / cm^3
# Si number density = 25.053198 Si / 1000 Ang^3
#
#
#
# Elastic Constant Matrix: (Units=GPa)
#
#
# Indices 1 2 3 4 5 6 
#
# 1 138.1576 18.6487 38.1056 -2.3213 22.4801 4.8226
# 2 18.6487 63.2507 23.7817 -2.1300 2.2660 8.3433
# 3 38.1056 23.7817 125.7070 -18.5341 30.7061 14.5494
# 4 -2.3213 -2.1300 -18.5341 36.0820 1.6670 6.0858
# 5 22.4801 2.2660 30.7061 1.6670 45.6607 1.4560
# 6 4.8226 8.3433 14.5494 6.0858 1.4560 33.0986
#
#
#
# Elastic Compliance Matrix: (Units=1/GPa)
#
#
# Indices 1 2 3 4 5 6 
#
# 1 0.008382 -0.001816 -0.001497 -0.000208 -0.003025 0.000066
# 2 -0.001816 0.017789 -0.003035 -0.000230 0.002154 -0.002938
# 3 -0.001497 -0.003035 0.012618 0.007507 -0.007693 -0.005605
# 4 -0.000208 -0.000230 0.007507 0.033347 -0.005862 -0.009085
# 5 -0.003025 0.002154 -0.007693 -0.005862 0.028571 0.003100
# 6 0.000066 -0.002938 -0.005605 -0.009085 0.003100 0.034942
#
#
# Mechanical properties :
#
#
# Convention : Reuss Voigt Hill
#
# Bulk Modulus (GPa) = 38.32366 54.24302 46.28334
# Shear Modulus (GPa) = 31.83851 39.40690 35.62270
#
# Velocity S-wave (km/s) = 3.56875 3.97032 3.77488
# Velocity P-wave (km/s) = 5.68431 6.53575 6.12484
#
# Compressibility (1/GPa) = 0.02609354
#
# Stress axis : x y z
#
# Youngs Moduli (GPa) = 119.29670 56.21365 79.25484
#
# Poissons Ratio (x) = 0.10208 0.11864
# Poissons Ratio (y) = 0.21664 0.24054
# Poissons Ratio (z) = 0.17858 0.17061
#
# Static dielectric constant tensor:
#      x y z
#    x 1.961650 -0.022060 -0.023450 
#    y -0.022060 2.062890 -0.021940 
#    z -0.023450 -0.021940 2.058790 
# 
# From -- ./inp_files/605866.got.cif
#   From: 2010.05.17/outbox.cif.g08.bks.cpg/sg2_303_cif.got.tgz:605866.got - 2010.06.03 11:33:40.
