data_PCOD9011817
_publ_section_title
;
Structure prediction by ZEFSAII (Michael W. Deem and Ramdas Pophale) SiO2 
 PCOD9011817
Probable space group: P -1
;
_chemical_formula_sum "Si O2"
_cell_formula_units_Z 16
_cell_length_a 9.230010
_cell_length_b 14.659591
_cell_length_c 9.467040
_cell_angle_alpha 108.009557
_cell_angle_beta 137.036901
_cell_angle_gamma 65.634932
_cell_volume 795.205111
_symmetry_space_group_name_H-M "P -1"
_symmetry_group_IT_number 2
_symmetry_cell_setting 'triclinic'
loop_
_space_group_symop_operation_xyz
x,y,z
-x,-y,-z
loop_
_atom_site_type_symbol
_atom_site_label
_atom_site_fract_x
_atom_site_fract_y
_atom_site_fract_z
Si Si1 0.958515 0.392950 0.435732
Si Si2 0.817744 0.687253 0.177687
Si Si3 0.807041 0.358913 0.782303
Si Si4 0.424356 0.815910 0.522619
Si Si5 0.620624 0.892592 0.964663
Si Si6 0.936902 0.734560 0.819816
Si Si7 0.467845 0.466083 0.124112
Si Si8 0.954155 0.091320 0.906265
O O1 0.712895 0.413679 0.328002
O O2 0.000000 0.500000 0.500000
O O3 0.133872 0.316564 0.623060
O O4 0.968771 0.347269 0.267263
O O5 0.718335 0.799097 0.097255
O O6 0.054945 0.627113 0.248447
O O7 0.661201 0.616914 0.008368
O O8 0.675797 0.279011 0.605635
O O9 0.649591 0.446482 0.806738
O O10 0.015534 0.313580 0.015012
O O11 0.676942 0.783003 0.631743
O O12 0.254100 0.895693 0.339539
O O13 0.456125 0.858766 0.720911
O O14 0.830518 0.907761 0.033219
O O15 0.500000 0.000000 0.000000
O O16 0.077261 0.813655 0.967069
O O17 0.500000 0.500000 0.000000
O O18 0.000000 0.000000 0.000000
#
# Coordination Sequence:
#
# PCOD9011817 Si02
#       8
#     2   2   2   2   2   2   2   2
#     4  12  25  41  64 104 141 179 231 279 345 407
#     4  12  26  44  67 102 141 181 233 282 346 409
#     4  11  22  45  68  98 135 179 230 280 334 421
#     4  10  21  42  72  89 134 179 228 269 353 395
#     4  11  26  47  67 102 139 175 233 293 339 408
#     4  10  21  40  67  94 135 172 225 280 332 406
#     4  12  25  42  69  99 141 182 228 282 338 406
#     4  10  23  43  67  99 127 173 234 280 343 410
#
# _framework density 20.120595999999999
#
# number of rings (size 3 to 8) (size 9 to 14) (size 15 to 20)
#    0.000    1.000    6.250    1.125    1.750    6.000 
#    0.000    0.000    0.000    0.000    0.000    0.000 
#    0.000    0.000    0.000    0.000    0.000    0.000 
#
# Total GULP energy -89215.058558 kJ/mol
# GULP energy per Si atom -5575.941160 kJ/mol
# Density = 2.007480 g / cm^3
# Si number density = 20.120596 Si / 1000 Ang^3
#
#
#
# Elastic Constant Matrix: (Units=GPa)
#
#
# Indices 1 2 3 4 5 6 
#
# 1 62.2554 44.0370 38.4559 2.5240 -3.0363 -3.8666
# 2 44.0370 100.1128 52.4811 4.9576 -17.1909 -5.8666
# 3 38.4559 52.4811 152.9270 -11.9336 0.5512 0.7508
# 4 2.5240 4.9576 -11.9336 27.0444 -9.1846 -8.5268
# 5 -3.0363 -17.1909 0.5512 -9.1846 25.5417 -0.7270
# 6 -3.8666 -5.8666 0.7508 -8.5268 -0.7270 40.3159
#
#
#
# Elastic Compliance Matrix: (Units=1/GPa)
#
#
# Indices 1 2 3 4 5 6 
#
# 1 0.024984 -0.010040 -0.003093 -0.003493 -0.004972 0.000165
# 2 -0.010040 0.018508 -0.003845 0.000438 0.011563 0.002103
# 3 -0.003093 -0.003845 0.008984 0.004383 -0.001577 -0.000125
# 4 -0.003493 0.000438 0.004383 0.048286 0.017438 0.010174
# 5 -0.004972 0.011563 -0.001577 0.017438 0.052815 0.005876
# 6 0.000165 0.002103 -0.000125 0.010174 0.005876 0.027386
#
#
# Mechanical properties :
#
#
# Convention : Reuss Voigt Hill
#
# Bulk Modulus (GPa) = 53.98921 65.02705 59.50813
# Shear Modulus (GPa) = 22.61505 30.60180 26.60843
#
# Velocity S-wave (km/s) = 3.35621 3.90413 3.64049
# Velocity P-wave (km/s) = 6.47379 7.26029 6.87829
#
# Compressibility (1/GPa) = 0.01852222
#
# Stress axis : x y z
#
# Youngs Moduli (GPa) = 40.02495 54.03203 111.30341
#
# Poissons Ratio (x) = 0.54248 0.34423
# Poissons Ratio (y) = 0.40185 0.42791
# Poissons Ratio (z) = 0.12378 0.20773
#
# Static dielectric constant tensor:
#      x y z
#    x 1.690590 -0.021180 0.006790 
#    y -0.021180 1.775160 0.006770 
#    z 0.006790 0.006770 1.733600 
# 
# From -- ./inp_files/208574.got.cif
#   From: 2010.05.17/outbox.cif.g08.bks.cpg/sg2_105_cif.got.tgz:208574.got - 2010.06.03 11:33:40.
