data_PCOD9011767
_publ_section_title
;
Structure prediction by ZEFSAII (Michael W. Deem and Ramdas Pophale) SiO2 
 PCOD9011767
Probable space group: P -1
;
_chemical_formula_sum "Si O2"
_cell_formula_units_Z 14
_cell_length_a 11.441266
_cell_length_b 10.106584
_cell_length_c 11.070404
_cell_angle_alpha 132.200161
_cell_angle_beta 64.899387
_cell_angle_gamma 79.203023
_cell_volume 609.872608
_symmetry_space_group_name_H-M "P -1"
_symmetry_group_IT_number 2
_symmetry_cell_setting 'triclinic'
loop_
_space_group_symop_operation_xyz
x,y,z
-x,-y,-z
loop_
_atom_site_type_symbol
_atom_site_label
_atom_site_fract_x
_atom_site_fract_y
_atom_site_fract_z
Si Si1 0.077067 0.938436 0.174320
Si Si2 0.156083 0.254733 0.356478
Si Si3 0.605860 0.199349 0.185435
Si Si4 0.175573 0.285461 0.626334
Si Si5 0.551213 0.272287 0.767620
Si Si6 0.802263 0.524849 0.029900
Si Si7 0.682049 0.256434 0.437945
O O1 0.072440 0.140721 0.358306
O O2 0.894153 0.073139 0.263960
O O3 0.325770 0.038826 0.064360
O O4 0.120528 0.745278 0.134389
O O5 0.204038 0.312205 0.492311
O O6 0.000000 0.500000 0.500000
O O7 0.752981 0.206471 0.080124
O O8 0.637429 0.162737 0.291931
O O9 0.413769 0.466098 0.392494
O O10 0.245708 0.339851 0.737365
O O11 0.277654 0.998033 0.420872
O O12 0.961663 0.477318 0.865891
O O13 0.375594 0.317620 0.875257
O O14 0.591370 0.282600 0.618123
O O15 0.500000 0.500000 0.000000
#
# Coordination Sequence:
#
# PCOD9011767 Si02
#       7
#     2   2   2   2   2   2   2
#     4  10  21  40  67  92 123 170 217 258 325 378
#     4  10  24  44  65  95 130 167 215 273 319 382
#     4   9  22  38  61  93 129 162 220 257 319 383
#     4  11  25  43  66  94 137 169 216 269 322 383
#     4  12  24  40  69  97 132 168 217 270 320 388
#     4  11  24  42  68  99 127 175 216 263 327 383
#     4  11  20  38  65  95 124 169 212 269 311 387
#
# _framework density 22.955614000000001
#
# number of rings (size 3 to 8) (size 9 to 14) (size 15 to 20)
#    0.857    0.571    2.857    2.571    4.000    1.143 
#    0.000    0.714    0.000    0.000    0.000    0.000 
#    0.000    0.000    0.000    0.000    0.000    0.000 
#
# Total GULP energy -78260.145695 kJ/mol
# GULP energy per Si atom -5590.010407 kJ/mol
# Density = 2.290337 g / cm^3
# Si number density = 22.955614 Si / 1000 Ang^3
#
#
#
# Elastic Constant Matrix: (Units=GPa)
#
#
# Indices 1 2 3 4 5 6 
#
# 1 46.7186 9.4615 20.7072 -12.7961 1.7790 -12.3614
# 2 9.4615 65.9166 29.2143 -7.5275 0.2919 -22.4801
# 3 20.7072 29.2143 97.0426 -2.4434 7.3448 -17.1265
# 4 -12.7961 -7.5275 -2.4434 30.3485 -0.1788 6.8099
# 5 1.7790 0.2919 7.3448 -0.1788 26.7657 0.4395
# 6 -12.3614 -22.4801 -17.1265 6.8099 0.4395 33.2475
#
#
#
# Elastic Compliance Matrix: (Units=1/GPa)
#
#
# Indices 1 2 3 4 5 6 
#
# 1 0.027903 0.001712 -0.004953 0.010241 -0.000559 0.006890
# 2 0.001712 0.021465 -0.004669 0.002953 0.000754 0.012130
# 3 -0.004953 -0.004669 0.013395 -0.002751 -0.003355 0.002509
# 4 0.010241 0.002953 -0.002751 0.038571 0.000357 -0.003518
# 5 -0.000559 0.000754 -0.003355 0.000357 0.038346 -0.002006
# 6 0.006890 0.012130 0.002509 -0.003518 -0.002006 0.042880
#
#
# Mechanical properties :
#
#
# Convention : Reuss Voigt Hill
#
# Bulk Modulus (GPa) = 21.30300 36.49374 28.89837
# Shear Modulus (GPa) = 23.36135 28.09199 25.72667
#
# Velocity S-wave (km/s) = 3.19356 3.50201 3.35134
# Velocity P-wave (km/s) = 4.78526 5.68191 5.25275
#
# Compressibility (1/GPa) = 0.04694174
#
# Stress axis : x y z
#
# Youngs Moduli (GPa) = 35.83856 46.58745 74.65573
#
# Poissons Ratio (x) = -0.07976 0.36979
# Poissons Ratio (y) = -0.06135 0.34858
# Poissons Ratio (z) = 0.17752 0.21753
#
# Static dielectric constant tensor:
#      x y z
#    x 1.887170 0.025160 0.019740 
#    y 0.025160 1.832210 -0.015790 
#    z 0.019740 -0.015790 1.856950 
# 
# From -- ./inp_files/429060.got.cif
#   From: 2010.05.17/outbox.cif.g08.bks.cpg/sg2_215_cif.got.tgz:429060.got - 2010.06.03 11:33:40.
