data_PCOD9011649
_publ_section_title
;
Structure prediction by ZEFSAII (Michael W. Deem and Ramdas Pophale) SiO2 
 PCOD9011649
Probable space group: P -1
;
_chemical_formula_sum "Si O2"
_cell_formula_units_Z 16
_cell_length_a 21.353119
_cell_length_b 9.630557
_cell_length_c 5.186357
_cell_angle_alpha 126.845622
_cell_angle_beta 48.949099
_cell_angle_gamma 123.481948
_cell_volume 621.236310
_symmetry_space_group_name_H-M "P -1"
_symmetry_group_IT_number 2
_symmetry_cell_setting 'triclinic'
loop_
_space_group_symop_operation_xyz
x,y,z
-x,-y,-z
loop_
_atom_site_type_symbol
_atom_site_label
_atom_site_fract_x
_atom_site_fract_y
_atom_site_fract_z
Si Si1 0.413707 0.125348 0.599156
Si Si2 0.406710 0.487842 0.136200
Si Si3 0.135873 0.974633 0.614573
Si Si4 0.745435 0.176612 0.532756
Si Si5 0.170656 0.455102 0.540757
Si Si6 0.243092 0.328532 0.700328
Si Si7 0.600975 0.161673 0.277272
Si Si8 0.017016 0.169223 0.448828
O O1 0.517278 0.152556 0.312306
O O2 0.333763 0.980700 0.530359
O O3 0.408456 0.036754 0.803701
O O4 0.394235 0.315252 0.796687
O O5 0.340609 0.416529 0.465975
O O6 0.401460 0.690380 0.327073
O O7 0.500000 0.500000 0.000000
O O8 0.174306 0.887345 0.645846
O O9 0.073187 0.833517 0.442872
O O10 0.218677 0.119369 0.443406
O O11 0.078404 0.108327 0.006031
O O12 0.788565 0.338025 0.406226
O O13 0.692825 0.235137 0.974964
O O14 0.189344 0.415527 0.739204
O O15 0.071341 0.354331 0.633133
O O16 0.220857 0.358716 0.089879
O O17 0.000000 0.000000 0.500000
#
# Coordination Sequence:
#
# PCOD9011649 Si02
#       8
#     2   2   2   2   2   2   2   2
#     4  10  23  39  66  97 142 191 245 295 364 421
#     4  10  21  40  66  98 138 191 244 292 355 425
#     4  10  24  40  70  98 139 179 243 294 370 438
#     4  12  24  41  66 109 138 187 236 308 363 433
#     4  11  25  42  75  99 146 185 237 300 373 431
#     4  11  22  45  67 103 136 196 237 297 357 441
#     4  10  21  44  63  95 145 190 237 307 353 431
#     4  10  21  46  68  97 135 188 231 300 366 447
#
# _framework density 25.755095000000001
#
# number of rings (size 3 to 8) (size 9 to 14) (size 15 to 20)
#    0.000    1.500    2.500    1.875    3.500    1.500 
#    0.000    2.500    0.000    0.000    0.000    0.000 
#    0.000    0.000    0.000    0.000    0.000    0.000 
#
# Total GULP energy -89303.353117 kJ/mol
# GULP energy per Si atom -5581.459570 kJ/mol
# Density = 2.569648 g / cm^3
# Si number density = 25.755095 Si / 1000 Ang^3
#
#
#
# Elastic Constant Matrix: (Units=GPa)
#
#
# Indices 1 2 3 4 5 6 
#
# 1 132.6981 58.7317 23.1391 17.8837 -6.1477 20.0432
# 2 58.7317 136.5665 1.1222 1.6199 -6.3820 25.5341
# 3 23.1391 1.1222 49.9622 -1.4653 -13.8788 6.3130
# 4 17.8837 1.6199 -1.4653 40.2999 -0.0785 4.8683
# 5 -6.1477 -6.3820 -13.8788 -0.0785 21.5657 -1.2863
# 6 20.0432 25.5341 6.3130 4.8683 -1.2863 49.3078
#
#
#
# Elastic Compliance Matrix: (Units=1/GPa)
#
#
# Indices 1 2 3 4 5 6 
#
# 1 0.011318 -0.004659 -0.005675 -0.004922 -0.001884 -0.001025
# 2 -0.004659 0.010185 0.003532 0.002272 0.003731 -0.003960
# 3 -0.005675 0.003532 0.027825 0.003785 0.017169 -0.003011
# 4 -0.004922 0.002272 0.003785 0.027327 0.001667 -0.002315
# 5 -0.001884 0.003731 0.017169 0.001667 0.057872 -0.002020
# 6 -0.001025 -0.003960 -0.003011 -0.002315 -0.002020 0.023309
#
#
# Mechanical properties :
#
#
# Convention : Reuss Voigt Hill
#
# Bulk Modulus (GPa) = 27.99225 53.91253 40.95239
# Shear Modulus (GPa) = 27.27050 37.98361 32.62706
#
# Velocity S-wave (km/s) = 3.25751 3.84448 3.56310
# Velocity P-wave (km/s) = 5.00407 6.37847 5.73261
#
# Compressibility (1/GPa) = 0.03572417
#
# Stress axis : x y z
#
# Youngs Moduli (GPa) = 88.35169 98.18527 35.93904
#
# Poissons Ratio (x) = 0.45745 0.20397
# Poissons Ratio (y) = 0.41163 -0.12695
# Poissons Ratio (z) = 0.50143 -0.34683
#
# Static dielectric constant tensor:
#      x y z
#    x 1.975640 0.016600 -0.071800 
#    y 0.016600 2.011200 -0.076400 
#    z -0.071800 -0.076400 1.920240 
# 
# From -- ./inp_files/117303.got.cif
#   From: 2010.05.17/outbox.cif.g08.bks.cpg/sg2_59_cif.got.tgz:117303.got - 2010.06.03 11:33:40.
