data_PCOD9011524
_publ_section_title
;
Structure prediction by ZEFSAII (Michael W. Deem and Ramdas Pophale) SiO2 
 PCOD9011524
Probable space group: P -1
;
_chemical_formula_sum "Si O2"
_cell_formula_units_Z 16
_cell_length_a 17.484335
_cell_length_b 10.235920
_cell_length_c 10.745684
_cell_angle_alpha 137.647170
_cell_angle_beta 149.871279
_cell_angle_gamma 50.011436
_cell_volume 650.287876
_symmetry_space_group_name_H-M "P -1"
_symmetry_group_IT_number 2
_symmetry_cell_setting 'triclinic'
loop_
_space_group_symop_operation_xyz
x,y,z
-x,-y,-z
loop_
_atom_site_type_symbol
_atom_site_label
_atom_site_fract_x
_atom_site_fract_y
_atom_site_fract_z
Si Si1 0.571885 0.121728 0.000272
Si Si2 0.251569 0.467834 0.053972
Si Si3 0.574548 0.236877 0.341058
Si Si4 0.800993 0.379536 0.176830
Si Si5 0.944210 0.957559 0.721958
Si Si6 0.521460 0.781099 0.328005
Si Si7 0.151472 0.269008 0.331513
Si Si8 0.143281 0.104154 0.721986
O O1 0.626061 0.251678 0.281710
O O2 0.713013 0.985084 0.066178
O O3 0.509095 0.230442 0.870975
O O4 0.452595 0.976805 0.793549
O O5 0.408667 0.341185 0.179934
O O6 0.308178 0.661707 0.332715
O O7 0.181329 0.507246 0.848444
O O8 0.143257 0.335540 0.891353
O O9 0.907386 0.187561 0.186552
O O10 0.847212 0.519382 0.453721
O O11 0.619847 0.333646 0.893299
O O12 0.850598 0.876057 0.651648
O O13 0.853229 0.942175 0.453984
O O14 0.010859 0.171832 0.992159
O O15 0.700540 0.733852 0.551663
O O16 0.500000 0.000000 0.500000
O O17 0.000000 0.000000 0.500000
#
# Coordination Sequence:
#
# PCOD9011524 Si02
#       8
#     2   2   2   2   2   2   2   2
#     4  10  22  40  66  92 129 167 215 268 330 386
#     4  10  21  40  66  94 128 165 219 263 334 391
#     4   9  20  38  65  97 122 167 212 269 325 394
#     4  12  23  44  70  98 137 175 225 285 327 398
#     4  11  25  45  67  98 137 183 223 265 343 401
#     4  12  24  42  69 104 134 170 228 287 341 380
#     4  11  25  42  68 103 133 179 222 278 333 403
#     4  11  24  44  64  89 134 172 216 266 322 403
#
# _framework density 24.604488
#
# number of rings (size 3 to 8) (size 9 to 14) (size 15 to 20)
#    0.000    1.250    2.500    3.000    3.500    1.000 
#    2.250    0.625    0.000    0.000    0.000    0.000 
#    0.000    0.000    0.000    0.000    0.000    0.000 
#
# Total GULP energy -89514.688191 kJ/mol
# GULP energy per Si atom -5594.668012 kJ/mol
# Density = 2.454849 g / cm^3
# Si number density = 24.604488 Si / 1000 Ang^3
#
#
#
# Elastic Constant Matrix: (Units=GPa)
#
#
# Indices 1 2 3 4 5 6 
#
# 1 60.9954 1.9235 7.2202 4.7527 26.5786 -11.2634
# 2 1.9235 51.3704 24.7596 -11.6017 13.7293 -14.5816
# 3 7.2202 24.7596 95.0889 15.0081 18.7486 -18.5391
# 4 4.7527 -11.6017 15.0081 42.0959 -1.4529 -2.9443
# 5 26.5786 13.7293 18.7486 -1.4529 53.1867 4.1190
# 6 -11.2634 -14.5816 -18.5391 -2.9443 4.1190 28.4001
#
#
#
# Elastic Compliance Matrix: (Units=1/GPa)
#
#
# Indices 1 2 3 4 5 6 
#
# 1 0.027569 0.007308 0.003765 -0.001707 -0.018560 0.019659
# 2 0.007308 0.032429 -0.004640 0.010717 -0.011590 0.019311
# 3 0.003765 -0.004640 0.015867 -0.006925 -0.007225 0.009798
# 4 -0.001707 0.010717 -0.006925 0.029633 0.001087 0.003220
# 5 -0.018560 -0.011590 -0.007225 0.001087 0.035430 -0.023054
# 6 0.019659 0.019311 0.009798 0.003220 -0.023054 0.062996
#
#
# Mechanical properties :
#
#
# Convention : Reuss Voigt Hill
#
# Bulk Modulus (GPa) = 11.27005 30.58458 20.92731
# Shear Modulus (GPa) = 22.66187 36.30664 29.48425
#
# Velocity S-wave (km/s) = 3.03817 3.84553 3.46544
# Velocity P-wave (km/s) = 4.11068 5.67230 4.95342
#
# Compressibility (1/GPa) = 0.08873077
#
# Stress axis : x y z
#
# Youngs Moduli (GPa) = 36.27259 30.83667 63.02550
#
# Poissons Ratio (x) = -0.22535 -0.23731
# Poissons Ratio (y) = -0.26508 0.29245
# Poissons Ratio (z) = -0.13658 0.14309
#
# Static dielectric constant tensor:
#      x y z
#    x 1.955760 -0.066950 0.014510 
#    y -0.066950 1.980960 0.011340 
#    z 0.014510 0.011340 1.942160 
# 
# From -- ./inp_files/358820.got.cif
#   From: 2010.05.17/outbox.cif.g08.bks.cpg/sg2_180_cif.got.tgz:358820.got - 2010.06.03 11:33:40.
