data_PCOD9011658
_publ_section_title
;
Structure prediction by ZEFSAII (Michael W. Deem and Ramdas Pophale) SiO2 
 PCOD9011658
Probable space group: P -1
;
_chemical_formula_sum "Si O2"
_cell_formula_units_Z 14
_cell_length_a 11.956440
_cell_length_b 10.543689
_cell_length_c 8.544380
_cell_angle_alpha 138.838040
_cell_angle_beta 82.874067
_cell_angle_gamma 73.711679
_cell_volume 576.825952
_symmetry_space_group_name_H-M "P -1"
_symmetry_group_IT_number 2
_symmetry_cell_setting 'triclinic'
loop_
_space_group_symop_operation_xyz
x,y,z
-x,-y,-z
loop_
_atom_site_type_symbol
_atom_site_label
_atom_site_fract_x
_atom_site_fract_y
_atom_site_fract_z
Si Si1 0.795925 0.142884 0.576955
Si Si2 0.897451 0.209802 0.930040
Si Si3 0.273692 0.367998 0.006798
Si Si4 0.867000 0.907593 0.867913
Si Si5 0.584861 0.041537 0.146756
Si Si6 0.001931 0.529030 0.776326
Si Si7 0.484375 0.714582 0.304732
O O1 0.802496 0.198635 0.808962
O O2 0.679629 0.098252 0.524747
O O3 0.759746 0.375470 0.707663
O O4 0.948191 0.941231 0.308982
O O5 0.890308 0.104697 0.996639
O O6 0.873086 0.460557 0.177952
O O7 0.339074 0.192386 0.976953
O O8 0.396975 0.265999 0.766375
O O9 0.124390 0.419499 0.047873
O O10 0.934862 0.733805 0.843966
O O11 0.932929 0.724092 0.543757
O O12 0.705025 0.038624 0.036136
O O13 0.508781 0.261235 0.486103
O O14 0.500000 0.000000 0.000000
O O15 0.500000 0.500000 0.000000
#
# Coordination Sequence:
#
# PCOD9011658 Si02
#       7
#     2   2   2   2   2   2   2
#     4  10  22  40  63  99 131 178 233 268 344 397
#     4  11  22  39  65  97 137 176 227 284 324 420
#     4  10  21  43  68  93 139 181 226 285 332 410
#     4  10  22  41  63  96 142 169 219 291 341 405
#     4  11  25  44  69 104 131 181 232 279 347 406
#     4  10  21  40  66  99 129 181 224 273 356 391
#     4  10  23  45  70  94 137 182 226 279 340 407
#
# _framework density 24.270754
#
# number of rings (size 3 to 8) (size 9 to 14) (size 15 to 20)
#    0.000    1.714    1.429    2.571    2.000    2.857 
#   10.286    2.857    0.000    0.000    0.000    0.000 
#    0.000    0.000    0.000    0.000    0.000    0.000 
#
# Total GULP energy -78124.941211 kJ/mol
# GULP energy per Si atom -5580.352944 kJ/mol
# Density = 2.421551 g / cm^3
# Si number density = 24.270754 Si / 1000 Ang^3
#
#
#
# Elastic Constant Matrix: (Units=GPa)
#
#
# Indices 1 2 3 4 5 6 
#
# 1 176.9725 43.7366 44.6154 -29.0354 -4.0167 29.7288
# 2 43.7366 77.6882 9.3388 -8.8418 2.9846 14.0165
# 3 44.6154 9.3388 91.1706 -12.3539 1.8663 4.0471
# 4 -29.0354 -8.8418 -12.3539 29.2617 7.1867 2.4491
# 5 -4.0167 2.9846 1.8663 7.1867 34.7470 -12.4998
# 6 29.7288 14.0165 4.0471 2.4491 -12.4998 42.0227
#
#
#
# Elastic Compliance Matrix: (Units=1/GPa)
#
#
# Indices 1 2 3 4 5 6 
#
# 1 0.009576 -0.002688 -0.002858 0.008758 -0.002821 -0.006952
# 2 -0.002688 0.015800 0.000513 0.003774 -0.004238 -0.004898
# 3 -0.002858 0.000513 0.012780 0.003150 -0.001742 -0.000082
# 4 0.008758 0.003774 0.003150 0.050395 -0.015399 -0.015276
# 5 -0.002821 -0.004238 -0.001742 -0.015399 0.037745 0.015702
# 6 -0.006952 -0.004898 -0.000082 -0.015276 0.015702 0.035918
#
#
# Mechanical properties :
#
#
# Convention : Reuss Voigt Hill
#
# Bulk Modulus (GPa) = 35.59995 60.13476 47.86736
# Shear Modulus (GPa) = 27.52641 37.74898 32.63770
#
# Velocity S-wave (km/s) = 3.37135 3.94804 3.67104
# Velocity P-wave (km/s) = 5.46391 6.75375 6.14278
#
# Compressibility (1/GPa) = 0.02808993
#
# Stress axis : x y z
#
# Youngs Moduli (GPa) = 104.42594 63.29206 78.24438
#
# Poissons Ratio (x) = 0.17014 0.22360
# Poissons Ratio (y) = 0.28071 -0.04011
# Poissons Ratio (z) = 0.29842 -0.03245
#
# Static dielectric constant tensor:
#      x y z
#    x 1.972670 -0.047300 0.028590 
#    y -0.047300 1.943820 0.028450 
#    z 0.028590 0.028450 2.035250 
# 
# From -- ./inp_files/260938.got.cif
#   From: 2010.05.17/outbox.cif.g08.bks.cpg/sg2_131_cif.got.tgz:260938.got - 2010.06.03 11:33:40.
