data_PCOD9011632
_publ_section_title
;
Structure prediction by ZEFSAII (Michael W. Deem and Ramdas Pophale) SiO2 
 PCOD9011632
Probable space group: P -1
;
_chemical_formula_sum "Si O2"
_cell_formula_units_Z 16
_cell_length_a 7.583845
_cell_length_b 17.232184
_cell_length_c 7.601739
_cell_angle_alpha 53.685290
_cell_angle_beta 56.938577
_cell_angle_gamma 80.572674
_cell_volume 651.953256
_symmetry_space_group_name_H-M "P -1"
_symmetry_group_IT_number 2
_symmetry_cell_setting 'triclinic'
loop_
_space_group_symop_operation_xyz
x,y,z
-x,-y,-z
loop_
_atom_site_type_symbol
_atom_site_label
_atom_site_fract_x
_atom_site_fract_y
_atom_site_fract_z
Si Si1 0.627654 0.798816 0.565954
Si Si2 0.255628 0.253910 0.082739
Si Si3 0.980850 0.810403 0.069626
Si Si4 0.598886 0.139219 0.697460
Si Si5 0.777603 0.353147 0.904455
Si Si6 0.141738 0.021867 0.219020
Si Si7 0.090176 0.642840 0.793188
Si Si8 0.349334 0.575152 0.455523
O O1 0.717769 0.825475 0.676910
O O2 0.803284 0.780040 0.357847
O O3 0.499550 0.870290 0.436867
O O4 0.461075 0.694330 0.830526
O O5 0.138110 0.329645 0.147763
O O6 0.102419 0.215099 0.051987
O O7 0.480789 0.317440 0.799474
O O8 0.150630 0.742712 0.089302
O O9 0.007935 0.929523 0.894568
O O10 0.734296 0.251728 0.472467
O O11 0.768938 0.074787 0.741318
O O12 0.380782 0.101841 0.981991
O O13 0.772288 0.433322 0.652892
O O14 0.908986 0.387465 0.962791
O O15 0.000000 0.000000 0.500000
O O16 0.182273 0.573343 0.706123
O O17 0.500000 0.500000 0.500000
#
# Coordination Sequence:
#
# PCOD9011632 Si02
#       8
#     2   2   2   2   2   2   2   2
#     4   9  17  32  52  76 106 138 181 221 255 310
#     4  10  20  35  58  80 103 144 182 214 268 321
#     4  10  19  34  57  79 104 145 182 214 261 315
#     4   9  19  32  52  79 107 143 178 218 265 306
#     4   9  19  35  55  78 105 141 177 214 268 320
#     4  10  17  29  53  81 108 139 179 219 259 309
#     4  10  20  38  57  77 109 143 181 221 261 318
#     4  11  23  37  56  83 109 136 176 224 272 322
#
# _framework density 24.541639
#
# number of rings (size 3 to 8) (size 9 to 14) (size 15 to 20)
#    0.000    2.250    0.000    5.250    0.000    1.000 
#    0.000    3.125    0.000   34.500    0.000    0.000 
#    0.000    0.000    0.000    0.000    0.000    0.000 
#
# Total GULP energy -89257.711142 kJ/mol
# GULP energy per Si atom -5578.606946 kJ/mol
# Density = 2.448578 g / cm^3
# Si number density = 24.541639 Si / 1000 Ang^3
#
#
#
# Elastic Constant Matrix: (Units=GPa)
#
#
# Indices 1 2 3 4 5 6 
#
# 1 77.4090 28.7409 32.0356 -12.1029 20.4599 -18.7255
# 2 28.7409 112.9539 53.1129 6.5047 22.5218 -31.5438
# 3 32.0356 53.1129 141.8279 10.6139 16.1858 -22.7549
# 4 -12.1029 6.5047 10.6139 35.5047 -7.3810 -7.3674
# 5 20.4599 22.5218 16.1858 -7.3810 44.1648 -9.0924
# 6 -18.7255 -31.5438 -22.7549 -7.3674 -9.0924 35.0689
#
#
#
# Elastic Compliance Matrix: (Units=1/GPa)
#
#
# Indices 1 2 3 4 5 6 
#
# 1 0.018706 -0.000848 -0.002744 0.008152 -0.004205 0.008068
# 2 -0.000848 0.013773 -0.003054 -0.000880 -0.003853 0.008771
# 3 -0.002744 -0.003054 0.009303 -0.003156 -0.000919 0.000924
# 4 0.008152 -0.000880 -0.003156 0.035457 0.005916 0.010496
# 5 -0.004205 -0.003853 -0.000919 0.005916 0.028351 0.002286
# 6 0.008068 0.008771 0.000924 0.010496 0.002286 0.044110
#
#
# Mechanical properties :
#
#
# Convention : Reuss Voigt Hill
#
# Bulk Modulus (GPa) = 35.09646 62.21885 48.65765
# Shear Modulus (GPa) = 28.98763 37.50111 33.24437
#
# Velocity S-wave (km/s) = 3.44053 3.91328 3.68450
# Velocity P-wave (km/s) = 5.48770 6.76947 6.16200
#
# Compressibility (1/GPa) = 0.02849290
#
# Stress axis : x y z
#
# Youngs Moduli (GPa) = 53.45819 72.60589 107.48879
#
# Poissons Ratio (x) = 0.06154 0.29491
# Poissons Ratio (y) = 0.04531 0.32823
# Poissons Ratio (z) = 0.14667 0.22171
#
# Static dielectric constant tensor:
#      x y z
#    x 2.046910 0.048620 0.011140 
#    y 0.048620 2.036510 -0.055000 
#    z 0.011140 -0.055000 1.948840 
# 
# From -- ./inp_files/225214.got.cif
#   From: 2010.05.17/outbox.cif.g08.bks.cpg/sg2_113_cif.got.tgz:225214.got - 2010.06.03 11:33:40.
