data_PCOD9011381
_publ_section_title
;
Structure prediction by ZEFSAII (Michael W. Deem and Ramdas Pophale) SiO2 
 PCOD9011381
Probable space group: P -1
;
_chemical_formula_sum "Si O2"
_cell_formula_units_Z 16
_cell_length_a 12.069142
_cell_length_b 14.386864
_cell_length_c 9.086255
_cell_angle_alpha 61.307829
_cell_angle_beta 32.951946
_cell_angle_gamma 78.161201
_cell_volume 685.133564
_symmetry_space_group_name_H-M "P -1"
_symmetry_group_IT_number 2
_symmetry_cell_setting 'triclinic'
loop_
_space_group_symop_operation_xyz
x,y,z
-x,-y,-z
loop_
_atom_site_type_symbol
_atom_site_label
_atom_site_fract_x
_atom_site_fract_y
_atom_site_fract_z
Si Si1 0.521812 0.776588 0.328949
Si Si2 0.701144 0.471750 0.364634
Si Si3 0.521310 0.623170 0.037998
Si Si4 0.181477 0.135719 0.343546
Si Si5 0.386913 0.979006 0.302720
Si Si6 0.769948 0.188886 0.867869
Si Si7 0.073481 0.432869 0.241309
Si Si8 0.351334 0.669995 0.887875
O O1 0.367207 0.661009 0.502693
O O2 0.536648 0.727737 0.510688
O O3 0.387156 0.856935 0.436318
O O4 0.741948 0.838630 0.933362
O O5 0.500000 0.500000 0.500000
O O6 0.677858 0.468716 0.568633
O O7 0.898575 0.552046 0.977454
O O8 0.616799 0.758150 0.880628
O O9 0.732437 0.595968 0.872970
O O10 0.456673 0.624344 0.939505
O O11 0.178187 0.012190 0.488185
O O12 0.961901 0.147924 0.634660
O O13 0.549807 0.078299 0.152960
O O14 0.500000 0.000000 0.000000
O O15 0.853124 0.316308 0.601369
O O16 0.729984 0.232347 0.038829
O O17 0.138673 0.560071 0.142544
#
# Coordination Sequence:
#
# PCOD9011381 Si02
#       8
#     2   2   2   2   2   2   2   2
#     4   9  20  35  61  87 118 159 199 244 298 353
#     4   8  15  32  58  87 115 155 197 243 291 351
#     4   9  16  32  60  86 117 163 201 233 299 362
#     4   9  19  40  62  84 117 159 204 246 293 350
#     4  10  21  40  66  86 116 158 210 249 289 351
#     4  11  22  37  64  91 119 159 198 249 303 350
#     4   9  19  34  57  87 126 155 195 247 299 357
#     4  11  20  35  60  91 124 159 194 245 308 358
#
# _framework density 23.353110999999998
#
# number of rings (size 3 to 8) (size 9 to 14) (size 15 to 20)
#    0.000    2.500    1.250    1.500    0.000    2.500 
#    0.000    1.250   19.250    0.000    0.000    0.000 
#    0.000    0.000    0.000    0.000    0.000    0.000 
#
# Total GULP energy -89128.012009 kJ/mol
# GULP energy per Si atom -5570.500751 kJ/mol
# Density = 2.329996 g / cm^3
# Si number density = 23.353111 Si / 1000 Ang^3
#
#
#
# Elastic Constant Matrix: (Units=GPa)
#
#
# Indices 1 2 3 4 5 6 
#
# 1 118.3831 34.2607 40.4512 1.1575 27.6192 -2.6236
# 2 34.2607 150.1031 9.8633 -9.4223 -7.8991 -5.1550
# 3 40.4512 9.8633 56.0297 6.7698 4.7811 1.0681
# 4 1.1575 -9.4223 6.7698 36.1730 2.4758 -0.5136
# 5 27.6192 -7.8991 4.7811 2.4758 36.5151 0.6385
# 6 -2.6236 -5.1550 1.0681 -0.5136 0.6385 23.3613
#
#
#
# Elastic Compliance Matrix: (Units=1/GPa)
#
#
# Indices 1 2 3 4 5 6 
#
# 1 0.015375 -0.003318 -0.009747 0.001259 -0.011187 0.001774
# 2 -0.003318 0.007754 0.000450 0.001787 0.003985 0.001248
# 3 -0.009747 0.000450 0.025018 -0.004598 0.004547 -0.002365
# 4 0.001259 0.001787 -0.004598 0.029085 -0.001961 0.001439
# 5 -0.011187 0.003985 0.004547 -0.001961 0.036275 -0.001620
# 6 0.001774 0.001248 -0.002365 0.001439 -0.001620 0.043465
#
#
# Mechanical properties :
#
#
# Convention : Reuss Voigt Hill
#
# Bulk Modulus (GPa) = 43.63309 54.85181 49.24245
# Shear Modulus (GPa) = 26.33779 35.20593 30.77186
#
# Velocity S-wave (km/s) = 3.36193 3.88693 3.63392
# Velocity P-wave (km/s) = 5.81332 6.60933 6.22406
#
# Compressibility (1/GPa) = 0.02291839
#
# Stress axis : x y z
#
# Youngs Moduli (GPa) = 65.04099 128.95828 39.97088
#
# Poissons Ratio (x) = 0.42783 0.38961
# Poissons Ratio (y) = 0.21578 -0.01800
# Poissons Ratio (z) = 0.63398 -0.05808
#
# Static dielectric constant tensor:
#      x y z
#    x 1.979280 -0.062410 -0.010550 
#    y -0.062410 1.979610 0.056770 
#    z -0.010550 0.056770 1.953110 
# 
# From -- ./inp_files/269689.got.cif
#   From: 2010.05.17/outbox.cif.g08.bks.cpg/sg2_135_cif.got.tgz:269689.got - 2010.06.03 11:33:40.
