data_PCOD9011433
_publ_section_title
;
Structure prediction by ZEFSAII (Michael W. Deem and Ramdas Pophale) SiO2 
 PCOD9011433
Probable space group: P -1
;
_chemical_formula_sum "Si O2"
_cell_formula_units_Z 14
_cell_length_a 8.977212
_cell_length_b 18.519202
_cell_length_c 12.994834
_cell_angle_alpha 144.173392
_cell_angle_beta 108.987588
_cell_angle_gamma 45.122224
_cell_volume 720.304579
_symmetry_space_group_name_H-M "P -1"
_symmetry_group_IT_number 2
_symmetry_cell_setting 'triclinic'
loop_
_space_group_symop_operation_xyz
x,y,z
-x,-y,-z
loop_
_atom_site_type_symbol
_atom_site_label
_atom_site_fract_x
_atom_site_fract_y
_atom_site_fract_z
Si Si1 0.814516 0.005843 0.337433
Si Si2 0.919374 0.317300 0.565658
Si Si3 0.261994 0.400996 0.983811
Si Si4 0.506629 0.984352 0.357658
Si Si5 0.435945 0.669460 0.737405
Si Si6 0.627336 0.289904 0.777872
Si Si7 0.079645 0.974013 0.833569
O O1 0.701285 0.956809 0.312891
O O2 0.638698 0.229323 0.596049
O O3 0.843152 0.989566 0.203198
O O4 0.094095 0.866256 0.286358
O O5 0.718329 0.514528 0.673245
O O6 0.927995 0.165245 0.367721
O O7 0.215157 0.181307 0.475879
O O8 0.807938 0.426414 0.778270
O O9 0.456916 0.303016 0.821451
O O10 0.399730 0.213958 0.870654
O O11 0.000000 0.500000 0.000000
O O12 0.500000 0.000000 0.500000
O O13 0.500000 0.500000 0.500000
O O14 0.301349 0.839235 0.816590
O O15 0.202839 0.811493 0.934592
O O16 0.500000 0.500000 0.000000
#
# Coordination Sequence:
#
# PCOD9011433 Si02
#       7
#     2   2   2   2   2   2   2
#     4  11  23  37  54  86 123 157 199 249 294 347
#     4  11  21  37  64  88 119 159 203 244 298 358
#     4  12  22  37  58  85 123 169 204 234 291 362
#     4  12  23  38  55  82 127 169 199 237 289 358
#     4   9  20  40  67  92 112 148 200 256 312 366
#     4  11  22  34  55  83 119 159 201 246 292 346
#     4  10  21  40  66  91 117 149 201 260 307 350
#
# _framework density 19.436223999999999
#
# number of rings (size 3 to 8) (size 9 to 14) (size 15 to 20)
#    0.000    1.143    2.857    4.286    2.000    1.143 
#    0.000    0.714    0.000   12.000    0.000    0.000 
#    0.000    0.000    0.000    0.000    0.000    0.000 
#
# Total GULP energy -78053.816389 kJ/mol
# GULP energy per Si atom -5575.272599 kJ/mol
# Density = 1.939199 g / cm^3
# Si number density = 19.436224 Si / 1000 Ang^3
#
#
#
# Elastic Constant Matrix: (Units=GPa)
#
#
# Indices 1 2 3 4 5 6 
#
# 1 115.7267 47.6511 34.9739 1.6891 -26.1759 10.7462
# 2 47.6511 108.3866 27.0298 12.7327 -29.4397 -6.5513
# 3 34.9739 27.0298 128.6249 0.1754 -4.3100 9.3732
# 4 1.6891 12.7327 0.1754 36.1435 -2.2595 -9.8888
# 5 -26.1759 -29.4397 -4.3100 -2.2595 34.3682 1.3887
# 6 10.7462 -6.5513 9.3732 -9.8888 1.3887 31.4629
#
#
#
# Elastic Compliance Matrix: (Units=1/GPa)
#
#
# Indices 1 2 3 4 5 6 
#
# 1 0.012662 -0.003519 -0.002135 -0.000242 0.006539 -0.004786
# 2 -0.003519 0.014303 -0.001985 -0.003399 0.008965 0.003307
# 3 -0.002135 -0.001985 0.008863 0.000014 -0.002124 -0.002226
# 4 -0.000242 -0.003399 0.000014 0.031327 -0.001410 0.009279
# 5 0.006539 0.008965 -0.002124 -0.001410 0.041479 -0.002008
# 6 -0.004786 0.003307 -0.002226 0.009279 -0.002008 0.037775
#
#
# Mechanical properties :
#
#
# Convention : Reuss Voigt Hill
#
# Bulk Modulus (GPa) = 48.66098 63.56087 56.11092
# Shear Modulus (GPa) = 29.66696 36.60046 33.13371
#
# Velocity S-wave (km/s) = 3.91112 4.34418 4.13333
# Velocity P-wave (km/s) = 6.74436 7.61156 7.19105
#
# Compressibility (1/GPa) = 0.02055035
#
# Stress axis : x y z
#
# Youngs Moduli (GPa) = 78.97361 69.91697 112.82537
#
# Poissons Ratio (x) = 0.24604 0.24091
# Poissons Ratio (y) = 0.27791 0.22393
# Poissons Ratio (z) = 0.16863 0.13877
#
# Static dielectric constant tensor:
#      x y z
#    x 1.607560 0.010890 0.043350 
#    y 0.010890 1.721140 -0.013150 
#    z 0.043350 -0.013150 1.739230 
# 
# From -- ./inp_files/80761.got.cif
#   From: 2010.05.17/outbox.cif.g08.bks.cpg/sg2_41_cif.got.tgz:80761.got - 2010.06.03 11:33:40.
