data_PCOD9011982
_publ_section_title
;
Structure prediction by ZEFSAII (Michael W. Deem and Ramdas Pophale) SiO2 
 PCOD9011982
Probable space group: P -1
;
_chemical_formula_sum "Si O2"
_cell_formula_units_Z 16
_cell_length_a 8.976742
_cell_length_b 14.287578
_cell_length_c 24.107746
_cell_angle_alpha 18.596933
_cell_angle_beta 48.613300
_cell_angle_gamma 51.565399
_cell_volume 739.639175
_symmetry_space_group_name_H-M "P -1"
_symmetry_group_IT_number 2
_symmetry_cell_setting 'triclinic'
loop_
_space_group_symop_operation_xyz
x,y,z
-x,-y,-z
loop_
_atom_site_type_symbol
_atom_site_label
_atom_site_fract_x
_atom_site_fract_y
_atom_site_fract_z
Si Si1 0.250713 0.233157 0.698846
Si Si2 0.884015 0.861809 0.657866
Si Si3 0.173342 0.751540 0.815295
Si Si4 0.101292 0.245269 0.964209
Si Si5 0.385800 0.272367 0.984111
Si Si6 0.460069 0.813189 0.806742
Si Si7 0.846707 0.107316 0.653731
Si Si8 0.768926 0.920709 0.088415
O O1 0.211391 0.561931 0.506438
O O2 0.296407 0.242142 0.748031
O O3 0.424159 0.068928 0.716063
O O4 0.055970 0.024953 0.852875
O O5 0.655523 0.855052 0.698682
O O6 0.977869 0.546126 0.826559
O O7 0.866906 0.027466 0.628401
O O8 0.000000 0.000000 0.500000
O O9 0.264852 0.793886 0.828875
O O10 0.344777 0.614563 0.812597
O O11 0.067296 0.039957 0.659552
O O12 0.000000 0.500000 0.000000
O O13 0.229628 0.255185 0.870385
O O14 0.245048 0.197323 0.008166
O O15 0.300532 0.101927 0.155662
O O16 0.614193 0.184335 0.971048
O O17 0.500000 0.500000 0.000000
O O18 0.000000 0.000000 0.000000
#
# Coordination Sequence:
#
# PCOD9011982 Si02
#       8
#     2   2   2   2   2   2   2   2
#     4  11  23  42  68 101 136 179 230 289 341 411
#     4  12  26  45  68 102 144 182 233 291 345 416
#     4  10  21  40  68 102 135 176 231 289 343 405
#     4  11  23  43  69  96 138 182 228 282 351 414
#     4  11  22  41  71  98 133 183 233 281 345 412
#     4  12  23  41  73 104 134 187 237 279 350 416
#     4  11  24  43  68 101 141 175 231 295 342 405
#     4  10  23  40  63  98 135 175 226 280 345 408
#
# _framework density 21.632169999999999
#
# number of rings (size 3 to 8) (size 9 to 14) (size 15 to 20)
#    0.000    1.000    2.500    5.625    1.750    5.000 
#    0.000    3.125    0.000    0.000    0.000    0.000 
#    0.000    0.000    0.000    0.000    0.000    0.000 
#
# Total GULP energy -89340.215695 kJ/mol
# GULP energy per Si atom -5583.763481 kJ/mol
# Density = 2.158293 g / cm^3
# Si number density = 21.632170 Si / 1000 Ang^3
#
#
#
# Elastic Constant Matrix: (Units=GPa)
#
#
# Indices 1 2 3 4 5 6 
#
# 1 120.2669 51.2664 29.9282 7.6686 24.6507 -2.4981
# 2 51.2664 172.9220 51.8643 -13.1388 10.2996 -13.0513
# 3 29.9282 51.8643 78.2106 -13.2078 8.6288 -8.4813
# 4 7.6686 -13.1388 -13.2078 45.9320 -6.9941 11.7902
# 5 24.6507 10.2996 8.6288 -6.9941 23.3719 -3.8313
# 6 -2.4981 -13.0513 -8.4813 11.7902 -3.8313 47.2593
#
#
#
# Elastic Compliance Matrix: (Units=1/GPa)
#
#
# Indices 1 2 3 4 5 6 
#
# 1 0.013345 -0.002773 -0.002775 -0.005839 -0.013609 -0.000205
# 2 -0.002773 0.007902 -0.003974 0.001543 0.001545 0.001063
# 3 -0.002775 -0.003974 0.017294 0.004032 -0.000365 0.000824
# 4 -0.005839 0.001543 0.004032 0.027376 0.011351 -0.005068
# 5 -0.013609 0.001545 -0.000365 0.011351 0.060269 0.001696
# 6 -0.000205 0.001063 0.000824 -0.005068 0.001696 0.022992
#
#
# Mechanical properties :
#
#
# Convention : Reuss Voigt Hill
#
# Bulk Modulus (GPa) = 51.28673 70.83526 61.06099
# Shear Modulus (GPa) = 28.61715 39.20202 33.90958
#
# Velocity S-wave (km/s) = 3.64111 4.26162 3.96353
# Velocity P-wave (km/s) = 6.43715 7.55193 7.01672
#
# Compressibility (1/GPa) = 0.01949822
#
# Stress axis : x y z
#
# Youngs Moduli (GPa) = 74.93614 126.54554 57.82493
#
# Poissons Ratio (x) = 0.35086 0.16044
# Poissons Ratio (y) = 0.20777 0.22979
# Poissons Ratio (z) = 0.20792 0.50288
#
# Static dielectric constant tensor:
#      x y z
#    x 1.852320 -0.007800 -0.033410 
#    y -0.007800 1.848680 0.030200 
#    z -0.033410 0.030200 1.822870 
# 
# From -- ./inp_files/500371.got.cif
#   From: 2010.05.17/outbox.cif.g08.bks.cpg/sg2_251_cif.got.tgz:500371.got - 2010.06.03 11:33:40.
