data_PCOD9011605
_publ_section_title
;
Structure prediction by ZEFSAII (Michael W. Deem and Ramdas Pophale) SiO2 
 PCOD9011605
Probable space group: P -1
;
_chemical_formula_sum "Si O2"
_cell_formula_units_Z 14
_cell_length_a 11.647873
_cell_length_b 7.763608
_cell_length_c 12.012694
_cell_angle_alpha 36.643635
_cell_angle_beta 120.725614
_cell_angle_gamma 102.727893
_cell_volume 517.866803
_symmetry_space_group_name_H-M "P -1"
_symmetry_group_IT_number 2
_symmetry_cell_setting 'triclinic'
loop_
_space_group_symop_operation_xyz
x,y,z
-x,-y,-z
loop_
_atom_site_type_symbol
_atom_site_label
_atom_site_fract_x
_atom_site_fract_y
_atom_site_fract_z
Si Si1 0.231612 0.922050 0.463769
Si Si2 0.967653 0.409803 0.405349
Si Si3 0.526545 0.502266 0.882512
Si Si4 0.321230 0.721736 0.377751
Si Si5 0.571136 0.064206 0.878514
Si Si6 0.898537 0.432998 0.809971
Si Si7 0.806337 0.142684 0.107153
O O1 0.402370 0.812669 0.620025
O O2 0.222109 0.893677 0.341269
O O3 0.174190 0.668882 0.619491
O O4 0.148893 0.236517 0.323949
O O5 0.980323 0.607984 0.202576
O O6 0.000000 0.500000 0.500000
O O7 0.105573 0.083908 0.635205
O O8 0.500000 0.500000 0.000000
O O9 0.684894 0.441479 0.946865
O O10 0.496169 0.189809 0.996686
O O11 0.454271 0.418223 0.643317
O O12 0.380483 0.942814 0.222544
O O13 0.232135 0.593964 0.313858
O O14 0.713605 0.007610 0.051217
O O15 0.913259 0.212977 0.038036
#
# Coordination Sequence:
#
# PCOD9011605 Si02
#       7
#     2   2   2   2   2   2   2
#     4  12  25  44  71  99 140 180 221 286 346 394
#     4  12  25  47  72 100 138 184 231 280 344 409
#     4  12  25  41  69 107 135 175 230 281 342 408
#     4  10  21  42  66 101 133 181 222 283 340 399
#     4  10  21  40  66  96 141 174 225 277 342 406
#     4  11  26  46  69 103 140 178 233 282 338 412
#     4  11  25  45  71  99 138 182 227 283 337 407
#
# _framework density 27.033978000000001
#
# number of rings (size 3 to 8) (size 9 to 14) (size 15 to 20)
#    0.000    0.857    2.857    4.286    2.000    1.714 
#    2.571    0.000    0.000    0.000    0.000    0.000 
#    0.000    0.000    0.000    0.000    0.000    0.000 
#
# Total GULP energy -78447.287593 kJ/mol
# GULP energy per Si atom -5603.377685 kJ/mol
# Density = 2.697245 g / cm^3
# Si number density = 27.033978 Si / 1000 Ang^3
#
#
#
# Elastic Constant Matrix: (Units=GPa)
#
#
# Indices 1 2 3 4 5 6 
#
# 1 161.4523 21.2536 34.6175 7.2137 -23.7298 -31.6955
# 2 21.2536 116.0424 2.2303 2.1861 -4.2897 -25.9804
# 3 34.6175 2.2303 84.3171 16.6815 -6.0122 0.4695
# 4 7.2137 2.1861 16.6815 31.8786 -6.2662 -6.7414
# 5 -23.7298 -4.2897 -6.0122 -6.2662 60.1080 4.0478
# 6 -31.6955 -25.9804 0.4695 -6.7414 4.0478 37.3915
#
#
#
# Elastic Compliance Matrix: (Units=1/GPa)
#
#
# Indices 1 2 3 4 5 6 
#
# 1 0.008856 0.000272 -0.003930 0.002249 0.002829 0.007844
# 2 0.000272 0.010262 -0.000643 0.001246 0.000397 0.007550
# 3 -0.003930 -0.000643 0.015106 -0.008225 -0.000581 -0.005388
# 4 0.002249 0.001246 -0.008225 0.037726 0.003460 0.009302
# 5 0.002829 0.000397 -0.000581 0.003460 0.017993 0.001357
# 6 0.007844 0.007550 -0.005388 0.009302 0.001357 0.040237
#
#
# Mechanical properties :
#
#
# Convention : Reuss Voigt Hill
#
# Bulk Modulus (GPa) = 39.03013 53.11272 46.07143
# Shear Modulus (GPa) = 33.93893 46.12300 40.03096
#
# Velocity S-wave (km/s) = 3.54703 4.13499 3.85225
# Velocity P-wave (km/s) = 5.58963 6.51819 6.07169
#
# Compressibility (1/GPa) = 0.02562123
#
# Stress axis : x y z
#
# Youngs Moduli (GPa) = 112.91984 97.44964 66.19744
#
# Poissons Ratio (x) = -0.02651 0.26015
# Poissons Ratio (y) = -0.03071 0.04259
# Poissons Ratio (z) = 0.44377 0.06270
#
# Static dielectric constant tensor:
#      x y z
#    x 2.106930 -0.051880 0.011810 
#    y -0.051880 2.183650 -0.018990 
#    z 0.011810 -0.018990 2.166770 
# 
# From -- ./inp_files/416158.got.cif
#   From: 2010.05.17/outbox.cif.g08.bks.cpg/sg2_209_cif.got.tgz:416158.got - 2010.06.03 11:33:40.
