data_PCOD9011383
_publ_section_title
;
Structure prediction by ZEFSAII (Michael W. Deem and Ramdas Pophale) SiO2 
 PCOD9011383
Probable space group: P -1
;
_chemical_formula_sum "Si O2"
_cell_formula_units_Z 16
_cell_length_a 8.843233
_cell_length_b 11.959786
_cell_length_c 14.558220
_cell_angle_alpha 31.667862
_cell_angle_beta 50.859583
_cell_angle_gamma 53.798025
_cell_volume 621.540391
_symmetry_space_group_name_H-M "P -1"
_symmetry_group_IT_number 2
_symmetry_cell_setting 'triclinic'
loop_
_space_group_symop_operation_xyz
x,y,z
-x,-y,-z
loop_
_atom_site_type_symbol
_atom_site_label
_atom_site_fract_x
_atom_site_fract_y
_atom_site_fract_z
Si Si1 0.498369 0.257851 0.073278
Si Si2 0.348206 0.924478 0.258237
Si Si3 0.074165 0.900179 0.922177
Si Si4 0.837941 0.291403 0.364424
Si Si5 0.972739 0.238000 0.596588
Si Si6 0.756651 0.645764 0.291593
Si Si7 0.863301 0.460630 0.993232
Si Si8 0.677330 0.964386 0.527814
O O1 0.730899 0.212652 0.022654
O O2 0.372541 0.490609 0.953860
O O3 0.420276 0.150422 0.087039
O O4 0.422207 0.136569 0.275525
O O5 0.191517 0.886073 0.424194
O O6 0.223846 0.884501 0.245548
O O7 0.538422 0.752216 0.324227
O O8 0.079358 0.765908 0.918218
O O9 0.066342 0.147178 0.720901
O O10 0.888318 0.835278 0.092573
O O11 0.739246 0.512377 0.295897
O O12 0.752183 0.187159 0.380293
O O13 0.056819 0.350429 0.230089
O O14 0.870497 0.474116 0.439211
O O15 0.146761 0.171258 0.502758
O O16 0.000000 0.500000 0.000000
O O17 0.500000 0.000000 0.500000
#
# Coordination Sequence:
#
# PCOD9011383 Si02
#       8
#     2   2   2   2   2   2   2   2
#     4  11  22  38  60  93 130 166 202 256 322 376
#     4  10  21  40  66  86 120 169 219 262 303 356
#     4  11  23  39  61  92 130 161 206 258 317 378
#     4   9  19  36  59  88 119 155 209 254 303 365
#     4  11  21  40  65  91 124 165 206 260 314 374
#     4  10  23  42  64  88 122 168 222 263 298 360
#     4  11  22  37  60  94 128 164 205 258 315 387
#     4  11  20  34  61  92 127 160 195 254 325 384
#
# _framework density 25.742497
#
# number of rings (size 3 to 8) (size 9 to 14) (size 15 to 20)
#    0.000    1.500    1.250    6.375    0.000    4.500 
#    0.000    1.875    2.750    0.000    0.000    0.000 
#    0.000    0.000    0.000    0.000    0.000    0.000 
#
# Total GULP energy -89294.261796 kJ/mol
# GULP energy per Si atom -5580.891362 kJ/mol
# Density = 2.568391 g / cm^3
# Si number density = 25.742497 Si / 1000 Ang^3
#
#
#
# Elastic Constant Matrix: (Units=GPa)
#
#
# Indices 1 2 3 4 5 6 
#
# 1 96.5132 38.5831 19.3779 -0.0138 -3.5983 -20.4644
# 2 38.5831 110.7296 29.4378 -14.2067 -1.3812 -29.2770
# 3 19.3779 29.4378 56.5768 -4.1940 -0.8648 -12.3199
# 4 -0.0138 -14.2067 -4.1940 32.6459 -7.1810 -7.8836
# 5 -3.5983 -1.3812 -0.8648 -7.1810 39.5181 -6.0610
# 6 -20.4644 -29.2770 -12.3199 -7.8836 -6.0610 51.8527
#
#
#
# Elastic Compliance Matrix: (Units=1/GPa)
#
#
# Indices 1 2 3 4 5 6 
#
# 1 0.012699 -0.003217 -0.002115 -0.000723 0.001285 0.002734
# 2 -0.003217 0.014241 -0.004072 0.008040 0.002703 0.007342
# 3 -0.002115 -0.004072 0.021138 0.001650 0.000770 0.002229
# 4 -0.000723 0.008040 0.001650 0.039176 0.009161 0.011674
# 5 0.001285 0.002703 0.000770 0.009161 0.028258 0.006912
# 6 0.002734 0.007342 0.002229 0.011674 0.006912 0.027622
#
#
# Mechanical properties :
#
#
# Convention : Reuss Voigt Hill
#
# Bulk Modulus (GPa) = 34.16319 48.73524 41.44922
# Shear Modulus (GPa) = 29.12090 36.56473 32.84281
#
# Velocity S-wave (km/s) = 3.36704 3.77291 3.57574
# Velocity P-wave (km/s) = 5.33065 6.16058 5.76058
#
# Compressibility (1/GPa) = 0.02927127
#
# Stress axis : x y z
#
# Youngs Moduli (GPa) = 78.74478 70.21988 47.30913
#
# Poissons Ratio (x) = 0.22589 0.10004
# Poissons Ratio (y) = 0.25331 0.19264
# Poissons Ratio (z) = 0.16651 0.28593
#
# Static dielectric constant tensor:
#      x y z
#    x 2.128100 0.089270 0.057020 
#    y 0.089270 2.044060 -0.027450 
#    z 0.057020 -0.027450 2.101440 
# 
# From -- ./inp_files/346426.got.cif
#   From: 2010.05.17/outbox.cif.g08.bks.cpg/sg2_174_cif.got.tgz:346426.got - 2010.06.03 11:33:40.
