data_PCOD9011746
_publ_section_title
;
Structure prediction by ZEFSAII (Michael W. Deem and Ramdas Pophale) SiO2 
 PCOD9011746
Probable space group: P -1
;
_chemical_formula_sum "Si O2"
_cell_formula_units_Z 16
_cell_length_a 8.663399
_cell_length_b 21.364410
_cell_length_c 18.219610
_cell_angle_alpha 160.907371
_cell_angle_beta 137.613491
_cell_angle_gamma 42.487236
_cell_volume 731.601663
_symmetry_space_group_name_H-M "P -1"
_symmetry_group_IT_number 2
_symmetry_cell_setting 'triclinic'
loop_
_space_group_symop_operation_xyz
x,y,z
-x,-y,-z
loop_
_atom_site_type_symbol
_atom_site_label
_atom_site_fract_x
_atom_site_fract_y
_atom_site_fract_z
Si Si1 0.252560 0.874949 0.933576
Si Si2 0.300866 0.954702 0.757642
Si Si3 0.346505 0.893249 0.143603
Si Si4 0.767159 0.112208 0.504029
Si Si5 0.884226 0.466587 0.998965
Si Si6 0.905506 0.240984 0.398223
Si Si7 0.475051 0.783493 0.226982
Si Si8 0.992759 0.355717 0.062181
O O1 0.435294 0.013701 0.128148
O O2 0.322583 0.783233 0.936555
O O3 0.227988 0.741622 0.707359
O O4 0.000000 0.000000 0.000000
O O5 0.208842 0.875226 0.561296
O O6 0.252869 0.823708 0.663895
O O7 0.153593 0.173755 0.955573
O O8 0.559065 0.003023 0.326222
O O9 0.120313 0.059292 0.263905
O O10 0.411114 0.774583 0.108574
O O11 0.715394 0.319927 0.754120
O O12 0.000000 0.000000 0.500000
O O13 0.726750 0.655959 0.186489
O O14 0.063664 0.375325 0.023546
O O15 0.000000 0.500000 0.000000
O O16 0.991277 0.441265 0.668993
O O17 0.500000 0.000000 0.500000
O O18 0.263561 0.699562 0.095831
#
# Coordination Sequence:
#
# PCOD9011746 Si02
#       8
#     2   2   2   2   2   2   2   2
#     4   9  22  43  72  93 125 174 219 279 340 393
#     4  11  23  42  70  97 133 173 218 275 338 400
#     4  10  21  40  67  90 129 175 218 269 335 391
#     4  11  21  39  60  91 133 174 217 269 326 397
#     4  12  25  38  63  96 133 178 226 263 327 399
#     4  11  22  44  67  95 129 169 227 279 336 393
#     4  12  25  42  66  98 141 183 223 272 333 401
#     4  12  25  41  65 100 134 175 224 275 333 400
#
# _framework density 21.869826
#
# number of rings (size 3 to 8) (size 9 to 14) (size 15 to 20)
#    0.000    1.000    2.500    4.500    3.500    0.500 
#    0.000    0.625    2.750    0.000    0.000    0.000 
#    0.000    0.000    0.000    0.000    0.000    0.000 
#
# Total GULP energy -89418.619829 kJ/mol
# GULP energy per Si atom -5588.663739 kJ/mol
# Density = 2.182005 g / cm^3
# Si number density = 21.869826 Si / 1000 Ang^3
#
#
#
# Elastic Constant Matrix: (Units=GPa)
#
#
# Indices 1 2 3 4 5 6 
#
# 1 113.9294 29.8668 32.4544 -12.2247 8.2140 9.2025
# 2 29.8668 66.6300 31.0462 -21.1648 0.4674 21.8079
# 3 32.4544 31.0462 119.6725 -14.0966 -7.1627 11.1456
# 4 -12.2247 -21.1648 -14.0966 38.9260 1.1096 -10.9980
# 5 8.2140 0.4674 -7.1627 1.1096 23.3611 -8.4364
# 6 9.2025 21.8079 11.1456 -10.9980 -8.4364 52.1879
#
#
#
# Elastic Compliance Matrix: (Units=1/GPa)
#
#
# Indices 1 2 3 4 5 6 
#
# 1 0.010734 -0.003324 -0.002182 0.000727 -0.004640 -0.000635
# 2 -0.003324 0.023213 -0.003679 0.008330 -0.003391 -0.007121
# 3 -0.002182 -0.003679 0.010218 0.001077 0.004153 0.000638
# 4 0.000727 0.008330 0.001077 0.031625 -0.000609 0.002727
# 5 -0.004640 -0.003391 0.004153 -0.000609 0.049116 0.009160
# 6 -0.000635 -0.007121 0.000638 0.002727 0.009160 0.024168
#
#
# Mechanical properties :
#
#
# Convention : Reuss Voigt Hill
#
# Bulk Modulus (GPa) = 38.76613 54.10741 46.43677
# Shear Modulus (GPa) = 28.40230 36.68595 32.54413
#
# Velocity S-wave (km/s) = 3.60765 4.10013 3.86175
# Velocity P-wave (km/s) = 5.92604 6.87089 6.41588
#
# Compressibility (1/GPa) = 0.02579571
#
# Stress axis : x y z
#
# Youngs Moduli (GPa) = 93.16185 43.07959 97.86404
#
# Poissons Ratio (x) = 0.14319 0.21351
# Poissons Ratio (y) = 0.30965 0.36006
# Poissons Ratio (z) = 0.20326 0.15850
#
# Static dielectric constant tensor:
#      x y z
#    x 1.866100 0.041840 0.003210 
#    y 0.041840 1.849740 0.003930 
#    z 0.003210 0.003930 1.820290 
# 
# From -- ./inp_files/562986.got.cif
#   From: 2010.05.17/outbox.cif.g08.bks.cpg/sg2_282_cif.got.tgz:562986.got - 2010.06.03 11:33:40.
