data_PCOD9011087
_publ_section_title
;
Structure prediction by ZEFSAII (Michael W. Deem and Ramdas Pophale) SiO2 
 PCOD9011087
Probable space group: P -1
;
_chemical_formula_sum "Si O2"
_cell_formula_units_Z 16
_cell_length_a 13.607093
_cell_length_b 11.216005
_cell_length_c 9.111967
_cell_angle_alpha 44.536305
_cell_angle_beta 48.778178
_cell_angle_gamma 56.527266
_cell_volume 724.740867
_symmetry_space_group_name_H-M "P -1"
_symmetry_group_IT_number 2
_symmetry_cell_setting 'triclinic'
loop_
_space_group_symop_operation_xyz
x,y,z
-x,-y,-z
loop_
_atom_site_type_symbol
_atom_site_label
_atom_site_fract_x
_atom_site_fract_y
_atom_site_fract_z
Si Si1 0.225926 0.719186 0.771865
Si Si2 0.143311 0.898392 0.977253
Si Si3 0.828503 0.420158 0.575116
Si Si4 0.355508 0.767634 0.297053
Si Si5 0.954468 0.632542 0.056763
Si Si6 0.299253 0.100774 0.874950
Si Si7 0.581170 0.691482 0.656079
Si Si8 0.411396 0.413299 0.950430
O O1 0.229898 0.845450 0.794378
O O2 0.313990 0.759095 0.513403
O O3 0.271205 0.517036 0.946597
O O4 0.070787 0.744973 0.860246
O O5 0.219012 0.004532 0.920804
O O6 0.124340 0.721545 0.228262
O O7 0.000000 0.000000 0.000000
O O8 0.749568 0.327967 0.608172
O O9 0.940976 0.513682 0.314746
O O10 0.721266 0.566656 0.621179
O O11 0.499518 0.665799 0.203351
O O12 0.348101 0.960654 0.073146
O O13 0.808977 0.746084 0.086207
O O14 0.000000 0.500000 0.000000
O O15 0.407376 0.171573 0.603481
O O16 0.475385 0.573281 0.813401
O O17 0.568638 0.725502 0.813552
#
# Coordination Sequence:
#
# PCOD9011087 Si02
#       8
#     2   2   2   2   2   2   2   2
#     4  12  23  39  63  93 130 160 207 249 311 368
#     4  11  22  38  59  94 128 161 197 261 312 359
#     4   9  19  38  62  87 118 160 209 245 306 367
#     4  10  22  40  62  88 126 165 201 254 303 368
#     4  11  22  39  66  92 119 163 206 253 308 371
#     4  10  23  41  65  90 122 162 209 251 313 365
#     4   9  19  39  66  87 117 159 212 253 295 365
#     4  10  21  40  65  91 118 167 210 252 304 355
#
# _framework density 22.076857
#
# number of rings (size 3 to 8) (size 9 to 14) (size 15 to 20)
#    0.000    1.750    3.750    0.375    1.750    3.500 
#    0.000    0.625    0.000    0.000    0.000    0.000 
#    0.000    0.000    0.000    0.000    0.000    0.000 
#
# Total GULP energy -89359.389687 kJ/mol
# GULP energy per Si atom -5584.961855 kJ/mol
# Density = 2.202661 g / cm^3
# Si number density = 22.076857 Si / 1000 Ang^3
#
#
#
# Elastic Constant Matrix: (Units=GPa)
#
#
# Indices 1 2 3 4 5 6 
#
# 1 20.3197 10.2641 0.7580 5.0145 4.4191 -8.8739
# 2 10.2641 100.6024 37.6347 25.0636 15.2271 2.6524
# 3 0.7580 37.6347 101.3297 8.9583 10.1724 -2.6109
# 4 5.0145 25.0636 8.9583 38.4670 2.2033 2.2486
# 5 4.4191 15.2271 10.1724 2.2033 25.3166 4.0036
# 6 -8.8739 2.6524 -2.6109 2.2486 4.0036 24.6282
#
#
#
# Elastic Compliance Matrix: (Units=1/GPa)
#
#
# Indices 1 2 3 4 5 6 
#
# 1 0.069529 -0.005447 0.004372 -0.007402 -0.014583 0.029149
# 2 -0.005447 0.014844 -0.004353 -0.007505 -0.005181 -0.002495
# 3 0.004372 -0.004353 0.011956 -0.000546 -0.003524 0.003934
# 4 -0.007402 -0.007505 -0.000546 0.032066 0.004107 -0.005512
# 5 -0.014583 -0.005181 -0.003524 0.004107 0.048323 -0.013301
# 6 0.029149 -0.002495 0.003934 -0.005512 -0.013301 0.054458
#
#
# Mechanical properties :
#
#
# Convention : Reuss Voigt Hill
#
# Bulk Modulus (GPa) = 11.69943 35.50728 23.60336
# Shear Modulus (GPa) = 18.48272 29.25535 23.86903
#
# Velocity S-wave (km/s) = 2.89658 3.64422 3.29170
# Velocity P-wave (km/s) = 4.06175 5.81597 5.01614
#
# Compressibility (1/GPa) = 0.08547427
#
# Stress axis : x y z
#
# Youngs Moduli (GPa) = 14.38243 67.36676 83.63816
#
# Poissons Ratio (x) = 0.36693 -0.36568
# Poissons Ratio (y) = 0.07834 0.36409
# Poissons Ratio (z) = -0.06288 0.29326
#
# Static dielectric constant tensor:
#      x y z
#    x 1.874660 -0.024170 -0.024540 
#    y -0.024170 1.826260 0.042280 
#    z -0.024540 0.042280 1.905170 
# 
# From -- ./inp_files/200855.got.cif
#   From: 2010.05.17/outbox.cif.g08.bks.cpg/sg2_101_cif.got.tgz:200855.got - 2010.06.03 11:33:40.
