data_PCOD9011766
_publ_section_title
;
Structure prediction by ZEFSAII (Michael W. Deem and Ramdas Pophale) SiO2 
 PCOD9011766
Probable space group: P -1
;
_chemical_formula_sum "Si O2"
_cell_formula_units_Z 16
_cell_length_a 8.885164
_cell_length_b 9.674542
_cell_length_c 16.436298
_cell_angle_alpha 44.759326
_cell_angle_beta 64.311312
_cell_angle_gamma 96.412338
_cell_volume 672.658976
_symmetry_space_group_name_H-M "P -1"
_symmetry_group_IT_number 2
_symmetry_cell_setting 'triclinic'
loop_
_space_group_symop_operation_xyz
x,y,z
-x,-y,-z
loop_
_atom_site_type_symbol
_atom_site_label
_atom_site_fract_x
_atom_site_fract_y
_atom_site_fract_z
Si Si1 0.571896 0.007915 0.071729
Si Si2 0.814497 0.379724 0.476933
Si Si3 0.928826 0.634919 0.167040
Si Si4 0.623194 0.496051 0.897977
Si Si5 0.622264 0.149915 0.251452
Si Si6 0.187072 0.406405 0.455994
Si Si7 0.972563 0.650540 0.851888
Si Si8 0.483822 0.375398 0.299783
O O1 0.578202 0.228687 0.017805
O O2 0.383227 0.718010 0.268039
O O3 0.816332 0.102572 0.986482
O O4 0.500000 0.000000 0.000000
O O5 0.857259 0.484502 0.331938
O O6 0.862505 0.600569 0.434019
O O7 0.979246 0.331952 0.485481
O O8 0.565964 0.099882 0.652712
O O9 0.722461 0.597022 0.194827
O O10 0.958956 0.492184 0.151676
O O11 0.500000 0.500000 0.000000
O O12 0.877707 0.716085 0.776640
O O13 0.563012 0.534584 0.808452
O O14 0.496967 0.164156 0.349204
O O15 0.804665 0.129813 0.243358
O O16 0.774602 0.431371 0.051582
O O17 0.293525 0.292985 0.441783
#
# Coordination Sequence:
#
# PCOD9011766 Si02
#       8
#     2   2   2   2   2   2   2   2
#     4  11  20  42  67  90 121 167 201 252 311 371
#     4  11  23  42  65  86 122 179 204 247 309 379
#     4  10  22  39  65  89 130 160 207 254 309 365
#     4  11  20  36  63  94 124 150 202 257 307 357
#     4  10  21  40  67  92 123 161 209 254 313 361
#     4  11  24  42  64  90 126 165 213 247 310 370
#     4   9  19  38  64  92 124 157 201 256 312 372
#     4  11  23  39  60  97 125 157 208 264 301 363
#
# _framework density 23.786197999999999
#
# number of rings (size 3 to 8) (size 9 to 14) (size 15 to 20)
#    0.000    1.500    3.750    2.250    0.000    3.500 
#    0.000    1.250    0.000    0.000    0.000    0.000 
#    0.000    0.000    0.000    0.000    0.000    0.000 
#
# Total GULP energy -89314.491348 kJ/mol
# GULP energy per Si atom -5582.155709 kJ/mol
# Density = 2.373206 g / cm^3
# Si number density = 23.786198 Si / 1000 Ang^3
#
#
#
# Elastic Constant Matrix: (Units=GPa)
#
#
# Indices 1 2 3 4 5 6 
#
# 1 152.2589 50.5435 51.7133 -12.7746 -39.6001 42.8563
# 2 50.5435 103.6727 36.6161 22.6169 -14.5383 14.1314
# 3 51.7133 36.6161 81.1250 -7.6098 -17.8043 14.4601
# 4 -12.7746 22.6169 -7.6098 41.7785 8.5084 -15.5611
# 5 -39.6001 -14.5383 -17.8043 8.5084 46.2429 -6.9660
# 6 42.8563 14.1314 14.4601 -15.5611 -6.9660 47.0409
#
#
#
# Elastic Compliance Matrix: (Units=1/GPa)
#
#
# Indices 1 2 3 4 5 6 
#
# 1 0.013380 -0.002809 -0.003972 -0.000030 0.007696 -0.008995
# 2 -0.002809 0.016959 -0.005717 -0.013385 0.002459 -0.004842
# 3 -0.003972 -0.005717 0.017837 0.005633 0.000911 0.001851
# 4 -0.000030 -0.013385 0.005633 0.038909 -0.007094 0.014137
# 5 0.007696 0.002459 0.000911 -0.007094 0.029745 -0.005972
# 6 -0.008995 -0.004842 0.001851 0.014137 -0.005972 0.034131
#
#
# Mechanical properties :
#
#
# Convention : Reuss Voigt Hill
#
# Bulk Modulus (GPa) = 43.13739 68.31139 55.72439
# Shear Modulus (GPa) = 27.22057 40.22471 33.72264
#
# Velocity S-wave (km/s) = 3.38655 4.11675 3.76937
# Velocity P-wave (km/s) = 5.78502 7.16785 6.51324
#
# Compressibility (1/GPa) = 0.02318175
#
# Stress axis : x y z
#
# Youngs Moduli (GPa) = 74.73697 58.96522 56.06190
#
# Poissons Ratio (x) = 0.16561 0.22267
# Poissons Ratio (y) = 0.20990 0.32051
# Poissons Ratio (z) = 0.29685 0.33711
#
# Static dielectric constant tensor:
#      x y z
#    x 1.985590 0.017050 -0.046380 
#    y 0.017050 1.946820 -0.006050 
#    z -0.046380 -0.006050 1.967120 
# 
# From -- ./inp_files/559756.got.cif
#   From: 2010.05.17/outbox.cif.g08.bks.cpg/sg2_280_cif.got.tgz:559756.got - 2010.06.03 11:33:40.
