data_PCOD9011431
_publ_section_title
;
Structure prediction by ZEFSAII (Michael W. Deem and Ramdas Pophale) SiO2 
 PCOD9011431
Probable space group: P -1
;
_chemical_formula_sum "Si O2"
_cell_formula_units_Z 16
_cell_length_a 12.025131
_cell_length_b 20.006448
_cell_length_c 8.001406
_cell_angle_alpha 64.200742
_cell_angle_beta 126.976349
_cell_angle_gamma 150.877894
_cell_volume 727.988831
_symmetry_space_group_name_H-M "P -1"
_symmetry_group_IT_number 2
_symmetry_cell_setting 'triclinic'
loop_
_space_group_symop_operation_xyz
x,y,z
-x,-y,-z
loop_
_atom_site_type_symbol
_atom_site_label
_atom_site_fract_x
_atom_site_fract_y
_atom_site_fract_z
Si Si1 0.491517 0.116321 0.685328
Si Si2 0.631287 0.515717 0.951773
Si Si3 0.082410 0.096773 0.612209
Si Si4 0.145417 0.765491 0.553575
Si Si5 0.731413 0.661655 0.476471
Si Si6 0.371352 0.092877 0.984888
Si Si7 0.984525 0.408495 0.619822
Si Si8 0.135786 0.838517 0.106997
O O1 0.484412 0.137222 0.849780
O O2 0.709054 0.259308 0.618577
O O3 0.599149 0.080980 0.811790
O O4 0.199732 0.999110 0.475695
O O5 0.386161 0.379653 0.768535
O O6 0.500000 0.500000 0.000000
O O7 0.784752 0.510862 0.136858
O O8 0.882119 0.684656 0.955224
O O9 0.230047 0.238231 0.526311
O O10 0.259392 0.125709 0.863197
O O11 0.000000 0.000000 0.500000
O O12 0.969257 0.619583 0.473842
O O13 0.158239 0.826860 0.337674
O O14 0.003396 0.740727 0.606971
O O15 0.408792 0.841072 0.763570
O O16 0.500000 0.500000 0.500000
O O17 0.139366 0.926779 0.977491
O O18 0.000000 0.500000 0.500000
#
# Coordination Sequence:
#
# PCOD9011431 Si02
#       8
#     2   2   2   2   2   2   2   2
#     4   9  21  42  63  92 122 171 220 259 324 392
#     4  10  21  43  62  96 128 172 223 255 326 397
#     4  10  25  44  61  98 134 164 217 279 331 374
#     4  10  23  42  60  98 127 170 220 267 318 397
#     4  12  26  42  70  95 132 177 222 268 319 401
#     4  11  22  38  67  92 129 163 217 276 324 368
#     4  10  23  42  66  90 138 174 208 270 331 390
#     4  10  21  40  66  90 130 171 212 263 324 397
#
# _framework density 21.978359000000001
#
# number of rings (size 3 to 8) (size 9 to 14) (size 15 to 20)
#    0.000    2.000    2.500    1.500    8.750    4.000 
#    0.000    4.375    0.000    0.000    0.000    0.000 
#    0.000    0.000    0.000    0.000    0.000    0.000 
#
# Total GULP energy -89122.685400 kJ/mol
# GULP energy per Si atom -5570.167838 kJ/mol
# Density = 2.192834 g / cm^3
# Si number density = 21.978359 Si / 1000 Ang^3
#
#
#
# Elastic Constant Matrix: (Units=GPa)
#
#
# Indices 1 2 3 4 5 6 
#
# 1 72.7409 35.2239 10.5732 -14.9472 16.5577 -1.4522
# 2 35.2239 82.9803 38.6693 -13.5841 25.7713 -8.9898
# 3 10.5732 38.6693 59.9542 3.3062 19.7426 -3.2571
# 4 -14.9472 -13.5841 3.3062 42.5063 -3.7449 14.4647
# 5 16.5577 25.7713 19.7426 -3.7449 39.1418 1.1241
# 6 -1.4522 -8.9898 -3.2571 14.4647 1.1241 33.8736
#
#
#
# Elastic Compliance Matrix: (Units=1/GPa)
#
#
# Indices 1 2 3 4 5 6 
#
# 1 0.018750 -0.007420 0.002274 0.004684 -0.003664 -0.002825
# 2 -0.007420 0.023777 -0.012081 0.004304 -0.006102 0.003195
# 3 0.002274 -0.012081 0.026996 -0.006688 -0.007338 0.002586
# 4 0.004684 0.004304 -0.006688 0.031619 0.001953 -0.012867
# 5 -0.003664 -0.006102 -0.007338 0.001953 0.035133 -0.004482
# 6 -0.002825 0.003195 0.002586 -0.012867 -0.004482 0.036140
#
#
# Mechanical properties :
#
#
# Convention : Reuss Voigt Hill
#
# Bulk Modulus (GPa) = 28.51617 42.73425 35.62521
# Shear Modulus (GPa) = 22.87709 31.85162 27.36436
#
# Velocity S-wave (km/s) = 3.22979 3.81100 3.53237
# Velocity P-wave (km/s) = 5.18763 6.23305 5.73422
#
# Compressibility (1/GPa) = 0.03506782
#
# Stress axis : x y z
#
# Youngs Moduli (GPa) = 53.33314 42.05801 37.04217
#
# Poissons Ratio (x) = 0.31208 -0.08423
# Poissons Ratio (y) = 0.39575 0.44752
# Poissons Ratio (z) = -0.12127 0.50811
#
# Static dielectric constant tensor:
#      x y z
#    x 1.805140 0.014850 0.004510 
#    y 0.014850 1.880870 -0.037470 
#    z 0.004510 -0.037470 1.862280 
# 
# From -- ./inp_files/282988.got.cif
#   From: 2010.05.17/outbox.cif.g08.bks.cpg/sg2_142_cif.got.tgz:282988.got - 2010.06.03 11:33:40.
