data_PCOD9011280
_publ_section_title
;
Structure prediction by ZEFSAII (Michael W. Deem and Ramdas Pophale) SiO2 
 PCOD9011280
Probable space group: P -1
;
_chemical_formula_sum "Si O2"
_cell_formula_units_Z 14
_cell_length_a 10.674002
_cell_length_b 12.148955
_cell_length_c 13.726767
_cell_angle_alpha 128.126860
_cell_angle_beta 133.745410
_cell_angle_gamma 34.553574
_cell_volume 724.354082
_symmetry_space_group_name_H-M "P -1"
_symmetry_group_IT_number 2
_symmetry_cell_setting 'triclinic'
loop_
_space_group_symop_operation_xyz
x,y,z
-x,-y,-z
loop_
_atom_site_type_symbol
_atom_site_label
_atom_site_fract_x
_atom_site_fract_y
_atom_site_fract_z
Si Si1 0.861473 0.056355 0.716085
Si Si2 0.828169 0.202759 0.577406
Si Si3 0.197008 0.809798 0.933860
Si Si4 0.519712 0.194196 0.777943
Si Si5 0.095333 0.279562 0.494598
Si Si6 0.739776 0.525300 0.594502
Si Si7 0.107025 0.272407 0.270884
O O1 0.877367 0.156992 0.693432
O O2 0.649055 0.199513 0.758995
O O3 0.107537 0.897215 0.824679
O O4 0.808524 0.934493 0.572626
O O5 0.549082 0.317222 0.470764
O O6 0.849899 0.348970 0.630573
O O7 0.000000 0.000000 0.500000
O O8 0.138888 0.679014 0.846751
O O9 0.444461 0.732512 0.066351
O O10 0.000000 0.000000 0.000000
O O11 0.262506 0.283397 0.653393
O O12 0.680058 0.962714 0.752444
O O13 0.833529 0.423901 0.482704
O O14 0.108675 0.315974 0.409261
O O15 0.834426 0.630195 0.712170
#
# Coordination Sequence:
#
# PCOD9011280 Si02
#       7
#     2   2   2   2   2   2   2
#     4   9  16  32  53  77 107 141 177 212 262 312
#     4  11  22  36  51  75 112 142 179 216 260 309
#     4   7  15  30  53  81 105 139 173 212 265 319
#     4   9  16  30  57  83 105 141 170 213 273 316
#     4  10  17  29  52  82 110 131 170 220 271 312
#     4  11  22  32  51  81 109 139 173 221 266 307
#     4   9  17  30  51  81 111 134 171 220 267 312
#
# _framework density 19.327563999999999
#
# number of rings (size 3 to 8) (size 9 to 14) (size 15 to 20)
#    0.000    3.143    1.429    3.857    0.000    0.000 
#    0.000    0.714    0.000   13.714    0.000    1.000 
#    0.000    0.000    0.000    0.000    0.000    0.000 
#
# Total GULP energy -78005.654947 kJ/mol
# GULP energy per Si atom -5571.832496 kJ/mol
# Density = 1.928357 g / cm^3
# Si number density = 19.327564 Si / 1000 Ang^3
#
#
#
# Elastic Constant Matrix: (Units=GPa)
#
#
# Indices 1 2 3 4 5 6 
#
# 1 106.9014 51.0912 32.1966 0.7581 3.1952 36.0255
# 2 51.0912 82.4489 27.9242 -12.7037 7.7573 22.3210
# 3 32.1966 27.9242 126.9935 -8.7802 15.6555 18.2983
# 4 0.7581 -12.7037 -8.7802 17.4049 4.2915 6.7689
# 5 3.1952 7.7573 15.6555 4.2915 15.2431 -0.4187
# 6 36.0255 22.3210 18.2983 6.7689 -0.4187 46.4334
#
#
#
# Elastic Compliance Matrix: (Units=1/GPa)
#
#
# Indices 1 2 3 4 5 6 
#
# 1 0.016651 -0.009707 -0.002579 -0.008341 0.006283 -0.005964
# 2 -0.009707 0.027949 0.003645 0.033894 -0.025818 -0.012514
# 3 -0.002579 0.003645 0.012158 0.016236 -0.018566 -0.007076
# 4 -0.008341 0.033894 0.016236 0.120676 -0.067096 -0.034417
# 5 0.006283 -0.025818 -0.018566 -0.067096 0.116089 0.025681
# 6 -0.005964 -0.012514 -0.007076 -0.034417 0.025681 0.040217
#
#
# Mechanical properties :
#
#
# Convention : Reuss Voigt Hill
#
# Bulk Modulus (GPa) = 25.33180 59.86308 42.59744
# Shear Modulus (GPa) = 13.72945 29.49172 21.61059
#
# Velocity S-wave (km/s) = 2.66814 3.91050 3.34746
# Velocity P-wave (km/s) = 4.75678 7.17144 6.08508
#
# Compressibility (1/GPa) = 0.03947608
#
# Stress axis : x y z
#
# Youngs Moduli (GPa) = 60.05467 35.78003 82.25140
#
# Poissons Ratio (x) = 0.34730 0.21214
# Poissons Ratio (y) = 0.58292 -0.29978
# Poissons Ratio (z) = 0.15489 -0.13041
#
# Static dielectric constant tensor:
#      x y z
#    x 1.668120 0.012270 0.020090 
#    y 0.012270 1.782170 -0.013500 
#    z 0.020090 -0.013500 1.726540 
# 
# From -- ./inp_files/496810.got.cif
#   From: 2010.05.17/outbox.cif.g08.bks.cpg/sg2_249_cif.got.tgz:496810.got - 2010.06.03 11:33:40.
