data_PCOD9011382
_publ_section_title
;
Structure prediction by ZEFSAII (Michael W. Deem and Ramdas Pophale) SiO2 
 PCOD9011382
Probable space group: P -1
;
_chemical_formula_sum "Si O2"
_cell_formula_units_Z 16
_cell_length_a 8.883144
_cell_length_b 13.841660
_cell_length_c 10.557161
_cell_angle_alpha 44.356679
_cell_angle_beta 73.408280
_cell_angle_gamma 50.680089
_cell_volume 667.553424
_symmetry_space_group_name_H-M "P -1"
_symmetry_group_IT_number 2
_symmetry_cell_setting 'triclinic'
loop_
_space_group_symop_operation_xyz
x,y,z
-x,-y,-z
loop_
_atom_site_type_symbol
_atom_site_label
_atom_site_fract_x
_atom_site_fract_y
_atom_site_fract_z
Si Si1 0.320159 0.244487 0.220885
Si Si2 0.512402 0.583966 0.622915
Si Si3 0.946445 0.842635 0.937571
Si Si4 0.623571 0.286545 0.048488
Si Si5 0.810319 0.353622 0.540318
Si Si6 0.780715 0.966176 0.133365
Si Si7 0.528219 0.080213 0.666601
Si Si8 0.072053 0.461283 0.819499
O O1 0.483964 0.271386 0.184803
O O2 0.135618 0.345019 0.269376
O O3 0.431621 0.038695 0.353086
O O4 0.208568 0.356378 0.010508
O O5 0.688583 0.430737 0.628970
O O6 0.306883 0.677123 0.502525
O O7 0.552033 0.720600 0.516415
O O8 0.510893 0.485405 0.836807
O O9 0.153377 0.794095 0.882504
O O10 0.751331 0.970102 0.777038
O O11 0.881848 0.936458 0.001809
O O12 0.980268 0.658500 0.112833
O O13 0.665269 0.162347 0.034415
O O14 0.812978 0.504760 0.337177
O O15 0.038391 0.176529 0.680708
O O16 0.622260 0.927455 0.203098
#
# Coordination Sequence:
#
# PCOD9011382 Si02
#       8
#     2   2   2   2   2   2   2   2
#     4   9  21  44  63  85 117 165 205 247 291 354
#     4  11  23  37  62  94 127 151 197 248 308 358
#     4  11  22  36  63  90 122 158 200 247 300 358
#     4  11  22  39  63  90 124 161 195 246 303 358
#     4  11  23  37  62  93 124 160 190 250 305 357
#     4  11  23  38  60  90 129 157 197 242 305 365
#     4  10  23  39  60  88 123 160 203 247 294 355
#     4  10  21  40  66  86 119 161 208 243 296 353
#
# _framework density 23.968119999999999
#
# number of rings (size 3 to 8) (size 9 to 14) (size 15 to 20)
#    0.000    1.500    2.500    2.250    5.250    1.500 
#    0.000    3.125    2.750    0.000    0.000    0.000 
#    0.000    0.000    0.000    0.000    0.000    0.000 
#
# Total GULP energy -89649.219089 kJ/mol
# GULP energy per Si atom -5603.076193 kJ/mol
# Density = 2.391357 g / cm^3
# Si number density = 23.968120 Si / 1000 Ang^3
#
#
#
# Elastic Constant Matrix: (Units=GPa)
#
#
# Indices 1 2 3 4 5 6 
#
# 1 137.6370 16.1436 33.5133 -3.7320 -10.8915 -17.9378
# 2 16.1436 46.4685 5.5520 -7.1499 5.4198 -4.1955
# 3 33.5133 5.5520 70.2141 -7.8753 -12.8400 8.8991
# 4 -3.7320 -7.1499 -7.8753 34.4488 6.1212 -6.1573
# 5 -10.8915 5.4198 -12.8400 6.1212 43.9639 -6.8395
# 6 -17.9378 -4.1955 8.8991 -6.1573 -6.8395 31.9827
#
#
#
# Elastic Compliance Matrix: (Units=1/GPa)
#
#
# Indices 1 2 3 4 5 6 
#
# 1 0.009892 -0.002426 -0.004972 0.000292 0.002373 0.007177
# 2 -0.002426 0.024089 -0.001199 0.005645 -0.004351 0.002289
# 3 -0.004972 -0.001199 0.018329 0.001610 0.002939 -0.007108
# 4 0.000292 0.005645 0.001610 0.032315 -0.003738 0.005878
# 5 0.002373 -0.004351 0.002939 -0.003738 0.025993 0.004781
# 6 0.007177 0.002289 -0.007108 0.005878 0.004781 0.039724
#
#
# Mechanical properties :
#
#
# Convention : Reuss Voigt Hill
#
# Bulk Modulus (GPa) = 28.47869 40.52640 34.50255
# Shear Modulus (GPa) = 27.89511 35.35314 31.62413
#
# Velocity S-wave (km/s) = 3.41521 3.84475 3.63633
# Velocity P-wave (km/s) = 5.24016 6.05431 5.66189
#
# Compressibility (1/GPa) = 0.03511397
#
# Stress axis : x y z
#
# Youngs Moduli (GPa) = 101.09288 41.51298 54.55762
#
# Poissons Ratio (x) = 0.10072 0.27128
# Poissons Ratio (y) = 0.24528 0.06543
# Poissons Ratio (z) = 0.50267 0.04979
#
# Static dielectric constant tensor:
#      x y z
#    x 1.911560 0.020750 0.027440 
#    y 0.020750 1.863490 -0.019920 
#    z 0.027440 -0.019920 1.902130 
# 
# From -- ./inp_files/179904.got.cif
#   From: 2010.05.17/outbox.cif.g08.bks.cpg/sg2_90_cif.got.tgz:179904.got - 2010.06.03 11:33:40.
