data_PCOD9011103
_publ_section_title
;
Structure prediction by ZEFSAII (Michael W. Deem and Ramdas Pophale) SiO2 
 PCOD9011103
Probable space group: P -1
;
_chemical_formula_sum "Si O2"
_cell_formula_units_Z 16
_cell_length_a 11.179774
_cell_length_b 11.148466
_cell_length_c 6.408096
_cell_angle_alpha 75.447418
_cell_angle_beta 95.378803
_cell_angle_gamma 76.580772
_cell_volume 742.086438
_symmetry_space_group_name_H-M "P -1"
_symmetry_group_IT_number 2
_symmetry_cell_setting 'triclinic'
loop_
_space_group_symop_operation_xyz
x,y,z
-x,-y,-z
loop_
_atom_site_type_symbol
_atom_site_label
_atom_site_fract_x
_atom_site_fract_y
_atom_site_fract_z
Si Si1 0.689227 0.259904 0.645018
Si Si2 0.060242 0.853265 0.016967
Si Si3 0.775789 0.279550 0.214856
Si Si4 0.477395 0.632577 0.066665
Si Si5 0.065104 0.551890 0.798268
Si Si6 0.572727 0.033550 0.692351
Si Si7 0.093142 0.299600 0.659766
Si Si8 0.642262 0.813752 0.103074
O O1 0.803677 0.200004 0.839607
O O2 0.749864 0.311514 0.438632
O O3 0.580229 0.359879 0.710813
O O4 0.645552 0.138580 0.606483
O O5 0.979395 0.767657 0.154197
O O6 0.104472 0.833713 0.789359
O O7 0.000000 0.000000 0.000000
O O8 0.822800 0.401938 0.098031
O O9 0.641660 0.273444 0.111033
O O10 0.595410 0.691781 0.068963
O O11 0.500000 0.500000 0.000000
O O12 0.104899 0.433853 0.698533
O O13 0.976070 0.664852 0.590174
O O14 0.000000 0.500000 0.000000
O O15 0.472094 0.107062 0.812162
O O16 0.500000 0.000000 0.500000
O O17 0.654982 0.904689 0.871619
O O18 0.235347 0.215478 0.721936
#
# Coordination Sequence:
#
# PCOD9011103 Si02
#       8
#     2   2   2   2   2   2   2   2
#     4  10  22  40  63  92 129 168 213 269 326 389
#     4  11  23  40  62  95 131 171 214 270 329 394
#     4  11  22  42  65  90 131 170 217 270 326 388
#     4  10  22  40  65  95 126 169 215 270 328 386
#     4  11  23  42  65  91 128 174 218 269 323 387
#     4  10  21  40  65  91 129 173 215 270 330 383
#     4  11  23  40  65  94 131 170 216 271 329 388
#     4  10  22  41  62  98 130 165 222 270 321 400
#
# _framework density 21.560831
#
# number of rings (size 3 to 8) (size 9 to 14) (size 15 to 20)
#    0.000    1.500    2.500    2.250    0.000    5.000 
#    2.250    3.750    0.000    0.000    0.000    0.000 
#    0.000    0.000    0.000    0.000    0.000    0.000 
#
# Total GULP energy -89124.213415 kJ/mol
# GULP energy per Si atom -5570.263338 kJ/mol
# Density = 2.151176 g / cm^3
# Si number density = 21.560831 Si / 1000 Ang^3
#
#
#
# Elastic Constant Matrix: (Units=GPa)
#
#
# Indices 1 2 3 4 5 6 
#
# 1 89.3889 24.6162 8.5289 -12.3486 0.0403 10.2169
# 2 24.6162 89.2451 4.4237 5.7512 -11.9077 5.0684
# 3 8.5289 4.4237 64.8607 -4.3622 -8.8509 -5.6488
# 4 -12.3486 5.7512 -4.3622 28.8705 0.3136 6.2316
# 5 0.0403 -11.9077 -8.8509 0.3136 37.6731 3.9221
# 6 10.2169 5.0684 -5.6488 6.2316 3.9221 33.6362
#
#
#
# Elastic Compliance Matrix: (Units=1/GPa)
#
#
# Indices 1 2 3 4 5 6 
#
# 1 0.014183 -0.004200 -0.001683 0.007797 -0.001256 -0.005256
# 2 -0.004200 0.013243 -0.000104 -0.004407 0.004246 -0.000416
# 3 -0.001683 -0.000104 0.016440 0.001173 0.003545 0.002657
# 4 0.007797 -0.004407 0.001173 0.040984 -0.000526 -0.009039
# 5 -0.001256 0.004246 0.003545 -0.000526 0.029032 -0.002951
# 6 -0.005256 -0.000416 0.002657 -0.009039 -0.002951 0.033854
#
#
# Mechanical properties :
#
#
# Convention : Reuss Voigt Hill
#
# Bulk Modulus (GPa) = 31.35701 35.40358 33.38030
# Shear Modulus (GPa) = 29.35298 33.76436 31.55867
#
# Velocity S-wave (km/s) = 3.69372 3.96157 3.82999
# Velocity P-wave (km/s) = 5.72421 6.11403 5.92233
#
# Compressibility (1/GPa) = 0.03189079
#
# Stress axis : x y z
#
# Youngs Moduli (GPa) = 70.50862 75.51256 60.82679
#
# Poissons Ratio (x) = 0.31716 0.10239
# Poissons Ratio (y) = 0.29614 0.00633
# Poissons Ratio (z) = 0.11868 0.00786
#
# Static dielectric constant tensor:
#      x y z
#    x 1.859000 0.034020 0.026430 
#    y 0.034020 1.869060 0.069420 
#    z 0.026430 0.069420 1.944080 
# 
# From -- ./inp_files/69178.got.cif
#   From: 2010.05.17/outbox.cif.g08.bks.cpg/sg2_35_cif.got.tgz:69178.got - 2010.06.03 11:33:40.
