data_PCOD9011793
_publ_section_title
;
Structure prediction by ZEFSAII (Michael W. Deem and Ramdas Pophale) SiO2 
 PCOD9011793
Probable space group: P -1
;
_chemical_formula_sum "Si O2"
_cell_formula_units_Z 16
_cell_length_a 16.019057
_cell_length_b 15.203064
_cell_length_c 9.504861
_cell_angle_alpha 95.519258
_cell_angle_beta 54.897214
_cell_angle_gamma 141.426184
_cell_volume 851.560647
_symmetry_space_group_name_H-M "P -1"
_symmetry_group_IT_number 2
_symmetry_cell_setting 'triclinic'
loop_
_space_group_symop_operation_xyz
x,y,z
-x,-y,-z
loop_
_atom_site_type_symbol
_atom_site_label
_atom_site_fract_x
_atom_site_fract_y
_atom_site_fract_z
Si Si1 0.353334 0.272279 0.520879
Si Si2 0.600545 0.869363 0.110042
Si Si3 0.108261 0.552051 0.549273
Si Si4 0.662317 0.100038 0.485416
Si Si5 0.280551 0.318861 0.881075
Si Si6 0.104267 0.063159 0.253188
Si Si7 0.342082 0.886137 0.999286
Si Si8 0.782961 0.004017 0.269816
O O1 0.365021 0.315517 0.678314
O O2 0.548157 0.467089 0.268741
O O3 0.350115 0.163782 0.520393
O O4 0.115584 0.119288 0.661089
O O5 0.329002 0.661987 0.328439
O O6 0.667911 0.911713 0.214654
O O7 0.733439 0.896671 0.900958
O O8 0.671712 0.022043 0.015566
O O9 0.191427 0.702668 0.577485
O O10 0.000000 0.500000 0.500000
O O11 0.906961 0.344279 0.784827
O O12 0.795501 0.114635 0.323289
O O13 0.500000 0.000000 0.500000
O O14 0.486356 0.944503 0.755212
O O15 0.245213 0.248056 0.058794
O O16 0.033552 0.158481 0.046630
O O17 0.000000 0.000000 0.500000
O O18 0.500000 0.000000 0.000000
#
# Coordination Sequence:
#
# PCOD9011793 Si02
#       8
#     2   2   2   2   2   2   2   2
#     4  10  21  40  68  90 128 172 215 274 323 387
#     4  11  22  41  68  92 127 175 218 264 333 394
#     4  11  23  45  66  91 130 175 215 270 333 393
#     4  11  23  41  64  99 129 165 224 277 316 393
#     4  10  21  40  67  93 127 169 221 266 326 394
#     4  11  23  42  63  96 136 168 211 272 324 395
#     4  11  23  42  66  90 130 175 213 269 335 390
#     4  11  20  41  64  96 131 166 216 278 326 380
#
# _framework density 18.789033
#
# number of rings (size 3 to 8) (size 9 to 14) (size 15 to 20)
#    0.000    1.250    7.500    0.750    0.000    6.000 
#    2.250    0.000    0.000    0.000    0.000    0.000 
#    0.000    0.000    0.000    0.000    0.000    0.000 
#
# Total GULP energy -89214.543117 kJ/mol
# GULP energy per Si atom -5575.908945 kJ/mol
# Density = 1.874627 g / cm^3
# Si number density = 18.789033 Si / 1000 Ang^3
#
#
#
# Elastic Constant Matrix: (Units=GPa)
#
#
# Indices 1 2 3 4 5 6 
#
# 1 95.9616 29.3729 32.6932 -3.0155 -4.3738 -3.7072
# 2 29.3729 77.9422 40.1330 -11.3890 0.5863 0.3632
# 3 32.6932 40.1330 115.7854 -13.2406 12.1169 -2.8611
# 4 -3.0155 -11.3890 -13.2406 48.4648 -5.9313 3.9904
# 5 -4.3738 0.5863 12.1169 -5.9313 31.2137 -3.7477
# 6 -3.7072 0.3632 -2.8611 3.9904 -3.7477 25.2482
#
#
#
# Elastic Compliance Matrix: (Units=1/GPa)
#
#
# Indices 1 2 3 4 5 6 
#
# 1 0.012603 -0.003487 -0.002679 -0.000573 0.003019 0.002136
# 2 -0.003487 0.017005 -0.004776 0.002770 0.001389 -0.001529
# 3 -0.002679 -0.004776 0.011680 0.001336 -0.004553 0.000112
# 4 -0.000573 0.002770 0.001336 0.022255 0.003216 -0.003013
# 5 0.003019 0.001389 -0.004553 0.003216 0.035371 0.004649
# 6 0.002136 -0.001529 0.000112 -0.003013 0.004649 0.041121
#
#
# Mechanical properties :
#
#
# Convention : Reuss Voigt Hill
#
# Bulk Modulus (GPa) = 51.53240 54.89860 53.21550
# Shear Modulus (GPa) = 29.69366 33.48467 31.58917
#
# Velocity S-wave (km/s) = 3.97970 4.22612 4.10476
# Velocity P-wave (km/s) = 6.97164 7.28665 7.13089
#
# Compressibility (1/GPa) = 0.01940527
#
# Stress axis : x y z
#
# Youngs Moduli (GPa) = 79.34783 58.80777 85.61367
#
# Poissons Ratio (x) = 0.20504 0.22934
# Poissons Ratio (y) = 0.27665 0.40888
# Poissons Ratio (z) = 0.21255 0.28086
#
# Static dielectric constant tensor:
#      x y z
#    x 1.632320 -0.024900 0.028240 
#    y -0.024900 1.655740 -0.003800 
#    z 0.028240 -0.003800 1.671740 
# 
# From -- ./inp_files/313317.got.cif
#   From: 2010.05.17/outbox.cif.g08.bks.cpg/sg2_157_cif.got.tgz:313317.got - 2010.06.03 11:33:40.
