data_PCOD9011726
_publ_section_title
;
Structure prediction by ZEFSAII (Michael W. Deem and Ramdas Pophale) SiO2 
 PCOD9011726
Probable space group: P -1
;
_chemical_formula_sum "Si O2"
_cell_formula_units_Z 14
_cell_length_a 9.218358
_cell_length_b 14.823454
_cell_length_c 6.284570
_cell_angle_alpha 113.485717
_cell_angle_beta 51.622712
_cell_angle_gamma 118.896751
_cell_volume 583.301314
_symmetry_space_group_name_H-M "P -1"
_symmetry_group_IT_number 2
_symmetry_cell_setting 'triclinic'
loop_
_space_group_symop_operation_xyz
x,y,z
-x,-y,-z
loop_
_atom_site_type_symbol
_atom_site_label
_atom_site_fract_x
_atom_site_fract_y
_atom_site_fract_z
Si Si1 0.809297 0.584810 0.184210
Si Si2 0.916847 0.418904 0.688658
Si Si3 0.579635 0.727269 0.486406
Si Si4 0.723573 0.103026 0.523916
Si Si5 0.326507 0.114658 0.809800
Si Si6 0.074576 0.109603 0.418383
Si Si7 0.821792 0.265131 0.262338
O O1 0.616860 0.617965 0.376303
O O2 0.907499 0.589459 0.330594
O O3 0.791477 0.472539 0.996269
O O4 0.974706 0.672128 0.975242
O O5 0.812034 0.317135 0.552197
O O6 0.000000 0.500000 0.500000
O O7 0.637893 0.778949 0.249285
O O8 0.739775 0.806176 0.565957
O O9 0.356757 0.725086 0.707105
O O10 0.518041 0.118213 0.773160
O O11 0.787062 0.148832 0.269678
O O12 0.890199 0.149250 0.590089
O O13 0.691384 0.979958 0.424224
O O14 0.142138 0.092437 0.105540
O O15 0.000000 0.000000 0.500000
#
# Coordination Sequence:
#
# PCOD9011726 Si02
#       7
#     2   2   2   2   2   2   2
#     4  10  21  40  67  87 121 153 194 250 299 360
#     4   9  20  42  64  91 117 155 192 242 310 362
#     4  11  24  39  59  94 118 161 206 242 298 355
#     4  10  21  41  61  84 122 167 197 254 300 342
#     4  10  23  42  57  86 126 158 208 251 295 349
#     4  12  24  36  58  86 119 162 209 249 293 347
#     4  10  22  39  62  89 122 155 202 244 300 355
#
# _framework density 24.001318999999999
#
# number of rings (size 3 to 8) (size 9 to 14) (size 15 to 20)
#    0.000    1.714    1.429    2.143    2.000    5.714 
#    0.000    6.429    0.000    0.000    0.000    0.000 
#    0.000    0.000    0.000    0.000    0.000    0.000 
#
# Total GULP energy -78268.078094 kJ/mol
# GULP energy per Si atom -5590.577007 kJ/mol
# Density = 2.394669 g / cm^3
# Si number density = 24.001319 Si / 1000 Ang^3
#
#
#
# Elastic Constant Matrix: (Units=GPa)
#
#
# Indices 1 2 3 4 5 6 
#
# 1 157.8721 3.7746 19.1209 22.0483 -6.8242 -19.0059
# 2 3.7746 53.0022 4.1124 -1.5950 4.3544 -24.4210
# 3 19.1209 4.1124 37.9093 1.4848 1.5484 -2.3198
# 4 22.0483 -1.5950 1.4848 33.1938 5.5918 2.1825
# 5 -6.8242 4.3544 1.5484 5.5918 27.6952 5.3793
# 6 -19.0059 -24.4210 -2.3198 2.1825 5.3793 46.6120
#
#
#
# Elastic Compliance Matrix: (Units=1/GPa)
#
#
# Indices 1 2 3 4 5 6 
#
# 1 0.008144 0.001012 -0.003869 -0.005855 0.002539 0.003640
# 2 0.001012 0.026418 -0.002220 0.000871 -0.006848 0.014893
# 3 -0.003869 -0.002220 0.028532 0.001651 -0.002313 -0.001131
# 4 -0.005855 0.000871 0.001651 0.035558 -0.008356 -0.002550
# 5 0.002539 -0.006848 -0.002313 -0.008356 0.040987 -0.007007
# 6 0.003640 0.014893 -0.001131 -0.002550 -0.007007 0.031612
#
#
# Mechanical properties :
#
#
# Convention : Reuss Voigt Hill
#
# Bulk Modulus (GPa) = 18.88880 33.64435 26.26658
# Shear Modulus (GPa) = 25.11906 36.28524 30.70215
#
# Velocity S-wave (km/s) = 3.23858 3.89241 3.58045
# Velocity P-wave (km/s) = 4.67670 5.85229 5.29721
#
# Compressibility (1/GPa) = 0.05294142
#
# Stress axis : x y z
#
# Youngs Moduli (GPa) = 122.78480 37.85279 35.04867
#
# Poissons Ratio (x) = -0.03833 0.13562
# Poissons Ratio (y) = -0.12432 0.07779
# Poissons Ratio (z) = 0.47510 0.08402
#
# Static dielectric constant tensor:
#      x y z
#    x 1.928080 0.014950 0.019440 
#    y 0.014950 2.013280 0.051660 
#    z 0.019440 0.051660 1.908380 
# 
# From -- ./inp_files/35628.got.cif
#   From: 2010.05.17/outbox.cif.g08.bks.cpg/sg2_18_cif.got.tgz:35628.got - 2010.06.03 11:33:40.
