data_PCOD9011114
_publ_section_title
;
Structure prediction by ZEFSAII (Michael W. Deem and Ramdas Pophale) SiO2 
 PCOD9011114
Probable space group: P -1
;
_chemical_formula_sum "Si O2"
_cell_formula_units_Z 16
_cell_length_a 13.514963
_cell_length_b 14.266405
_cell_length_c 9.098833
_cell_angle_alpha 135.404065
_cell_angle_beta 28.635129
_cell_angle_gamma 130.461981
_cell_volume 588.783453
_symmetry_space_group_name_H-M "P -1"
_symmetry_group_IT_number 2
_symmetry_cell_setting 'triclinic'
loop_
_space_group_symop_operation_xyz
x,y,z
-x,-y,-z
loop_
_atom_site_type_symbol
_atom_site_label
_atom_site_fract_x
_atom_site_fract_y
_atom_site_fract_z
Si Si1 0.804211 0.730457 0.367215
Si Si2 0.753478 0.381739 0.832151
Si Si3 0.328553 0.678092 0.817978
Si Si4 0.676132 0.703969 0.809903
Si Si5 0.724581 0.998588 0.136387
Si Si6 0.710513 0.030610 0.850689
Si Si7 0.584414 0.633470 0.175456
Si Si8 0.034595 0.229296 0.090224
O O1 0.570069 0.695093 0.575109
O O2 0.805600 0.664130 0.453057
O O3 0.828290 0.894534 0.528148
O O4 0.962058 0.702757 0.000626
O O5 0.939438 0.317105 0.438203
O O6 0.773429 0.405717 0.007014
O O7 0.550975 0.280290 0.949192
O O8 0.700724 0.515177 0.966963
O O9 0.368657 0.633039 0.547029
O O10 0.223744 0.818946 0.117644
O O11 0.611581 0.624664 0.954443
O O12 0.779234 0.846053 0.883561
O O13 0.896737 0.091982 0.099655
O O14 0.500000 0.000000 0.500000
O O15 0.691644 0.045509 0.065641
O O16 0.500000 0.000000 0.000000
O O17 0.722751 0.771711 0.189048
#
# Coordination Sequence:
#
# PCOD9011114 Si02
#       8
#     2   2   2   2   2   2   2   2
#     4   8  19  39  59  88 127 158 192 254 315 363
#     4  11  22  42  64  88 127 169 207 252 302 363
#     4   9  19  37  64  89 115 160 214 249 299 362
#     4  10  21  40  65  92 118 163 212 252 304 368
#     4  11  21  38  63  90 126 158 200 257 318 370
#     4   9  18  35  62  90 122 155 203 249 304 367
#     4  11  23  42  63  92 123 164 214 256 297 365
#     4  11  24  41  61  90 132 164 197 258 319 360
#
# _framework density 27.174678
#
# number of rings (size 3 to 8) (size 9 to 14) (size 15 to 20)
#    0.000    2.000    1.250    2.625    0.000    2.500 
#    4.500    0.625    0.000    0.000    0.000    0.000 
#    0.000    0.000    0.000    0.000    0.000    0.000 
#
# Total GULP energy -89399.371435 kJ/mol
# GULP energy per Si atom -5587.460715 kJ/mol
# Density = 2.711283 g / cm^3
# Si number density = 27.174678 Si / 1000 Ang^3
#
#
#
# Elastic Constant Matrix: (Units=GPa)
#
#
# Indices 1 2 3 4 5 6 
#
# 1 124.1112 38.2137 60.2338 -9.3959 26.7334 -21.4824
# 2 38.2137 99.7563 30.7416 -8.2900 16.4527 -9.2346
# 3 60.2338 30.7416 145.5944 -17.7492 46.1444 -7.8642
# 4 -9.3959 -8.2900 -17.7492 40.6435 -5.9938 8.3404
# 5 26.7334 16.4527 46.1444 -5.9938 53.7167 -11.6174
# 6 -21.4824 -9.2346 -7.8642 8.3404 -11.6174 52.4845
#
#
#
# Elastic Compliance Matrix: (Units=1/GPa)
#
#
# Indices 1 2 3 4 5 6 
#
# 1 0.011515 -0.002814 -0.003727 -0.000401 -0.000952 0.003513
# 2 -0.002814 0.011671 -0.000709 0.001155 -0.001370 0.000309
# 3 -0.003727 -0.000709 0.011288 0.003231 -0.007737 -0.002185
# 4 -0.000401 0.001155 0.003231 0.026846 -0.000781 -0.003916
# 5 -0.000952 -0.001370 -0.007737 -0.000781 0.027001 0.004311
# 6 0.003513 0.000309 -0.002185 -0.003916 0.004311 0.021794
#
#
# Mechanical properties :
#
#
# Convention : Reuss Voigt Hill
#
# Bulk Modulus (GPa) = 50.06100 69.76000 59.91050
# Shear Modulus (GPa) = 38.08842 45.38711 41.73777
#
# Velocity S-wave (km/s) = 3.74788 4.09124 3.92332
# Velocity P-wave (km/s) = 6.09842 6.93140 6.52821
#
# Compressibility (1/GPa) = 0.01997563
#
# Stress axis : x y z
#
# Youngs Moduli (GPa) = 86.84098 85.68123 88.59050
#
# Poissons Ratio (x) = 0.24108 0.33019
# Poissons Ratio (y) = 0.24434 0.06277
# Poissons Ratio (z) = 0.32367 0.06071
#
# Static dielectric constant tensor:
#      x y z
#    x 2.193260 0.045920 0.024290 
#    y 0.045920 2.190610 -0.016240 
#    z 0.024290 -0.016240 2.148340 
# 
# From -- ./inp_files/315796.got.cif
#   From: 2010.05.17/outbox.cif.g08.bks.cpg/sg2_158_cif.got.tgz:315796.got - 2010.06.03 11:33:40.
