data_PCOD9011506
_publ_section_title
;
Structure prediction by ZEFSAII (Michael W. Deem and Ramdas Pophale) SiO2 
 PCOD9011506
Probable space group: P -1
;
_chemical_formula_sum "Si O2"
_cell_formula_units_Z 16
_cell_length_a 8.895076
_cell_length_b 8.574466
_cell_length_c 25.923954
_cell_angle_alpha 38.769698
_cell_angle_beta 37.258191
_cell_angle_gamma 64.178514
_cell_volume 654.280214
_symmetry_space_group_name_H-M "P -1"
_symmetry_group_IT_number 2
_symmetry_cell_setting 'triclinic'
loop_
_space_group_symop_operation_xyz
x,y,z
-x,-y,-z
loop_
_atom_site_type_symbol
_atom_site_label
_atom_site_fract_x
_atom_site_fract_y
_atom_site_fract_z
Si Si1 0.330703 0.179031 0.108396
Si Si2 0.950747 0.284726 0.471218
Si Si3 0.827414 0.128029 0.440242
Si Si4 0.588546 0.174399 0.215915
Si Si5 0.375536 0.810224 0.268862
Si Si6 0.843431 0.164718 0.306717
Si Si7 0.083849 0.230065 0.872750
Si Si8 0.808816 0.799760 0.972755
O O1 0.329358 0.181468 0.047123
O O2 0.018555 0.065371 0.248246
O O3 0.455900 0.993514 0.147341
O O4 0.500000 0.500000 0.000000
O O5 0.986574 0.365445 0.380109
O O6 0.063014 0.552336 0.409568
O O7 0.621124 0.052498 0.627621
O O8 0.120106 0.122321 0.486074
O O9 0.929239 0.188597 0.337694
O O10 0.495290 0.036493 0.551935
O O11 0.894556 0.193490 0.125728
O O12 0.431693 0.033169 0.241293
O O13 0.631786 0.490696 0.127887
O O14 0.592774 0.691642 0.250192
O O15 0.915162 0.481444 0.187875
O O16 0.892273 0.063351 0.919354
O O17 0.000000 0.000000 0.000000
#
# Coordination Sequence:
#
# PCOD9011506 Si02
#       8
#     2   2   2   2   2   2   2   2
#     4  12  24  44  68  99 134 175 222 283 332 388
#     4  11  22  41  67  99 129 174 226 273 333 391
#     4  10  24  41  67  93 135 178 213 274 337 400
#     4  10  21  40  66  93 132 177 218 272 330 400
#     4  11  23  42  65  99 133 169 227 274 334 392
#     4  11  24  46  66  96 137 175 220 270 340 392
#     4  11  25  44  69  95 134 178 220 275 329 401
#     4  10  24  41  67  97 133 176 228 262 338 403
#
# _framework density 24.454353999999999
#
# number of rings (size 3 to 8) (size 9 to 14) (size 15 to 20)
#    0.000    1.250    2.500    2.625    7.000    0.000 
#    2.250    2.500    0.000    0.000    0.000    0.000 
#    0.000    0.000    0.000    0.000    0.000    0.000 
#
# Total GULP energy -89548.623761 kJ/mol
# GULP energy per Si atom -5596.788985 kJ/mol
# Density = 2.439869 g / cm^3
# Si number density = 24.454354 Si / 1000 Ang^3
#
#
#
# Elastic Constant Matrix: (Units=GPa)
#
#
# Indices 1 2 3 4 5 6 
#
# 1 122.7064 14.2565 3.2930 -2.3979 9.9067 19.0891
# 2 14.2565 47.6906 0.6161 -1.6296 -12.7955 -12.1236
# 3 3.2930 0.6161 63.3157 2.4147 -11.6711 -1.8316
# 4 -2.3979 -1.6296 2.4147 36.4173 2.9849 -6.8992
# 5 9.9067 -12.7955 -11.6711 2.9849 29.8646 4.8007
# 6 19.0891 -12.1236 -1.8316 -6.8992 4.8007 42.0270
#
#
#
# Elastic Compliance Matrix: (Units=1/GPa)
#
#
# Indices 1 2 3 4 5 6 
#
# 1 0.010272 -0.006077 -0.001694 -0.000125 -0.005719 -0.005860
# 2 -0.006077 0.029025 0.002810 0.001459 0.013810 0.009918
# 3 -0.001694 0.002810 0.017536 -0.001647 0.008608 0.001091
# 4 -0.000125 0.001459 -0.001647 0.028996 -0.003775 0.005597
# 5 -0.005719 0.013810 0.008608 -0.003775 0.044845 0.001214
# 6 -0.005860 0.009918 0.001091 0.005597 0.001214 0.030144
#
#
# Mechanical properties :
#
#
# Convention : Reuss Voigt Hill
#
# Bulk Modulus (GPa) = 21.31657 30.00486 25.66071
# Shear Modulus (GPa) = 26.82755 36.03158 31.42957
#
# Velocity S-wave (km/s) = 3.31576 3.84268 3.58891
# Velocity P-wave (km/s) = 4.83682 5.65550 5.26210
#
# Compressibility (1/GPa) = 0.04691187
#
# Stress axis : x y z
#
# Youngs Moduli (GPa) = 97.35331 34.45297 57.02612
#
# Poissons Ratio (x) = 0.20937 0.09660
# Poissons Ratio (y) = 0.59161 -0.16027
# Poissons Ratio (z) = 0.16492 -0.09683
#
# Static dielectric constant tensor:
#      x y z
#    x 1.928420 0.008570 -0.012680 
#    y 0.008570 1.945990 0.067510 
#    z -0.012680 0.067510 2.001310 
# 
# From -- ./inp_files/224057.got.cif
#   From: 2010.05.17/outbox.cif.g08.bks.cpg/sg2_113_cif.got.tgz:224057.got - 2010.06.03 11:33:40.
