data_PCOD9011893
_publ_section_title
;
Structure prediction by ZEFSAII (Michael W. Deem and Ramdas Pophale) SiO2 
 PCOD9011893
Probable space group: P -1
;
_chemical_formula_sum "Si O2"
_cell_formula_units_Z 12
_cell_length_a 7.427857
_cell_length_b 20.688236
_cell_length_c 8.501731
_cell_angle_alpha 144.924030
_cell_angle_beta 120.275429
_cell_angle_gamma 44.000952
_cell_volume 509.710141
_symmetry_space_group_name_H-M "P -1"
_symmetry_group_IT_number 2
_symmetry_cell_setting 'triclinic'
loop_
_space_group_symop_operation_xyz
x,y,z
-x,-y,-z
loop_
_atom_site_type_symbol
_atom_site_label
_atom_site_fract_x
_atom_site_fract_y
_atom_site_fract_z
Si Si1 0.005195 0.424642 0.695334
Si Si2 0.200946 0.829136 0.864645
Si Si3 0.607571 0.364832 0.149420
Si Si4 0.610882 0.551527 0.283256
Si Si5 0.674145 0.908136 0.745129
Si Si6 0.707218 0.093203 0.631193
O O1 0.158818 0.447711 0.681347
O O2 0.165725 0.259412 0.480912
O O3 0.695464 0.511440 0.688991
O O4 0.000000 0.500000 0.000000
O O5 0.210221 0.735010 0.826053
O O6 0.394690 0.709174 0.580594
O O7 0.900765 0.927617 0.866032
O O8 0.288320 0.901067 0.164336
O O9 0.707836 0.431380 0.218571
O O10 0.589040 0.250471 0.825480
O O11 0.500000 0.500000 0.000000
O O12 0.472749 0.946699 0.592759
O O13 0.500000 0.000000 0.000000
O O14 0.000000 0.000000 0.500000
#
# Coordination Sequence:
#
# PCOD9011893 Si02
#       6
#     2   2   2   2   2   2
#     4  12  22  40  67  98 129 176 226 272 334 392
#     4  10  23  40  66  96 136 173 217 273 336 391
#     4  10  22  42  65  97 139 167 225 278 328 397
#     4  12  22  38  68 101 132 176 223 278 335 392
#     4  12  21  40  70  94 132 181 218 273 341 392
#     4  10  21  40  67  97 133 177 218 275 335 400
#
# _framework density 23.542791000000001
#
# number of rings (size 3 to 8) (size 9 to 14) (size 15 to 20)
#    1.000    0.000    6.667    0.500    0.000    0.667 
#    0.000    0.833    3.667    2.000    0.000    0.000 
#    0.000    0.000    0.000    0.000    0.000    0.000 
#
# Total GULP energy -66924.040034 kJ/mol
# GULP energy per Si atom -5577.003336 kJ/mol
# Density = 2.348921 g / cm^3
# Si number density = 23.542791 Si / 1000 Ang^3
#
#
#
# Elastic Constant Matrix: (Units=GPa)
#
#
# Indices 1 2 3 4 5 6 
#
# 1 124.8076 18.1560 18.1627 -16.9292 1.0105 -12.6931
# 2 18.1560 78.8306 30.9018 -28.7421 -5.6956 -22.6066
# 3 18.1627 30.9018 159.3540 -23.7314 -10.3142 -19.3027
# 4 -16.9292 -28.7421 -23.7314 51.8842 -13.1656 -0.2551
# 5 1.0105 -5.6956 -10.3142 -13.1656 34.5448 -8.0715
# 6 -12.6931 -22.6066 -19.3027 -0.2551 -8.0715 30.4699
#
#
#
# Elastic Compliance Matrix: (Units=1/GPa)
#
#
# Indices 1 2 3 4 5 6 
#
# 1 0.008975 0.001495 0.000336 0.004778 0.003301 0.005976
# 2 0.001495 0.031092 0.002847 0.024974 0.022872 0.031763
# 3 0.000336 0.002847 0.008587 0.007773 0.008313 0.009960
# 4 0.004778 0.024974 0.007773 0.046524 0.032050 0.034323
# 5 0.003301 0.022872 0.008313 0.032050 0.056389 0.038817
# 6 0.005976 0.031763 0.009960 0.034323 0.038817 0.075754
#
#
# Mechanical properties :
#
#
# Convention : Reuss Voigt Hill
#
# Bulk Modulus (GPa) = 17.23801 55.27037 36.25419
# Shear Modulus (GPa) = 21.07034 43.09788 32.08411
#
# Velocity S-wave (km/s) = 2.99487 4.28322 3.69562
# Velocity P-wave (km/s) = 4.39282 6.92739 5.80024
#
# Compressibility (1/GPa) = 0.05801135
#
# Stress axis : x y z
#
# Youngs Moduli (GPa) = 111.42133 32.16267 116.45626
#
# Poissons Ratio (x) = -0.04809 -0.03914
# Poissons Ratio (y) = -0.16661 -0.33159
# Poissons Ratio (z) = -0.03745 -0.09158
#
# Static dielectric constant tensor:
#      x y z
#    x 1.906250 0.032340 0.093080 
#    y 0.032340 1.976790 0.007480 
#    z 0.093080 0.007480 2.090890 
# 
# From -- ./inp_files/227664.got.cif
#   From: 2010.05.17/outbox.cif.g08.bks.cpg/sg2_114_cif.got.tgz:227664.got - 2010.06.03 11:33:40.
