data_PCOD9011098
_publ_section_title
;
Structure prediction by ZEFSAII (Michael W. Deem and Ramdas Pophale) SiO2 
 PCOD9011098
Probable space group: P -1
;
_chemical_formula_sum "Si O2"
_cell_formula_units_Z 16
_cell_length_a 19.602223
_cell_length_b 8.336697
_cell_length_c 20.571984
_cell_angle_alpha 38.759755
_cell_angle_beta 160.327284
_cell_angle_gamma 140.800643
_cell_volume 695.209274
_symmetry_space_group_name_H-M "P -1"
_symmetry_group_IT_number 2
_symmetry_cell_setting 'triclinic'
loop_
_space_group_symop_operation_xyz
x,y,z
-x,-y,-z
loop_
_atom_site_type_symbol
_atom_site_label
_atom_site_fract_x
_atom_site_fract_y
_atom_site_fract_z
Si Si1 0.534429 0.222472 0.587392
Si Si2 0.774275 0.026429 0.264483
Si Si3 0.439179 0.033182 0.695015
Si Si4 0.837723 0.827054 0.107250
Si Si5 0.997665 0.259957 0.025823
Si Si6 0.704162 0.379007 0.208690
Si Si7 0.410669 0.572584 0.091858
Si Si8 0.424460 0.409747 0.299764
O O1 0.500000 0.500000 0.500000
O O2 0.419004 0.033498 0.599174
O O3 0.477624 0.209120 0.465265
O O4 0.773076 0.203390 0.810873
O O5 0.680719 0.168970 0.195523
O O6 0.630410 0.745446 0.213767
O O7 0.743232 0.213555 0.116505
O O8 0.000000 0.000000 0.500000
O O9 0.442242 0.315153 0.640513
O O10 0.281033 0.799876 0.659505
O O11 0.675752 0.999790 0.932871
O O12 0.875058 0.624737 0.260209
O O13 0.011479 0.013400 0.162685
O O14 0.697048 0.639378 0.988677
O O15 0.178131 0.354902 0.107504
O O16 0.000000 0.500000 0.000000
O O17 0.500000 0.500000 0.000000
O O18 0.447119 0.432710 0.235917
#
# Coordination Sequence:
#
# PCOD9011098 Si02
#       8
#     2   2   2   2   2   2   2   2
#     4   9  18  32  54  85 113 148 201 259 301 356
#     4  10  21  40  65  91 127 171 208 252 315 390
#     4   9  16  33  57  84 110 156 203 248 306 360
#     4   9  19  35  58  87 121 157 202 260 309 365
#     4  11  19  35  58  84 115 159 210 255 309 371
#     4   9  17  34  64  88 116 160 204 255 311 364
#     4  10  22  39  60  88 125 167 203 254 322 372
#     4  11  20  35  60  84 113 164 207 246 306 373
#
# _framework density 23.014651000000001
#
# number of rings (size 3 to 8) (size 9 to 14) (size 15 to 20)
#    0.000    2.250    5.000    0.000    0.000    1.500 
#    0.000    7.500    0.000   12.750    0.000    0.000 
#    0.000    0.000    0.000    0.000    0.000    0.000 
#
# Total GULP energy -89109.121551 kJ/mol
# GULP energy per Si atom -5569.320097 kJ/mol
# Density = 2.296227 g / cm^3
# Si number density = 23.014651 Si / 1000 Ang^3
#
#
#
# Elastic Constant Matrix: (Units=GPa)
#
#
# Indices 1 2 3 4 5 6 
#
# 1 90.3088 35.6768 26.6609 -9.2684 -33.0811 19.9622
# 2 35.6768 104.5939 15.3025 -5.9201 -10.4815 28.7947
# 3 26.6609 15.3025 95.7675 12.1918 -22.7628 10.4057
# 4 -9.2684 -5.9201 12.1918 21.1740 7.8612 -14.0629
# 5 -33.0811 -10.4815 -22.7628 7.8612 34.8648 -15.2277
# 6 19.9622 28.7947 10.4057 -14.0629 -15.2277 38.9248
#
#
#
# Elastic Compliance Matrix: (Units=1/GPa)
#
#
# Indices 1 2 3 4 5 6 
#
# 1 0.019224 -0.005008 -0.001287 0.002798 0.015881 0.001414
# 2 -0.005008 0.013519 -0.000309 -0.003415 -0.004666 -0.010409
# 3 -0.001287 -0.000309 0.016330 -0.017863 0.010901 -0.005666
# 4 0.002798 -0.003415 -0.017863 0.083472 -0.015825 0.029833
# 5 0.015881 -0.004666 0.010901 -0.015825 0.056943 0.008952
# 6 0.001414 -0.010409 -0.005666 0.029833 0.008952 0.048460
#
#
# Mechanical properties :
#
#
# Convention : Reuss Voigt Hill
#
# Bulk Modulus (GPa) = 27.88245 49.55007 38.71626
# Shear Modulus (GPa) = 19.00335 33.19471 26.09903
#
# Velocity S-wave (km/s) = 2.87663 3.80192 3.37117
# Velocity P-wave (km/s) = 4.81401 6.39135 5.65792
#
# Compressibility (1/GPa) = 0.03586485
#
# Stress axis : x y z
#
# Youngs Moduli (GPa) = 52.01963 73.97004 61.23601
#
# Poissons Ratio (x) = 0.37046 0.07878
# Poissons Ratio (y) = 0.26053 0.01893
# Poissons Ratio (z) = 0.06692 0.02287
#
# Static dielectric constant tensor:
#      x y z
#    x 1.885400 0.066400 -0.030420 
#    y 0.066400 1.790980 -0.087730 
#    z -0.030420 -0.087730 1.934250 
# 
# From -- ./inp_files/601137.got.cif
#   From: 2010.05.17/outbox.cif.g08.bks.cpg/sg2_301_cif.got.tgz:601137.got - 2010.06.03 11:33:40.
