data_PCOD9011503
_publ_section_title
;
Structure prediction by ZEFSAII (Michael W. Deem and Ramdas Pophale) SiO2 
 PCOD9011503
Probable space group: P -1
;
_chemical_formula_sum "Si O2"
_cell_formula_units_Z 14
_cell_length_a 20.554243
_cell_length_b 9.643251
_cell_length_c 8.323313
_cell_angle_alpha 60.108773
_cell_angle_beta 148.510590
_cell_angle_gamma 128.594177
_cell_volume 671.238017
_symmetry_space_group_name_H-M "P -1"
_symmetry_group_IT_number 2
_symmetry_cell_setting 'triclinic'
loop_
_space_group_symop_operation_xyz
x,y,z
-x,-y,-z
loop_
_atom_site_type_symbol
_atom_site_label
_atom_site_fract_x
_atom_site_fract_y
_atom_site_fract_z
Si Si1 0.762158 0.136815 0.623604
Si Si2 0.786533 0.528634 0.410761
Si Si3 0.504551 0.112676 0.602093
Si Si4 0.513253 0.532709 0.691550
Si Si5 0.754281 0.072728 0.269171
Si Si6 0.053752 0.848901 0.685610
Si Si7 0.649310 0.660964 0.281265
O O1 0.774541 0.336019 0.532913
O O2 0.794815 0.100661 0.528649
O O3 0.608649 0.997678 0.438027
O O4 0.855133 0.129253 0.973982
O O5 0.773566 0.630412 0.485070
O O6 0.924571 0.655241 0.536608
O O7 0.649746 0.514419 0.041604
O O8 0.475927 0.271626 0.379357
O O9 0.500000 0.000000 0.500000
O O10 0.653421 0.165658 0.966707
O O11 0.500000 0.500000 0.500000
O O12 0.371559 0.385381 0.551135
O O13 0.867011 0.131263 0.328740
O O14 0.668682 0.859196 0.185213
O O15 0.000000 0.000000 0.500000
O O16 0.500000 0.500000 0.000000
#
# Coordination Sequence:
#
# PCOD9011503 Si02
#       7
#     2   2   2   2   2   2   2
#     4  12  26  44  71 101 136 177 232 283 340 405
#     4  11  23  46  65  97 139 178 223 279 338 410
#     4  12  21  40  70 100 133 175 221 279 339 397
#     4  11  22  39  67 101 132 170 222 282 335 395
#     4  12  25  45  70 103 135 181 228 283 342 405
#     4  12  26  48  70  95 140 183 230 278 342 414
#     4  10  21  40  66  93 131 173 219 273 339 394
#
# _framework density 20.856985000000002
#
# number of rings (size 3 to 8) (size 9 to 14) (size 15 to 20)
#    0.000    0.571    2.857    7.714    0.000    1.143 
#    2.571    0.000    0.000    0.000    0.000    0.000 
#    0.000    0.000    0.000    0.000    0.000    0.000 
#
# Total GULP energy -78108.056440 kJ/mol
# GULP energy per Si atom -5579.146889 kJ/mol
# Density = 2.080951 g / cm^3
# Si number density = 20.856985 Si / 1000 Ang^3
#
#
#
# Elastic Constant Matrix: (Units=GPa)
#
#
# Indices 1 2 3 4 5 6 
#
# 1 172.6176 17.6136 62.9379 -8.8921 -11.9068 23.1837
# 2 17.6136 97.8314 36.3940 -32.7532 10.7947 12.1546
# 3 62.9379 36.3940 84.1260 -26.0346 -3.3616 1.2249
# 4 -8.8921 -32.7532 -26.0346 28.8297 1.7281 4.1178
# 5 -11.9068 10.7947 -3.3616 1.7281 29.0442 5.6331
# 6 23.1837 12.1546 1.2249 4.1178 5.6331 43.9788
#
#
#
# Elastic Compliance Matrix: (Units=1/GPa)
#
#
# Indices 1 2 3 4 5 6 
#
# 1 0.009485 0.000283 -0.008093 -0.003584 0.004036 -0.005034
# 2 0.000283 0.020210 -0.002203 0.022489 -0.007670 -0.006797
# 3 -0.008093 -0.002203 0.023806 0.016166 -0.001260 0.002860
# 4 -0.003584 0.022489 0.016166 0.075861 -0.010426 -0.010544
# 5 0.004036 -0.007670 -0.001260 -0.010426 0.040214 -0.004147
# 6 -0.005034 -0.006797 0.002860 -0.010544 -0.004147 0.028709
#
#
# Mechanical properties :
#
#
# Convention : Reuss Voigt Hill
#
# Bulk Modulus (GPa) = 29.87287 65.38512 47.62899
# Shear Modulus (GPa) = 21.78939 36.21250 29.00095
#
# Velocity S-wave (km/s) = 3.23570 4.17133 3.73294
# Velocity P-wave (km/s) = 5.32104 7.39035 6.43936
#
# Compressibility (1/GPa) = 0.03347519
#
# Stress axis : x y z
#
# Youngs Moduli (GPa) = 105.42910 49.48006 42.00679
#
# Poissons Ratio (x) = -0.01401 0.33997
# Poissons Ratio (y) = -0.02986 0.09253
# Poissons Ratio (z) = 0.85327 0.10899
#
# Static dielectric constant tensor:
#      x y z
#    x 2.020230 -0.016700 -0.151350 
#    y -0.016700 1.741150 0.016250 
#    z -0.151350 0.016250 1.833440 
# 
# From -- ./inp_files/180617.got.cif
#   From: 2010.05.17/outbox.cif.g08.bks.cpg/sg2_91_cif.got.tgz:180617.got - 2010.06.03 11:33:40.
