data_PCOD9011624
_publ_section_title
;
Structure prediction by ZEFSAII (Michael W. Deem and Ramdas Pophale) SiO2 
 PCOD9011624
Probable space group: P -1
;
_chemical_formula_sum "Si O2"
_cell_formula_units_Z 16
_cell_length_a 19.354240
_cell_length_b 6.190897
_cell_length_c 6.837108
_cell_angle_alpha 72.014301
_cell_angle_beta 106.995471
_cell_angle_gamma 110.933402
_cell_volume 712.328630
_symmetry_space_group_name_H-M "P -1"
_symmetry_group_IT_number 2
_symmetry_cell_setting 'triclinic'
loop_
_space_group_symop_operation_xyz
x,y,z
-x,-y,-z
loop_
_atom_site_type_symbol
_atom_site_label
_atom_site_fract_x
_atom_site_fract_y
_atom_site_fract_z
Si Si1 0.179103 0.514610 0.272185
Si Si2 0.953289 0.932188 0.674717
Si Si3 0.547796 0.980024 0.854348
Si Si4 0.233055 0.262438 0.067666
Si Si5 0.416778 0.703807 0.557357
Si Si6 0.325391 0.214619 0.798804
Si Si7 0.284572 0.909488 0.493446
Si Si8 0.917523 0.147557 0.939530
O O1 0.126979 0.260247 0.369064
O O2 0.231618 0.477246 0.149034
O O3 0.225524 0.664392 0.445623
O O4 0.123783 0.657521 0.106150
O O5 0.006946 0.829038 0.886207
O O6 0.000000 0.000000 0.500000
O O7 0.937779 0.144490 0.727477
O O8 0.495009 0.786645 0.717397
O O9 0.570595 0.223091 0.679300
O O10 0.618712 0.898876 0.005122
O O11 0.500000 0.000000 0.000000
O O12 0.270810 0.095396 0.272334
O O13 0.277077 0.312112 0.887677
O O14 0.145717 0.106099 0.004683
O O15 0.373689 0.431812 0.644230
O O16 0.365787 0.865131 0.552644
O O17 0.276249 0.013297 0.669436
#
# Coordination Sequence:
#
# PCOD9011624 Si02
#       8
#     2   2   2   2   2   2   2   2
#     4  10  22  42  68  97 139 180 224 284 341 403
#     4  10  21  40  66  97 133 176 224 281 342 399
#     4  11  24  47  70 102 139 179 230 288 348 413
#     4  10  23  43  66  96 138 180 229 287 343 409
#     4  11  25  43  70 102 135 178 232 285 344 417
#     4  12  25  44  74 101 137 187 231 282 354 411
#     4  11  23  44  64 101 138 173 235 285 334 424
#     4   9  21  40  64  95 133 171 227 280 333 407
#
# _framework density 22.461542999999999
#
# number of rings (size 3 to 8) (size 9 to 14) (size 15 to 20)
#    0.000    1.500    2.500    1.500    0.000    9.000 
#    0.000    6.250    0.000    0.000    0.000    0.000 
#    0.000    0.000    0.000    0.000    0.000    0.000 
#
# Total GULP energy -89513.565813 kJ/mol
# GULP energy per Si atom -5594.597863 kJ/mol
# Density = 2.241042 g / cm^3
# Si number density = 22.461543 Si / 1000 Ang^3
#
#
#
# Elastic Constant Matrix: (Units=GPa)
#
#
# Indices 1 2 3 4 5 6 
#
# 1 85.4235 31.5415 55.5088 18.4068 -11.7611 -2.7376
# 2 31.5415 88.2462 62.8603 22.8043 -4.7423 -0.1132
# 3 55.5088 62.8603 128.1029 11.2547 -22.8805 3.3116
# 4 18.4068 22.8043 11.2547 23.1893 -1.8959 1.3286
# 5 -11.7611 -4.7423 -22.8805 -1.8959 49.1716 1.3701
# 6 -2.7376 -0.1132 3.3116 1.3286 1.3701 33.6314
#
#
#
# Elastic Compliance Matrix: (Units=1/GPa)
#
#
# Indices 1 2 3 4 5 6 
#
# 1 0.019443 0.002887 -0.008617 -0.014238 0.000287 0.002992
# 2 0.002887 0.023792 -0.011798 -0.020376 -0.003358 0.002419
# 3 -0.008617 -0.011798 0.017446 0.010595 0.005414 -0.003098
# 4 -0.014238 -0.020376 0.010595 0.069810 0.002394 -0.005126
# 5 0.000287 -0.003358 0.005414 0.002394 0.022736 -0.001542
# 6 0.002992 0.002419 -0.003098 -0.005126 -0.001542 0.030556
#
#
# Mechanical properties :
#
#
# Convention : Reuss Voigt Hill
#
# Bulk Modulus (GPa) = 39.02360 66.84376 52.93368
# Shear Modulus (GPa) = 21.98957 31.32259 26.65608
#
# Velocity S-wave (km/s) = 3.13227 3.73835 3.44865
# Velocity P-wave (km/s) = 5.52202 6.96114 6.28292
#
# Compressibility (1/GPa) = 0.02562552
#
# Stress axis : x y z
#
# Youngs Moduli (GPa) = 51.43233 42.03060 57.32129
#
# Poissons Ratio (x) = -0.12135 0.49393
# Poissons Ratio (y) = -0.14850 0.67628
# Poissons Ratio (z) = 0.44319 0.49588
#
# Static dielectric constant tensor:
#      x y z
#    x 1.823190 0.010150 -0.005090 
#    y 0.010150 1.849860 0.005600 
#    z -0.005090 0.005600 1.816330 
# 
# From -- ./inp_files/11426.got.cif
#   From: 2010.05.17/outbox.cif.g08.bks.cpg/sg2_6_cif.got.tgz:11426.got - 2010.06.03 11:33:40.
