data_PCOD9011933
_publ_section_title
;
Structure prediction by ZEFSAII (Michael W. Deem and Ramdas Pophale) SiO2 
 PCOD9011933
Probable space group: P -1
;
_chemical_formula_sum "Si O2"
_cell_formula_units_Z 12
_cell_length_a 23.961032
_cell_length_b 5.021780
_cell_length_c 10.206715
_cell_angle_alpha 65.750479
_cell_angle_beta 31.165518
_cell_angle_gamma 79.618473
_cell_volume 539.993954
_symmetry_space_group_name_H-M "P -1"
_symmetry_group_IT_number 2
_symmetry_cell_setting 'triclinic'
loop_
_space_group_symop_operation_xyz
x,y,z
-x,-y,-z
loop_
_atom_site_type_symbol
_atom_site_label
_atom_site_fract_x
_atom_site_fract_y
_atom_site_fract_z
Si Si1 0.439020 0.754868 0.058261
Si Si2 0.780007 0.386186 0.107695
Si Si3 0.926437 0.065933 0.752437
Si Si4 0.969022 0.086726 0.187261
Si Si5 0.195263 0.698580 0.643179
Si Si6 0.474778 0.812821 0.454175
O O1 0.457455 0.950660 0.846419
O O2 0.500000 0.500000 0.000000
O O3 0.302064 0.617993 0.392145
O O4 0.500000 0.000000 0.000000
O O5 0.777375 0.183642 0.286139
O O6 0.657562 0.291928 0.305169
O O7 0.817493 0.734407 0.023985
O O8 0.868542 0.323890 0.840068
O O9 0.010089 0.121940 0.698988
O O10 0.000000 0.000000 0.500000
O O11 0.070607 0.415322 0.954934
O O12 0.839332 0.080347 0.433859
O O13 0.000000 0.000000 0.000000
O O14 0.500000 0.500000 0.500000
O O15 0.500000 0.000000 0.500000
#
# Coordination Sequence:
#
# PCOD9011933 Si02
#       6
#     2   2   2   2   2   2
#     4  12  27  46  76 108 138 189 252 292 347 435
#     4  11  23  43  71  93 141 186 226 293 359 419
#     4  11  24  42  67 100 136 182 231 281 358 431
#     4  10  21  40  67  99 138 177 231 294 355 406
#     4  10  23  41  69 103 136 183 236 296 348 417
#     4  12  27  48  70 106 145 188 237 297 367 419
#
# _framework density 22.222470999999999
#
# number of rings (size 3 to 8) (size 9 to 14) (size 15 to 20)
#    0.000    1.000    3.333    2.500    7.000    2.667 
#    3.000    0.000    0.000    0.000    0.000    0.000 
#    0.000    0.000    0.000    0.000    0.000    0.000 
#
# Total GULP energy -66915.489421 kJ/mol
# GULP energy per Si atom -5576.290785 kJ/mol
# Density = 2.217189 g / cm^3
# Si number density = 22.222471 Si / 1000 Ang^3
#
#
#
# Elastic Constant Matrix: (Units=GPa)
#
#
# Indices 1 2 3 4 5 6 
#
# 1 196.3796 58.0877 68.0057 13.5561 -10.9550 5.7264
# 2 58.0877 140.8486 37.1971 20.7956 -1.8167 -0.1008
# 3 68.0057 37.1971 107.0051 27.8581 -1.8563 -26.8835
# 4 13.5561 20.7956 27.8581 34.3132 -7.7988 -2.1993
# 5 -10.9550 -1.8167 -1.8563 -7.7988 51.2325 11.3535
# 6 5.7264 -0.1008 -26.8835 -2.1993 11.3535 40.2814
#
#
#
# Elastic Compliance Matrix: (Units=1/GPa)
#
#
# Indices 1 2 3 4 5 6 
#
# 1 0.008387 -0.002103 -0.007416 0.004367 0.003652 -0.006938
# 2 -0.002103 0.008743 -0.000689 -0.004090 -0.000754 -0.000149
# 3 -0.007416 -0.000689 0.022506 -0.015403 -0.006949 0.017190
# 4 0.004367 -0.004090 -0.015403 0.043817 0.009374 -0.011161
# 5 0.003652 -0.000754 -0.006949 0.009374 0.023976 -0.011405
# 6 -0.006938 -0.000149 0.017190 -0.011161 -0.011405 0.039889
#
#
# Mechanical properties :
#
#
# Convention : Reuss Voigt Hill
#
# Bulk Modulus (GPa) = 52.02596 85.64601 68.83599
# Shear Modulus (GPa) = 28.71267 43.89494 36.30381
#
# Velocity S-wave (km/s) = 3.59842 4.44920 4.04623
# Velocity P-wave (km/s) = 6.38178 8.06336 7.27134
#
# Compressibility (1/GPa) = 0.01922117
#
# Stress axis : x y z
#
# Youngs Moduli (GPa) = 119.23390 114.37726 44.43266
#
# Poissons Ratio (x) = 0.24054 0.32950
# Poissons Ratio (y) = 0.25076 0.03059
# Poissons Ratio (z) = 0.88421 0.07875
#
# Static dielectric constant tensor:
#      x y z
#    x 1.758560 -0.091140 0.093780 
#    y -0.091140 2.001210 -0.121390 
#    z 0.093780 -0.121390 1.908400 
# 
# From -- ./inp_files/131597.got.cif
#   From: 2010.05.17/outbox.cif.g08.bks.cpg/sg2_66_cif.got.tgz:131597.got - 2010.06.03 11:33:40.
