data_PCOD9011194
_publ_section_title
;
Structure prediction by ZEFSAII (Michael W. Deem and Ramdas Pophale) SiO2 
 PCOD9011194
Probable space group: P -1
;
_chemical_formula_sum "Si O2"
_cell_formula_units_Z 16
_cell_length_a 13.873393
_cell_length_b 8.806069
_cell_length_c 12.090584
_cell_angle_alpha 34.836982
_cell_angle_beta 126.585305
_cell_angle_gamma 109.482574
_cell_volume 637.319152
_symmetry_space_group_name_H-M "P -1"
_symmetry_group_IT_number 2
_symmetry_cell_setting 'triclinic'
loop_
_space_group_symop_operation_xyz
x,y,z
-x,-y,-z
loop_
_atom_site_type_symbol
_atom_site_label
_atom_site_fract_x
_atom_site_fract_y
_atom_site_fract_z
Si Si1 0.015908 0.722798 0.960997
Si Si2 0.753759 0.090779 0.532205
Si Si3 0.249325 0.254727 0.645823
Si Si4 0.712768 0.818914 0.887500
Si Si5 0.705256 0.589451 0.657487
Si Si6 0.663654 0.348225 0.984576
Si Si7 0.412753 0.277218 0.950922
Si Si8 0.983928 0.697773 0.193102
O O1 0.906948 0.017778 0.684536
O O2 0.000000 0.500000 0.000000
O O3 0.162828 0.682198 0.087653
O O4 0.984622 0.596164 0.128848
O O5 0.674013 0.407554 0.259636
O O6 0.727572 0.861727 0.569193
O O7 0.715409 0.043334 0.660947
O O8 0.308511 0.355485 0.516382
O O9 0.348654 0.196465 0.848263
O O10 0.114535 0.480789 0.458439
O O11 0.232778 0.961895 0.773617
O O12 0.710197 0.557399 0.965952
O O13 0.592673 0.907968 0.835061
O O14 0.838108 0.751131 0.092797
O O15 0.622807 0.492590 0.749569
O O16 0.546694 0.295086 0.997097
O O17 0.000000 0.000000 0.000000
#
# Coordination Sequence:
#
# PCOD9011194 Si02
#       8
#     2   2   2   2   2   2   2   2
#     4   8  15  32  58  86 114 146 194 247 297 356
#     4   9  19  38  62  88 118 160 207 253 304 356
#     4  11  24  40  61  91 127 161 201 257 313 364
#     4  10  23  42  65  91 123 162 206 258 305 359
#     4   9  20  38  62  87 118 160 203 255 308 357
#     4  11  25  42  61  90 124 168 216 246 292 368
#     4  12  25  39  61  92 127 167 209 249 299 367
#     4  10  21  40  65  94 123 154 200 255 317 373
#
# _framework density 25.105160999999999
#
# number of rings (size 3 to 8) (size 9 to 14) (size 15 to 20)
#    0.000    2.000    0.000    3.750    0.000    8.500 
#    0.000    0.000    0.000    0.000    0.000    0.000 
#    0.000    0.000    0.000    0.000    0.000    0.000 
#
# Total GULP energy -89352.991255 kJ/mol
# GULP energy per Si atom -5584.561953 kJ/mol
# Density = 2.504802 g / cm^3
# Si number density = 25.105161 Si / 1000 Ang^3
#
#
#
# Elastic Constant Matrix: (Units=GPa)
#
#
# Indices 1 2 3 4 5 6 
#
# 1 103.9365 12.3097 11.9126 11.1196 -24.3031 -7.1837
# 2 12.3097 73.3197 7.0372 12.1924 -10.8009 -9.9022
# 3 11.9126 7.0372 79.9337 -1.5437 -5.0741 -7.7692
# 4 11.1196 12.1924 -1.5437 25.1506 -8.1815 -1.6978
# 5 -24.3031 -10.8009 -5.0741 -8.1815 31.9201 10.0761
# 6 -7.1837 -9.9022 -7.7692 -1.6978 10.0761 32.8029
#
#
#
# Elastic Compliance Matrix: (Units=1/GPa)
#
#
# Indices 1 2 3 4 5 6 
#
# 1 0.011994 -0.000298 -0.001329 -0.002569 0.008308 -0.000463
# 2 -0.000298 0.015659 -0.000992 -0.006592 0.002143 0.003427
# 3 -0.001329 -0.000992 0.013112 0.002210 0.000524 0.002468
# 4 -0.002569 -0.006592 0.002210 0.046979 0.008947 -0.002346
# 5 0.008308 0.002143 0.000524 0.008947 0.044064 -0.010482
# 6 -0.000463 0.003427 0.002468 -0.002346 -0.010482 0.035101
#
#
# Mechanical properties :
#
#
# Convention : Reuss Voigt Hill
#
# Bulk Modulus (GPa) = 28.14722 35.52321 31.83522
# Shear Modulus (GPa) = 27.17558 33.03676 30.10617
#
# Velocity S-wave (km/s) = 3.29366 3.63152 3.46671
# Velocity P-wave (km/s) = 5.06955 5.63599 5.36026
#
# Compressibility (1/GPa) = 0.03552748
#
# Stress axis : x y z
#
# Youngs Moduli (GPa) = 83.37356 63.86180 76.26832
#
# Poissons Ratio (x) = 0.01901 0.10132
# Poissons Ratio (y) = 0.02482 0.07569
# Poissons Ratio (z) = 0.11076 0.06337
#
# Static dielectric constant tensor:
#      x y z
#    x 2.083480 -0.011450 0.019420 
#    y -0.011450 1.939830 0.045380 
#    z 0.019420 0.045380 2.014090 
# 
# From -- ./inp_files/445496.got.cif
#   From: 2010.05.17/outbox.cif.g08.bks.cpg/sg2_223_cif.got.tgz:445496.got - 2010.06.03 11:33:40.
