data_PCOD9011283
_publ_section_title
;
Structure prediction by ZEFSAII (Michael W. Deem and Ramdas Pophale) SiO2 
 PCOD9011283
Probable space group: P -1
;
_chemical_formula_sum "Si O2"
_cell_formula_units_Z 13
_cell_length_a 12.349438
_cell_length_b 8.646731
_cell_length_c 7.040844
_cell_angle_alpha 132.329816
_cell_angle_beta 100.982121
_cell_angle_gamma 79.475161
_cell_volume 544.106173
_symmetry_space_group_name_H-M "P -1"
_symmetry_group_IT_number 2
_symmetry_cell_setting 'triclinic'
loop_
_space_group_symop_operation_xyz
x,y,z
-x,-y,-z
loop_
_atom_site_type_symbol
_atom_site_label
_atom_site_fract_x
_atom_site_fract_y
_atom_site_fract_z
Si Si1 0.632645 0.520899 0.781514
Si Si2 0.500000 0.500000 0.000000
Si Si3 0.486056 0.216097 0.369155
Si Si4 0.356804 0.836336 0.979555
Si Si5 0.054415 0.201883 0.604770
Si Si6 0.131099 0.456981 0.201357
Si Si7 0.127206 0.057463 0.129063
O O1 0.543505 0.346435 0.661922
O O2 0.591906 0.630936 0.665306
O O3 0.756402 0.440588 0.728311
O O4 0.596596 0.655912 0.061652
O O5 0.397784 0.632254 0.940413
O O6 0.413827 0.032998 0.254054
O O7 0.588595 0.159837 0.211893
O O8 0.224786 0.883225 0.964457
O O9 0.136769 0.112191 0.398327
O O10 0.961040 0.366366 0.620505
O O11 0.100404 0.334866 0.899748
O O12 0.000000 0.000000 0.500000
O O13 0.147784 0.270045 0.201235
O O14 0.000000 0.000000 0.000000
#
# Coordination Sequence:
#
# PCOD9011283 Si02
#       7
#     2   1   2   2   2   2   2
#     4  10  21  40  65  96 129 179 227 292 355 413
#     4  10  24  40  62 100 140 168 232 296 350 418
#     4   9  20  41  66  93 131 176 233 282 349 431
#     4  10  22  42  66 101 135 182 236 288 359 430
#     4  11  26  46  68 105 144 185 246 291 354 425
#     4  11  25  47  71 101 145 193 237 295 358 429
#     4  12  25  45  75 104 141 195 239 296 361 425
#
# _framework density 23.892396000000002
#
# number of rings (size 3 to 8) (size 9 to 14) (size 15 to 20)
#    0.000    1.538    3.077    0.462    4.308    1.846 
#    2.769    0.000    0.000    0.000    0.000    0.000 
#    0.000    0.000    0.000    0.000    0.000    0.000 
#
# Total GULP energy -72450.864221 kJ/mol
# GULP energy per Si atom -5573.143402 kJ/mol
# Density = 2.383802 g / cm^3
# Si number density = 23.892396 Si / 1000 Ang^3
#
#
#
# Elastic Constant Matrix: (Units=GPa)
#
#
# Indices 1 2 3 4 5 6 
#
# 1 117.8923 19.8922 24.2159 -1.6694 -1.1179 -10.8155
# 2 19.8922 101.1059 5.6450 -4.1664 -0.0310 -0.8257
# 3 24.2159 5.6450 84.5597 -1.9748 1.7153 2.8112
# 4 -1.6694 -4.1664 -1.9748 26.5044 12.8454 -12.4038
# 5 -1.1179 -0.0310 1.7153 12.8454 38.5046 3.8389
# 6 -10.8155 -0.8257 2.8112 -12.4038 3.8389 23.5866
#
#
#
# Elastic Compliance Matrix: (Units=1/GPa)
#
#
# Indices 1 2 3 4 5 6 
#
# 1 0.010097 -0.001568 -0.002894 0.004713 -0.001920 0.007711
# 2 -0.001568 0.010324 -0.000199 0.002529 -0.000987 0.001157
# 3 -0.002894 -0.000199 0.012760 -0.000729 -0.000088 -0.003224
# 4 0.004713 0.002529 -0.000729 0.073992 -0.029097 0.045984
# 5 -0.001920 -0.000987 -0.000088 -0.029097 0.037855 -0.022368
# 6 0.007711 0.001157 -0.003224 0.045984 -0.022368 0.074180
#
#
# Mechanical properties :
#
#
# Convention : Reuss Voigt Hill
#
# Bulk Modulus (GPa) = 41.91640 44.78489 43.35065
# Shear Modulus (GPa) = 21.14298 34.63944 27.89121
#
# Velocity S-wave (km/s) = 2.97800 3.81177 3.42038
# Velocity P-wave (km/s) = 5.42278 6.17721 5.81225
#
# Compressibility (1/GPa) = 0.02385701
#
# Stress axis : x y z
#
# Youngs Moduli (GPa) = 99.03485 96.86455 78.36946
#
# Poissons Ratio (x) = 0.15192 0.22682
# Poissons Ratio (y) = 0.15533 0.01563
# Poissons Ratio (z) = 0.28664 0.01931
#
# Static dielectric constant tensor:
#      x y z
#    x 1.947090 -0.030090 -0.042760 
#    y -0.030090 1.818420 -0.040080 
#    z -0.042760 -0.040080 2.142440 
# 
# From -- ./inp_files/236279.got.cif
#   From: 2010.05.17/outbox.cif.g08.bks.cpg/sg2_119_cif.got.tgz:236279.got - 2010.06.03 11:33:40.
