data_PCOD9011648
_publ_section_title
;
Structure prediction by ZEFSAII (Michael W. Deem and Ramdas Pophale) SiO2 
 PCOD9011648
Probable space group: P -1
;
_chemical_formula_sum "Si O2"
_cell_formula_units_Z 14
_cell_length_a 10.056085
_cell_length_b 11.025717
_cell_length_c 11.828878
_cell_angle_alpha 36.473571
_cell_angle_beta 83.305926
_cell_angle_gamma 107.729720
_cell_volume 571.620762
_symmetry_space_group_name_H-M "P -1"
_symmetry_group_IT_number 2
_symmetry_cell_setting 'triclinic'
loop_
_space_group_symop_operation_xyz
x,y,z
-x,-y,-z
loop_
_atom_site_type_symbol
_atom_site_label
_atom_site_fract_x
_atom_site_fract_y
_atom_site_fract_z
Si Si1 0.285806 0.756086 0.209398
Si Si2 0.926834 0.699249 0.596223
Si Si3 0.108503 0.887805 0.665358
Si Si4 0.362092 0.521563 0.552168
Si Si5 0.550867 0.994708 0.350260
Si Si6 0.792432 0.901311 0.918328
Si Si7 0.303793 0.527277 0.901882
O O1 0.196982 0.609302 0.207704
O O2 0.251619 0.525730 0.465139
O O3 0.228392 0.901702 0.168954
O O4 0.500000 0.000000 0.000000
O O5 0.064259 0.776518 0.624472
O O6 0.837318 0.816445 0.563805
O O7 0.034688 0.889768 0.333793
O O8 0.265834 0.929181 0.682161
O O9 0.911340 0.667178 0.910721
O O10 0.500000 0.500000 0.500000
O O11 0.484830 0.822077 0.372664
O O12 0.233673 0.281821 0.837298
O O13 0.386283 0.765224 0.622216
O O14 0.595051 0.279909 0.142124
O O15 0.662085 0.659012 0.017544
#
# Coordination Sequence:
#
# PCOD9011648 Si02
#       7
#     2   2   2   2   2   2   2
#     4  12  25  43  70  98 133 181 226 275 341 409
#     4  10  24  43  63 101 136 175 229 277 339 403
#     4  10  21  42  68  96 137 179 223 282 339 401
#     4  11  23  42  67 101 134 178 228 275 338 406
#     4  10  21  40  66  98 138 177 228 279 340 402
#     4  10  23  45  65  98 137 174 229 280 335 404
#     4   9  21  39  63  99 134 174 226 277 336 403
#
# _framework density 24.491762000000001
#
# number of rings (size 3 to 8) (size 9 to 14) (size 15 to 20)
#    0.000    1.714    1.429    1.714    4.000    4.000 
#    0.000    7.857    0.000    0.000    0.000    0.000 
#    0.000    0.000    0.000    0.000    0.000    0.000 
#
# Total GULP energy -78116.367964 kJ/mol
# GULP energy per Si atom -5579.740569 kJ/mol
# Density = 2.443602 g / cm^3
# Si number density = 24.491762 Si / 1000 Ang^3
#
#
#
# Elastic Constant Matrix: (Units=GPa)
#
#
# Indices 1 2 3 4 5 6 
#
# 1 47.0770 51.4905 18.0946 -7.1740 9.7199 7.6409
# 2 51.4905 199.4072 31.3724 -34.4124 -1.7736 -18.7912
# 3 18.0946 31.3724 128.4809 5.6440 -15.5506 2.7276
# 4 -7.1740 -34.4124 5.6440 48.9227 -5.3253 16.9938
# 5 9.7199 -1.7736 -15.5506 -5.3253 28.7057 -5.3129
# 6 7.6409 -18.7912 2.7276 16.9938 -5.3129 36.9228
#
#
#
# Elastic Compliance Matrix: (Units=1/GPa)
#
#
# Indices 1 2 3 4 5 6 
#
# 1 0.045197 -0.012292 -0.005777 0.003107 -0.022285 -0.019819
# 2 -0.012292 0.009453 -0.000068 0.003196 0.006567 0.006834
# 3 -0.005777 -0.000068 0.009521 -0.002059 0.007179 0.002438
# 4 0.003107 0.003196 -0.002059 0.027433 0.001020 -0.011344
# 5 -0.022285 0.006567 0.007179 0.001020 0.049471 0.014073
# 6 -0.019819 0.006834 0.002438 -0.011344 0.014073 0.041729
#
#
# Mechanical properties :
#
#
# Convention : Reuss Voigt Hill
#
# Bulk Modulus (GPa) = 35.84372 64.09779 49.97075
# Shear Modulus (GPa) = 21.89369 41.17740 31.53555
#
# Velocity S-wave (km/s) = 2.99309 4.10478 3.59220
# Velocity P-wave (km/s) = 5.15864 6.97808 6.13617
#
# Compressibility (1/GPa) = 0.02789889
#
# Stress axis : x y z
#
# Youngs Moduli (GPa) = 22.12520 105.78236 105.03071
#
# Poissons Ratio (x) = 1.30023 0.60676
# Poissons Ratio (y) = 0.27195 0.00713
# Poissons Ratio (z) = 0.12782 0.00718
#
# Static dielectric constant tensor:
#      x y z
#    x 1.965460 -0.074510 0.026280 
#    y -0.074510 2.049960 -0.010190 
#    z 0.026280 -0.010190 1.999940 
# 
# From -- ./inp_files/425028.got.cif
#   From: 2010.05.17/outbox.cif.g08.bks.cpg/sg2_213_cif.got.tgz:425028.got - 2010.06.03 11:33:40.
