data_PCOD9011498
_publ_section_title
;
Structure prediction by ZEFSAII (Michael W. Deem and Ramdas Pophale) SiO2 
 PCOD9011498
Probable space group: P -1
;
_chemical_formula_sum "Si O2"
_cell_formula_units_Z 14
_cell_length_a 10.508218
_cell_length_b 13.912383
_cell_length_c 8.188109
_cell_angle_alpha 148.172688
_cell_angle_beta 112.137184
_cell_angle_gamma 69.793138
_cell_volume 583.963506
_symmetry_space_group_name_H-M "P -1"
_symmetry_group_IT_number 2
_symmetry_cell_setting 'triclinic'
loop_
_space_group_symop_operation_xyz
x,y,z
-x,-y,-z
loop_
_atom_site_type_symbol
_atom_site_label
_atom_site_fract_x
_atom_site_fract_y
_atom_site_fract_z
Si Si1 0.632366 0.512722 0.268556
Si Si2 0.662380 0.454990 0.549168
Si Si3 0.289141 0.866620 0.330411
Si Si4 0.108521 0.343183 0.532371
Si Si5 0.982623 0.737646 0.972627
Si Si6 0.808294 0.767133 0.247674
Si Si7 0.594707 0.168347 0.319430
O O1 0.716568 0.503571 0.467001
O O2 0.736307 0.588693 0.297864
O O3 0.503389 0.654391 0.422550
O O4 0.608803 0.301174 0.919694
O O5 0.500000 0.500000 0.500000
O O6 0.674137 0.246737 0.315189
O O7 0.730405 0.586179 0.900547
O O8 0.309373 0.880692 0.553860
O O9 0.301417 0.062706 0.538382
O O10 0.135201 0.809249 0.137479
O O11 0.086152 0.230777 0.193166
O O12 0.097778 0.256444 0.580256
O O13 0.009942 0.523237 0.722229
O O14 0.897151 0.812152 0.194627
O O15 0.500000 0.000000 0.000000
#
# Coordination Sequence:
#
# PCOD9011498 Si02
#       7
#     2   2   2   2   2   2   2
#     4  10  21  43  64  96 136 171 221 279 324 394
#     4  10  21  40  66  93 130 174 216 271 331 388
#     4  11  24  41  63 101 133 175 225 269 330 395
#     4  10  22  40  70  96 131 178 222 272 333 382
#     4  10  22  43  65  97 138 174 221 276 324 392
#     4  12  23  42  68 100 136 178 222 266 333 398
#     4  11  24  43  68  95 130 176 222 277 336 395
#
# _framework density 23.974101999999998
#
# number of rings (size 3 to 8) (size 9 to 14) (size 15 to 20)
#    0.000    1.429    1.429    4.714    0.000    2.857 
#    0.000    4.286    0.000    0.000    0.000    0.000 
#    0.000    0.000    0.000    0.000    0.000    0.000 
#
# Total GULP energy -78210.017996 kJ/mol
# GULP energy per Si atom -5586.429857 kJ/mol
# Density = 2.391954 g / cm^3
# Si number density = 23.974102 Si / 1000 Ang^3
#
#
#
# Elastic Constant Matrix: (Units=GPa)
#
#
# Indices 1 2 3 4 5 6 
#
# 1 49.9220 1.5201 16.4043 1.1431 -0.2146 -2.6917
# 2 1.5201 159.0281 61.4882 -26.5909 -0.0377 13.4163
# 3 16.4043 61.4882 93.0561 -4.8641 3.5955 15.6732
# 4 1.1431 -26.5909 -4.8641 47.7554 0.6760 -4.5604
# 5 -0.2146 -0.0377 3.5955 0.6760 34.5354 0.5611
# 6 -2.6917 13.4163 15.6732 -4.5604 0.5611 19.6584
#
#
#
# Elastic Compliance Matrix: (Units=1/GPa)
#
#
# Indices 1 2 3 4 5 6 
#
# 1 0.022398 0.001679 -0.006236 0.000420 0.000669 0.006971
# 2 0.001679 0.009499 -0.006329 0.004580 0.000593 -0.000161
# 3 -0.006236 -0.006329 0.017865 -0.002614 -0.001670 -0.011337
# 4 0.000420 0.004580 -0.002614 0.023648 -0.000256 0.004509
# 5 0.000669 0.000593 -0.001670 -0.000256 0.029137 0.000128
# 6 0.006971 -0.000161 -0.011337 0.004509 0.000128 0.062014
#
#
# Mechanical properties :
#
#
# Convention : Reuss Voigt Hill
#
# Bulk Modulus (GPa) = 35.72618 51.20349 43.46483
# Shear Modulus (GPa) = 25.55408 35.22942 30.39175
#
# Velocity S-wave (km/s) = 3.26836 3.83754 3.56433
# Velocity P-wave (km/s) = 5.40160 6.40623 5.92524
#
# Compressibility (1/GPa) = 0.02799068
#
# Stress axis : x y z
#
# Youngs Moduli (GPa) = 44.64601 105.27606 55.97627
#
# Poissons Ratio (x) = -0.17680 0.34908
# Poissons Ratio (y) = -0.07498 0.35427
# Poissons Ratio (z) = 0.27842 0.66628
#
# Static dielectric constant tensor:
#      x y z
#    x 2.020700 0.046540 -0.072540 
#    y 0.046540 1.925810 -0.012990 
#    z -0.072540 -0.012990 1.971570 
# 
# From -- ./inp_files/212999.got.cif
#   From: 2010.05.17/outbox.cif.g08.bks.cpg/sg2_107_cif.got.tgz:212999.got - 2010.06.03 11:33:40.
