data_PCOD9011019
_publ_section_title
;
Structure prediction by ZEFSAII (Michael W. Deem and Ramdas Pophale) SiO2 
 PCOD9011019
Probable space group: P -1
;
_chemical_formula_sum "Si O2"
_cell_formula_units_Z 15
_cell_length_a 9.716484
_cell_length_b 8.793464
_cell_length_c 14.639706
_cell_angle_alpha 76.033403
_cell_angle_beta 57.422248
_cell_angle_gamma 44.272665
_cell_volume 713.348394
_symmetry_space_group_name_H-M "P -1"
_symmetry_group_IT_number 2
_symmetry_cell_setting 'triclinic'
loop_
_space_group_symop_operation_xyz
x,y,z
-x,-y,-z
loop_
_atom_site_type_symbol
_atom_site_label
_atom_site_fract_x
_atom_site_fract_y
_atom_site_fract_z
Si Si1 0.135179 0.262205 0.440221
Si Si2 0.574530 0.677690 0.177531
Si Si3 0.021962 0.178728 0.158322
Si Si4 0.721230 0.311282 0.574881
Si Si5 0.443762 0.717812 0.007750
Si Si6 0.337105 0.150840 0.189279
Si Si7 0.500000 0.000000 0.500000
Si Si8 0.293196 0.816506 0.604754
O O1 0.171373 0.267384 0.319496
O O2 0.000000 0.500000 0.500000
O O3 0.968655 0.224698 0.514592
O O4 0.386180 0.082604 0.425301
O O5 0.815971 0.426979 0.154343
O O6 0.373219 0.734855 0.304113
O O7 0.527207 0.685814 0.086746
O O8 0.546998 0.882933 0.173288
O O9 0.907595 0.138609 0.277873
O O10 0.195508 0.174132 0.151679
O O11 0.176197 0.965301 0.066988
O O12 0.536664 0.579294 0.590842
O O13 0.710444 0.229966 0.493613
O O14 0.500000 0.500000 0.000000
O O15 0.577068 0.738834 0.886923
O O16 0.311527 0.987519 0.591373
#
# Coordination Sequence:
#
# PCOD9011019 Si02
#       8
#     2   2   2   2   2   2   1   2
#     4  12  26  42  66 103 144 183 219 291 349 405
#     4  10  23  43  72  99 129 177 237 285 333 414
#     4  10  22  45  73  97 132 185 230 287 338 412
#     4  10  21  42  69  96 139 178 226 280 341 413
#     4  11  27  45  65 101 137 177 230 288 347 407
#     4  11  25  44  70  99 135 181 237 279 341 415
#     4  12  26  36  62 102 136 176 226 276 338 416
#     4  10  21  40  65 104 133 176 234 270 345 413
#
# _framework density 21.027593
#
# number of rings (size 3 to 8) (size 9 to 14) (size 15 to 20)
#    0.000    1.333    2.667    2.400    5.600    4.800 
#    0.000    0.000    0.000    0.000    0.000    0.000 
#    0.000    0.000    0.000    0.000    0.000    0.000 
#
# Total GULP energy -83532.282369 kJ/mol
# GULP energy per Si atom -5568.818825 kJ/mol
# Density = 2.097973 g / cm^3
# Si number density = 21.027593 Si / 1000 Ang^3
#
#
#
# Elastic Constant Matrix: (Units=GPa)
#
#
# Indices 1 2 3 4 5 6 
#
# 1 80.4763 34.0886 15.3634 -5.0395 -12.8107 2.4263
# 2 34.0886 118.8604 52.0161 -7.0510 -14.0809 13.0851
# 3 15.3634 52.0161 68.5359 -2.4340 -10.3038 11.0646
# 4 -5.0395 -7.0510 -2.4340 31.9790 2.8289 -1.6990
# 5 -12.8107 -14.0809 -10.3038 2.8289 31.3228 -4.3485
# 6 2.4263 13.0851 11.0646 -1.6990 -4.3485 38.1889
#
#
#
# Elastic Compliance Matrix: (Units=1/GPa)
#
#
# Indices 1 2 3 4 5 6 
#
# 1 0.014754 -0.003798 0.000135 0.001156 0.004388 0.000876
# 2 -0.003798 0.013975 -0.009234 0.001575 0.001320 -0.001651
# 3 0.000135 -0.009234 0.022478 -0.000726 0.002940 -0.003055
# 4 0.001156 0.001575 -0.000726 0.031950 -0.001831 0.000810
# 5 0.004388 0.001320 0.002940 -0.001831 0.035781 0.002410
# 6 0.000876 -0.001651 -0.003055 0.000810 0.002410 0.027891
#
#
# Mechanical properties :
#
#
# Convention : Reuss Voigt Hill
#
# Bulk Modulus (GPa) = 39.35155 52.31210 45.83182
# Shear Modulus (GPa) = 27.60974 31.39177 29.50075
#
# Velocity S-wave (km/s) = 3.62750 3.86798 3.74967
# Velocity P-wave (km/s) = 6.02494 6.69927 6.37103
#
# Compressibility (1/GPa) = 0.02541196
#
# Stress axis : x y z
#
# Youngs Moduli (GPa) = 67.77961 71.55478 44.48698
#
# Poissons Ratio (x) = 0.27179 -0.00600
# Poissons Ratio (y) = 0.25745 0.41081
# Poissons Ratio (z) = -0.00914 0.66076
#
# Static dielectric constant tensor:
#      x y z
#    x 1.737430 -0.018700 -0.005410 
#    y -0.018700 1.854950 0.002780 
#    z -0.005410 0.002780 1.750560 
# 
# From -- ./inp_files/490894.got.cif
#   From: 2010.05.17/outbox.cif.g08.bks.cpg/sg2_246_cif.got.tgz:490894.got - 2010.06.03 11:33:40.
