data_PCOD9011911
_publ_section_title
;
Structure prediction by ZEFSAII (Michael W. Deem and Ramdas Pophale) SiO2 
 PCOD9011911
Probable space group: P -1
;
_chemical_formula_sum "Si O2"
_cell_formula_units_Z 14
_cell_length_a 5.362207
_cell_length_b 15.050230
_cell_length_c 7.789983
_cell_angle_alpha 88.615587
_cell_angle_beta 116.232217
_cell_angle_gamma 73.105385
_cell_volume 530.987033
_symmetry_space_group_name_H-M "P -1"
_symmetry_group_IT_number 2
_symmetry_cell_setting 'triclinic'
loop_
_space_group_symop_operation_xyz
x,y,z
-x,-y,-z
loop_
_atom_site_type_symbol
_atom_site_label
_atom_site_fract_x
_atom_site_fract_y
_atom_site_fract_z
Si Si1 0.287242 0.870956 0.744680
Si Si2 0.505418 0.600870 0.294788
Si Si3 0.390793 0.798376 0.158948
Si Si4 0.752644 0.383622 0.263833
Si Si5 0.090981 0.389330 0.027539
Si Si6 0.667099 0.265090 0.500467
Si Si7 0.344855 0.049182 0.625240
O O1 0.985099 0.902472 0.544535
O O2 0.118467 0.696566 0.549964
O O3 0.381106 0.963196 0.771348
O O4 0.261887 0.833864 0.929537
O O5 0.675938 0.493479 0.295612
O O6 0.150432 0.622492 0.180594
O O7 0.554990 0.633478 0.499190
O O8 0.049891 0.637469 0.842452
O O9 0.216479 0.793977 0.285916
O O10 0.546975 0.872081 0.260521
O O11 0.562827 0.685609 0.202215
O O12 0.441913 0.367195 0.129268
O O13 0.000000 0.500000 0.000000
O O14 0.525531 0.206475 0.333423
O O15 0.500000 0.000000 0.500000
#
# Coordination Sequence:
#
# PCOD9011911 Si02
#       7
#     2   2   2   2   2   2   2
#     4  11  24  46  71 102 142 180 232 304 365 435
#     4   9  20  41  62 101 139 183 244 289 353 424
#     4  10  23  43  70 104 141 180 240 286 373 422
#     4  11  22  43  70  98 150 197 243 306 356 422
#     4  10  21  40  67  98 134 194 251 300 359 424
#     4  10  23  43  66 104 139 185 245 288 359 431
#     4  11  23  48  74 102 137 178 235 296 368 453
#
# _framework density 26.365988999999999
#
# number of rings (size 3 to 8) (size 9 to 14) (size 15 to 20)
#    0.857    0.857    1.429    3.429    0.000    2.857 
#   12.857    3.571    0.000    0.000    0.000    0.000 
#    0.000    0.000    0.000    0.000    0.000    0.000 
#
# Total GULP energy -77982.539276 kJ/mol
# GULP energy per Si atom -5570.181377 kJ/mol
# Density = 2.630598 g / cm^3
# Si number density = 26.365989 Si / 1000 Ang^3
#
#
#
# Elastic Constant Matrix: (Units=GPa)
#
#
# Indices 1 2 3 4 5 6 
#
# 1 101.4323 40.6531 47.9683 -4.6824 -1.5972 2.8734
# 2 40.6531 193.7845 52.4635 13.3666 -7.2726 34.5560
# 3 47.9683 52.4635 150.5243 10.1767 -23.8436 16.0957
# 4 -4.6824 13.3666 10.1767 52.7319 21.5316 -8.1171
# 5 -1.5972 -7.2726 -23.8436 21.5316 55.4931 -6.7592
# 6 2.8734 34.5560 16.0957 -8.1171 -6.7592 45.2084
#
#
#
# Elastic Compliance Matrix: (Units=1/GPa)
#
#
# Indices 1 2 3 4 5 6 
#
# 1 0.013001 -0.002486 -0.004392 0.004385 -0.003181 0.002950
# 2 -0.002486 0.007102 -0.000710 -0.003179 0.001127 -0.005420
# 3 -0.004392 -0.000710 0.009770 -0.004753 0.005495 -0.002688
# 4 0.004385 -0.003179 -0.004753 0.027031 -0.011980 0.006905
# 5 -0.003181 0.001127 0.005495 -0.011980 0.024960 -0.001035
# 6 0.002950 -0.005420 -0.002688 0.006905 -0.001035 0.028117
#
#
# Mechanical properties :
#
#
# Convention : Reuss Voigt Hill
#
# Bulk Modulus (GPa) = 68.04534 80.87898 74.46216
# Shear Modulus (GPa) = 38.44456 50.99708 44.72082
#
# Velocity S-wave (km/s) = 3.82267 4.40272 4.12291
# Velocity P-wave (km/s) = 6.73407 7.52246 7.13916
#
# Compressibility (1/GPa) = 0.01469608
#
# Stress axis : x y z
#
# Youngs Moduli (GPa) = 76.91572 140.80053 102.35448
#
# Poissons Ratio (x) = 0.35005 0.44959
# Poissons Ratio (y) = 0.19122 0.07268
# Poissons Ratio (z) = 0.33785 0.09998
#
# Static dielectric constant tensor:
#      x y z
#    x 2.226610 -0.131280 0.050300 
#    y -0.131280 2.229150 -0.063330 
#    z 0.050300 -0.063330 2.219470 
# 
# From -- ./inp_files/203342.got.cif
#   From: 2010.05.17/outbox.cif.g08.bks.cpg/sg2_102_cif.got.tgz:203342.got - 2010.06.03 11:33:40.
