data_PCOD9011874
_publ_section_title
;
Structure prediction by ZEFSAII (Michael W. Deem and Ramdas Pophale) SiO2 
 PCOD9011874
Probable space group: P -1
;
_chemical_formula_sum "Si O2"
_cell_formula_units_Z 16
_cell_length_a 16.413949
_cell_length_b 11.320793
_cell_length_c 8.399289
_cell_angle_alpha 84.226218
_cell_angle_beta 60.808450
_cell_angle_gamma 134.317105
_cell_volume 689.838503
_symmetry_space_group_name_H-M "P -1"
_symmetry_group_IT_number 2
_symmetry_cell_setting 'triclinic'
loop_
_space_group_symop_operation_xyz
x,y,z
-x,-y,-z
loop_
_atom_site_type_symbol
_atom_site_label
_atom_site_fract_x
_atom_site_fract_y
_atom_site_fract_z
Si Si1 0.695337 0.180291 0.357472
Si Si2 0.265242 0.949782 0.408814
Si Si3 0.860289 0.545836 0.377823
Si Si4 0.223146 0.317748 0.075943
Si Si5 0.663568 0.330164 0.910846
Si Si6 0.779408 0.819017 0.582143
Si Si7 0.801515 0.725856 0.247918
Si Si8 0.097728 0.593882 0.186162
O O1 0.736425 0.308311 0.450423
O O2 0.500000 0.000000 0.500000
O O3 0.708606 0.062913 0.430560
O O4 0.845149 0.366284 0.055287
O O5 0.260698 0.085452 0.383990
O O6 0.447457 0.102650 0.128719
O O7 0.078523 0.680739 0.567400
O O8 0.771295 0.491905 0.632133
O O9 0.851128 0.643457 0.251348
O O10 0.044765 0.674879 0.228729
O O11 0.275960 0.512697 0.029533
O O12 0.288859 0.317701 0.170397
O O13 0.289860 0.359728 0.827828
O O14 0.002752 0.057508 0.327271
O O15 0.736659 0.279072 0.888173
O O16 0.713251 0.687015 0.496554
O O17 0.000000 0.000000 0.000000
#
# Coordination Sequence:
#
# PCOD9011874 Si02
#       8
#     2   2   2   2   2   2   2   2
#     4  11  24  45  69 101 138 178 228 287 343 409
#     4  11  24  41  72  97 133 186 220 285 349 404
#     4  11  24  42  68 101 140 179 230 285 341 411
#     4  10  21  40  67  96 138 179 226 286 340 405
#     4  12  23  44  67 102 141 174 233 287 339 412
#     4  10  21  42  66  98 136 179 233 277 347 408
#     4  10  22  38  70 101 133 181 230 282 340 412
#     4  11  24  44  70  98 137 177 228 282 351 407
#
# _framework density 23.193835
#
# number of rings (size 3 to 8) (size 9 to 14) (size 15 to 20)
#    0.000    1.250    3.750    2.625    5.250    2.500 
#    2.250    1.875    0.000    0.000    0.000    0.000 
#    0.000    0.000    0.000    0.000    0.000    0.000 
#
# Total GULP energy -89393.310031 kJ/mol
# GULP energy per Si atom -5587.081877 kJ/mol
# Density = 2.314104 g / cm^3
# Si number density = 23.193835 Si / 1000 Ang^3
#
#
#
# Elastic Constant Matrix: (Units=GPa)
#
#
# Indices 1 2 3 4 5 6 
#
# 1 151.3476 26.7584 47.7770 14.7199 19.9217 -16.5568
# 2 26.7584 78.6921 30.4926 25.4171 10.1598 -2.3512
# 3 47.7770 30.4926 60.6284 15.1188 3.5356 0.7979
# 4 14.7199 25.4171 15.1188 26.7841 4.2071 11.0200
# 5 19.9217 10.1598 3.5356 4.2071 39.4388 -1.0881
# 6 -16.5568 -2.3512 0.7979 11.0200 -1.0881 33.0467
#
#
#
# Elastic Compliance Matrix: (Units=1/GPa)
#
#
# Indices 1 2 3 4 5 6 
#
# 1 0.010681 0.002073 -0.007859 -0.005784 -0.004402 0.007473
# 2 0.002073 0.022846 -0.007517 -0.022173 -0.003614 0.010121
# 3 -0.007859 -0.007517 0.026970 -0.002650 0.003658 -0.004119
# 4 -0.005784 -0.022173 -0.002650 0.075174 0.000039 -0.029478
# 5 -0.004402 -0.003614 0.003658 0.000039 0.028133 -0.001637
# 6 0.007473 0.010121 -0.004119 -0.029478 -0.001637 0.044600
#
#
# Mechanical properties :
#
#
# Convention : Reuss Voigt Hill
#
# Bulk Modulus (GPa) = 29.50649 55.63604 42.57126
# Shear Modulus (GPa) = 20.29983 32.22991 26.26487
#
# Velocity S-wave (km/s) = 2.96163 3.73176 3.36878
# Velocity P-wave (km/s) = 4.94412 6.52745 5.79016
#
# Compressibility (1/GPa) = 0.03389085
#
# Stress axis : x y z
#
# Youngs Moduli (GPa) = 93.62333 43.77047 37.07865
#
# Poissons Ratio (x) = -0.09075 0.29140
# Poissons Ratio (y) = -0.19410 0.27874
# Poissons Ratio (z) = 0.73578 0.32904
#
# Static dielectric constant tensor:
#      x y z
#    x 2.083350 -0.161210 0.102840 
#    y -0.161210 2.051040 -0.077980 
#    z 0.102840 -0.077980 1.920460 
# 
# From -- ./inp_files/333244.got.cif
#   From: 2010.05.17/outbox.cif.g08.bks.cpg/sg2_167_cif.got.tgz:333244.got - 2010.06.03 11:33:40.
