data_PCOD9011907
_publ_section_title
;
Structure prediction by ZEFSAII (Michael W. Deem and Ramdas Pophale) SiO2 
 PCOD9011907
Probable space group: P -1
;
_chemical_formula_sum "Si O2"
_cell_formula_units_Z 12
_cell_length_a 15.059344
_cell_length_b 8.696023
_cell_length_c 9.073159
_cell_angle_alpha 65.901635
_cell_angle_beta 48.559512
_cell_angle_gamma 37.843295
_cell_volume 529.299437
_symmetry_space_group_name_H-M "P -1"
_symmetry_group_IT_number 2
_symmetry_cell_setting 'triclinic'
loop_
_space_group_symop_operation_xyz
x,y,z
-x,-y,-z
loop_
_atom_site_type_symbol
_atom_site_label
_atom_site_fract_x
_atom_site_fract_y
_atom_site_fract_z
Si Si1 0.937349 0.047464 0.882798
Si Si2 0.335599 0.074806 0.080436
Si Si3 0.007740 0.627031 0.311200
Si Si4 0.557889 0.295152 0.133076
Si Si5 0.361039 0.875084 0.435818
Si Si6 0.307285 0.540998 0.591621
O O1 0.934048 0.246320 0.752516
O O2 0.740842 0.175630 0.047201
O O3 0.088571 0.765500 0.747592
O O4 0.000000 0.000000 0.000000
O O5 0.160182 0.382875 0.135283
O O6 0.314563 0.962654 0.281617
O O7 0.500000 0.000000 0.000000
O O8 0.392929 0.921939 0.929416
O O9 0.000000 0.500000 0.500000
O O10 0.798754 0.865045 0.395960
O O11 0.404194 0.423533 0.372889
O O12 0.500000 0.500000 0.000000
O O13 0.330235 0.710458 0.549086
O O14 0.562630 0.698632 0.342140
#
# Coordination Sequence:
#
# PCOD9011907 Si02
#       6
#     2   2   2   2   2   2
#     4  11  24  43  75 100 132 185 228 277 338 409
#     4  11  23  40  64  95 136 176 221 279 345 398
#     4   9  20  39  63  94 132 175 219 275 341 397
#     4  12  24  42  67 104 135 174 235 282 326 409
#     4   9  18  40  64  90 126 176 215 272 332 404
#     4  10  21  40  67  98 134 164 229 280 333 393
#
# _framework density 22.671476999999999
#
# number of rings (size 3 to 8) (size 9 to 14) (size 15 to 20)
#    0.000    1.667    1.667    4.000    2.333    0.667 
#    9.000    4.167    0.000    0.000    0.000    0.000 
#    0.000    0.000    0.000    0.000    0.000    0.000 
#
# Total GULP energy -66964.084010 kJ/mol
# GULP energy per Si atom -5580.340334 kJ/mol
# Density = 2.261988 g / cm^3
# Si number density = 22.671477 Si / 1000 Ang^3
#
#
#
# Elastic Constant Matrix: (Units=GPa)
#
#
# Indices 1 2 3 4 5 6 
#
# 1 69.6309 25.3150 26.4191 9.2485 12.8833 5.6548
# 2 25.3150 130.7003 41.8609 34.9612 18.0145 5.5490
# 3 26.4191 41.8609 113.6430 30.7119 21.7013 6.0360
# 4 9.2485 34.9612 30.7119 46.7669 12.6858 6.8306
# 5 12.8833 18.0145 21.7013 12.6858 28.6649 -0.6368
# 6 5.6548 5.5490 6.0360 6.8306 -0.6368 27.6209
#
#
#
# Elastic Compliance Matrix: (Units=1/GPa)
#
#
# Indices 1 2 3 4 5 6 
#
# 1 0.017072 -0.002111 -0.002480 0.001717 -0.005297 -0.003076
# 2 -0.002111 0.010335 -0.001360 -0.005911 -0.001900 0.000071
# 3 -0.002480 -0.001360 0.012254 -0.005047 -0.005091 -0.000766
# 4 0.001717 -0.005911 -0.005047 0.031665 -0.007384 -0.006062
# 5 -0.005297 -0.001900 -0.005091 -0.007384 0.045703 0.005458
# 6 -0.003076 0.000071 -0.000766 -0.006062 0.005458 0.038612
#
#
# Mechanical properties :
#
#
# Convention : Reuss Voigt Hill
#
# Bulk Modulus (GPa) = 36.02459 55.68490 45.85474
# Shear Modulus (GPa) = 28.28111 35.30248 31.79179
#
# Velocity S-wave (km/s) = 3.53573 3.95033 3.74877
# Velocity P-wave (km/s) = 5.70901 6.73957 6.24558
#
# Compressibility (1/GPa) = 0.02775882
#
# Stress axis : x y z
#
# Youngs Moduli (GPa) = 58.57661 96.75461 81.60664
#
# Poissons Ratio (x) = 0.20422 0.20241
# Poissons Ratio (y) = 0.12364 0.11099
# Poissons Ratio (z) = 0.14529 0.13159
#
# Static dielectric constant tensor:
#      x y z
#    x 1.845370 -0.113560 0.056610 
#    y -0.113560 2.108030 -0.162360 
#    z 0.056610 -0.162360 2.137560 
# 
# From -- ./inp_files/170361.got.cif
#   From: 2010.05.17/outbox.cif.g08.bks.cpg/sg2_86_cif.got.tgz:170361.got - 2010.06.03 11:33:40.
