data_PCOD9011146
_publ_section_title
;
Structure prediction by ZEFSAII (Michael W. Deem and Ramdas Pophale) SiO2 
 PCOD9011146
Probable space group: P -1
;
_chemical_formula_sum "Si O2"
_cell_formula_units_Z 16
_cell_length_a 11.981283
_cell_length_b 8.194813
_cell_length_c 12.378868
_cell_angle_alpha 47.750447
_cell_angle_beta 108.539968
_cell_angle_gamma 129.865498
_cell_volume 676.749621
_symmetry_space_group_name_H-M "P -1"
_symmetry_group_IT_number 2
_symmetry_cell_setting 'triclinic'
loop_
_space_group_symop_operation_xyz
x,y,z
-x,-y,-z
loop_
_atom_site_type_symbol
_atom_site_label
_atom_site_fract_x
_atom_site_fract_y
_atom_site_fract_z
Si Si1 0.729228 0.577282 0.042073
Si Si2 0.840368 0.364666 0.332966
Si Si3 0.145044 0.469335 0.339965
Si Si4 0.591618 0.886502 0.897427
Si Si5 0.283412 0.505200 0.572747
Si Si6 0.376029 0.140432 0.850967
Si Si7 0.867093 0.503266 0.915636
Si Si8 0.441093 0.180919 0.612232
O O1 0.830307 0.573179 0.163687
O O2 0.561900 0.288333 0.138451
O O3 0.696004 0.795571 0.944575
O O4 0.808366 0.602983 0.943320
O O5 0.791641 0.394062 0.422189
O O6 0.002384 0.446034 0.341846
O O7 0.721390 0.059546 0.377910
O O8 0.186724 0.352966 0.502090
O O9 0.111756 0.358676 0.255811
O O10 0.294594 0.786471 0.234891
O O11 0.528015 0.759591 0.055662
O O12 0.310210 0.306976 0.733049
O O13 0.443602 0.771486 0.463109
O O14 0.440925 0.126682 0.764648
O O15 0.254872 0.825630 0.987325
O O16 0.000000 0.500000 0.000000
O O17 0.500000 0.500000 0.500000
#
# Coordination Sequence:
#
# PCOD9011146 Si02
#       8
#     2   2   2   2   2   2   2   2
#     4  11  22  41  69  93 135 168 229 270 328 382
#     4  12  22  44  66  92 135 176 216 277 331 394
#     4  11  25  41  66 100 133 173 223 266 337 391
#     4  10  24  41  66 102 127 172 225 278 325 389
#     4  11  24  42  65  94 132 179 216 269 324 398
#     4  10  21  40  65  92 134 166 217 267 330 387
#     4  11  22  41  68  97 132 175 216 274 332 390
#     4  10  22  40  63  93 124 171 220 265 325 390
#
# _framework density 23.642419
#
# number of rings (size 3 to 8) (size 9 to 14) (size 15 to 20)
#    0.000    1.250    3.750    1.500    1.750    2.500 
#    2.250    5.625    0.000    0.000    0.000    0.000 
#    0.000    0.000    0.000    0.000    0.000    0.000 
#
# Total GULP energy -89295.477245 kJ/mol
# GULP energy per Si atom -5580.967328 kJ/mol
# Density = 2.358861 g / cm^3
# Si number density = 23.642419 Si / 1000 Ang^3
#
#
#
# Elastic Constant Matrix: (Units=GPa)
#
#
# Indices 1 2 3 4 5 6 
#
# 1 102.0864 23.0619 15.4943 9.5922 -16.7062 13.1905
# 2 23.0619 35.8197 17.8438 9.9632 -4.1380 -1.8753
# 3 15.4943 17.8438 87.3131 17.2572 -3.2929 1.5500
# 4 9.5922 9.9632 17.2572 26.0445 -1.0516 4.7270
# 5 -16.7062 -4.1380 -3.2929 -1.0516 43.1062 10.3141
# 6 13.1905 -1.8753 1.5500 4.7270 10.3141 36.3420
#
#
#
# Elastic Compliance Matrix: (Units=1/GPa)
#
#
# Indices 1 2 3 4 5 6 
#
# 1 0.013648 -0.008239 -0.000360 -0.000098 0.006167 -0.007101
# 2 -0.008239 0.038452 -0.004620 -0.009950 -0.001765 0.006967
# 3 -0.000360 -0.004620 0.013919 -0.007346 0.000258 0.000181
# 4 -0.000098 -0.009950 -0.007346 0.048393 0.001257 -0.006816
# 5 0.006167 -0.001765 0.000258 0.001257 0.027968 -0.010442
# 6 -0.007101 0.006967 0.000181 -0.006816 -0.010442 0.034295
#
#
# Mechanical properties :
#
#
# Convention : Reuss Voigt Hill
#
# Bulk Modulus (GPa) = 25.26487 37.55769 31.41128
# Shear Modulus (GPa) = 23.11520 32.35315 27.73417
#
# Velocity S-wave (km/s) = 3.13021 3.70325 3.42872
# Velocity P-wave (km/s) = 4.87583 5.84856 5.38421
#
# Compressibility (1/GPa) = 0.03958065
#
# Stress axis : x y z
#
# Youngs Moduli (GPa) = 73.27295 26.00634 71.84212
#
# Poissons Ratio (x) = 0.21428 0.02586
# Poissons Ratio (y) = 0.60373 0.33190
# Poissons Ratio (z) = 0.02637 0.12015
#
# Static dielectric constant tensor:
#      x y z
#    x 1.929090 -0.023090 0.046260 
#    y -0.023090 2.126270 0.147220 
#    z 0.046260 0.147220 2.063780 
# 
# From -- ./inp_files/243706.got.cif
#   From: 2010.05.17/outbox.cif.g08.bks.cpg/sg2_122_cif.got.tgz:243706.got - 2010.06.03 11:33:40.
