data_PCOD9011067
_publ_section_title
;
Structure prediction by ZEFSAII (Michael W. Deem and Ramdas Pophale) SiO2 
 PCOD9011067
Probable space group: P -1
;
_chemical_formula_sum "Si O2"
_cell_formula_units_Z 16
_cell_length_a 11.501689
_cell_length_b 12.493130
_cell_length_c 8.675977
_cell_angle_alpha 114.576285
_cell_angle_beta 103.329019
_cell_angle_gamma 35.495007
_cell_volume 644.345533
_symmetry_space_group_name_H-M "P -1"
_symmetry_group_IT_number 2
_symmetry_cell_setting 'triclinic'
loop_
_space_group_symop_operation_xyz
x,y,z
-x,-y,-z
loop_
_atom_site_type_symbol
_atom_site_label
_atom_site_fract_x
_atom_site_fract_y
_atom_site_fract_z
Si Si1 0.604311 0.882753 0.304357
Si Si2 0.345766 0.506765 0.724851
Si Si3 0.531906 0.774946 0.667334
Si Si4 0.908533 0.365235 0.999595
Si Si5 0.764727 0.254885 0.717556
Si Si6 0.955540 0.434951 0.724090
Si Si7 0.629041 0.009379 0.978451
Si Si8 0.964610 0.175178 0.420803
O O1 0.614838 0.004135 0.301971
O O2 0.500000 0.000000 0.500000
O O3 0.456227 0.920744 0.178751
O O4 0.837275 0.656816 0.263608
O O5 0.440996 0.347027 0.523458
O O6 0.265569 0.499157 0.841882
O O7 0.524200 0.453856 0.790012
O O8 0.152509 0.722125 0.714025
O O9 0.762483 0.636611 0.690029
O O10 0.441938 0.822346 0.838232
O O11 0.890706 0.248689 0.849731
O O12 0.893323 0.457828 0.895883
O O13 0.131093 0.201796 0.048500
O O14 0.816425 0.237927 0.543982
O O15 0.841298 0.063706 0.668722
O O16 0.006382 0.272418 0.554570
O O17 0.500000 0.000000 0.000000
#
# Coordination Sequence:
#
# PCOD9011067 Si02
#       8
#     2   2   2   2   2   2   2   2
#     4  11  24  42  68  92 128 163 215 268 316 372
#     4  11  23  40  65  98 130 160 217 262 310 377
#     4  10  23  42  66  93 125 168 212 256 317 380
#     4  11  23  42  63  95 134 165 210 269 310 378
#     4  10  21  40  65  89 130 171 210 252 327 370
#     4  10  21  42  63  93 129 168 209 257 325 378
#     4  10  22  45  64  88 129 167 210 258 317 375
#     4   9  21  38  66  93 124 169 210 261 309 383
#
# _framework density 24.831396000000002
#
# number of rings (size 3 to 8) (size 9 to 14) (size 15 to 20)
#    0.000    1.750    2.500    1.500    7.000    2.500 
#    4.500    0.000    0.000    0.000    0.000    0.000 
#    0.000    0.000    0.000    0.000    0.000    0.000 
#
# Total GULP energy -89483.924867 kJ/mol
# GULP energy per Si atom -5592.745304 kJ/mol
# Density = 2.477488 g / cm^3
# Si number density = 24.831396 Si / 1000 Ang^3
#
#
#
# Elastic Constant Matrix: (Units=GPa)
#
#
# Indices 1 2 3 4 5 6 
#
# 1 55.8787 17.6532 0.8289 -10.3840 0.4269 -14.8981
# 2 17.6532 107.1466 -6.3609 -21.6606 -4.2470 -30.3208
# 3 0.8289 -6.3609 107.2477 -4.7102 -2.3838 -11.8813
# 4 -10.3840 -21.6606 -4.7102 25.8213 1.5099 8.8163
# 5 0.4269 -4.2470 -2.3838 1.5099 25.1968 2.8264
# 6 -14.8981 -30.3208 -11.8813 8.8163 2.8264 42.3955
#
#
#
# Elastic Compliance Matrix: (Units=1/GPa)
#
#
# Indices 1 2 3 4 5 6 
#
# 1 0.020781 -0.000520 0.000705 0.006099 -0.001406 0.005954
# 2 -0.000520 0.013724 0.002151 0.008787 0.001064 0.008337
# 3 0.000705 0.002151 0.010018 0.002500 0.000697 0.004027
# 4 0.006099 0.008787 0.002500 0.049446 -0.001228 -0.001072
# 5 -0.001406 0.001064 0.000697 -0.001228 0.040251 -0.001966
# 6 0.005954 0.008337 0.004027 -0.001072 -0.001966 0.033125
#
#
# Mechanical properties :
#
#
# Convention : Reuss Voigt Hill
#
# Bulk Modulus (GPa) = 20.32716 32.72392 26.52554
# Shear Modulus (GPa) = 27.92181 35.89284 31.90732
#
# Velocity S-wave (km/s) = 3.35693 3.80605 3.58852
# Velocity P-wave (km/s) = 4.81966 5.70278 5.27972
#
# Compressibility (1/GPa) = 0.04919527
#
# Stress axis : x y z
#
# Youngs Moduli (GPa) = 48.12040 72.86338 99.82240
#
# Poissons Ratio (x) = 0.03789 -0.07035
# Poissons Ratio (y) = 0.02502 -0.21474
# Poissons Ratio (z) = -0.03391 -0.15675
#
# Static dielectric constant tensor:
#      x y z
#    x 2.057140 0.124300 -0.064870 
#    y 0.124300 2.037080 -0.103850 
#    z -0.064870 -0.103850 2.133240 
# 
# From -- ./inp_files/215076.got.cif
#   From: 2010.05.17/outbox.cif.g08.bks.cpg/sg2_108_cif.got.tgz:215076.got - 2010.06.03 11:33:40.
