data_PCOD9011200
_publ_section_title
;
Structure prediction by ZEFSAII (Michael W. Deem and Ramdas Pophale) SiO2 
 PCOD9011200
Probable space group: P -1
;
_chemical_formula_sum "Si O2"
_cell_formula_units_Z 16
_cell_length_a 16.172719
_cell_length_b 6.995195
_cell_length_c 17.694187
_cell_angle_alpha 36.810238
_cell_angle_beta 32.471367
_cell_angle_gamma 47.153269
_cell_volume 643.861812
_symmetry_space_group_name_H-M "P -1"
_symmetry_group_IT_number 2
_symmetry_cell_setting 'triclinic'
loop_
_space_group_symop_operation_xyz
x,y,z
-x,-y,-z
loop_
_atom_site_type_symbol
_atom_site_label
_atom_site_fract_x
_atom_site_fract_y
_atom_site_fract_z
Si Si1 0.530366 0.255553 0.743962
Si Si2 0.151821 0.027570 0.925249
Si Si3 0.347986 0.724918 0.144887
Si Si4 0.482352 0.796187 0.725988
Si Si5 0.841609 0.191562 0.579869
Si Si6 0.951351 0.150921 0.169984
Si Si7 0.040862 0.678806 0.335848
Si Si8 0.654215 0.408679 0.349197
O O1 0.533667 0.590357 0.679629
O O2 0.709710 0.156164 0.629988
O O3 0.430379 0.342999 0.720293
O O4 0.448676 0.999000 0.942540
O O5 0.078863 0.954679 0.086156
O O6 0.232284 0.377171 0.754508
O O7 0.297314 0.801482 0.868434
O O8 0.000000 0.000000 0.000000
O O9 0.444761 0.413259 0.195497
O O10 0.250841 0.854189 0.253546
O O11 0.222615 0.632057 0.207943
O O12 0.545925 0.154636 0.553952
O O13 0.911529 0.544102 0.421801
O O14 0.000000 0.000000 0.500000
O O15 0.770912 0.173225 0.287394
O O16 0.994929 0.050225 0.253095
O O17 0.000000 0.500000 0.000000
O O18 0.000000 0.500000 0.500000
#
# Coordination Sequence:
#
# PCOD9011200 Si02
#       8
#     2   2   2   2   2   2   2   2
#     4  11  23  43  66  93 128 172 217 264 321 388
#     4  11  25  42  65 100 134 168 217 274 326 381
#     4  10  22  43  66  90 127 175 215 258 321 389
#     4  11  23  43  66  94 130 173 214 264 323 386
#     4  10  22  39  62  96 129 162 212 269 320 376
#     4  10  21  40  65  95 126 165 213 262 317 379
#     4  10  21  40  65  94 127 168 214 261 319 383
#     4  11  23  44  68  94 128 173 218 264 322 388
#
# _framework density 24.850055000000001
#
# number of rings (size 3 to 8) (size 9 to 14) (size 15 to 20)
#    0.000    1.500    0.000    6.750    0.000    5.000 
#    0.000   13.125    0.000    0.000    0.000    0.000 
#    0.000    0.000    0.000    0.000    0.000    0.000 
#
# Total GULP energy -89186.793914 kJ/mol
# GULP energy per Si atom -5574.174620 kJ/mol
# Density = 2.479350 g / cm^3
# Si number density = 24.850055 Si / 1000 Ang^3
#
#
#
# Elastic Constant Matrix: (Units=GPa)
#
#
# Indices 1 2 3 4 5 6 
#
# 1 117.9090 52.4746 60.6206 -3.9425 -24.8594 -49.4970
# 2 52.4746 130.4362 61.6453 25.0917 -0.0472 -53.0254
# 3 60.6206 61.6453 176.6360 -2.0095 -16.5639 -31.5563
# 4 -3.9425 25.0917 -2.0095 53.4367 -11.9498 -4.2992
# 5 -24.8594 -0.0472 -16.5639 -11.9498 44.3656 1.3425
# 6 -49.4970 -53.0254 -31.5563 -4.2992 1.3425 49.6891
#
#
#
# Elastic Compliance Matrix: (Units=1/GPa)
#
#
# Indices 1 2 3 4 5 6 
#
# 1 0.020174 -0.000875 -0.002276 0.005822 0.011480 0.017911
# 2 -0.000875 0.017238 -0.003607 -0.008110 -0.004447 0.014651
# 3 -0.002276 -0.003607 0.007748 0.002234 0.002248 -0.001064
# 4 0.005822 -0.008110 0.002234 0.025522 0.010948 0.000476
# 5 0.011480 -0.004447 0.002248 0.010948 0.032508 0.008186
# 6 0.017911 0.014651 -0.001064 0.000476 0.008186 0.052746
#
#
# Mechanical properties :
#
#
# Convention : Reuss Voigt Hill
#
# Bulk Modulus (GPa) = 31.60258 86.05136 58.82697
# Shear Modulus (GPa) = 27.77761 46.18099 36.97930
#
# Velocity S-wave (km/s) = 3.34699 4.31558 3.86177
# Velocity P-wave (km/s) = 5.26131 7.71594 6.60368
#
# Compressibility (1/GPa) = 0.03164299
#
# Stress axis : x y z
#
# Youngs Moduli (GPa) = 49.56753 58.01048 129.07364
#
# Poissons Ratio (x) = 0.05078 0.29374
# Poissons Ratio (y) = 0.04339 0.46563
# Poissons Ratio (z) = 0.11280 0.20927
#
# Static dielectric constant tensor:
#      x y z
#    x 113.133640 95.354430 -4.275670 
#    y 95.354430 84.012300 -3.767770 
#    z -4.275670 -3.767770 2.277320 
# 
# From -- ./inp_files/599319.got.cif
#   From: 2010.05.17/outbox.cif.g08.bks.cpg/sg2_300_cif.got.tgz:599319.got - 2010.06.03 11:33:40.
