data_PCOD9011205
_publ_section_title
;
Structure prediction by ZEFSAII (Michael W. Deem and Ramdas Pophale) SiO2 
 PCOD9011205
Probable space group: P -1
;
_chemical_formula_sum "Si O2"
_cell_formula_units_Z 14
_cell_length_a 19.829416
_cell_length_b 12.144101
_cell_length_c 9.860055
_cell_angle_alpha 117.105752
_cell_angle_beta 44.815926
_cell_angle_gamma 151.229926
_cell_volume 702.217139
_symmetry_space_group_name_H-M "P -1"
_symmetry_group_IT_number 2
_symmetry_cell_setting 'triclinic'
loop_
_space_group_symop_operation_xyz
x,y,z
-x,-y,-z
loop_
_atom_site_type_symbol
_atom_site_label
_atom_site_fract_x
_atom_site_fract_y
_atom_site_fract_z
Si Si1 0.752066 0.483893 0.145372
Si Si2 0.647768 0.625850 0.480319
Si Si3 0.339981 0.876932 0.345330
Si Si4 0.615645 0.967710 0.925921
Si Si5 0.017669 0.496815 0.133955
Si Si6 0.063704 0.151986 0.130637
Si Si7 0.433085 0.487238 0.950665
O O1 0.731847 0.583392 0.319813
O O2 0.538616 0.172532 0.284560
O O3 0.926965 0.585623 0.982207
O O4 0.796914 0.583771 0.985597
O O5 0.500000 0.500000 0.500000
O O6 0.514832 0.486723 0.722269
O O7 0.844848 0.938636 0.379228
O O8 0.167754 0.685967 0.599702
O O9 0.301297 0.901407 0.269735
O O10 0.422008 0.834593 0.163261
O O11 0.546963 0.748385 0.916744
O O12 0.792725 0.209160 0.912528
O O13 0.000000 0.500000 0.000000
O O14 0.198274 0.240990 0.104209
O O15 0.000000 0.000000 0.000000
O O16 0.500000 0.500000 0.000000
#
# Coordination Sequence:
#
# PCOD9011205 Si02
#       7
#     2   2   2   2   2   2   2
#     4  10  22  38  69  98 121 173 232 269 323 413
#     4  11  22  40  67  98 132 182 225 274 329 404
#     4  10  21  43  71  89 132 172 225 276 326 394
#     4  10  23  43  63 100 127 175 230 263 335 410
#     4  11  26  41  66 102 131 173 218 287 349 392
#     4  10  21  40  65  94 128 173 237 259 320 417
#     4  12  26  42  66 103 142 176 218 290 346 390
#
# _framework density 19.936854
#
# number of rings (size 3 to 8) (size 9 to 14) (size 15 to 20)
#    0.000    1.429    4.286    0.429    4.000    8.571 
#    0.000    0.000    0.000    0.000    0.000    0.000 
#    0.000    0.000    0.000    0.000    0.000    0.000 
#
# Total GULP energy -78024.623514 kJ/mol
# GULP energy per Si atom -5573.187394 kJ/mol
# Density = 1.989148 g / cm^3
# Si number density = 19.936854 Si / 1000 Ang^3
#
#
#
# Elastic Constant Matrix: (Units=GPa)
#
#
# Indices 1 2 3 4 5 6 
#
# 1 139.3124 33.9822 60.7498 5.0605 11.7559 25.6985
# 2 33.9822 66.1504 40.3101 -2.7891 -1.8595 3.8147
# 3 60.7498 40.3101 118.7333 -1.8869 -0.4478 23.6731
# 4 5.0605 -2.7891 -1.8869 32.4196 6.1323 -6.3474
# 5 11.7559 -1.8595 -0.4478 6.1323 27.0276 11.6256
# 6 25.6985 3.8147 23.6731 -6.3474 11.6256 35.1866
#
#
#
# Elastic Compliance Matrix: (Units=1/GPa)
#
#
# Indices 1 2 3 4 5 6 
#
# 1 0.010652 -0.003287 -0.003412 -0.002683 -0.002207 -0.004883
# 2 -0.003287 0.020405 -0.006169 0.002862 -0.000007 0.004857
# 3 -0.003412 -0.006169 0.013898 -0.001796 0.005244 -0.008246
# 4 -0.002683 0.002862 -0.001796 0.036514 -0.012837 0.013685
# 5 -0.002207 -0.000007 0.005244 -0.012837 0.049865 -0.020707
# 6 -0.004883 0.004857 -0.008246 0.013685 -0.020707 0.046318
#
#
# Mechanical properties :
#
#
# Convention : Reuss Voigt Hill
#
# Bulk Modulus (GPa) = 52.02904 66.03113 59.03008
# Shear Modulus (GPa) = 23.83319 31.53704 27.68511
#
# Velocity S-wave (km/s) = 3.46126 3.98156 3.73049
# Velocity P-wave (km/s) = 6.49055 7.37083 6.94465
#
# Compressibility (1/GPa) = 0.01922004
#
# Stress axis : x y z
#
# Youngs Moduli (GPa) = 93.88010 49.00784 71.95516
#
# Poissons Ratio (x) = 0.16107 0.24549
# Poissons Ratio (y) = 0.30854 0.44388
# Poissons Ratio (z) = 0.32029 0.30232
#
# Static dielectric constant tensor:
#      x y z
#    x 1.689740 -0.021920 -0.003190 
#    y -0.021920 1.791710 -0.061340 
#    z -0.003190 -0.061340 1.853320 
# 
# From -- ./inp_files/333491.got.cif
#   From: 2010.05.17/outbox.cif.g08.bks.cpg/sg2_167_cif.got.tgz:333491.got - 2010.06.03 11:33:40.
