data_PCOD9011483
_publ_section_title
;
Structure prediction by ZEFSAII (Michael W. Deem and Ramdas Pophale) SiO2 
 PCOD9011483
Probable space group: P -1
;
_chemical_formula_sum "Si O2"
_cell_formula_units_Z 16
_cell_length_a 15.405203
_cell_length_b 12.223381
_cell_length_c 10.927719
_cell_angle_alpha 100.226543
_cell_angle_beta 117.006578
_cell_angle_gamma 29.368566
_cell_volume 778.991920
_symmetry_space_group_name_H-M "P -1"
_symmetry_group_IT_number 2
_symmetry_cell_setting 'triclinic'
loop_
_space_group_symop_operation_xyz
x,y,z
-x,-y,-z
loop_
_atom_site_type_symbol
_atom_site_label
_atom_site_fract_x
_atom_site_fract_y
_atom_site_fract_z
Si Si1 0.370514 0.113243 0.812865
Si Si2 0.774338 0.566663 0.853892
Si Si3 0.742762 0.127670 0.599986
Si Si4 0.629392 0.681858 0.321241
Si Si5 0.777154 0.351028 0.663040
Si Si6 0.006754 0.859899 0.485184
Si Si7 0.121925 0.434920 0.338202
Si Si8 0.149278 0.170964 0.215087
O O1 0.334510 0.269722 0.756726
O O2 0.130479 0.303175 0.718905
O O3 0.532269 0.869499 0.786353
O O4 0.500000 0.000000 0.000000
O O5 0.775154 0.436409 0.791808
O O6 0.868797 0.532359 0.788327
O O7 0.933768 0.417944 0.043118
O O8 0.808140 0.188743 0.678086
O O9 0.476321 0.384303 0.502811
O O10 0.798735 0.044056 0.476777
O O11 0.874940 0.909950 0.730151
O O12 0.716810 0.659517 0.491603
O O13 0.780196 0.415537 0.364088
O O14 0.365375 0.931032 0.218703
O O15 0.956431 0.208320 0.647381
O O16 0.000000 0.000000 0.500000
O O17 0.194133 0.232048 0.339909
#
# Coordination Sequence:
#
# PCOD9011483 Si02
#       8
#     2   2   2   2   2   2   2   2
#     4  12  26  43  63  95 135 170 209 256 327 384
#     4  12  25  42  63  93 136 171 207 264 323 382
#     4  10  22  40  67  91 123 163 217 267 317 372
#     4  12  24  41  68  96 126 169 218 263 316 381
#     4  10  22  42  65  93 122 165 214 271 317 372
#     4  10  21  40  66  93 121 157 213 273 312 361
#     4  12  24  43  65  95 126 168 217 265 313 380
#     4  12  23  41  65  91 134 174 207 262 324 381
#
# _framework density 20.539365
#
# number of rings (size 3 to 8) (size 9 to 14) (size 15 to 20)
#    0.000    0.750    5.000    2.625    3.500    0.500 
#    0.000    0.000    0.000    1.500    0.000    0.000 
#    0.000    0.000    0.000    0.000    0.000    0.000 
#
# Total GULP energy -89401.460018 kJ/mol
# GULP energy per Si atom -5587.591251 kJ/mol
# Density = 2.049262 g / cm^3
# Si number density = 20.539365 Si / 1000 Ang^3
#
#
#
# Elastic Constant Matrix: (Units=GPa)
#
#
# Indices 1 2 3 4 5 6 
#
# 1 106.1998 46.0172 27.2045 -5.4261 -18.4331 -7.0807
# 2 46.0172 118.1005 10.3413 -11.9861 -0.4001 3.1706
# 3 27.2045 10.3413 43.3839 -5.9361 -13.9451 6.3343
# 4 -5.4261 -11.9861 -5.9361 30.9920 0.6563 1.7068
# 5 -18.4331 -0.4001 -13.9451 0.6563 30.9230 -4.2442
# 6 -7.0807 3.1706 6.3343 1.7068 -4.2442 42.4009
#
#
#
# Elastic Compliance Matrix: (Units=1/GPa)
#
#
# Indices 1 2 3 4 5 6 
#
# 1 0.014858 -0.005415 -0.006811 -0.001185 0.006371 0.004589
# 2 -0.005415 0.010941 0.000577 0.003587 -0.003214 -0.002275
# 3 -0.006811 0.000577 0.031673 0.005183 0.009410 -0.005179
# 4 -0.001185 0.003587 0.005183 0.034568 0.000591 -0.002573
# 5 0.006371 -0.003214 0.009410 0.000591 0.040870 0.003966
# 6 0.004589 -0.002275 -0.005179 -0.002573 0.003966 0.025795
#
#
# Mechanical properties :
#
#
# Convention : Reuss Voigt Hill
#
# Bulk Modulus (GPa) = 29.26048 48.31225 38.78636
# Shear Modulus (GPa) = 25.85387 33.13794 29.49590
#
# Velocity S-wave (km/s) = 3.55173 4.02106 3.79366
# Velocity P-wave (km/s) = 5.57644 6.71799 6.17366
#
# Compressibility (1/GPa) = 0.03417579
#
# Stress axis : x y z
#
# Youngs Moduli (GPa) = 67.30198 91.39936 31.57226
#
# Poissons Ratio (x) = 0.49493 0.21503
# Poissons Ratio (y) = 0.36444 -0.01823
# Poissons Ratio (z) = 0.45838 -0.05277
#
# Static dielectric constant tensor:
#      x y z
#    x 1.744100 -0.007770 -0.004660 
#    y -0.007770 1.778240 0.003470 
#    z -0.004660 0.003470 1.683780 
# 
# From -- ./inp_files/273259.got.cif
#   From: 2010.05.17/outbox.cif.g08.bks.cpg/sg2_137_cif.got.tgz:273259.got - 2010.06.03 11:33:40.
