data_PCOD9011044
_publ_section_title
;
Structure prediction by ZEFSAII (Michael W. Deem and Ramdas Pophale) SiO2 
 PCOD9011044
Probable space group: P -1
;
_chemical_formula_sum "Si O2"
_cell_formula_units_Z 14
_cell_length_a 12.469654
_cell_length_b 19.449467
_cell_length_c 19.335248
_cell_angle_alpha 151.184411
_cell_angle_beta 149.067344
_cell_angle_gamma 17.500955
_cell_volume 671.713370
_symmetry_space_group_name_H-M "P -1"
_symmetry_group_IT_number 2
_symmetry_cell_setting 'triclinic'
loop_
_space_group_symop_operation_xyz
x,y,z
-x,-y,-z
loop_
_atom_site_type_symbol
_atom_site_label
_atom_site_fract_x
_atom_site_fract_y
_atom_site_fract_z
Si Si1 0.655515 0.693138 0.261235
Si Si2 0.152819 0.606955 0.375030
Si Si3 0.374715 0.921890 0.833404
Si Si4 0.719372 0.078363 0.465220
Si Si5 0.436086 0.693050 0.274831
Si Si6 0.891127 0.155314 0.011340
Si Si7 0.319883 0.153156 0.195388
O O1 0.554830 0.749159 0.335698
O O2 0.861057 0.717199 0.367608
O O3 0.965980 0.398698 0.174082
O O4 0.339756 0.810724 0.140515
O O5 0.500000 0.500000 0.500000
O O6 0.340996 0.357061 0.233290
O O7 0.942010 0.821500 0.393723
O O8 0.369921 0.958045 0.780397
O O9 0.977002 0.103954 0.795324
O O10 0.500000 0.000000 0.000000
O O11 0.572832 0.251718 0.601875
O O12 0.386727 0.200746 0.345144
O O13 0.000000 0.000000 0.500000
O O14 0.659351 0.423072 0.145280
O O15 0.246976 0.029094 0.062355
O O16 0.000000 0.000000 0.000000
#
# Coordination Sequence:
#
# PCOD9011044 Si02
#       7
#     2   2   2   2   2   2   2
#     4  10  22  42  67  94 130 170 223 276 331 390
#     4  11  22  43  66  95 135 175 215 277 329 389
#     4  11  21  41  67  97 124 177 230 266 331 394
#     4  12  23  43  63  98 141 175 222 273 330 394
#     4  11  22  41  67  94 133 181 220 270 336 391
#     4  11  23  43  64  99 133 169 223 282 334 393
#     4  10  21  40  65  87 136 175 207 282 325 382
#
# _framework density 20.842224000000002
#
# number of rings (size 3 to 8) (size 9 to 14) (size 15 to 20)
#    0.000    1.143    2.857    6.000    0.000    2.857 
#    5.143    1.429    0.000    0.000    0.000    0.000 
#    0.000    0.000    0.000    0.000    0.000    0.000 
#
# Total GULP energy -78061.086267 kJ/mol
# GULP energy per Si atom -5575.791876 kJ/mol
# Density = 2.079479 g / cm^3
# Si number density = 20.842224 Si / 1000 Ang^3
#
#
#
# Elastic Constant Matrix: (Units=GPa)
#
#
# Indices 1 2 3 4 5 6 
#
# 1 161.1757 37.1036 27.3112 0.3250 24.2082 9.7062
# 2 37.1036 72.8532 17.3190 3.2060 4.3389 11.5970
# 3 27.3112 17.3190 85.3665 -8.6727 -8.3047 4.5400
# 4 0.3250 3.2060 -8.6727 46.5904 2.7675 2.8208
# 5 24.2082 4.3389 -8.3047 2.7675 41.7848 -0.9629
# 6 9.7062 11.5970 4.5400 2.8208 -0.9629 37.4828
#
#
#
# Elastic Compliance Matrix: (Units=1/GPa)
#
#
# Indices 1 2 3 4 5 6 
#
# 1 0.008119 -0.003126 -0.002379 0.000065 -0.004879 -0.000977
# 2 -0.003126 0.016578 -0.002321 -0.001289 -0.000377 -0.003951
# 3 -0.002379 -0.002321 0.013624 0.002490 0.004153 -0.000397
# 4 0.000065 -0.001289 0.002490 0.022167 -0.000914 -0.001611
# 5 -0.004879 -0.000377 0.004153 -0.000914 0.027722 0.001658
# 6 -0.000977 -0.003951 -0.000397 -0.001611 0.001658 0.028366
#
#
# Mechanical properties :
#
#
# Convention : Reuss Voigt Hill
#
# Bulk Modulus (GPa) = 44.11295 53.65145 48.88220
# Shear Modulus (GPa) = 35.76919 41.01572 38.39245
#
# Velocity S-wave (km/s) = 4.14718 4.44093 4.29657
# Velocity P-wave (km/s) = 6.64404 7.21758 6.93674
#
# Compressibility (1/GPa) = 0.02266908
#
# Stress axis : x y z
#
# Youngs Moduli (GPa) = 123.17301 60.32037 73.39809
#
# Poissons Ratio (x) = 0.18855 0.17464
# Poissons Ratio (y) = 0.38502 0.17035
# Poissons Ratio (z) = 0.29307 0.13999
#
# Static dielectric constant tensor:
#      x y z
#    x 1.736700 -0.114220 -0.022750 
#    y -0.114220 1.713620 0.016290 
#    z -0.022750 0.016290 1.796230 
# 
# From -- ./inp_files/281375.got.cif
#   From: 2010.05.17/outbox.cif.g08.bks.cpg/sg2_141_cif.got.tgz:281375.got - 2010.06.03 11:33:40.
