data_PCOD9011288
_publ_section_title
;
Structure prediction by ZEFSAII (Michael W. Deem and Ramdas Pophale) SiO2 
 PCOD9011288
Probable space group: P -1
;
_chemical_formula_sum "Si O2"
_cell_formula_units_Z 12
_cell_length_a 10.619189
_cell_length_b 13.784464
_cell_length_c 12.813686
_cell_angle_alpha 31.111401
_cell_angle_beta 143.416465
_cell_angle_gamma 148.336655
_cell_volume 489.297461
_symmetry_space_group_name_H-M "P -1"
_symmetry_group_IT_number 2
_symmetry_cell_setting 'triclinic'
loop_
_space_group_symop_operation_xyz
x,y,z
-x,-y,-z
loop_
_atom_site_type_symbol
_atom_site_label
_atom_site_fract_x
_atom_site_fract_y
_atom_site_fract_z
Si Si1 0.567704 0.703091 0.200240
Si Si2 0.012431 0.982987 0.648690
Si Si3 0.189135 0.548673 0.442378
Si Si4 0.739380 0.174520 0.381258
Si Si5 0.229951 0.973879 0.154466
Si Si6 0.102252 0.594500 0.115330
O O1 0.751232 0.806178 0.329126
O O2 0.615858 0.525466 0.340547
O O3 0.657945 0.901948 0.995699
O O4 0.288873 0.600164 0.149281
O O5 0.780560 0.980622 0.550984
O O6 0.032855 0.774561 0.880613
O O7 0.000000 0.000000 0.500000
O O8 0.922077 0.318420 0.463529
O O9 0.166154 0.724912 0.330666
O O10 0.248062 0.651254 0.270276
O O11 0.455047 0.097897 0.272427
O O12 0.864419 0.353847 0.204661
O O13 0.000000 0.000000 0.000000
#
# Coordination Sequence:
#
# PCOD9011288 Si02
#       6
#     2   2   2   2   2   2
#     4  11  22  41  64  98 134 168 205 260 321 379
#     4  11  22  34  64  99 134 169 202 253 325 392
#     4   9  23  43  64  97 131 164 208 268 320 372
#     4   9  24  41  61  98 125 166 214 257 322 375
#     4  12  26  45  68  89 124 177 222 261 311 369
#     4  10  21  40  65  96 133 164 193 266 325 381
#
# _framework density 24.524958999999999
#
# number of rings (size 3 to 8) (size 9 to 14) (size 15 to 20)
#    1.000    0.667    1.667    2.000    2.333    5.333 
#    0.000    3.333    0.000    0.000    0.000    0.000 
#    0.000    0.000    0.000    0.000    0.000    0.000 
#
# Total GULP energy -67138.119466 kJ/mol
# GULP energy per Si atom -5594.843289 kJ/mol
# Density = 2.446914 g / cm^3
# Si number density = 24.524959 Si / 1000 Ang^3
#
#
#
# Elastic Constant Matrix: (Units=GPa)
#
#
# Indices 1 2 3 4 5 6 
#
# 1 110.4193 53.0073 38.6333 -4.7012 21.0967 4.7959
# 2 53.0073 92.4181 46.8221 -20.2979 40.2683 4.8018
# 3 38.6333 46.8221 141.9434 -30.4854 37.6220 1.3358
# 4 -4.7012 -20.2979 -30.4854 32.4471 -4.9487 11.4371
# 5 21.0967 40.2683 37.6220 -4.9487 66.1803 9.7889
# 6 4.7959 4.8018 1.3358 11.4371 9.7889 38.9816
#
#
#
# Elastic Compliance Matrix: (Units=1/GPa)
#
#
# Indices 1 2 3 4 5 6 
#
# 1 0.013403 -0.008472 -0.002576 -0.005755 0.001811 0.000717
# 2 -0.008472 0.022886 0.000162 0.012806 -0.009907 -0.003051
# 3 -0.002576 0.000162 0.011090 0.010130 -0.004541 -0.001915
# 4 -0.005755 0.012806 0.010130 0.051966 -0.005603 -0.015056
# 5 0.001811 -0.009907 -0.004541 -0.005603 0.023171 -0.003021
# 6 0.000717 -0.003051 -0.001915 -0.015056 -0.003021 0.031183
#
#
# Mechanical properties :
#
#
# Convention : Reuss Voigt Hill
#
# Bulk Modulus (GPa) = 39.05385 69.07847 54.06616
# Shear Modulus (GPa) = 27.17304 41.27634 34.22469
#
# Velocity S-wave (km/s) = 3.33224 4.10693 3.73970
# Velocity P-wave (km/s) = 5.54651 7.12158 6.38282
#
# Compressibility (1/GPa) = 0.02560567
#
# Stress axis : x y z
#
# Youngs Moduli (GPa) = 74.61192 43.69542 90.17162
#
# Poissons Ratio (x) = 0.37020 0.23225
# Poissons Ratio (y) = 0.63214 -0.01458
# Poissons Ratio (z) = 0.19218 -0.00706
#
# Static dielectric constant tensor:
#      x y z
#    x 1.961160 -0.009160 -0.046400 
#    y -0.009160 1.996160 0.041480 
#    z -0.046400 0.041480 1.935130 
# 
# From -- ./inp_files/232985.got.cif
#   From: 2010.05.17/outbox.cif.g08.bks.cpg/sg2_117_cif.got.tgz:232985.got - 2010.06.03 11:33:40.
