data_PCOD9011913
_publ_section_title
;
Structure prediction by ZEFSAII (Michael W. Deem and Ramdas Pophale) SiO2 
 PCOD9011913
Probable space group: P -1
;
_chemical_formula_sum "Si O2"
_cell_formula_units_Z 16
_cell_length_a 17.685809
_cell_length_b 5.335885
_cell_length_c 7.956309
_cell_angle_alpha 118.855008
_cell_angle_beta 75.119733
_cell_angle_gamma 94.316681
_cell_volume 634.507564
_symmetry_space_group_name_H-M "P -1"
_symmetry_group_IT_number 2
_symmetry_cell_setting 'triclinic'
loop_
_space_group_symop_operation_xyz
x,y,z
-x,-y,-z
loop_
_atom_site_type_symbol
_atom_site_label
_atom_site_fract_x
_atom_site_fract_y
_atom_site_fract_z
Si Si1 0.273198 0.251278 0.404082
Si Si2 0.826276 0.330983 0.227048
Si Si3 0.544789 0.114830 0.171357
Si Si4 0.971092 0.184355 0.912207
Si Si5 0.304471 0.115686 0.835610
Si Si6 0.936130 0.263311 0.471316
Si Si7 0.417148 0.258018 0.534451
Si Si8 0.779085 0.382290 0.776719
O O1 0.211555 0.350501 0.620381
O O2 0.359746 0.334455 0.434088
O O3 0.247238 0.431742 0.313107
O O4 0.262624 0.915249 0.281117
O O5 0.882275 0.284062 0.341330
O O6 0.754546 0.131836 0.212425
O O7 0.878006 0.228843 0.005360
O O8 0.489692 0.075172 0.353147
O O9 0.558310 0.455730 0.290236
O O10 0.628937 0.946898 0.081667
O O11 0.500000 0.000000 0.000000
O O12 0.012053 0.031651 0.679624
O O13 0.000000 0.500000 0.000000
O O14 0.000000 0.000000 0.000000
O O15 0.357376 0.103704 0.636321
O O16 0.253862 0.410999 0.989264
O O17 0.872521 0.318177 0.672999
O O18 0.000000 0.500000 0.500000
#
# Coordination Sequence:
#
# PCOD9011913 Si02
#       8
#     2   2   2   2   2   2   2   2
#     4  11  23  47  71 106 146 191 246 305 367 436
#     4  10  22  43  69 100 141 192 247 306 367 440
#     4  11  26  48  72 108 150 190 251 304 378 447
#     4  10  21  40  67  98 137 186 238 292 360 429
#     4  12  25  46  71 108 143 197 251 305 374 447
#     4  10  21  43  65 102 141 189 239 304 368 434
#     4  11  25  45  76 105 146 199 244 306 378 446
#     4  11  26  42  74 106 148 191 248 308 366 438
#
# _framework density 25.216405000000002
#
# number of rings (size 3 to 8) (size 9 to 14) (size 15 to 20)
#    0.000    1.250    1.250    4.125    3.500    1.500 
#    0.000   17.500    0.000    0.000    0.000    0.000 
#    0.000    0.000    0.000    0.000    0.000    0.000 
#
# Total GULP energy -89598.841826 kJ/mol
# GULP energy per Si atom -5599.927614 kJ/mol
# Density = 2.515901 g / cm^3
# Si number density = 25.216405 Si / 1000 Ang^3
#
#
#
# Elastic Constant Matrix: (Units=GPa)
#
#
# Indices 1 2 3 4 5 6 
#
# 1 151.8316 32.8196 51.6933 -6.5760 -21.9614 15.1358
# 2 32.8196 120.5841 44.3824 7.3318 2.0501 17.1732
# 3 51.6933 44.3824 159.4514 3.8399 -33.3824 6.3828
# 4 -6.5760 7.3318 3.8399 51.7264 -5.7653 -4.5699
# 5 -21.9614 2.0501 -33.3824 -5.7653 52.4654 -2.0371
# 6 15.1358 17.1732 6.3828 -4.5699 -2.0371 43.1656
#
#
#
# Elastic Compliance Matrix: (Units=1/GPa)
#
#
# Indices 1 2 3 4 5 6 
#
# 1 0.008061 -0.001473 -0.001652 0.001480 0.002477 -0.001723
# 2 -0.001473 0.010467 -0.002923 -0.002135 -0.003260 -0.003595
# 3 -0.001652 -0.002923 0.008626 0.000180 0.004959 0.000720
# 4 0.001480 -0.002135 0.000180 0.020393 0.003160 0.002612
# 5 0.002477 -0.003260 0.004959 0.003160 0.023771 0.001151
# 6 -0.001723 -0.003595 0.000720 0.002612 0.001151 0.025426
#
#
# Mechanical properties :
#
#
# Convention : Reuss Voigt Hill
#
# Bulk Modulus (GPa) = 66.40671 76.62862 71.51766
# Shear Modulus (GPa) = 43.91454 49.66962 46.79208
#
# Velocity S-wave (km/s) = 4.17766 4.44298 4.31236
# Velocity P-wave (km/s) = 7.04715 7.53489 7.29510
#
# Compressibility (1/GPa) = 0.01505872
#
# Stress axis : x y z
#
# Youngs Moduli (GPa) = 124.05439 95.53895 115.93463
#
# Poissons Ratio (x) = 0.14071 0.19147
# Poissons Ratio (y) = 0.18271 0.33888
# Poissons Ratio (z) = 0.20488 0.27926
#
# Static dielectric constant tensor:
#      x y z
#    x 2.049680 -0.127920 0.027300 
#    y -0.127920 2.020300 -0.098980 
#    z 0.027300 -0.098980 2.039540 
# 
# From -- ./inp_files/323089.got.cif
#   From: 2010.05.17/outbox.cif.g08.bks.cpg/sg2_162_cif.got.tgz:323089.got - 2010.06.03 11:33:40.
