data_PCOD9011513
_publ_section_title
;
Structure prediction by ZEFSAII (Michael W. Deem and Ramdas Pophale) SiO2 
 PCOD9011513
Probable space group: P -1
;
_chemical_formula_sum "Si O2"
_cell_formula_units_Z 12
_cell_length_a 16.372685
_cell_length_b 10.666579
_cell_length_c 10.302149
_cell_angle_alpha 124.192522
_cell_angle_beta 31.374081
_cell_angle_gamma 146.926681
_cell_volume 430.165210
_symmetry_space_group_name_H-M "P -1"
_symmetry_group_IT_number 2
_symmetry_cell_setting 'triclinic'
loop_
_space_group_symop_operation_xyz
x,y,z
-x,-y,-z
loop_
_atom_site_type_symbol
_atom_site_label
_atom_site_fract_x
_atom_site_fract_y
_atom_site_fract_z
Si Si1 0.530863 0.228111 0.936697
Si Si2 0.970101 0.485078 0.186666
Si Si3 0.606290 0.964515 0.702848
Si Si4 0.616535 0.586867 0.170530
Si Si5 0.968149 0.815374 0.359635
Si Si6 0.102642 0.894930 0.854464
O O1 0.367107 0.067796 0.204615
O O2 0.659986 0.496404 0.945410
O O3 0.300211 0.043355 0.027982
O O4 0.716020 0.225015 0.680310
O O5 0.863201 0.567449 0.416476
O O6 0.814556 0.204093 0.267539
O O7 0.000000 0.500000 0.000000
O O8 0.275590 0.712219 0.971059
O O9 0.751097 0.973925 0.408656
O O10 0.283337 0.353540 0.497979
O O11 0.773926 0.870446 0.092767
O O12 0.774508 0.649616 0.119379
O O13 0.000000 0.000000 0.500000
#
# Coordination Sequence:
#
# PCOD9011513 Si02
#       6
#     2   2   2   2   2   2
#     4   9  19  41  66  92 129 167 212 258 312 376
#     4  11  23  43  67  91 126 170 217 264 314 378
#     4  10  21  40  66  94 123 171 215 257 313 377
#     4  10  21  42  61  97 136 159 213 262 317 381
#     4   9  20  41  65  90 126 166 210 260 314 368
#     4  11  24  41  66  95 130 170 209 262 321 378
#
# _framework density 27.896260000000002
#
# number of rings (size 3 to 8) (size 9 to 14) (size 15 to 20)
#    0.000    2.000    1.667    1.000    0.000    4.000 
#   12.000    0.833    0.000    0.000    0.000    0.000 
#    0.000    0.000    0.000    0.000    0.000    0.000 
#
# Total GULP energy -67065.073375 kJ/mol
# GULP energy per Si atom -5588.756115 kJ/mol
# Density = 2.783277 g / cm^3
# Si number density = 27.896260 Si / 1000 Ang^3
#
#
#
# Elastic Constant Matrix: (Units=GPa)
#
#
# Indices 1 2 3 4 5 6 
#
# 1 127.7953 52.7964 48.8388 5.9205 -17.7394 4.3182
# 2 52.7964 220.2282 43.5313 25.1488 -24.7043 -22.4769
# 3 48.8388 43.5313 74.2075 0.3773 -19.3243 -2.5856
# 4 5.9205 25.1488 0.3773 44.6180 3.1448 -28.2439
# 5 -17.7394 -24.7043 -19.3243 3.1448 40.6502 3.8871
# 6 4.3182 -22.4769 -2.5856 -28.2439 3.8871 52.3398
#
#
#
# Elastic Compliance Matrix: (Units=1/GPa)
#
#
# Indices 1 2 3 4 5 6 
#
# 1 0.011278 -0.001267 -0.006339 -0.003133 0.001725 -0.003607
# 2 -0.001267 0.005890 -0.002003 -0.002716 0.002197 0.000906
# 3 -0.006339 -0.002003 0.020247 0.002424 0.005303 0.001577
# 4 -0.003133 -0.002716 0.002424 0.037397 -0.006660 0.019887
# 5 0.001725 0.002197 0.005303 -0.006660 0.030181 -0.004772
# 6 -0.003607 0.000906 0.001577 0.019887 -0.004772 0.030956
#
#
# Mechanical properties :
#
#
# Convention : Reuss Voigt Hill
#
# Bulk Modulus (GPa) = 54.96358 79.17378 67.06868
# Shear Modulus (GPa) = 31.01115 45.99258 38.50186
#
# Velocity S-wave (km/s) = 3.33777 4.06482 3.71911
# Velocity P-wave (km/s) = 5.88217 7.10447 6.52202
#
# Compressibility (1/GPa) = 0.01819387
#
# Stress axis : x y z
#
# Youngs Moduli (GPa) = 88.66982 169.78886 49.39120
#
# Poissons Ratio (x) = 0.21520 0.31311
# Poissons Ratio (y) = 0.11238 0.09894
# Poissons Ratio (z) = 0.56211 0.34013
#
# Static dielectric constant tensor:
#      x y z
#    x 2.222710 -0.058600 0.031700 
#    y -0.058600 2.239040 -0.006560 
#    z 0.031700 -0.006560 2.144400 
# 
# From -- ./inp_files/464787.got.cif
#   From: 2010.05.17/outbox.cif.g08.bks.cpg/sg2_233_cif.got.tgz:464787.got - 2010.06.03 11:33:40.
