data_PCOD9011677
_publ_section_title
;
Structure prediction by ZEFSAII (Michael W. Deem and Ramdas Pophale) SiO2 
 PCOD9011677
Probable space group: P -1
;
_chemical_formula_sum "Si O2"
_cell_formula_units_Z 13
_cell_length_a 11.049731
_cell_length_b 10.148272
_cell_length_c 7.686037
_cell_angle_alpha 119.029006
_cell_angle_beta 139.281907
_cell_angle_gamma 57.253174
_cell_volume 468.408600
_symmetry_space_group_name_H-M "P -1"
_symmetry_group_IT_number 2
_symmetry_cell_setting 'triclinic'
loop_
_space_group_symop_operation_xyz
x,y,z
-x,-y,-z
loop_
_atom_site_type_symbol
_atom_site_label
_atom_site_fract_x
_atom_site_fract_y
_atom_site_fract_z
Si Si1 0.500000 0.000000 0.500000
Si Si2 0.988696 0.184065 0.739655
Si Si3 0.892468 0.137293 0.202951
Si Si4 0.155875 0.305437 0.417068
Si Si5 0.715178 0.491986 0.562781
Si Si6 0.509912 0.282720 0.007807
Si Si7 0.430251 0.182257 0.212152
O O1 0.302885 0.154805 0.384608
O O2 0.551196 0.051168 0.391118
O O3 0.915476 0.161197 0.450602
O O4 0.840417 0.352741 0.733172
O O5 0.995940 0.048635 0.802282
O O6 0.209067 0.181006 0.948768
O O7 0.657077 0.181067 0.951975
O O8 0.978776 0.253301 0.264622
O O9 0.132685 0.449195 0.351315
O O10 0.290399 0.337313 0.738813
O O11 0.584525 0.426821 0.244712
O O12 0.587312 0.642142 0.624421
O O13 0.524283 0.171127 0.117931
#
# Coordination Sequence:
#
# PCOD9011677 Si02
#       7
#     1   2   2   2   2   2   2
#     4  10  26  38  68  96 132 170 218 272 336 378
#     4  10  21  40  67 100 126 175 224 261 336 390
#     4  10  23  40  70 100 126 173 227 271 317 401
#     4  11  23  47  66  98 140 172 215 282 324 387
#     4  10  24  42  66 100 137 173 221 270 328 392
#     4  11  23  42  74  96 128 181 226 260 333 396
#     4  11  22  44  67  97 136 176 217 280 325 389
#
# _framework density 27.753550000000001
#
# number of rings (size 3 to 8) (size 9 to 14) (size 15 to 20)
#    0.000    1.538    1.538    2.308    6.462    3.692 
#    2.769    6.923    3.385    0.000    0.000    0.000 
#    0.000    0.000    0.000    0.000    0.000    0.000 
#
# Total GULP energy -72725.655940 kJ/mol
# GULP energy per Si atom -5594.281226 kJ/mol
# Density = 2.769038 g / cm^3
# Si number density = 27.753550 Si / 1000 Ang^3
#
#
#
# Elastic Constant Matrix: (Units=GPa)
#
#
# Indices 1 2 3 4 5 6 
#
# 1 113.2173 32.2386 29.6761 3.4032 28.4483 27.0742
# 2 32.2386 128.6507 19.2081 5.5396 12.6532 6.4715
# 3 29.6761 19.2081 90.6876 -2.7270 10.3981 11.5939
# 4 3.4032 5.5396 -2.7270 26.7450 6.4298 -0.6038
# 5 28.4483 12.6532 10.3981 6.4298 50.2910 8.4008
# 6 27.0742 6.4715 11.5939 -0.6038 8.4008 45.7137
#
#
#
# Elastic Compliance Matrix: (Units=1/GPa)
#
#
# Indices 1 2 3 4 5 6 
#
# 1 0.012714 -0.002014 -0.002422 -0.000327 -0.005194 -0.005681
# 2 -0.002014 0.008561 -0.001173 -0.001472 -0.000647 0.000378
# 3 -0.002422 -0.001173 0.012407 0.002010 -0.000932 -0.001348
# 4 -0.000327 -0.001472 0.002010 0.039197 -0.005096 0.001347
# 5 -0.005194 -0.000647 -0.000932 -0.005096 0.024009 -0.001075
# 6 -0.005681 0.000378 -0.001348 0.001347 -0.001075 0.025744
#
#
# Mechanical properties :
#
#
# Convention : Reuss Voigt Hill
#
# Bulk Modulus (GPa) = 44.51254 54.97790 49.74522
# Shear Modulus (GPa) = 35.37627 41.31213 38.34420
#
# Velocity S-wave (km/s) = 3.57411 3.86234 3.72102
# Velocity P-wave (km/s) = 5.75375 6.30417 6.03524
#
# Compressibility (1/GPa) = 0.02246558
#
# Stress axis : x y z
#
# Youngs Moduli (GPa) = 78.65236 116.81240 80.59642
#
# Poissons Ratio (x) = 0.23523 0.19521
# Poissons Ratio (y) = 0.15839 0.09451
# Poissons Ratio (z) = 0.19050 0.13697
#
# Static dielectric constant tensor:
#      x y z
#    x 2.025180 0.236640 0.317950 
#    y 0.236640 1.780990 -0.484330 
#    z 0.317950 -0.484330 1.358420 
# 
# From -- ./inp_files/240803.got.cif
#   From: 2010.05.17/outbox.cif.g08.bks.cpg/sg2_121_cif.got.tgz:240803.got - 2010.06.03 11:33:40.
