data_PCOD9011857
_publ_section_title
;
Structure prediction by ZEFSAII (Michael W. Deem and Ramdas Pophale) SiO2 
 PCOD9011857
Probable space group: P -1
;
_chemical_formula_sum "Si O2"
_cell_formula_units_Z 16
_cell_length_a 21.204114
_cell_length_b 24.968594
_cell_length_c 9.530214
_cell_angle_alpha 141.063005
_cell_angle_beta 148.172606
_cell_angle_gamma 16.157049
_cell_volume 714.860116
_symmetry_space_group_name_H-M "P -1"
_symmetry_group_IT_number 2
_symmetry_cell_setting 'triclinic'
loop_
_space_group_symop_operation_xyz
x,y,z
-x,-y,-z
loop_
_atom_site_type_symbol
_atom_site_label
_atom_site_fract_x
_atom_site_fract_y
_atom_site_fract_z
Si Si1 0.129536 0.796117 0.613040
Si Si2 0.703665 0.740118 0.122571
Si Si3 0.359444 0.788140 0.584408
Si Si4 0.415331 0.422545 0.131653
Si Si5 0.328407 0.195111 0.118411
Si Si6 0.680093 0.628044 0.399602
Si Si7 0.419715 0.649720 0.129943
Si Si8 0.134952 0.198986 0.981198
O O1 0.435042 0.599577 0.719458
O O2 0.162183 0.811402 0.862018
O O3 0.944837 0.973972 0.524632
O O4 0.982439 0.800021 0.339873
O O5 0.990078 0.567369 0.394318
O O6 0.449012 0.968268 0.145903
O O7 0.569858 0.732930 0.862056
O O8 0.788477 0.702499 0.044236
O O9 0.433310 0.691695 0.668464
O O10 0.381142 0.714411 0.340546
O O11 0.443885 0.320837 0.879334
O O12 0.090225 0.649303 0.011896
O O13 0.453761 0.201742 0.434230
O O14 0.142740 0.278298 0.063511
O O15 0.500000 0.000000 0.000000
O O16 0.635197 0.574756 0.306231
O O17 0.500000 0.500000 0.000000
#
# Coordination Sequence:
#
# PCOD9011857 Si02
#       8
#     2   2   2   2   2   2   2   2
#     4  10  23  43  64  95 135 170 229 275 323 393
#     4  10  22  39  66  95 132 169 223 282 322 388
#     4  11  22  42  68  93 130 182 222 270 338 387
#     4  11  24  41  65  93 137 182 214 270 333 405
#     4  10  21  40  67  96 129 171 220 280 327 387
#     4  11  24  42  64 100 139 170 222 275 332 393
#     4  11  24  40  67 100 130 176 223 275 326 394
#     4  10  22  39  66  96 129 180 220 265 339 394
#
# _framework density 22.382000000000001
#
# number of rings (size 3 to 8) (size 9 to 14) (size 15 to 20)
#    0.000    1.500    1.250    3.000    3.500    3.500 
#    0.000    3.750    0.000    0.000    0.000    0.000 
#    0.000    0.000    0.000    0.000    0.000    0.000 
#
# Total GULP energy -89319.005950 kJ/mol
# GULP energy per Si atom -5582.437872 kJ/mol
# Density = 2.233106 g / cm^3
# Si number density = 22.382000 Si / 1000 Ang^3
#
#
#
# Elastic Constant Matrix: (Units=GPa)
#
#
# Indices 1 2 3 4 5 6 
#
# 1 82.7514 26.0353 37.1860 17.1135 9.9143 10.5810
# 2 26.0353 95.8628 26.3618 14.3965 7.6439 1.1215
# 3 37.1860 26.3618 108.6538 -0.2805 -6.4219 -3.3458
# 4 17.1135 14.3965 -0.2805 7.2820 -4.7743 -12.2477
# 5 9.9143 7.6439 -6.4219 -4.7743 43.4112 -4.0002
# 6 10.5810 1.1215 -3.3458 -12.2477 -4.0002 14.7645
#
#
#
# Elastic Compliance Matrix: (Units=1/GPa)
#
#
# Indices 1 2 3 4 5 6 
#
# 1 0.006909 -0.005682 -0.000261 0.022869 0.003308 0.015288
# 2 -0.005682 0.011029 -0.000416 0.006026 0.000725 0.008335
# 3 -0.000261 -0.000416 0.009072 -0.012391 -0.000641 -0.008178
# 4 0.022869 0.006026 -0.012391 -0.044131 -0.018619 -0.061307
# 5 0.003308 0.000725 -0.000641 -0.018619 0.018819 -0.012918
# 6 0.015288 0.008335 -0.008178 -0.061307 -0.012918 -0.000069
#
#
# Mechanical properties :
#
#
# Convention : Reuss Voigt Hill
#
# Bulk Modulus (GPa) = 69.96751 51.82604 60.89677
# Shear Modulus (GPa) = 261.64478 26.27054 143.95766
#
# Velocity S-wave (km/s) = 10.82374 3.42970 8.02858
# Velocity P-wave (km/s) = 13.69427 6.23613 10.64007
#
# Compressibility (1/GPa) = 0.01429235
#
# Stress axis : x y z
#
# Youngs Moduli (GPa) = 144.74765 90.67137 110.22915
#
# Poissons Ratio (x) = 0.51516 0.02873
# Poissons Ratio (y) = 0.82240 0.04589
# Poissons Ratio (z) = 0.03773 0.03775
#
# Static dielectric constant tensor:
#      x y z
#    x 1.810510 -0.032620 0.017690 
#    y -0.032620 1.909640 -0.004440 
#    z 0.017690 -0.004440 1.818100 
# 
# From -- ./inp_files/350032.got.cif
#   From: 2010.05.17/outbox.cif.g08.bks.cpg/sg2_176_cif.got.tgz:350032.got - 2010.06.03 11:33:40.
