data_PCOD9011845
_publ_section_title
;
Structure prediction by ZEFSAII (Michael W. Deem and Ramdas Pophale) SiO2 
 PCOD9011845
Probable space group: P -1
;
_chemical_formula_sum "Si O2"
_cell_formula_units_Z 14
_cell_length_a 9.534722
_cell_length_b 25.274743
_cell_length_c 19.053270
_cell_angle_alpha 161.568668
_cell_angle_beta 150.378966
_cell_angle_gamma 39.471180
_cell_volume 675.368778
_symmetry_space_group_name_H-M "P -1"
_symmetry_group_IT_number 2
_symmetry_cell_setting 'triclinic'
loop_
_space_group_symop_operation_xyz
x,y,z
-x,-y,-z
loop_
_atom_site_type_symbol
_atom_site_label
_atom_site_fract_x
_atom_site_fract_y
_atom_site_fract_z
Si Si1 0.033928 0.207100 0.273656
Si Si2 0.788934 0.745818 0.973772
Si Si3 0.545712 0.089604 0.557000
Si Si4 0.563739 0.346865 0.427723
Si Si5 0.304843 0.448267 0.573841
Si Si6 0.429810 0.179406 0.893551
Si Si7 0.194055 0.329518 0.655357
O O1 0.289922 0.338075 0.499556
O O2 0.089746 0.280970 0.468992
O O3 0.730166 0.216270 0.118097
O O4 0.000000 0.000000 0.000000
O O5 0.621058 0.547330 0.678258
O O6 0.607685 0.778559 0.868899
O O7 0.807555 0.864147 0.200233
O O8 0.121275 0.763415 0.115215
O O9 0.293623 0.175383 0.538982
O O10 0.500000 0.000000 0.500000
O O11 0.550477 0.955732 0.327815
O O12 0.351658 0.327074 0.378046
O O13 0.897543 0.342630 0.581219
O O14 0.000000 0.500000 0.500000
O O15 0.561355 0.640691 0.917090
O O16 0.500000 0.500000 0.000000
#
# Coordination Sequence:
#
# PCOD9011845 Si02
#       7
#     2   2   2   2   2   2   2
#     4  11  22  42  67  97 132 176 218 272 335 398
#     4  10  21  40  67  95 133 174 225 272 328 409
#     4  12  27  41  65 100 139 174 224 282 338 391
#     4  10  21  41  69 100 126 178 227 270 336 398
#     4   9  22  38  69  95 130 170 222 271 325 402
#     4  10  21  42  65  95 130 179 223 266 332 398
#     4  12  25  44  68  97 140 175 221 281 339 398
#
# _framework density 20.729414999999999
#
# number of rings (size 3 to 8) (size 9 to 14) (size 15 to 20)
#    0.000    1.429    4.286    0.429    8.000    0.000 
#    2.571    2.143    0.000    0.000    0.000    0.000 
#    0.000    0.000    0.000    0.000    0.000    0.000 
#
# Total GULP energy -78058.968535 kJ/mol
# GULP energy per Si atom -5575.640610 kJ/mol
# Density = 2.068223 g / cm^3
# Si number density = 20.729415 Si / 1000 Ang^3
#
#
#
# Elastic Constant Matrix: (Units=GPa)
#
#
# Indices 1 2 3 4 5 6 
#
# 1 133.6465 58.9148 11.9439 -6.3000 -5.9219 -7.8602
# 2 58.9148 102.2825 18.2857 3.5412 0.3117 3.7774
# 3 11.9439 18.2857 38.4667 -7.4810 -20.9834 -1.1436
# 4 -6.3000 3.5412 -7.4810 29.7438 -0.5768 1.7321
# 5 -5.9219 0.3117 -20.9834 -0.5768 29.4338 0.3577
# 6 -7.8602 3.7774 -1.1436 1.7321 0.3577 32.0970
#
#
#
# Elastic Compliance Matrix: (Units=1/GPa)
#
#
# Indices 1 2 3 4 5 6 
#
# 1 0.010948 -0.007217 0.003546 0.003966 0.004843 0.003389
# 2 -0.007217 0.016705 -0.013219 -0.006842 -0.011142 -0.003711
# 3 0.003546 -0.013219 0.057773 0.017498 0.042345 0.003066
# 4 0.003966 -0.006842 0.017498 0.039945 0.014127 0.000087
# 5 0.004843 -0.011142 0.042345 0.014127 0.065501 0.002514
# 6 0.003389 -0.003711 0.003066 0.000087 0.002514 0.032499
#
#
# Mechanical properties :
#
#
# Convention : Reuss Voigt Hill
#
# Bulk Modulus (GPa) = 19.36296 50.29830 34.83063
# Shear Modulus (GPa) = 18.22382 30.60500 24.41441
#
# Velocity S-wave (km/s) = 2.96823 3.84657 3.43558
# Velocity P-wave (km/s) = 4.59437 6.63664 5.70759
#
# Compressibility (1/GPa) = 0.05164499
#
# Stress axis : x y z
#
# Youngs Moduli (GPa) = 91.34141 59.86231 17.30923
#
# Poissons Ratio (x) = 0.43203 -0.06137
# Poissons Ratio (y) = 0.65922 0.22881
# Poissons Ratio (z) = -0.32386 0.79130
#
# Static dielectric constant tensor:
#      x y z
#    x 1.546670 0.102070 -0.256840 
#    y 0.102070 1.654680 0.133460 
#    z -0.256840 0.133460 1.537640 
# 
# From -- ./inp_files/189828.got.cif
#   From: 2010.05.17/outbox.cif.g08.bks.cpg/sg2_95_cif.got.tgz:189828.got - 2010.06.03 11:33:40.
