data_PCOD9011105
_publ_section_title
;
Structure prediction by ZEFSAII (Michael W. Deem and Ramdas Pophale) SiO2 
 PCOD9011105
Probable space group: P -1
;
_chemical_formula_sum "Si O2"
_cell_formula_units_Z 16
_cell_length_a 9.893368
_cell_length_b 14.943239
_cell_length_c 12.634780
_cell_angle_alpha 114.142896
_cell_angle_beta 67.430793
_cell_angle_gamma 153.356226
_cell_volume 763.622063
_symmetry_space_group_name_H-M "P -1"
_symmetry_group_IT_number 2
_symmetry_cell_setting 'triclinic'
loop_
_space_group_symop_operation_xyz
x,y,z
-x,-y,-z
loop_
_atom_site_type_symbol
_atom_site_label
_atom_site_fract_x
_atom_site_fract_y
_atom_site_fract_z
Si Si1 0.423287 0.759582 0.325114
Si Si2 0.252310 0.150585 0.908799
Si Si3 0.107443 0.831979 0.541404
Si Si4 0.353335 0.508929 0.335263
Si Si5 0.834614 0.512819 0.314539
Si Si6 0.287769 0.365611 0.896703
Si Si7 0.173458 0.497807 0.937447
Si Si8 0.250213 0.206950 0.460863
O O1 0.650682 0.877780 0.215164
O O2 0.402577 0.648150 0.345399
O O3 0.090364 0.582194 0.294093
O O4 0.553668 0.927595 0.433917
O O5 0.152479 0.179961 0.873163
O O6 0.547917 0.333919 0.983374
O O7 0.000000 0.000000 0.000000
O O8 0.980127 0.702878 0.621347
O O9 0.997517 0.703502 0.411624
O O10 0.917588 0.821731 0.584252
O O11 0.474549 0.507340 0.208866
O O12 0.573376 0.625060 0.424747
O O13 0.769644 0.481362 0.194680
O O14 0.521958 0.309380 0.371231
O O15 0.060140 0.321820 0.922275
O O16 0.500000 0.500000 0.000000
O O17 0.000000 0.500000 0.000000
O O18 0.000000 0.000000 0.500000
#
# Coordination Sequence:
#
# PCOD9011105 Si02
#       8
#     2   2   2   2   2   2   2   2
#     4  11  23  42  63  98 131 170 217 266 332 388
#     4  10  23  40  67  95 125 173 222 266 321 396
#     4  11  23  40  67  93 128 171 219 263 323 397
#     4  10  21  40  65  91 132 165 219 267 319 388
#     4  11  24  41  64  94 134 171 212 271 337 375
#     4   9  20  36  63  91 120 166 213 257 322 384
#     4  11  21  42  67  91 131 169 212 271 334 382
#     4  11  22  40  64  94 122 168 218 263 316 392
#
# _framework density 20.952774000000002
#
# number of rings (size 3 to 8) (size 9 to 14) (size 15 to 20)
#    0.000    1.500    2.500    3.375    5.250    2.000 
#    2.250    0.625    0.000    0.000    0.000    0.000 
#    0.000    0.000    0.000    0.000    0.000    0.000 
#
# Total GULP energy -89087.055344 kJ/mol
# GULP energy per Si atom -5567.940959 kJ/mol
# Density = 2.090508 g / cm^3
# Si number density = 20.952774 Si / 1000 Ang^3
#
#
#
# Elastic Constant Matrix: (Units=GPa)
#
#
# Indices 1 2 3 4 5 6 
#
# 1 120.7201 24.5438 30.2726 -8.2228 0.2523 2.5878
# 2 24.5438 65.2026 21.3313 -7.8928 2.2457 -3.9147
# 3 30.2726 21.3313 125.3877 -9.4184 4.4007 -4.2342
# 4 -8.2228 -7.8928 -9.4184 30.8586 2.8448 2.2426
# 5 0.2523 2.2457 4.4007 2.8448 30.6146 3.1961
# 6 2.5878 -3.9147 -4.2342 2.2426 3.1961 25.9808
#
#
#
# Elastic Compliance Matrix: (Units=1/GPa)
#
#
# Indices 1 2 3 4 5 6 
#
# 1 0.009453 -0.002950 -0.001760 0.001319 0.000461 -0.001843
# 2 -0.002950 0.017657 -0.001918 0.003102 -0.001551 0.002565
# 3 -0.001760 -0.001918 0.008959 0.001809 -0.001444 0.001368
# 4 0.001319 0.003102 0.001809 0.034566 -0.003510 -0.001921
# 5 0.000461 -0.001551 -0.001444 -0.003510 0.033763 -0.004365
# 6 -0.001843 0.002565 0.001368 -0.001921 -0.004365 0.039986
#
#
# Mechanical properties :
#
#
# Convention : Reuss Voigt Hill
#
# Bulk Modulus (GPa) = 43.83046 51.51174 47.67110
# Shear Modulus (GPa) = 30.25831 33.16833 31.71332
#
# Velocity S-wave (km/s) = 3.80428 3.98301 3.89467
# Velocity P-wave (km/s) = 6.34514 6.76688 6.55940
#
# Compressibility (1/GPa) = 0.02281519
#
# Stress axis : x y z
#
# Youngs Moduli (GPa) = 105.78663 56.63365 111.61817
#
# Poissons Ratio (x) = 0.16704 0.19643
# Poissons Ratio (y) = 0.31202 0.21406
# Poissons Ratio (z) = 0.18617 0.10861
#
# Static dielectric constant tensor:
#      x y z
#    x 1.866170 -0.078560 -0.099740 
#    y -0.078560 1.857490 0.039680 
#    z -0.099740 0.039680 1.792120 
# 
# From -- ./inp_files/271357.got.cif
#   From: 2010.05.17/outbox.cif.g08.bks.cpg/sg2_136_cif.got.tgz:271357.got - 2010.06.03 11:33:40.
