data_PCOD9011109
_publ_section_title
;
Structure prediction by ZEFSAII (Michael W. Deem and Ramdas Pophale) SiO2 
 PCOD9011109
Probable space group: P -1
;
_chemical_formula_sum "Si O2"
_cell_formula_units_Z 14
_cell_length_a 14.816260
_cell_length_b 17.090301
_cell_length_c 12.326341
_cell_angle_alpha 150.875134
_cell_angle_beta 30.551409
_cell_angle_gamma 155.092899
_cell_volume 602.599673
_symmetry_space_group_name_H-M "P -1"
_symmetry_group_IT_number 2
_symmetry_cell_setting 'triclinic'
loop_
_space_group_symop_operation_xyz
x,y,z
-x,-y,-z
loop_
_atom_site_type_symbol
_atom_site_label
_atom_site_fract_x
_atom_site_fract_y
_atom_site_fract_z
Si Si1 0.616077 0.253296 0.886274
Si Si2 0.749667 0.710495 0.020829
Si Si3 0.847781 0.842281 0.311215
Si Si4 0.890829 0.158037 0.370465
Si Si5 0.763111 0.714754 0.646140
Si Si6 0.372902 0.960556 0.193550
Si Si7 0.870329 0.626428 0.226858
O O1 0.716971 0.206551 0.627058
O O2 0.523375 0.071101 0.848995
O O3 0.436319 0.294382 0.104157
O O4 0.810223 0.448742 0.993616
O O5 0.798640 0.708408 0.094503
O O6 0.770685 0.915274 0.219589
O O7 0.500000 0.500000 0.000000
O O8 0.958614 0.756826 0.790549
O O9 0.862337 0.767630 0.320870
O O10 0.651610 0.865670 0.545419
O O11 0.080155 0.065794 0.312008
O O12 0.077154 0.272350 0.413020
O O13 0.704898 0.558451 0.419902
O O14 0.116911 0.758703 0.185384
O O15 0.500000 0.000000 0.000000
#
# Coordination Sequence:
#
# PCOD9011109 Si02
#       7
#     2   2   2   2   2   2   2
#     4  12  22  39  64  99 129 169 209 264 328 380
#     4  10  22  44  72  86 126 180 219 269 333 372
#     4  10  21  42  60  91 129 167 217 265 317 391
#     4  10  23  45  66  97 129 167 224 275 314 389
#     4  10  21  40  65  91 134 170 201 263 333 379
#     4  11  21  37  63  93 132 171 207 257 324 391
#     4  11  22  37  61  98 135 159 211 262 317 403
#
# _framework density 23.232671
#
# number of rings (size 3 to 8) (size 9 to 14) (size 15 to 20)
#    0.000    1.429    4.286    4.286    2.000    1.143 
#    2.571    7.143    0.000    0.000    0.000    0.000 
#    0.000    0.000    0.000    0.000    0.000    0.000 
#
# Total GULP energy -78213.848008 kJ/mol
# GULP energy per Si atom -5586.703429 kJ/mol
# Density = 2.317979 g / cm^3
# Si number density = 23.232671 Si / 1000 Ang^3
#
#
#
# Elastic Constant Matrix: (Units=GPa)
#
#
# Indices 1 2 3 4 5 6 
#
# 1 45.1908 8.4269 -3.5483 -5.2603 14.7650 -4.8582
# 2 8.4269 54.7371 34.0164 -15.4814 9.0575 1.0032
# 3 -3.5483 34.0164 152.6959 -32.1985 20.2457 -3.1365
# 4 -5.2603 -15.4814 -32.1985 32.6331 1.4799 4.3733
# 5 14.7650 9.0575 20.2457 1.4799 39.1631 -0.3827
# 6 -4.8582 1.0032 -3.1365 4.3733 -0.3827 29.1311
#
#
#
# Elastic Compliance Matrix: (Units=1/GPa)
#
#
# Indices 1 2 3 4 5 6 
#
# 1 0.028634 -0.003109 0.004814 0.007930 -0.012825 0.004042
# 2 -0.003109 0.023592 -0.003334 0.007924 -0.002889 -0.002917
# 3 0.004814 -0.003334 0.010341 0.009637 -0.006749 0.000496
# 4 0.007930 0.007924 0.009637 0.046390 -0.011606 -0.005029
# 5 -0.012825 -0.002889 -0.006749 -0.011606 0.034959 -0.000564
# 6 0.004042 -0.002917 0.000496 -0.005029 -0.000564 0.035903
#
#
# Mechanical properties :
#
#
# Convention : Reuss Voigt Hill
#
# Bulk Modulus (GPa) = 16.86094 36.71265 26.78679
# Shear Modulus (GPa) = 24.64917 34.43404 29.54161
#
# Velocity S-wave (km/s) = 3.26079 3.85403 3.56975
# Velocity P-wave (km/s) = 4.63143 5.97003 5.34282
#
# Compressibility (1/GPa) = 0.05930869
#
# Stress axis : x y z
#
# Youngs Moduli (GPa) = 34.92369 42.38695 96.70609
#
# Poissons Ratio (x) = 0.13176 -0.46551
# Poissons Ratio (y) = 0.10856 0.32242
# Poissons Ratio (z) = -0.16811 0.14132
#
# Static dielectric constant tensor:
#      x y z
#    x 1.862550 -0.018200 -0.013670 
#    y -0.018200 1.967300 0.029000 
#    z -0.013670 0.029000 1.981200 
# 
# From -- ./inp_files/172381.got.cif
#   From: 2010.05.17/outbox.cif.g08.bks.cpg/sg2_87_cif.got.tgz:172381.got - 2010.06.03 11:33:40.
