data_PCOD9011805
_publ_section_title
;
Structure prediction by ZEFSAII (Michael W. Deem and Ramdas Pophale) SiO2 
 PCOD9011805
Probable space group: P -1
;
_chemical_formula_sum "Si O2"
_cell_formula_units_Z 16
_cell_length_a 15.998917
_cell_length_b 9.008001
_cell_length_c 10.781056
_cell_angle_alpha 39.020156
_cell_angle_beta 57.760731
_cell_angle_gamma 43.948778
_cell_volume 677.712276
_symmetry_space_group_name_H-M "P -1"
_symmetry_group_IT_number 2
_symmetry_cell_setting 'triclinic'
loop_
_space_group_symop_operation_xyz
x,y,z
-x,-y,-z
loop_
_atom_site_type_symbol
_atom_site_label
_atom_site_fract_x
_atom_site_fract_y
_atom_site_fract_z
Si Si1 0.054000 0.856940 0.854641
Si Si2 0.392085 0.660700 0.220914
Si Si3 0.173894 0.658506 0.162160
Si Si4 0.238380 0.311200 0.937358
Si Si5 0.782590 0.944645 0.467884
Si Si6 0.623875 0.779666 0.344884
Si Si7 0.373327 0.710699 0.869441
Si Si8 0.397175 0.950947 0.251777
O O1 0.108058 0.567711 0.919900
O O2 0.106793 0.024436 0.642809
O O3 0.110687 0.749888 0.017095
O O4 0.913098 0.081858 0.844473
O O5 0.363747 0.431967 0.421961
O O6 0.491414 0.541398 0.113308
O O7 0.450518 0.688844 0.283339
O O8 0.276151 0.989257 0.088097
O O9 0.183019 0.374016 0.378958
O O10 0.300356 0.616969 0.067174
O O11 0.278030 0.389852 0.731088
O O12 0.331987 0.229502 0.031275
O O13 0.695791 0.159489 0.290398
O O14 0.708712 0.026807 0.600749
O O15 0.495973 0.921577 0.283576
O O16 0.634489 0.019903 0.240106
#
# Coordination Sequence:
#
# PCOD9011805 Si02
#       8
#     2   2   2   2   2   2   2   2
#     4  10  21  40  67  94 117 160 211 267 312 354
#     4  10  23  37  61  92 130 164 202 253 311 368
#     4  10  22  41  63  91 127 158 210 263 309 364
#     4  10  24  37  63  95 119 162 212 256 313 358
#     4  11  21  38  65  93 127 158 208 257 316 365
#     4  12  23  40  59  92 133 171 202 245 312 380
#     4  11  26  38  61  93 132 171 200 248 312 381
#     4  10  22  37  63  93 126 162 202 260 306 364
#
# _framework density 23.608839
#
# number of rings (size 3 to 8) (size 9 to 14) (size 15 to 20)
#    0.750    0.750    2.500    2.250    5.250    1.500 
#    0.000    0.625    0.000    1.500    0.000    0.000 
#    0.000    0.000    0.000    0.000    0.000    0.000 
#
# Total GULP energy -89489.499007 kJ/mol
# GULP energy per Si atom -5593.093688 kJ/mol
# Density = 2.355510 g / cm^3
# Si number density = 23.608839 Si / 1000 Ang^3
#
#
#
# Elastic Constant Matrix: (Units=GPa)
#
#
# Indices 1 2 3 4 5 6 
#
# 1 67.4231 36.4354 20.4068 1.8991 -10.8461 3.1762
# 2 36.4354 206.2733 52.2254 8.4828 -19.4289 -13.5232
# 3 20.4068 52.2254 112.7846 3.1653 -24.5390 -2.9882
# 4 1.8991 8.4828 3.1653 45.2469 5.0213 -9.6759
# 5 -10.8461 -19.4289 -24.5390 5.0213 17.2080 -2.0481
# 6 3.1762 -13.5232 -2.9882 -9.6759 -2.0481 21.9055
#
#
#
# Elastic Compliance Matrix: (Units=1/GPa)
#
#
# Indices 1 2 3 4 5 6 
#
# 1 0.017846 -0.002504 -0.000401 -0.002064 0.007932 -0.004358
# 2 -0.002504 0.006352 -0.001449 -0.000543 0.004190 0.004239
# 3 -0.000401 -0.001449 0.013785 -0.002375 0.018668 0.001740
# 4 -0.002064 -0.000543 -0.002375 0.025885 -0.011666 0.009983
# 5 0.007932 0.004190 0.018668 -0.011666 0.098829 0.008070
# 6 -0.004358 0.004239 0.001740 0.009983 0.008070 0.054301
#
#
# Mechanical properties :
#
#
# Convention : Reuss Voigt Hill
#
# Bulk Modulus (GPa) = 34.16059 67.17957 50.67008
# Shear Modulus (GPa) = 21.23465 35.36633 28.30049
#
# Velocity S-wave (km/s) = 3.00231 3.87462 3.46602
# Velocity P-wave (km/s) = 5.14969 6.96663 6.12590
#
# Compressibility (1/GPa) = 0.02927350
#
# Stress axis : x y z
#
# Youngs Moduli (GPa) = 56.03519 157.42943 72.54506
#
# Poissons Ratio (x) = 0.39427 0.02909
# Poissons Ratio (y) = 0.14034 0.10512
# Poissons Ratio (z) = 0.02247 0.22812
#
# Static dielectric constant tensor:
#      x y z
#    x 1.900380 0.022600 0.026960 
#    y 0.022600 1.891510 0.000570 
#    z 0.026960 0.000570 1.895940 
# 
# From -- ./inp_files/342546.got.cif
#   From: 2010.05.17/outbox.cif.g08.bks.cpg/sg2_172_cif.got.tgz:342546.got - 2010.06.03 11:33:40.
