data_PCOD9011138
_publ_section_title
;
Structure prediction by ZEFSAII (Michael W. Deem and Ramdas Pophale) SiO2 
 PCOD9011138
Probable space group: P -1
;
_chemical_formula_sum "Si O2"
_cell_formula_units_Z 16
_cell_length_a 9.338087
_cell_length_b 15.305568
_cell_length_c 8.527032
_cell_angle_alpha 137.974955
_cell_angle_beta 80.815248
_cell_angle_gamma 104.821053
_cell_volume 787.865487
_symmetry_space_group_name_H-M "P -1"
_symmetry_group_IT_number 2
_symmetry_cell_setting 'triclinic'
loop_
_space_group_symop_operation_xyz
x,y,z
-x,-y,-z
loop_
_atom_site_type_symbol
_atom_site_label
_atom_site_fract_x
_atom_site_fract_y
_atom_site_fract_z
Si Si1 0.463774 0.639136 0.640480
Si Si2 0.742550 0.747569 0.517077
Si Si3 0.588447 0.882804 0.147812
Si Si4 0.634804 0.953469 0.587942
Si Si5 0.876368 0.808281 0.891595
Si Si6 0.936978 0.123950 0.749771
Si Si7 0.159717 0.488931 0.387271
Si Si8 0.906760 0.594932 0.058087
O O1 0.500000 0.500000 0.500000
O O2 0.587440 0.696059 0.564751
O O3 0.293141 0.606193 0.573764
O O4 0.493069 0.746106 0.916109
O O5 0.711293 0.864142 0.567477
O O6 0.872403 0.800948 0.693820
O O7 0.789838 0.633595 0.252020
O O8 0.595255 0.883193 0.334574
O O9 0.510916 0.001521 0.264733
O O10 0.754128 0.893088 0.070769
O O11 0.760933 0.085167 0.711961
O O12 0.815241 0.654040 0.746601
O O13 0.013291 0.856349 0.049444
O O14 0.002469 0.261224 0.829841
O O15 0.000000 0.000000 0.500000
O O16 0.000000 0.500000 0.500000
O O17 0.158255 0.480087 0.188388
O O18 0.000000 0.500000 0.000000
#
# Coordination Sequence:
#
# PCOD9011138 Si02
#       8
#     2   2   2   2   2   2   2   2
#     4  11  24  42  68  95 129 183 215 269 351 400
#     4  11  23  42  65  95 137 167 230 280 327 393
#     4  10  22  41  64  90 132 170 224 267 331 407
#     4  11  23  42  66  96 130 178 223 282 327 400
#     4  10  21  40  65  92 130 171 216 279 326 403
#     4  11  21  42  69  93 132 182 219 264 352 393
#     4  11  23  44  67  94 135 174 219 270 345 409
#     4  11  25  43  66 103 138 170 227 285 327 403
#
# _framework density 20.308033999999999
#
# number of rings (size 3 to 8) (size 9 to 14) (size 15 to 20)
#    0.000    1.250    5.000    1.500    3.500    3.000 
#    4.500    0.000    0.000    0.000    0.000    0.000 
#    0.000    0.000    0.000    0.000    0.000    0.000 
#
# Total GULP energy -89320.143286 kJ/mol
# GULP energy per Si atom -5582.508955 kJ/mol
# Density = 2.026181 g / cm^3
# Si number density = 20.308034 Si / 1000 Ang^3
#
#
#
# Elastic Constant Matrix: (Units=GPa)
#
#
# Indices 1 2 3 4 5 6 
#
# 1 103.2910 28.1667 56.3903 -12.5363 4.2280 -1.2980
# 2 28.1667 62.8869 35.8735 -7.0876 12.6126 -22.0717
# 3 56.3903 35.8735 138.9496 -25.9899 21.8182 -8.0018
# 4 -12.5363 -7.0876 -25.9899 27.6761 -0.6520 5.6935
# 5 4.2280 12.6126 21.8182 -0.6520 41.8095 2.1152
# 6 -1.2980 -22.0717 -8.0018 5.6935 2.1152 38.6370
#
#
#
# Elastic Compliance Matrix: (Units=1/GPa)
#
#
# Indices 1 2 3 4 5 6 
#
# 1 0.013613 -0.005244 -0.004574 0.001385 0.002808 -0.003844
# 2 -0.005244 0.026365 -0.003121 -0.001766 -0.006574 0.014859
# 3 -0.004574 -0.003121 0.012188 0.008545 -0.004802 -0.000409
# 4 0.001385 -0.001766 0.008545 0.045436 -0.003069 -0.005720
# 5 0.002808 -0.006574 -0.004802 -0.003069 0.028367 -0.005756
# 6 -0.003844 0.014859 -0.000409 -0.005720 -0.005756 0.035315
#
#
# Mechanical properties :
#
#
# Convention : Reuss Voigt Hill
#
# Bulk Modulus (GPa) = 38.04060 60.66539 49.35299
# Shear Modulus (GPa) = 25.51994 33.93764 29.72879
#
# Velocity S-wave (km/s) = 3.54876 4.09240 3.83024
# Velocity P-wave (km/s) = 5.96356 7.22964 6.62691
#
# Compressibility (1/GPa) = 0.02628770
#
# Stress axis : x y z
#
# Youngs Moduli (GPa) = 73.45656 37.92854 82.04938
#
# Poissons Ratio (x) = 0.19891 0.37531
# Poissons Ratio (y) = 0.38523 0.25608
# Poissons Ratio (z) = 0.33600 0.11837
#
# Static dielectric constant tensor:
#      x y z
#    x 1.771710 0.011670 0.006870 
#    y 0.011670 1.734700 -0.015630 
#    z 0.006870 -0.015630 1.727270 
# 
# From -- ./inp_files/209385.got.cif
#   From: 2010.05.17/outbox.cif.g08.bks.cpg/sg2_105_cif.got.tgz:209385.got - 2010.06.03 11:33:40.
