data_PCOD9011634
_publ_section_title
;
Structure prediction by ZEFSAII (Michael W. Deem and Ramdas Pophale) SiO2 
 PCOD9011634
Probable space group: P -1
;
_chemical_formula_sum "Si O2"
_cell_formula_units_Z 14
_cell_length_a 7.305452
_cell_length_b 7.909872
_cell_length_c 20.538619
_cell_angle_alpha 43.853125
_cell_angle_beta 131.139105
_cell_angle_gamma 107.034501
_cell_volume 580.588025
_symmetry_space_group_name_H-M "P -1"
_symmetry_group_IT_number 2
_symmetry_cell_setting 'triclinic'
loop_
_space_group_symop_operation_xyz
x,y,z
-x,-y,-z
loop_
_atom_site_type_symbol
_atom_site_label
_atom_site_fract_x
_atom_site_fract_y
_atom_site_fract_z
Si Si1 0.611742 0.797412 0.805101
Si Si2 0.853309 0.458651 0.066337
Si Si3 0.913383 0.256914 0.276005
Si Si4 0.016692 0.537575 0.634329
Si Si5 0.681920 0.318644 0.670766
Si Si6 0.734801 0.975060 0.110721
Si Si7 0.170189 0.681035 0.506015
O O1 0.355009 0.731741 0.757345
O O2 0.852753 0.621274 0.868164
O O3 0.566774 0.091411 0.694326
O O4 0.694305 0.727528 0.919341
O O5 0.857194 0.441596 0.149223
O O6 0.741073 0.238852 0.072784
O O7 0.054498 0.336950 0.346045
O O8 0.064287 0.962865 0.370303
O O9 0.097004 0.720070 0.554269
O O10 0.771140 0.441949 0.593494
O O11 0.251129 0.258672 0.771135
O O12 0.470385 0.528262 0.606320
O O13 0.970204 0.151872 0.814356
O O14 0.500000 0.000000 0.000000
O O15 0.000000 0.500000 0.500000
#
# Coordination Sequence:
#
# PCOD9011634 Si02
#       7
#     2   2   2   2   2   2   2
#     4  10  21  40  66  98 129 166 224 268 320 395
#     4  10  22  40  68  96 132 169 221 269 327 390
#     4  12  24  41  68  96 130 178 216 271 329 383
#     4  10  25  43  62  99 135 164 224 274 324 386
#     4   9  23  42  64 100 130 169 219 266 328 386
#     4   9  19  42  66  92 131 168 209 267 329 380
#     4  12  24  43  70  94 130 178 224 267 325 392
#
# _framework density 24.113486000000002
#
# number of rings (size 3 to 8) (size 9 to 14) (size 15 to 20)
#    0.857    0.857    1.429    2.571    0.000    3.429 
#    0.000    1.429    0.000    0.000    0.000    0.000 
#    0.000    0.000    0.000    0.000    0.000    0.000 
#
# Total GULP energy -78141.360965 kJ/mol
# GULP energy per Si atom -5581.525783 kJ/mol
# Density = 2.405860 g / cm^3
# Si number density = 24.113486 Si / 1000 Ang^3
#
#
#
# Elastic Constant Matrix: (Units=GPa)
#
#
# Indices 1 2 3 4 5 6 
#
# 1 119.6640 2.5224 20.9411 10.7397 5.8268 8.3037
# 2 2.5224 42.2758 -0.4552 2.2433 -2.8412 -10.3056
# 3 20.9411 -0.4552 85.0873 -8.3888 -5.8359 0.2583
# 4 10.7397 2.2433 -8.3888 35.5303 4.6249 -1.0763
# 5 5.8268 -2.8412 -5.8359 4.6249 39.2583 -2.7357
# 6 8.3037 -10.3056 0.2583 -1.0763 -2.7357 26.2458
#
#
#
# Elastic Compliance Matrix: (Units=1/GPa)
#
#
# Indices 1 2 3 4 5 6 
#
# 1 0.009536 -0.001496 -0.002796 -0.003330 -0.001819 -0.003903
# 2 -0.001496 0.026770 0.000579 -0.001173 0.003168 0.011261
# 3 -0.002796 0.000579 0.012939 0.003638 0.002046 0.001347
# 4 -0.003330 -0.001173 0.003638 0.030461 -0.002531 0.001543
# 5 -0.001819 0.003168 0.002046 -0.002531 0.026887 0.004498
# 6 -0.003903 0.011261 0.001347 0.001543 0.004498 0.044277
#
#
# Mechanical properties :
#
#
# Convention : Reuss Voigt Hill
#
# Bulk Modulus (GPa) = 23.91304 32.56040 28.23672
# Shear Modulus (GPa) = 29.03009 35.14146 32.08578
#
# Velocity S-wave (km/s) = 3.47348 3.82165 3.65172
# Velocity P-wave (km/s) = 5.10149 5.74505 5.43281
#
# Compressibility (1/GPa) = 0.04181819
#
# Stress axis : x y z
#
# Youngs Moduli (GPa) = 104.86789 37.35526 77.28715
#
# Poissons Ratio (x) = 0.05589 0.21610
# Poissons Ratio (y) = 0.15689 -0.04474
# Poissons Ratio (z) = 0.29322 -0.02163
#
# Static dielectric constant tensor:
#      x y z
#    x 1.950780 -0.035320 -0.027030 
#    y -0.035320 2.047450 0.051030 
#    z -0.027030 0.051030 2.022840 
# 
# From -- ./inp_files/586528.got.cif
#   From: 2010.05.17/outbox.cif.g08.bks.cpg/sg2_294_cif.got.tgz:586528.got - 2010.06.03 11:33:40.
