data_PCOD9011816
_publ_section_title
;
Structure prediction by ZEFSAII (Michael W. Deem and Ramdas Pophale) SiO2 
 PCOD9011816
Probable space group: P -1
;
_chemical_formula_sum "Si O2"
_cell_formula_units_Z 14
_cell_length_a 20.995343
_cell_length_b 17.590718
_cell_length_c 11.287155
_cell_angle_alpha 30.924329
_cell_angle_beta 40.366722
_cell_angle_gamma 17.534924
_cell_volume 601.628912
_symmetry_space_group_name_H-M "P -1"
_symmetry_group_IT_number 2
_symmetry_cell_setting 'triclinic'
loop_
_space_group_symop_operation_xyz
x,y,z
-x,-y,-z
loop_
_atom_site_type_symbol
_atom_site_label
_atom_site_fract_x
_atom_site_fract_y
_atom_site_fract_z
Si Si1 0.465118 0.718736 0.229079
Si Si2 0.541870 0.778439 0.684691
Si Si3 0.821914 0.866874 0.724252
Si Si4 0.939249 0.040942 0.395322
Si Si5 0.961310 0.905517 0.024228
Si Si6 0.138653 0.222018 0.818248
Si Si7 0.243301 0.028713 0.601864
O O1 0.500000 0.500000 0.500000
O O2 0.687829 0.457845 0.188973
O O3 0.412806 0.858822 0.243022
O O4 0.235890 0.052571 0.034538
O O5 0.803717 0.382611 0.856524
O O6 0.500000 0.000000 0.500000
O O7 0.366433 0.923886 0.817917
O O8 0.446089 0.862085 0.579691
O O9 0.771139 0.961685 0.531337
O O10 0.912055 0.903127 0.596192
O O11 0.000000 0.500000 0.000000
O O12 0.087866 0.901437 0.261633
O O13 0.000000 0.000000 0.500000
O O14 0.002127 0.714007 0.131035
O O15 0.779372 0.094062 0.127311
O O16 0.989298 0.570353 0.568174
#
# Coordination Sequence:
#
# PCOD9011816 Si02
#       7
#     2   2   2   2   2   2   2
#     4  10  21  40  67  94 132 176 224 273 335 402
#     4  11  19  35  61  99 133 175 227 269 327 408
#     4  11  24  45  67  98 142 175 220 288 345 397
#     4  11  25  45  72  99 130 183 233 277 336 413
#     4  11  21  38  66  97 135 173 230 274 331 412
#     4  11  19  36  66  98 132 176 223 281 331 394
#     4  11  23  37  64 102 139 178 213 286 348 385
#
# _framework density 23.270157999999999
#
# number of rings (size 3 to 8) (size 9 to 14) (size 15 to 20)
#    0.000    1.143    5.714    2.571    0.000    0.571 
#    2.571    1.429    0.000    0.000    0.000    0.000 
#    0.000    0.000    0.000    0.000    0.000    0.000 
#
# Total GULP energy -78072.929227 kJ/mol
# GULP energy per Si atom -5576.637802 kJ/mol
# Density = 2.321719 g / cm^3
# Si number density = 23.270158 Si / 1000 Ang^3
#
#
#
# Elastic Constant Matrix: (Units=GPa)
#
#
# Indices 1 2 3 4 5 6 
#
# 1 169.8250 28.7383 52.6325 10.0973 21.4187 -9.5503
# 2 28.7383 66.2526 19.1926 7.8407 3.3776 -0.1155
# 3 52.6325 19.1926 96.4866 18.0738 12.6359 -0.7383
# 4 10.0973 7.8407 18.0738 34.9002 1.9870 8.5545
# 5 21.4187 3.3776 12.6359 1.9870 38.7487 -3.9543
# 6 -9.5503 -0.1155 -0.7383 8.5545 -3.9543 34.2584
#
#
#
# Elastic Compliance Matrix: (Units=1/GPa)
#
#
# Indices 1 2 3 4 5 6 
#
# 1 0.007783 -0.002219 -0.003366 -0.000302 -0.002808 0.001841
# 2 -0.002219 0.016812 -0.001773 -0.002246 0.000456 0.000013
# 3 -0.003366 -0.001773 0.013940 -0.005863 -0.002172 0.000569
# 4 -0.000302 -0.002246 -0.005863 0.034479 -0.000399 -0.008874
# 5 -0.002808 0.000456 -0.002172 -0.000399 0.028307 0.002539
# 6 0.001841 0.000013 0.000569 -0.008874 0.002539 0.032224
#
#
# Mechanical properties :
#
#
# Convention : Reuss Voigt Hill
#
# Bulk Modulus (GPa) = 41.98100 59.29902 50.64001
# Shear Modulus (GPa) = 32.01030 37.04820 34.52925
#
# Velocity S-wave (km/s) = 3.71292 3.99443 3.85625
# Velocity P-wave (km/s) = 6.03829 6.84194 6.45264
#
# Compressibility (1/GPa) = 0.02382030
#
# Stress axis : x y z
#
# Youngs Moduli (GPa) = 128.49282 59.48007 71.73739
#
# Poissons Ratio (x) = 0.13197 0.24145
# Poissons Ratio (y) = 0.28510 0.12717
# Poissons Ratio (z) = 0.43247 0.10544
#
# Static dielectric constant tensor:
#      x y z
#    x 1.936590 -0.283480 0.110150 
#    y -0.283480 -0.423270 0.648760 
#    z 0.110150 0.648760 1.784180 
# 
# From -- ./inp_files/472328.got.cif
#   From: 2010.05.17/outbox.cif.g08.bks.cpg/sg2_237_cif.got.tgz:472328.got - 2010.06.03 11:33:40.
