data_PCOD9011714
_publ_section_title
;
Structure prediction by ZEFSAII (Michael W. Deem and Ramdas Pophale) SiO2 
 PCOD9011714
Probable space group: P -1
;
_chemical_formula_sum "Si O2"
_cell_formula_units_Z 14
_cell_length_a 5.166176
_cell_length_b 12.712419
_cell_length_c 19.975139
_cell_angle_alpha 39.127076
_cell_angle_beta 78.908920
_cell_angle_gamma 105.469647
_cell_volume 601.823610
_symmetry_space_group_name_H-M "P -1"
_symmetry_group_IT_number 2
_symmetry_cell_setting 'triclinic'
loop_
_space_group_symop_operation_xyz
x,y,z
-x,-y,-z
loop_
_atom_site_type_symbol
_atom_site_label
_atom_site_fract_x
_atom_site_fract_y
_atom_site_fract_z
Si Si1 0.577009 0.101954 0.325719
Si Si2 0.861018 0.499178 0.216986
Si Si3 0.892975 0.806347 0.281892
Si Si4 0.345608 0.817563 0.367617
Si Si5 0.113369 0.966692 0.941048
Si Si6 0.080361 0.579086 0.311465
Si Si7 0.815869 0.878642 0.500166
O O1 0.783045 0.331063 0.244996
O O2 0.654005 0.058910 0.269771
O O3 0.615274 0.953415 0.443266
O O4 0.169454 0.986553 0.388799
O O5 0.078575 0.535027 0.254460
O O6 0.485186 0.375755 0.334773
O O7 0.030674 0.737123 0.061960
O O8 0.546344 0.742774 0.363357
O O9 0.829591 0.630307 0.318878
O O10 0.136944 0.834269 0.314362
O O11 0.064803 0.022829 0.119745
O O12 0.069306 0.626034 0.530788
O O13 0.529660 0.187217 0.806610
O O14 0.000000 0.000000 0.000000
O O15 0.000000 0.000000 0.500000
#
# Coordination Sequence:
#
# PCOD9011714 Si02
#       7
#     2   2   2   2   2   2   2
#     4  11  24  45  70 111 139 182 235 299 362 410
#     4  11  24  44  71 109 144 185 233 299 359 427
#     4  12  27  50  69 106 142 192 245 289 353 428
#     4  12  27  45  79 101 145 188 240 300 353 420
#     4  12  28  45  72 107 149 193 236 291 361 431
#     4  12  26  45  76 106 147 186 243 297 358 417
#     4  10  21  40  67 103 143 173 231 292 355 410
#
# _framework density 23.262632
#
# number of rings (size 3 to 8) (size 9 to 14) (size 15 to 20)
#    0.000    0.571    4.286    3.857    4.000    1.143 
#    0.000    1.429    0.000    0.000    0.000    0.000 
#    0.000    0.000    0.000    0.000    0.000    0.000 
#
# Total GULP energy -78117.543484 kJ/mol
# GULP energy per Si atom -5579.824535 kJ/mol
# Density = 2.320969 g / cm^3
# Si number density = 23.262632 Si / 1000 Ang^3
#
#
#
# Elastic Constant Matrix: (Units=GPa)
#
#
# Indices 1 2 3 4 5 6 
#
# 1 107.4561 42.1669 56.5082 -8.8393 24.3635 16.4994
# 2 42.1669 160.5768 73.9133 -21.1090 11.2205 18.4151
# 3 56.5082 73.9133 144.3349 -1.3588 31.3657 11.0034
# 4 -8.8393 -21.1090 -1.3588 35.1196 6.2355 6.0119
# 5 24.3635 11.2205 31.3657 6.2355 33.2695 7.0272
# 6 16.4994 18.4151 11.0034 6.0119 7.0272 37.3953
#
#
#
# Elastic Compliance Matrix: (Units=1/GPa)
#
#
# Indices 1 2 3 4 5 6 
#
# 1 0.013899 -0.000463 -0.003316 0.005080 -0.006908 -0.004447
# 2 -0.000463 0.009719 -0.004677 0.006076 0.001265 -0.004420
# 3 -0.003316 -0.004677 0.012050 -0.002209 -0.007354 0.001958
# 4 0.005080 0.006076 -0.002209 0.036361 -0.008642 -0.008805
# 5 -0.006908 0.001265 -0.007354 -0.008642 0.043715 -0.002236
# 6 -0.004447 -0.004420 0.001958 -0.008805 -0.002236 0.032140
#
#
# Mechanical properties :
#
#
# Convention : Reuss Voigt Hill
#
# Bulk Modulus (GPa) = 53.31665 84.17162 68.74414
# Shear Modulus (GPa) = 29.23177 37.14216 33.18697
#
# Velocity S-wave (km/s) = 3.54870 4.00014 3.78116
# Velocity P-wave (km/s) = 6.30557 7.58924 6.97699
#
# Compressibility (1/GPa) = 0.01875587
#
# Stress axis : x y z
#
# Youngs Moduli (GPa) = 71.94929 102.89083 82.99042
#
# Poissons Ratio (x) = 0.04761 0.27523
# Poissons Ratio (y) = 0.03329 0.38811
# Poissons Ratio (z) = 0.23861 0.48118
#
# Static dielectric constant tensor:
#      x y z
#    x 2.193230 -0.087320 -0.121670 
#    y -0.087320 1.982800 0.021790 
#    z -0.121670 0.021790 1.901750 
# 
# From -- ./inp_files/583003.got.cif
#   From: 2010.05.17/outbox.cif.g08.bks.cpg/sg2_292_cif.got.tgz:583003.got - 2010.06.03 11:33:40.
