data_PCOD9011173
_publ_section_title
;
Structure prediction by ZEFSAII (Michael W. Deem and Ramdas Pophale) SiO2 
 PCOD9011173
Probable space group: P -1
;
_chemical_formula_sum "Si O2"
_cell_formula_units_Z 14
_cell_length_a 11.773081
_cell_length_b 5.265191
_cell_length_c 14.181944
_cell_angle_alpha 121.479353
_cell_angle_beta 67.844970
_cell_angle_gamma 82.461132
_cell_volume 631.619483
_symmetry_space_group_name_H-M "P -1"
_symmetry_group_IT_number 2
_symmetry_cell_setting 'triclinic'
loop_
_space_group_symop_operation_xyz
x,y,z
-x,-y,-z
loop_
_atom_site_type_symbol
_atom_site_label
_atom_site_fract_x
_atom_site_fract_y
_atom_site_fract_z
Si Si1 0.632554 0.333080 0.363715
Si Si2 0.121173 0.161035 0.421373
Si Si3 0.686445 0.837222 0.873372
Si Si4 0.404118 0.758822 0.200321
Si Si5 0.200646 0.375808 0.738873
Si Si6 0.346441 0.686305 0.857783
Si Si7 0.974067 0.349673 0.691373
O O1 0.500000 0.500000 0.500000
O O2 0.716002 0.554764 0.360367
O O3 0.597771 0.278473 0.255773
O O4 0.726945 0.993010 0.317313
O O5 0.087410 0.147359 0.539716
O O6 0.000000 0.500000 0.500000
O O7 0.279007 0.066151 0.345038
O O8 0.092111 0.901517 0.315719
O O9 0.631967 0.556542 0.841452
O O10 0.842899 0.662118 0.758225
O O11 0.600072 0.115788 0.880247
O O12 0.683012 0.007568 0.006951
O O13 0.543853 0.633900 0.187462
O O14 0.216927 0.614420 0.859445
O O15 0.051594 0.443502 0.766450
#
# Coordination Sequence:
#
# PCOD9011173 Si02
#       7
#     2   2   2   2   2   2   2
#     4  10  24  43  61  94 129 172 215 261 322 383
#     4  10  21  40  65  93 130 171 216 269 326 378
#     4  11  24  42  67  95 131 173 214 271 319 387
#     4  11  24  40  68  96 129 171 217 273 318 386
#     4  10  25  41  66  95 128 172 211 275 316 394
#     4  10  26  42  68  95 132 170 221 259 335 380
#     4  10  23  42  62  99 131 167 220 265 327 387
#
# _framework density 22.165247000000001
#
# number of rings (size 3 to 8) (size 9 to 14) (size 15 to 20)
#    0.857    0.857    1.429    1.286    8.000    0.571 
#    0.000    0.714    0.000    0.000    0.000    0.000 
#    0.000    0.000    0.000    0.000    0.000    0.000 
#
# Total GULP energy -78071.188096 kJ/mol
# GULP energy per Si atom -5576.513435 kJ/mol
# Density = 2.211480 g / cm^3
# Si number density = 22.165247 Si / 1000 Ang^3
#
#
#
# Elastic Constant Matrix: (Units=GPa)
#
#
# Indices 1 2 3 4 5 6 
#
# 1 96.4942 16.8619 15.3106 6.8151 18.1826 -7.0751
# 2 16.8619 133.6221 7.3584 5.4850 9.9302 -2.7304
# 3 15.3106 7.3584 60.1254 -7.6260 -3.6908 7.2502
# 4 6.8151 5.4850 -7.6260 23.7700 -0.2148 -8.4497
# 5 18.1826 9.9302 -3.6908 -0.2148 30.4963 1.4995
# 6 -7.0751 -2.7304 7.2502 -8.4497 1.4995 12.1754
#
#
#
# Elastic Compliance Matrix: (Units=1/GPa)
#
#
# Indices 1 2 3 4 5 6 
#
# 1 0.014115 -0.000449 -0.005733 -0.001802 -0.009538 0.011439
# 2 -0.000449 0.007906 -0.001402 -0.001622 -0.002563 0.001537
# 3 -0.005733 -0.001402 0.020903 0.003590 0.007142 -0.014481
# 4 -0.001802 -0.001622 0.003590 0.056853 0.000676 0.035823
# 5 -0.009538 -0.002563 0.007142 0.000676 0.040916 -0.014940
# 6 0.011439 0.001537 -0.014481 0.035823 -0.014940 0.124448
#
#
# Mechanical properties :
#
#
# Convention : Reuss Voigt Hill
#
# Bulk Modulus (GPa) = 36.02650 41.03372 38.53011
# Shear Modulus (GPa) = 17.26752 30.00241 23.63496
#
# Velocity S-wave (km/s) = 2.79415 3.68309 3.26898
# Velocity P-wave (km/s) = 5.16707 6.05308 5.62754
#
# Compressibility (1/GPa) = 0.02775734
#
# Stress axis : x y z
#
# Youngs Moduli (GPa) = 70.84806 126.48434 47.83955
#
# Poissons Ratio (x) = 0.05678 0.27425
# Poissons Ratio (y) = 0.03180 0.06706
# Poissons Ratio (z) = 0.40616 0.17729
#
# Static dielectric constant tensor:
#      x y z
#    x 1.894730 0.020710 -0.029920 
#    y 0.020710 1.867040 -0.024120 
#    z -0.029920 -0.024120 1.867910 
# 
# From -- ./inp_files/363882.got.cif
#   From: 2010.05.17/outbox.cif.g08.bks.cpg/sg2_182_cif.got.tgz:363882.got - 2010.06.03 11:33:40.
