data_PCOD9011783
_publ_section_title
;
Structure prediction by ZEFSAII (Michael W. Deem and Ramdas Pophale) SiO2 
 PCOD9011783
Probable space group: P -1
;
_chemical_formula_sum "Si O2"
_cell_formula_units_Z 13
_cell_length_a 19.221504
_cell_length_b 11.800552
_cell_length_c 7.128799
_cell_angle_alpha 134.912645
_cell_angle_beta 145.418984
_cell_angle_gamma 32.412578
_cell_volume 491.607379
_symmetry_space_group_name_H-M "P -1"
_symmetry_group_IT_number 2
_symmetry_cell_setting 'triclinic'
loop_
_space_group_symop_operation_xyz
x,y,z
-x,-y,-z
loop_
_atom_site_type_symbol
_atom_site_label
_atom_site_fract_x
_atom_site_fract_y
_atom_site_fract_z
Si Si1 0.500000 0.000000 0.500000
Si Si2 0.094529 0.477606 0.439405
Si Si3 0.216057 0.423001 0.256573
Si Si4 0.665523 0.372654 0.467188
Si Si5 0.029290 0.078297 0.342292
Si Si6 0.354182 0.040846 0.617950
Si Si7 0.688332 0.298285 0.861191
O O1 0.337098 0.171831 0.212228
O O2 0.390783 0.010705 0.440722
O O3 0.216111 0.438804 0.501788
O O4 0.989217 0.723625 0.530483
O O5 0.203098 0.290478 0.607899
O O6 0.968976 0.453240 0.057648
O O7 0.281131 0.516290 0.395460
O O8 0.680453 0.389441 0.745299
O O9 0.474613 0.504446 0.165034
O O10 0.797393 0.121542 0.425739
O O11 0.864517 0.172985 0.199986
O O12 0.000000 0.000000 0.000000
O O13 0.330084 0.876211 0.423775
O O14 0.500000 0.000000 0.000000
#
# Coordination Sequence:
#
# PCOD9011783 Si02
#       7
#     1   2   2   2   2   2   2
#     4  10  22  42  66 102 136 174 228 298 352 410
#     4  10  24  43  70 101 140 186 237 299 351 420
#     4  10  21  45  70 100 138 185 241 293 356 417
#     4  10  21  40  67  92 136 185 222 285 348 422
#     4  10  23  42  63  96 142 183 229 284 357 423
#     4  11  24  42  72 101 137 184 237 299 347 418
#     4  10  22  42  64  98 140 178 234 289 348 428
#
# _framework density 26.443866
#
# number of rings (size 3 to 8) (size 9 to 14) (size 15 to 20)
#    0.000    1.846    1.538    0.923    6.462    3.077 
#    2.769    9.231    0.000    0.000    0.000    0.000 
#    0.000    0.000    0.000    0.000    0.000    0.000 
#
# Total GULP energy -72427.920371 kJ/mol
# GULP energy per Si atom -5571.378490 kJ/mol
# Density = 2.638368 g / cm^3
# Si number density = 26.443866 Si / 1000 Ang^3
#
#
#
# Elastic Constant Matrix: (Units=GPa)
#
#
# Indices 1 2 3 4 5 6 
#
# 1 167.3241 20.3902 30.0730 -0.9946 28.8786 25.6821
# 2 20.3902 191.8116 69.5535 -48.7420 24.9763 18.2431
# 3 30.0730 69.5535 71.5410 -15.7669 27.9459 6.8690
# 4 -0.9946 -48.7420 -15.7669 42.2396 -9.7504 12.4062
# 5 28.8786 24.9763 27.9459 -9.7504 38.7312 -4.4855
# 6 25.6821 18.2431 6.8690 12.4062 -4.4855 39.2627
#
#
#
# Elastic Compliance Matrix: (Units=1/GPa)
#
#
# Indices 1 2 3 4 5 6 
#
# 1 0.008336 0.001863 -0.001441 0.002517 -0.006626 -0.007619
# 2 0.001863 0.013104 -0.008913 0.014710 -0.000922 -0.010502
# 3 -0.001441 -0.008913 0.028284 -0.002910 -0.014386 -0.000588
# 4 0.002517 0.014710 -0.002910 0.046203 -0.000249 -0.022600
# 5 -0.006626 -0.000922 -0.014386 -0.000249 0.043094 0.012281
# 6 -0.007619 -0.010502 -0.000588 -0.022600 0.012281 0.043980
#
#
# Mechanical properties :
#
#
# Convention : Reuss Voigt Hill
#
# Bulk Modulus (GPa) = 30.54125 74.52336 52.53231
# Shear Modulus (GPa) = 23.70821 44.75736 34.23278
#
# Velocity S-wave (km/s) = 2.99749 4.11851 3.60188
# Velocity P-wave (km/s) = 4.85329 7.13156 6.09974
#
# Compressibility (1/GPa) = 0.03274260
#
# Stress axis : x y z
#
# Youngs Moduli (GPa) = 119.95636 76.31084 35.35515
#
# Poissons Ratio (x) = -0.14220 0.05096
# Poissons Ratio (y) = -0.22354 0.31513
# Poissons Ratio (z) = 0.17291 0.68018
#
# Static dielectric constant tensor:
#      x y z
#    x 2.226040 -0.237200 -0.010120 
#    y -0.237200 2.334720 0.003160 
#    z -0.010120 0.003160 2.061840 
# 
# From -- ./inp_files/345769.got.cif
#   From: 2010.05.17/outbox.cif.g08.bks.cpg/sg2_173_cif.got.tgz:345769.got - 2010.06.03 11:33:40.
