data_PCOD9011393
_publ_section_title
;
Structure prediction by ZEFSAII (Michael W. Deem and Ramdas Pophale) SiO2 
 PCOD9011393
Probable space group: P -1
;
_chemical_formula_sum "Si O2"
_cell_formula_units_Z 12
_cell_length_a 18.322701
_cell_length_b 17.617998
_cell_length_c 9.181902
_cell_angle_alpha 157.011038
_cell_angle_beta 142.231034
_cell_angle_gamma 26.575148
_cell_volume 508.652606
_symmetry_space_group_name_H-M "P -1"
_symmetry_group_IT_number 2
_symmetry_cell_setting 'triclinic'
loop_
_space_group_symop_operation_xyz
x,y,z
-x,-y,-z
loop_
_atom_site_type_symbol
_atom_site_label
_atom_site_fract_x
_atom_site_fract_y
_atom_site_fract_z
Si Si1 0.302880 0.379132 0.767794
Si Si2 0.595429 0.988794 0.960404
Si Si3 0.552498 0.248122 0.720608
Si Si4 0.991449 0.967598 0.255271
Si Si5 0.362109 0.526703 0.405449
Si Si6 0.127426 0.187310 0.691882
O O1 0.346927 0.121279 0.312129
O O2 0.453031 0.346111 0.887483
O O3 0.298653 0.428378 0.019075
O O4 0.131156 0.643182 0.887922
O O5 0.523843 0.860438 0.664293
O O6 0.750571 0.878228 0.103179
O O7 0.451096 0.311269 0.294304
O O8 0.749556 0.002033 0.582671
O O9 0.500000 0.500000 0.000000
O O10 0.797697 0.162442 0.260834
O O11 0.044875 0.088253 0.452467
O O12 0.000000 0.000000 0.500000
O O13 0.500000 0.500000 0.500000
O O14 0.000000 0.500000 0.000000
#
# Coordination Sequence:
#
# PCOD9011393 Si02
#       6
#     2   2   2   2   2   2
#     4   9  21  41  63  93 125 159 209 250 314 364
#     4  10  22  40  64  92 125 165 207 254 311 372
#     4  10  21  40  66  87 131 163 204 257 306 376
#     4  10  21  41  63  89 126 164 209 257 306 370
#     4  11  22  41  67  93 123 166 207 258 315 371
#     4  12  23  42  62  94 126 166 210 258 315 367
#
# _framework density 23.591739
#
# number of rings (size 3 to 8) (size 9 to 14) (size 15 to 20)
#    1.000    0.667    1.667    4.000    0.000    0.000 
#    3.000    5.833    0.000    0.000    0.000    0.000 
#    0.000    0.000    0.000    0.000    0.000    0.000 
#
# Total GULP energy -66987.870629 kJ/mol
# GULP energy per Si atom -5582.322552 kJ/mol
# Density = 2.353804 g / cm^3
# Si number density = 23.591739 Si / 1000 Ang^3
#
#
#
# Elastic Constant Matrix: (Units=GPa)
#
#
# Indices 1 2 3 4 5 6 
#
# 1 61.9120 32.6708 9.2457 5.4455 -2.2078 -9.5453
# 2 32.6708 159.5684 44.2912 44.7462 6.8869 -10.8489
# 3 9.2457 44.2912 61.4496 25.4383 3.5029 2.2065
# 4 5.4455 44.7462 25.4383 58.6087 2.1760 -4.4923
# 5 -2.2078 6.8869 3.5029 2.1760 43.9406 0.6955
# 6 -9.5453 -10.8489 2.2065 -4.4923 0.6955 48.8003
#
#
#
# Elastic Compliance Matrix: (Units=1/GPa)
#
#
# Indices 1 2 3 4 5 6 
#
# 1 0.018729 -0.003962 -0.000924 0.001858 0.001497 0.002974
# 2 -0.003962 0.009856 -0.004358 -0.005133 -0.001160 0.001157
# 3 -0.000924 -0.004358 0.022381 -0.006482 -0.000783 -0.002747
# 4 0.001858 -0.005133 -0.006482 0.023745 0.000212 0.001698
# 5 0.001497 -0.001160 -0.000783 0.000212 0.023071 -0.000239
# 6 0.002974 0.001157 -0.002747 0.001698 -0.000239 0.021615
#
#
# Mechanical properties :
#
#
# Convention : Reuss Voigt Hill
#
# Bulk Modulus (GPa) = 30.78975 50.59396 40.69186
# Shear Modulus (GPa) = 33.62278 43.38472 38.50375
#
# Velocity S-wave (km/s) = 3.77927 4.29298 4.04429
# Velocity P-wave (km/s) = 5.66774 6.78713 6.25253
#
# Compressibility (1/GPa) = 0.03247834
#
# Stress axis : x y z
#
# Youngs Moduli (GPa) = 53.39336 101.46131 44.68169
#
# Poissons Ratio (x) = 0.40195 0.04127
# Poissons Ratio (y) = 0.21152 0.19473
# Poissons Ratio (z) = 0.04932 0.44219
#
# Static dielectric constant tensor:
#      x y z
#    x 1.741530 0.424500 -0.288740 
#    y 0.424500 1.308590 0.227160 
#    z -0.288740 0.227160 1.816240 
# 
# From -- ./inp_files/150013.got.cif
#   From: 2010.05.17/outbox.cif.g08.bks.cpg/sg2_76_cif.got.tgz:150013.got - 2010.06.03 11:33:40.
