data_PCOD9011559
_publ_section_title
;
Structure prediction by ZEFSAII (Michael W. Deem and Ramdas Pophale) SiO2 
 PCOD9011559
Probable space group: P -1
;
_chemical_formula_sum "Si O2"
_cell_formula_units_Z 14
_cell_length_a 9.037726
_cell_length_b 8.619230
_cell_length_c 11.343501
_cell_angle_alpha 95.489603
_cell_angle_beta 80.176053
_cell_angle_gamma 135.492604
_cell_volume 609.915945
_symmetry_space_group_name_H-M "P -1"
_symmetry_group_IT_number 2
_symmetry_cell_setting 'triclinic'
loop_
_space_group_symop_operation_xyz
x,y,z
-x,-y,-z
loop_
_atom_site_type_symbol
_atom_site_label
_atom_site_fract_x
_atom_site_fract_y
_atom_site_fract_z
Si Si1 0.109404 0.723644 0.849765
Si Si2 0.161146 0.254083 0.526851
Si Si3 0.463548 0.105314 0.280322
Si Si4 0.258804 0.469054 0.274784
Si Si5 0.142594 0.704535 0.405177
Si Si6 0.650584 0.587886 0.254477
Si Si7 0.080901 0.766819 0.121872
O O1 0.330774 0.850874 0.763912
O O2 0.946083 0.705457 0.793296
O O3 0.001358 0.472206 0.863971
O O4 0.146539 0.821910 0.980296
O O5 0.231770 0.368323 0.398602
O O6 0.315351 0.311933 0.613249
O O7 0.040600 0.310366 0.610946
O O8 0.000000 0.000000 0.500000
O O9 0.543571 0.340721 0.276763
O O10 0.342038 0.970591 0.408928
O O11 0.283046 0.950900 0.191855
O O12 0.252645 0.648792 0.312155
O O13 0.481097 0.566801 0.204666
O O14 0.000000 0.500000 0.500000
O O15 0.875948 0.726225 0.169614
#
# Coordination Sequence:
#
# PCOD9011559 Si02
#       7
#     2   2   2   2   2   2   2
#     4  10  22  40  69 102 129 175 226 277 324 390
#     4  11  23  44  69  92 133 178 218 272 334 401
#     4  11  20  43  70  95 132 179 223 269 335 397
#     4  11  23  41  63 102 137 167 224 273 328 392
#     4  10  21  40  66  95 132 166 221 274 324 388
#     4  11  24  41  68  97 133 180 220 270 335 401
#     4  10  21  43  69  94 136 177 224 271 330 394
#
# _framework density 22.953983999999998
#
# number of rings (size 3 to 8) (size 9 to 14) (size 15 to 20)
#    0.000    1.429    2.857    2.571    0.000    1.714 
#    0.000   11.429    0.000    0.000    0.000    0.000 
#    0.000    0.000    0.000    0.000    0.000    0.000 
#
# Total GULP energy -78054.598842 kJ/mol
# GULP energy per Si atom -5575.328489 kJ/mol
# Density = 2.290174 g / cm^3
# Si number density = 22.953984 Si / 1000 Ang^3
#
#
#
# Elastic Constant Matrix: (Units=GPa)
#
#
# Indices 1 2 3 4 5 6 
#
# 1 150.5559 23.7410 34.5646 3.0823 -1.5493 36.0730
# 2 23.7410 97.3298 23.3973 13.8988 1.6873 16.9925
# 3 34.5646 23.3973 63.3443 8.9199 -0.4404 16.0483
# 4 3.0823 13.8988 8.9199 34.0200 7.3910 -0.4053
# 5 -1.5493 1.6873 -0.4404 7.3910 13.1573 8.6013
# 6 36.0730 16.9925 16.0483 -0.4053 8.6013 34.7496
#
#
#
# Elastic Compliance Matrix: (Units=1/GPa)
#
#
# Indices 1 2 3 4 5 6 
#
# 1 0.010273 0.000470 -0.002015 -0.003186 0.011226 -0.012780
# 2 0.000470 0.012756 -0.002148 -0.006245 0.006742 -0.007475
# 3 -0.002015 -0.002148 0.021093 -0.006913 0.010731 -0.009336
# 4 -0.003186 -0.006245 -0.006913 0.042045 -0.035779 0.018900
# 5 0.011226 0.006742 0.010731 -0.035779 0.131480 -0.052867
# 6 -0.012780 -0.007475 -0.009336 0.018900 -0.052867 0.063317
#
#
# Mechanical properties :
#
#
# Convention : Reuss Voigt Hill
#
# Bulk Modulus (GPa) = 27.22128 52.73733 39.97930
# Shear Modulus (GPa) = 16.63365 31.68717 24.16041
#
# Velocity S-wave (km/s) = 2.69486 3.71949 3.24784
# Velocity P-wave (km/s) = 4.64412 6.43982 5.61423
#
# Compressibility (1/GPa) = 0.03673597
#
# Stress axis : x y z
#
# Youngs Moduli (GPa) = 97.34024 78.39455 47.40918
#
# Poissons Ratio (x) = -0.03684 0.09553
# Poissons Ratio (y) = -0.04574 0.10184
# Poissons Ratio (z) = 0.19614 0.16839
#
# Static dielectric constant tensor:
#      x y z
#    x 1.888970 0.030280 -0.015800 
#    y 0.030280 1.934420 -0.041730 
#    z -0.015800 -0.041730 1.933660 
# 
# From -- ./inp_files/106443.got.cif
#   From: 2010.05.17/outbox.cif.g08.bks.cpg/sg2_54_cif.got.tgz:106443.got - 2010.06.03 11:33:40.
