data_PCOD9011056
_publ_section_title
;
Structure prediction by ZEFSAII (Michael W. Deem and Ramdas Pophale) SiO2 
 PCOD9011056
Probable space group: P -1
;
_chemical_formula_sum "Si O2"
_cell_formula_units_Z 16
_cell_length_a 8.397927
_cell_length_b 6.390715
_cell_length_c 17.224462
_cell_angle_alpha 100.767569
_cell_angle_beta 53.641866
_cell_angle_gamma 88.007823
_cell_volume 718.871580
_symmetry_space_group_name_H-M "P -1"
_symmetry_group_IT_number 2
_symmetry_cell_setting 'triclinic'
loop_
_space_group_symop_operation_xyz
x,y,z
-x,-y,-z
loop_
_atom_site_type_symbol
_atom_site_label
_atom_site_fract_x
_atom_site_fract_y
_atom_site_fract_z
Si Si1 0.859535 0.223728 0.699014
Si Si2 0.784278 0.130555 0.416998
Si Si3 0.486863 0.035267 0.777444
Si Si4 0.424749 0.220466 0.638881
Si Si5 0.672613 0.781488 0.927055
Si Si6 0.223048 0.382041 0.947892
Si Si7 0.555056 0.587418 0.784280
Si Si8 0.069743 0.582632 0.737459
O O1 0.674105 0.112040 0.774004
O O2 0.741477 0.408038 0.689795
O O3 0.957290 0.376825 0.739840
O O4 0.029344 0.030117 0.607970
O O5 0.615431 0.241437 0.532597
O O6 0.869354 0.301195 0.349730
O O7 0.682428 0.962139 0.383667
O O8 0.486075 0.122328 0.697582
O O9 0.278762 0.132092 0.887389
O O10 0.515688 0.781149 0.750578
O O11 0.274971 0.451371 0.705485
O O12 0.611662 0.682198 0.857423
O O13 0.914694 0.768724 0.840898
O O14 0.694175 0.632116 0.988463
O O15 0.500000 0.000000 0.000000
O O16 0.364561 0.489872 0.857969
O O17 0.000000 0.500000 0.000000
#
# Coordination Sequence:
#
# PCOD9011056 Si02
#       8
#     2   2   2   2   2   2   2   2
#     4   9  20  37  61  87 117 156 199 259 298 368
#     4  10  21  41  65  90 121 161 215 249 317 377
#     4  11  22  41  59  88 129 159 207 257 319 360
#     4  10  23  40  62  92 125 164 200 267 309 378
#     4  11  21  40  64  92 120 169 212 252 304 369
#     4  11  24  40  59  91 129 161 212 261 308 368
#     4  10  22  40  62  85 125 169 205 253 310 368
#     4  10  21  40  65  89 122 161 210 256 312 366
#
# _framework density 22.257104999999999
#
# number of rings (size 3 to 8) (size 9 to 14) (size 15 to 20)
#    0.000    1.750    1.250    3.000    1.750    4.000 
#    4.500    1.250    0.000    0.000    0.000    0.000 
#    0.000    0.000    0.000    0.000    0.000    0.000 
#
# Total GULP energy -89086.975070 kJ/mol
# GULP energy per Si atom -5567.935942 kJ/mol
# Density = 2.220645 g / cm^3
# Si number density = 22.257105 Si / 1000 Ang^3
#
#
#
# Elastic Constant Matrix: (Units=GPa)
#
#
# Indices 1 2 3 4 5 6 
#
# 1 74.6080 50.5086 52.2226 13.0121 -15.5199 -25.5411
# 2 50.5086 120.6205 44.0706 2.2261 -15.4919 -40.0200
# 3 52.2226 44.0706 109.0228 -1.0632 -19.2454 -23.8094
# 4 13.0121 2.2261 -1.0632 31.7349 -8.8435 -2.9113
# 5 -15.5199 -15.4919 -19.2454 -8.8435 35.5267 7.0405
# 6 -25.5411 -40.0200 -23.8094 -2.9113 7.0405 34.4034
#
#
#
# Elastic Compliance Matrix: (Units=1/GPa)
#
#
# Indices 1 2 3 4 5 6 
#
# 1 0.028553 -0.005949 -0.009883 -0.010881 0.000548 0.006405
# 2 -0.005949 0.015458 -0.000055 0.003208 0.002268 0.013334
# 3 -0.009883 -0.000055 0.015496 0.006240 0.005048 0.002818
# 4 -0.010881 0.003208 0.006240 0.038697 0.009396 0.001325
# 5 0.000548 0.002268 0.005048 0.009396 0.034391 0.000295
# 6 0.006405 0.013334 0.002818 0.001325 0.000295 0.051334
#
#
# Mechanical properties :
#
#
# Convention : Reuss Voigt Hill
#
# Bulk Modulus (GPa) = 36.05928 66.42831 51.24379
# Shear Modulus (GPa) = 22.22745 30.82961 26.52853
#
# Velocity S-wave (km/s) = 3.16360 3.72581 3.45615
# Velocity P-wave (km/s) = 5.43883 6.95842 6.24502
#
# Compressibility (1/GPa) = 0.02773212
#
# Stress axis : x y z
#
# Youngs Moduli (GPa) = 35.02307 64.69195 64.53259
#
# Poissons Ratio (x) = 0.38486 0.63776
# Poissons Ratio (y) = 0.20836 0.00357
# Poissons Ratio (z) = 0.34613 0.00358
#
# Static dielectric constant tensor:
#      x y z
#    x 1.931960 0.017470 -0.019020 
#    y 0.017470 1.872710 0.050030 
#    z -0.019020 0.050030 1.814070 
# 
# From -- ./inp_files/46592.got.cif
#   From: 2010.05.17/outbox.cif.g08.bks.cpg/sg2_24_cif.got.tgz:46592.got - 2010.06.03 11:33:40.
