data_PCOD9011269
_publ_section_title
;
Structure prediction by ZEFSAII (Michael W. Deem and Ramdas Pophale) SiO2 
 PCOD9011269
Probable space group: P -1
;
_chemical_formula_sum "Si O2"
_cell_formula_units_Z 16
_cell_length_a 13.359327
_cell_length_b 8.315567
_cell_length_c 18.779594
_cell_angle_alpha 133.778402
_cell_angle_beta 151.493636
_cell_angle_gamma 62.067547
_cell_volume 657.293540
_symmetry_space_group_name_H-M "P -1"
_symmetry_group_IT_number 2
_symmetry_cell_setting 'triclinic'
loop_
_space_group_symop_operation_xyz
x,y,z
-x,-y,-z
loop_
_atom_site_type_symbol
_atom_site_label
_atom_site_fract_x
_atom_site_fract_y
_atom_site_fract_z
Si Si1 0.901568 0.966149 0.199185
Si Si2 0.436531 0.190276 0.751038
Si Si3 0.773316 0.332049 0.489345
Si Si4 0.984682 0.066079 0.929874
Si Si5 0.776857 0.417074 0.904803
Si Si6 0.028451 0.878253 0.555085
Si Si7 0.630572 0.740759 0.501839
Si Si8 0.760568 0.210761 0.074929
O O1 0.755959 0.111369 0.120981
O O2 0.883906 0.957982 0.270662
O O3 0.162317 0.133838 0.387607
O O4 0.841885 0.701774 0.046721
O O5 0.633017 0.291678 0.847315
O O6 0.239217 0.289227 0.647888
O O7 0.313297 0.894808 0.581043
O O8 0.545031 0.232779 0.910767
O O9 0.611942 0.473768 0.428195
O O10 0.808717 0.250346 0.406758
O O11 0.024807 0.534461 0.726009
O O12 0.170783 0.987947 0.984425
O O13 0.739837 0.898141 0.688675
O O14 0.987842 0.334548 0.007435
O O15 0.000000 0.000000 0.000000
O O16 0.603430 0.297685 0.694330
O O17 0.000000 0.000000 0.500000
#
# Coordination Sequence:
#
# PCOD9011269 Si02
#       8
#     2   2   2   2   2   2   2   2
#     4  10  23  42  62  91 125 167 204 257 314 359
#     4  11  22  38  64  93 122 163 210 252 311 366
#     4   9  22  43  64  85 130 161 205 260 308 363
#     4  10  21  40  65  96 124 166 206 251 312 369
#     4  12  23  40  67  90 133 159 209 260 305 369
#     4  10  22  41  64  92 124 162 213 255 312 370
#     4  10  23  43  66  91 127 165 210 254 306 373
#     4  10  23  42  64  88 129 164 208 254 307 375
#
# _framework density 24.342244000000001
#
# number of rings (size 3 to 8) (size 9 to 14) (size 15 to 20)
#    0.000    2.000    2.500    1.125    3.500    4.500 
#    2.250    8.125    0.000    0.000    0.000    0.000 
#    0.000    0.000    0.000    0.000    0.000    0.000 
#
# Total GULP energy -89351.989195 kJ/mol
# GULP energy per Si atom -5584.499325 kJ/mol
# Density = 2.428684 g / cm^3
# Si number density = 24.342244 Si / 1000 Ang^3
#
#
#
# Elastic Constant Matrix: (Units=GPa)
#
#
# Indices 1 2 3 4 5 6 
#
# 1 57.7648 -0.5901 1.6880 1.5518 -11.8089 20.6175
# 2 -0.5901 81.8664 24.3326 0.4359 -6.2157 17.3963
# 3 1.6880 24.3326 90.9602 2.3560 -3.6607 20.1807
# 4 1.5518 0.4359 2.3560 52.6596 10.3773 -3.9501
# 5 -11.8089 -6.2157 -3.6607 10.3773 29.1112 -8.2419
# 6 20.6175 17.3963 20.1807 -3.9501 -8.2419 31.7131
#
#
#
# Elastic Compliance Matrix: (Units=1/GPa)
#
#
# Indices 1 2 3 4 5 6 
#
# 1 0.025910 0.003995 0.003203 -0.003910 0.007616 -0.019582
# 2 0.003995 0.014941 -0.001920 -0.001324 0.002466 -0.009096
# 3 0.003203 -0.001920 0.013682 -0.001499 0.000362 -0.009828
# 4 -0.003910 -0.001324 -0.001499 0.021166 -0.008269 0.004709
# 5 0.007616 0.002466 0.000362 -0.008269 0.041902 0.003326
# 6 -0.019582 -0.009096 -0.009828 0.004709 0.003326 0.056958
#
#
# Mechanical properties :
#
#
# Convention : Reuss Voigt Hill
#
# Bulk Modulus (GPa) = 15.36343 31.27247 23.31795
# Shear Modulus (GPa) = 26.92527 36.37415 31.64971
#
# Velocity S-wave (km/s) = 3.32944 3.86979 3.60974
# Velocity P-wave (km/s) = 4.59405 5.73078 5.19361
#
# Compressibility (1/GPa) = 0.06508963
#
# Stress axis : x y z
#
# Youngs Moduli (GPa) = 38.59528 66.92778 73.08957
#
# Poissons Ratio (x) = -0.26737 -0.23409
# Poissons Ratio (y) = -0.15419 0.14030
# Poissons Ratio (z) = -0.12361 0.12847
#
# Static dielectric constant tensor:
#      x y z
#    x 1.991200 -0.023150 0.010500 
#    y -0.023150 1.976740 -0.003150 
#    z 0.010500 -0.003150 1.996070 
# 
# From -- ./inp_files/572434.got.cif
#   From: 2010.05.17/outbox.cif.g08.bks.cpg/sg2_287_cif.got.tgz:572434.got - 2010.06.03 11:33:40.
