data_PCOD9011157
_publ_section_title
;
Structure prediction by ZEFSAII (Michael W. Deem and Ramdas Pophale) SiO2 
 PCOD9011157
Probable space group: P -1
;
_chemical_formula_sum "Si O2"
_cell_formula_units_Z 16
_cell_length_a 6.872229
_cell_length_b 15.394314
_cell_length_c 12.841032
_cell_angle_alpha 148.867951
_cell_angle_beta 102.992607
_cell_angle_gamma 76.138550
_cell_volume 681.375825
_symmetry_space_group_name_H-M "P -1"
_symmetry_group_IT_number 2
_symmetry_cell_setting 'triclinic'
loop_
_space_group_symop_operation_xyz
x,y,z
-x,-y,-z
loop_
_atom_site_type_symbol
_atom_site_label
_atom_site_fract_x
_atom_site_fract_y
_atom_site_fract_z
Si Si1 0.964834 0.647760 0.375645
Si Si2 0.200224 0.402442 0.469330
Si Si3 0.343922 0.041298 0.818165
Si Si4 0.278802 0.385430 0.075313
Si Si5 0.092752 0.106337 0.030250
Si Si6 0.263200 0.527344 0.004947
Si Si7 0.874100 0.132448 0.547791
Si Si8 0.333055 0.724086 0.895428
O O1 0.859671 0.663683 0.490993
O O2 0.187094 0.545144 0.295221
O O3 0.987861 0.808995 0.470803
O O4 0.838552 0.526483 0.166963
O O5 0.343167 0.554317 0.651374
O O6 0.000000 0.500000 0.500000
O O7 0.236018 0.240923 0.233371
O O8 0.320512 0.927296 0.597868
O O9 0.217798 0.217032 0.948547
O O10 0.554167 0.108431 0.944651
O O11 0.225832 0.982846 0.843015
O O12 0.206092 0.409670 0.974078
O O13 0.798803 0.286893 0.770406
O O14 0.899441 0.209602 0.058120
O O15 0.000000 0.000000 0.000000
O O16 0.521011 0.348481 0.067926
O O17 0.500000 0.500000 0.000000
O O18 0.000000 0.000000 0.500000
#
# Coordination Sequence:
#
# PCOD9011157 Si02
#       8
#     2   2   2   2   2   2   2   2
#     4  11  21  40  66  93 133 179 225 281 333 405
#     4  10  21  40  65  93 125 171 229 274 331 398
#     4  10  22  42  65  92 135 173 216 282 343 395
#     4   9  19  39  62  91 127 171 218 272 336 398
#     4  11  23  43  64  96 134 176 223 281 347 400
#     4  11  23  40  67  98 133 174 228 283 333 407
#     4  11  23  42  66  98 135 180 223 271 357 413
#     4   9  22  40  64  95 130 166 234 274 336 403
#
# _framework density 23.481901000000001
#
# number of rings (size 3 to 8) (size 9 to 14) (size 15 to 20)
#    0.750    1.000    0.000    6.000    0.000    2.000 
#   11.250    1.250    0.000    0.000    0.000    0.000 
#    0.000    0.000    0.000    0.000    0.000    0.000 
#
# Total GULP energy -89173.806490 kJ/mol
# GULP energy per Si atom -5573.362906 kJ/mol
# Density = 2.342846 g / cm^3
# Si number density = 23.481901 Si / 1000 Ang^3
#
#
#
# Elastic Constant Matrix: (Units=GPa)
#
#
# Indices 1 2 3 4 5 6 
#
# 1 74.0825 17.9811 34.4437 -9.7559 14.0773 3.2033
# 2 17.9811 65.3362 14.9569 -4.1891 3.5641 -3.3251
# 3 34.4437 14.9569 135.6822 -12.9285 19.4497 1.6585
# 4 -9.7559 -4.1891 -12.9285 30.4607 6.1436 3.4836
# 5 14.0773 3.5641 19.4497 6.1436 27.2404 2.2785
# 6 3.2033 -3.3251 1.6585 3.4836 2.2785 28.1301
#
#
#
# Elastic Compliance Matrix: (Units=1/GPa)
#
#
# Indices 1 2 3 4 5 6 
#
# 1 0.017993 -0.003686 -0.002342 0.006223 -0.008343 -0.002441
# 2 -0.003686 0.016672 -0.000898 0.000446 0.000065 0.002383
# 3 -0.002342 -0.000898 0.009404 0.004448 -0.006353 -0.000430
# 4 0.006223 0.000446 0.004448 0.040366 -0.015162 -0.004689
# 5 -0.008343 0.000065 -0.006353 -0.015162 0.049032 -0.000762
# 6 -0.002441 0.002383 -0.000430 -0.004689 -0.000762 0.036777
#
#
# Mechanical properties :
#
#
# Convention : Reuss Voigt Hill
#
# Bulk Modulus (GPa) = 33.09569 45.54048 39.31808
# Shear Modulus (GPa) = 25.75104 31.01420 28.38262
#
# Velocity S-wave (km/s) = 3.31514 3.63818 3.48041
# Velocity P-wave (km/s) = 5.36454 6.08970 5.73858
#
# Compressibility (1/GPa) = 0.03021542
#
# Stress axis : x y z
#
# Youngs Moduli (GPa) = 55.57851 59.98197 106.34179
#
# Poissons Ratio (x) = 0.22107 0.24910
# Poissons Ratio (y) = 0.20484 0.09551
# Poissons Ratio (z) = 0.13019 0.05387
#
# Static dielectric constant tensor:
#      x y z
#    x 1.892460 0.031260 0.043360 
#    y 0.031260 1.930360 0.019320 
#    z 0.043360 0.019320 1.950000 
# 
# From -- ./inp_files/397917.got.cif
#   From: 2010.05.17/outbox.cif.g08.bks.cpg/sg2_199_cif.got.tgz:397917.got - 2010.06.03 11:33:40.
