data_PCOD9011703
_publ_section_title
;
Structure prediction by ZEFSAII (Michael W. Deem and Ramdas Pophale) SiO2 
 PCOD9011703
Probable space group: P -1
;
_chemical_formula_sum "Si O2"
_cell_formula_units_Z 16
_cell_length_a 16.706080
_cell_length_b 10.341903
_cell_length_c 8.672267
_cell_angle_alpha 108.464387
_cell_angle_beta 100.164258
_cell_angle_gamma 25.048171
_cell_volume 578.497974
_symmetry_space_group_name_H-M "P -1"
_symmetry_group_IT_number 2
_symmetry_cell_setting 'triclinic'
loop_
_space_group_symop_operation_xyz
x,y,z
-x,-y,-z
loop_
_atom_site_type_symbol
_atom_site_label
_atom_site_fract_x
_atom_site_fract_y
_atom_site_fract_z
Si Si1 0.604957 0.016312 0.695980
Si Si2 0.914321 0.772306 0.216769
Si Si3 0.842587 0.643505 0.349657
Si Si4 0.413040 0.253056 0.305614
Si Si5 0.147479 0.645351 0.100632
Si Si6 0.844001 0.338940 0.255189
Si Si7 0.459732 0.681172 0.933341
Si Si8 0.315421 0.699286 0.438471
O O1 0.387040 0.334517 0.666580
O O2 0.755316 0.844969 0.553208
O O3 0.662555 0.772441 0.659574
O O4 0.578429 0.138040 0.890966
O O5 0.959636 0.562832 0.243205
O O6 0.069127 0.615681 0.106205
O O7 0.727895 0.040255 0.139804
O O8 0.861486 0.952306 0.409734
O O9 0.920145 0.376835 0.322874
O O10 0.642237 0.915653 0.289806
O O11 0.355379 0.337593 0.138828
O O12 0.315703 0.542613 0.432962
O O13 0.159018 0.658422 0.930930
O O14 0.987892 0.001706 0.236931
O O15 0.638251 0.385967 0.759784
O O16 0.500000 0.500000 0.000000
O O17 0.500000 0.500000 0.500000
#
# Coordination Sequence:
#
# PCOD9011703 Si02
#       8
#     2   2   2   2   2   2   2   2
#     4  11  25  44  76 105 136 188 251 296 344 411
#     4  11  25  43  70 103 144 189 232 291 362 425
#     4  11  24  47  74 101 140 188 243 298 344 416
#     4  11  23  43  74 103 133 187 242 291 344 426
#     4  11  26  44  72 108 146 191 227 293 365 433
#     4  10  24  45  71 101 154 182 233 292 366 418
#     4  11  22  38  69 100 140 181 240 295 339 417
#     4  10  21  40  67 101 139 177 240 291 349 406
#
# _framework density 27.657833
#
# number of rings (size 3 to 8) (size 9 to 14) (size 15 to 20)
#    0.000    1.250    2.500    3.750    7.000    3.500 
#    0.000    0.625    0.000    0.000    0.000    0.000 
#    0.000    0.000    0.000    0.000    0.000    0.000 
#
# Total GULP energy -89585.580646 kJ/mol
# GULP energy per Si atom -5599.098790 kJ/mol
# Density = 2.759488 g / cm^3
# Si number density = 27.657833 Si / 1000 Ang^3
#
#
#
# Elastic Constant Matrix: (Units=GPa)
#
#
# Indices 1 2 3 4 5 6 
#
# 1 110.5045 23.3525 66.3046 -2.4164 -10.5318 27.8225
# 2 23.3525 96.7750 59.8116 -16.7603 7.6476 3.9535
# 3 66.3046 59.8116 181.8883 -7.7804 -5.6166 23.8035
# 4 -2.4164 -16.7603 -7.7804 53.7402 8.7492 4.6980
# 5 -10.5318 7.6476 -5.6166 8.7492 60.1769 2.3422
# 6 27.8225 3.9535 23.8035 4.6980 2.3422 36.7427
#
#
#
# Elastic Compliance Matrix: (Units=1/GPa)
#
#
# Indices 1 2 3 4 5 6 
#
# 1 0.013646 -0.000968 -0.003511 0.000109 0.002484 -0.008127
# 2 -0.000968 0.014206 -0.004470 0.004082 -0.003054 0.001773
# 3 -0.003511 -0.004470 0.008585 -0.000239 0.000885 -0.002448
# 4 0.000109 0.004082 -0.000239 0.020651 -0.003416 -0.002790
# 5 0.002484 -0.003054 0.000885 -0.003416 0.018131 -0.002845
# 6 -0.008127 0.001773 -0.002448 -0.002790 -0.002845 0.035303
#
#
# Mechanical properties :
#
#
# Convention : Reuss Voigt Hill
#
# Bulk Modulus (GPa) = 53.94405 76.45612 65.20009
# Shear Modulus (GPa) = 37.14713 46.11192 41.62952
#
# Velocity S-wave (km/s) = 3.66880 4.08760 3.88385
# Velocity P-wave (km/s) = 6.12317 7.06976 6.61343
#
# Compressibility (1/GPa) = 0.01853773
#
# Stress axis : x y z
#
# Youngs Moduli (GPa) = 73.28177 70.39522 116.47903
#
# Poissons Ratio (x) = 0.06815 0.40898
# Poissons Ratio (y) = 0.07095 0.52068
# Poissons Ratio (z) = 0.25730 0.31468
#
# Static dielectric constant tensor:
#      x y z
#    x 2.184620 -0.029950 0.044710 
#    y -0.029950 2.140370 0.040970 
#    z 0.044710 0.040970 2.204680 
# 
# From -- ./inp_files/346236.got.cif
#   From: 2010.05.17/outbox.cif.g08.bks.cpg/sg2_174_cif.got.tgz:346236.got - 2010.06.03 11:33:40.
