data_PCOD9011172
_publ_section_title
;
Structure prediction by ZEFSAII (Michael W. Deem and Ramdas Pophale) SiO2 
 PCOD9011172
Probable space group: P -1
;
_chemical_formula_sum "Si O2"
_cell_formula_units_Z 14
_cell_length_a 12.842380
_cell_length_b 13.087379
_cell_length_c 7.062656
_cell_angle_alpha 90.196229
_cell_angle_beta 104.927954
_cell_angle_gamma 147.046612
_cell_volume 566.850308
_symmetry_space_group_name_H-M "P -1"
_symmetry_group_IT_number 2
_symmetry_cell_setting 'triclinic'
loop_
_space_group_symop_operation_xyz
x,y,z
-x,-y,-z
loop_
_atom_site_type_symbol
_atom_site_label
_atom_site_fract_x
_atom_site_fract_y
_atom_site_fract_z
Si Si1 0.773803 0.349485 0.485834
Si Si2 0.606236 0.629326 0.741193
Si Si3 0.990984 0.269366 0.213798
Si Si4 0.990358 0.034136 0.282767
Si Si5 0.531705 0.387733 0.988023
Si Si6 0.493432 0.862493 0.018618
Si Si7 0.189190 0.736316 0.137635
O O1 0.730200 0.225135 0.617653
O O2 0.000000 0.500000 0.500000
O O3 0.837504 0.507923 0.622275
O O4 0.587785 0.206824 0.239478
O O5 0.500000 0.500000 0.500000
O O6 0.631962 0.551721 0.891918
O O7 0.828472 0.867300 0.770692
O O8 0.429209 0.551692 0.773855
O O9 0.049457 0.201517 0.278122
O O10 0.748526 0.079344 0.189880
O O11 0.919029 0.244622 0.966297
O O12 0.731870 0.815601 0.124076
O O13 0.000000 0.000000 0.500000
O O14 0.579333 0.311720 0.952403
O O15 0.368496 0.846747 0.072789
O O16 0.000000 0.500000 0.000000
#
# Coordination Sequence:
#
# PCOD9011172 Si02
#       7
#     2   2   2   2   2   2   2
#     4  11  23  40  66  94 130 173 216 259 328 395
#     4  11  23  41  69  91 132 173 221 274 333 384
#     4  10  24  42  64  97 129 173 215 271 329 379
#     4  11  23  44  68  95 135 173 224 277 326 400
#     4  10  25  42  65 101 126 178 220 271 338 393
#     4  11  23  43  64  94 138 162 219 272 319 400
#     4  10  21  40  65  93 130 169 213 265 322 391
#
# _framework density 24.697876000000001
#
# number of rings (size 3 to 8) (size 9 to 14) (size 15 to 20)
#    0.000    1.429    4.286    0.857    6.000    0.571 
#    0.000    1.429    0.000    0.000    0.000    0.000 
#    0.000    0.000    0.000    0.000    0.000    0.000 
#
# Total GULP energy -78132.443933 kJ/mol
# GULP energy per Si atom -5580.888852 kJ/mol
# Density = 2.464166 g / cm^3
# Si number density = 24.697876 Si / 1000 Ang^3
#
#
#
# Elastic Constant Matrix: (Units=GPa)
#
#
# Indices 1 2 3 4 5 6 
#
# 1 73.6936 21.4826 24.6551 -14.7307 12.9560 -22.3417
# 2 21.4826 118.7589 47.9909 -14.8019 2.9173 3.3423
# 3 24.6551 47.9909 120.5624 -18.4561 4.9418 -2.8813
# 4 -14.7307 -14.8019 -18.4561 57.1695 -0.5635 0.9850
# 5 12.9560 2.9173 4.9418 -0.5635 29.2363 -6.9439
# 6 -22.3417 3.3423 -2.8813 0.9850 -6.9439 59.2865
#
#
#
# Elastic Compliance Matrix: (Units=1/GPa)
#
#
# Indices 1 2 3 4 5 6 
#
# 1 0.018506 -0.002135 -0.002016 0.003397 -0.006103 0.006225
# 2 -0.002135 0.010429 -0.003604 0.001015 0.000162 -0.001565
# 3 -0.002016 -0.003604 0.010452 0.001919 -0.000510 -0.000140
# 4 0.003397 0.001015 0.001919 0.019222 -0.001362 0.000837
# 5 -0.006103 0.000162 -0.000510 -0.001362 0.037445 0.002075
# 6 0.006225 -0.001565 -0.000140 0.000837 0.002075 0.019524
#
#
# Mechanical properties :
#
#
# Convention : Reuss Voigt Hill
#
# Bulk Modulus (GPa) = 41.87677 55.69690 48.78683
# Shear Modulus (GPa) = 35.95927 43.73088 39.84507
#
# Velocity S-wave (km/s) = 3.81985 4.21245 4.02095
# Velocity P-wave (km/s) = 6.03717 6.80147 6.43068
#
# Compressibility (1/GPa) = 0.02387959
#
# Stress axis : x y z
#
# Youngs Moduli (GPa) = 54.03746 95.88236 95.67108
#
# Poissons Ratio (x) = 0.20469 0.19284
# Poissons Ratio (y) = 0.11536 0.34476
# Poissons Ratio (z) = 0.10892 0.34552
#
# Static dielectric constant tensor:
#      x y z
#    x 2.071820 -0.093840 -0.104480 
#    y -0.093840 2.146480 0.003990 
#    z -0.104480 0.003990 2.152390 
# 
# From -- ./inp_files/98168.got.cif
#   From: 2010.05.17/outbox.cif.g08.bks.cpg/sg2_50_cif.got.tgz:98168.got - 2010.06.03 11:33:40.
