data_PCOD9011101
_publ_section_title
;
Structure prediction by ZEFSAII (Michael W. Deem and Ramdas Pophale) SiO2 
 PCOD9011101
Probable space group: P -1
;
_chemical_formula_sum "Si O2"
_cell_formula_units_Z 13
_cell_length_a 20.905324
_cell_length_b 7.250619
_cell_length_c 6.786051
_cell_angle_alpha 98.475161
_cell_angle_beta 94.691236
_cell_angle_gamma 145.267892
_cell_volume 540.759090
_symmetry_space_group_name_H-M "P -1"
_symmetry_group_IT_number 2
_symmetry_cell_setting 'triclinic'
loop_
_space_group_symop_operation_xyz
x,y,z
-x,-y,-z
loop_
_atom_site_type_symbol
_atom_site_label
_atom_site_fract_x
_atom_site_fract_y
_atom_site_fract_z
Si Si1 0.761175 0.275906 0.378154
Si Si2 0.661825 0.708186 0.987564
Si Si3 0.370187 0.116460 0.325049
Si Si4 0.000000 0.000000 0.000000
Si Si5 0.579752 0.015545 0.053731
Si Si6 0.002375 0.291010 0.674621
Si Si7 0.128603 0.998065 0.787000
O O1 0.699323 0.945956 0.203641
O O2 0.722068 0.178823 0.578882
O O3 0.899278 0.577964 0.415004
O O4 0.700279 0.300278 0.256639
O O5 0.518717 0.342088 0.900075
O O6 0.736296 0.707394 0.056095
O O7 0.692441 0.869939 0.809382
O O8 0.500000 0.500000 0.500000
O O9 0.394801 0.020434 0.152610
O O10 0.985159 0.128474 0.839926
O O11 0.075604 0.052407 0.877183
O O12 0.500000 0.000000 0.000000
O O13 0.057376 0.633279 0.779853
O O14 0.890581 0.047272 0.461232
#
# Coordination Sequence:
#
# PCOD9011101 Si02
#       7
#     2   2   2   1   2   2   2
#     4  10  21  41  66  90 127 169 214 260 315 387
#     4  10  21  40  65  91 129 168 211 266 316 382
#     4  11  19  40  66  91 119 176 216 248 317 391
#     4  12  24  44  70  98 130 172 224 272 330 382
#     4  11  23  37  60  96 135 159 206 269 318 375
#     4  10  24  45  69  96 132 174 220 271 324 391
#     4  10  24  44  67  97 133 173 216 273 328 389
#
# _framework density 24.040279999999999
#
# number of rings (size 3 to 8) (size 9 to 14) (size 15 to 20)
#    0.000    1.538    3.077    1.846    2.154    8.000 
#    0.000    0.000    0.000    0.000    0.000    0.000 
#    0.000    0.000    0.000    0.000    0.000    0.000 
#
# Total GULP energy -72464.933083 kJ/mol
# GULP energy per Si atom -5574.225622 kJ/mol
# Density = 2.398556 g / cm^3
# Si number density = 24.040280 Si / 1000 Ang^3
#
#
#
# Elastic Constant Matrix: (Units=GPa)
#
#
# Indices 1 2 3 4 5 6 
#
# 1 115.1512 3.7549 33.3193 -0.0524 31.5739 -0.9664
# 2 3.7549 61.6011 23.6855 1.4023 -4.8627 1.7573
# 3 33.3193 23.6855 129.1212 -35.0978 20.1389 3.0834
# 4 -0.0524 1.4023 -35.0978 42.5663 3.6309 9.3712
# 5 31.5739 -4.8627 20.1389 3.6309 39.6250 -8.1458
# 6 -0.9664 1.7573 3.0834 9.3712 -8.1458 25.3208
#
#
#
# Elastic Compliance Matrix: (Units=1/GPa)
#
#
# Indices 1 2 3 4 5 6 
#
# 1 0.011586 -0.000908 -0.001218 0.000373 -0.009265 -0.002465
# 2 -0.000908 0.019784 -0.007201 -0.008527 0.008707 0.005426
# 3 -0.001218 -0.007201 0.016270 0.017303 -0.012205 -0.011858
# 4 0.000373 -0.008527 0.017303 0.045052 -0.019277 -0.024376
# 5 -0.009265 0.008707 -0.012205 -0.019277 0.046294 0.022556
# 6 -0.002465 0.005426 -0.011858 -0.024376 0.022556 0.056744
#
#
# Mechanical properties :
#
#
# Convention : Reuss Voigt Hill
#
# Bulk Modulus (GPa) = 34.49681 47.48811 40.99246
# Shear Modulus (GPa) = 22.31695 37.84337 30.08016
#
# Velocity S-wave (km/s) = 3.05013 3.97188 3.54112
# Velocity P-wave (km/s) = 5.17544 6.38990 5.81447
#
# Compressibility (1/GPa) = 0.02898819
#
# Stress axis : x y z
#
# Youngs Moduli (GPa) = 86.30906 50.54579 61.46353
#
# Poissons Ratio (x) = 0.04587 0.07486
# Poissons Ratio (y) = 0.07833 0.44257
# Poissons Ratio (z) = 0.10512 0.36396
#
# Static dielectric constant tensor:
#      x y z
#    x 1.866170 -0.156260 0.071460 
#    y -0.156260 1.969440 -0.006920 
#    z 0.071460 -0.006920 1.890990 
# 
# From -- ./inp_files/115516.got.cif
#   From: 2010.05.17/outbox.cif.g08.bks.cpg/sg2_58_cif.got.tgz:115516.got - 2010.06.03 11:33:40.
