data_PCOD9011031
_publ_section_title
;
Structure prediction by ZEFSAII (Michael W. Deem and Ramdas Pophale) SiO2 
 PCOD9011031
Probable space group: P -1
;
_chemical_formula_sum "Si O2"
_cell_formula_units_Z 14
_cell_length_a 8.787112
_cell_length_b 11.708018
_cell_length_c 8.201110
_cell_angle_alpha 100.194791
_cell_angle_beta 87.571791
_cell_angle_gamma 40.828824
_cell_volume 522.147743
_symmetry_space_group_name_H-M "P -1"
_symmetry_group_IT_number 2
_symmetry_cell_setting 'triclinic'
loop_
_space_group_symop_operation_xyz
x,y,z
-x,-y,-z
loop_
_atom_site_type_symbol
_atom_site_label
_atom_site_fract_x
_atom_site_fract_y
_atom_site_fract_z
Si Si1 0.899215 0.574278 0.240430
Si Si2 0.990752 0.754109 0.829900
Si Si3 0.509932 0.958336 0.221857
Si Si4 0.203898 0.776730 0.122637
Si Si5 0.209025 0.804647 0.641071
Si Si6 0.631389 0.551369 0.820377
Si Si7 0.554039 0.132947 0.480792
O O1 0.921728 0.425341 0.179251
O O2 0.733392 0.684930 0.437376
O O3 0.153120 0.486815 0.217379
O O4 0.738353 0.737184 0.152844
O O5 0.117921 0.727638 0.651853
O O6 0.700182 0.923622 0.870557
O O7 0.082055 0.783383 0.976090
O O8 0.599954 0.033329 0.288771
O O9 0.376887 0.989251 0.401037
O O10 0.257828 0.643624 0.216666
O O11 0.461467 0.669994 0.017651
O O12 0.020674 0.984910 0.233557
O O13 0.445044 0.671374 0.711690
O O14 0.308189 0.826877 0.496646
#
# Coordination Sequence:
#
# PCOD9011031 Si02
#       7
#     2   2   2   2   2   2   2
#     4  10  22  40  62  95 123 157 207 258 299 374
#     4  11  23  38  63  95 127 158 209 253 315 350
#     4   9  21  41  62  93 124 159 203 259 302 369
#     4  10  24  43  62  93 121 168 210 248 306 374
#     4  11  23  42  64  90 126 169 202 254 302 378
#     4  10  21  40  65  86 121 165 204 250 309 353
#     4   9  21  44  64  91 124 163 210 239 324 364
#
# _framework density 26.812335000000001
#
# number of rings (size 3 to 8) (size 9 to 14) (size 15 to 20)
#    0.857    1.143    0.000    3.429    0.000    8.571 
#    0.000   10.000    0.000    0.000    0.000    0.000 
#    0.000    0.000    0.000    0.000    0.000    0.000 
#
# Total GULP energy -78393.399971 kJ/mol
# GULP energy per Si atom -5599.528569 kJ/mol
# Density = 2.675131 g / cm^3
# Si number density = 26.812335 Si / 1000 Ang^3
#
#
#
# Elastic Constant Matrix: (Units=GPa)
#
#
# Indices 1 2 3 4 5 6 
#
# 1 164.9044 61.6128 45.1761 13.8903 -24.8467 -23.4244
# 2 61.6128 174.4622 30.9331 -2.0263 7.5476 -22.2513
# 3 45.1761 30.9331 46.3911 12.8708 -15.4079 10.1419
# 4 13.8903 -2.0263 12.8708 24.4717 -14.5027 -6.6774
# 5 -24.8467 7.5476 -15.4079 -14.5027 36.5770 -8.4157
# 6 -23.4244 -22.2513 10.1419 -6.6774 -8.4157 41.6622
#
#
#
# Elastic Compliance Matrix: (Units=1/GPa)
#
#
# Indices 1 2 3 4 5 6 
#
# 1 0.013088 -0.000366 -0.015268 0.010519 0.010064 0.014598
# 2 -0.000366 0.008674 -0.009567 0.007153 -0.001483 0.007603
# 3 -0.015268 -0.009567 0.058389 -0.035971 -0.006094 -0.034904
# 4 0.010519 0.007153 -0.035971 0.084454 0.032900 0.038672
# 5 0.010064 -0.001483 -0.006094 0.032900 0.049956 0.021714
# 6 0.014598 0.007603 -0.034904 0.038672 0.021714 0.055352
#
#
# Mechanical properties :
#
#
# Convention : Reuss Voigt Hill
#
# Bulk Modulus (GPa) = 33.61384 73.46688 53.54036
# Shear Modulus (GPa) = 15.14093 37.07788 26.10941
#
# Velocity S-wave (km/s) = 2.37892 3.72273 3.12394
# Velocity P-wave (km/s) = 4.48437 6.77777 5.74664
#
# Compressibility (1/GPa) = 0.02974965
#
# Stress axis : x y z
#
# Youngs Moduli (GPa) = 76.40789 115.28245 17.12653
#
# Poissons Ratio (x) = 0.04222 0.26149
# Poissons Ratio (y) = 0.02798 0.16384
# Poissons Ratio (z) = 1.16658 1.10285
#
# Static dielectric constant tensor:
#      x y z
#    x 2.084000 0.029980 -0.020360 
#    y 0.029980 2.042240 -0.056030 
#    z -0.020360 -0.056030 2.283910 
# 
# From -- ./inp_files/387538.got.cif
#   From: 2010.05.17/outbox.cif.g08.bks.cpg/sg2_194_cif.got.tgz:387538.got - 2010.06.03 11:33:40.
