data_PCOD9011940
_publ_section_title
;
Structure prediction by ZEFSAII (Michael W. Deem and Ramdas Pophale) SiO2 
 PCOD9011940
Probable space group: P -1
;
_chemical_formula_sum "Si O2"
_cell_formula_units_Z 16
_cell_length_a 5.190458
_cell_length_b 20.782322
_cell_length_c 6.945700
_cell_angle_alpha 84.109205
_cell_angle_beta 105.272564
_cell_angle_gamma 64.726163
_cell_volume 633.405844
_symmetry_space_group_name_H-M "P -1"
_symmetry_group_IT_number 2
_symmetry_cell_setting 'triclinic'
loop_
_space_group_symop_operation_xyz
x,y,z
-x,-y,-z
loop_
_atom_site_type_symbol
_atom_site_label
_atom_site_fract_x
_atom_site_fract_y
_atom_site_fract_z
Si Si1 0.990216 0.408993 0.617984
Si Si2 0.569746 0.316941 0.012077
Si Si3 0.188087 0.044418 0.538291
Si Si4 0.800885 0.458517 0.951796
Si Si5 0.711229 0.636516 0.678582
Si Si6 0.751296 0.151467 0.123195
Si Si7 0.845882 0.279974 0.679048
Si Si8 0.767640 0.879109 0.108958
O O1 0.920290 0.341457 0.590044
O O2 0.100835 0.425198 0.430969
O O3 0.739349 0.457386 0.712841
O O4 0.286651 0.377629 0.819715
O O5 0.530147 0.353449 0.202644
O O6 0.565745 0.239888 0.073255
O O7 0.821367 0.291486 0.901793
O O8 0.269311 0.059967 0.762433
O O9 0.964748 0.119442 0.360287
O O10 0.500000 0.000000 0.500000
O O11 0.000000 0.000000 0.500000
O O12 0.006762 0.379793 0.120293
O O13 0.500000 0.500000 0.000000
O O14 0.000000 0.500000 0.000000
O O15 0.482315 0.703259 0.476589
O O16 0.525826 0.116951 0.055573
O O17 0.978061 0.129746 0.992492
O O18 0.096571 0.197535 0.721661
#
# Coordination Sequence:
#
# PCOD9011940 Si02
#       8
#     2   2   2   2   2   2   2   2
#     4  10  22  41  67  97 128 165 217 274 331 397
#     4   9  20  40  62  97 133 164 213 270 345 400
#     4  12  27  45  65  99 136 183 236 274 324 409
#     4  11  28  46  65  92 134 179 223 266 319 398
#     4  10  23  40  67  95 130 174 212 277 336 387
#     4  11  23  44  69  99 134 182 220 283 343 396
#     4  10  21  40  68 100 129 162 217 277 340 400
#     4  11  24  44  71 100 137 174 224 285 341 402
#
# _framework density 25.260269000000001
#
# number of rings (size 3 to 8) (size 9 to 14) (size 15 to 20)
#    0.000    1.500    1.250    2.250    7.000    5.000 
#    4.500    0.000    0.000    0.000    0.000    0.000 
#    0.000    0.000    0.000    0.000    0.000    0.000 
#
# Total GULP energy -89228.662037 kJ/mol
# GULP energy per Si atom -5576.791377 kJ/mol
# Density = 2.520278 g / cm^3
# Si number density = 25.260269 Si / 1000 Ang^3
#
#
#
# Elastic Constant Matrix: (Units=GPa)
#
#
# Indices 1 2 3 4 5 6 
#
# 1 129.1481 40.4407 23.1787 18.9775 -15.0056 -8.0896
# 2 40.4407 65.9768 35.1680 11.4245 -3.3867 -0.6757
# 3 23.1787 35.1680 155.5676 21.2961 -10.8774 -8.8717
# 4 18.9775 11.4245 21.2961 39.7950 -15.4169 -2.6063
# 5 -15.0056 -3.3867 -10.8774 -15.4169 45.1572 3.1002
# 6 -8.0896 -0.6757 -8.8717 -2.6063 3.1002 34.4402
#
#
#
# Elastic Compliance Matrix: (Units=1/GPa)
#
#
# Indices 1 2 3 4 5 6 
#
# 1 0.010266 -0.005960 0.000417 -0.002468 0.002083 0.002028
# 2 -0.005960 0.021093 -0.003848 -0.002009 -0.001877 -0.001960
# 3 0.000417 -0.003848 0.007776 -0.002904 0.000611 0.001751
# 4 -0.002468 -0.002009 -0.002904 0.032035 0.009251 0.000224
# 5 0.002083 -0.001877 0.000611 0.009251 0.026073 -0.001037
# 6 0.002028 -0.001960 0.001751 0.000224 -0.001037 0.030035
#
#
# Mechanical properties :
#
#
# Convention : Reuss Voigt Hill
#
# Bulk Modulus (GPa) = 49.13421 60.91857 55.02639
# Shear Modulus (GPa) = 32.71288 40.67214 36.69251
#
# Velocity S-wave (km/s) = 3.60256 4.01699 3.81540
# Velocity P-wave (km/s) = 6.06614 6.75897 6.42190
#
# Compressibility (1/GPa) = 0.02035242
#
# Stress axis : x y z
#
# Youngs Moduli (GPa) = 97.40745 47.40969 128.60063
#
# Poissons Ratio (x) = 0.28255 -0.05360
# Poissons Ratio (y) = 0.58053 0.49489
# Poissons Ratio (z) = -0.04060 0.18244
#
# Static dielectric constant tensor:
#      x y z
#    x 2.032030 0.000200 -0.033050 
#    y 0.000200 2.126220 -0.027570 
#    z -0.033050 -0.027570 2.025370 
# 
# From -- ./inp_files/13280.got.cif
#   From: 2010.05.17/outbox.cif.g08.bks.cpg/sg2_7_cif.got.tgz:13280.got - 2010.06.03 11:33:40.
