data_PCOD9011111
_publ_section_title
;
Structure prediction by ZEFSAII (Michael W. Deem and Ramdas Pophale) SiO2 
 PCOD9011111
Probable space group: P -1
;
_chemical_formula_sum "Si O2"
_cell_formula_units_Z 16
_cell_length_a 14.260001
_cell_length_b 8.728992
_cell_length_c 8.611967
_cell_angle_alpha 74.624484
_cell_angle_beta 41.994294
_cell_angle_gamma 87.615614
_cell_volume 671.165503
_symmetry_space_group_name_H-M "P -1"
_symmetry_group_IT_number 2
_symmetry_cell_setting 'triclinic'
loop_
_space_group_symop_operation_xyz
x,y,z
-x,-y,-z
loop_
_atom_site_type_symbol
_atom_site_label
_atom_site_fract_x
_atom_site_fract_y
_atom_site_fract_z
Si Si1 0.373735 0.201108 0.336208
Si Si2 0.377409 0.950678 0.995405
Si Si3 0.806278 0.119662 0.458482
Si Si4 0.847841 0.302193 0.853875
Si Si5 0.833704 0.657818 0.655655
Si Si6 0.849944 0.772241 0.955835
Si Si7 0.407277 0.126140 0.637323
Si Si8 0.165941 0.572410 0.822414
O O1 0.290622 0.315324 0.314752
O O2 0.433926 0.250527 0.422482
O O3 0.256248 0.025502 0.545914
O O4 0.500552 0.148366 0.097504
O O5 0.271076 0.948291 0.268749
O O6 0.275495 0.840151 0.023634
O O7 0.446577 0.122039 0.775856
O O8 0.768812 0.292504 0.420790
O O9 0.979204 0.162012 0.245981
O O10 0.830023 0.469035 0.747696
O O11 0.006637 0.276139 0.630923
O O12 0.829575 0.328392 0.050612
O O13 0.828252 0.746401 0.804229
O O14 0.761851 0.883244 0.121240
O O15 0.784740 0.591261 0.157484
O O16 0.500000 0.000000 0.500000
O O17 0.000000 0.500000 0.000000
#
# Coordination Sequence:
#
# PCOD9011111 Si02
#       8
#     2   2   2   2   2   2   2   2
#     4  11  25  39  62  93 128 175 219 264 312 385
#     4  11  23  42  63  89 135 173 210 265 324 377
#     4  11  22  38  65  98 128 170 215 270 317 377
#     4  10  21  40  65  91 135 167 206 270 322 374
#     4  10  22  39  64  97 124 167 218 263 319 383
#     4  10  21  40  65  95 128 169 212 267 326 381
#     4  10  24  42  61  89 132 172 208 267 322 377
#     4   9  21  38  63 102 130 160 209 269 322 377
#
# _framework density 23.839126
#
# number of rings (size 3 to 8) (size 9 to 14) (size 15 to 20)
#    0.000    1.750    1.250    1.875    7.000    3.000 
#    0.000    1.250    0.000   10.500    0.000    0.000 
#    0.000    0.000    0.000    0.000    0.000    0.000 
#
# Total GULP energy -89167.510576 kJ/mol
# GULP energy per Si atom -5572.969411 kJ/mol
# Density = 2.378487 g / cm^3
# Si number density = 23.839126 Si / 1000 Ang^3
#
#
#
# Elastic Constant Matrix: (Units=GPa)
#
#
# Indices 1 2 3 4 5 6 
#
# 1 85.4178 33.8322 3.8104 6.9244 4.6518 -19.8772
# 2 33.8322 68.7170 31.6099 10.6402 2.2558 -12.4257
# 3 3.8104 31.6099 66.4074 24.6746 2.2702 -21.9411
# 4 6.9244 10.6402 24.6746 39.5432 -12.7390 -5.5690
# 5 4.6518 2.2558 2.2702 -12.7390 27.9518 -0.2942
# 6 -19.8772 -12.4257 -21.9411 -5.5690 -0.2942 48.3996
#
#
#
# Elastic Compliance Matrix: (Units=1/GPa)
#
#
# Indices 1 2 3 4 5 6 
#
# 1 0.018346 -0.010651 0.009638 -0.007175 -0.006159 0.008306
# 2 -0.010651 0.024869 -0.014291 0.004479 0.002926 -0.003935
# 3 0.009638 -0.014291 0.034034 -0.021347 -0.012805 0.013184
# 4 -0.007175 0.004479 -0.021347 0.045247 0.023123 -0.006127
# 5 -0.006159 0.002926 -0.012805 0.023123 0.048094 -0.004630
# 6 0.008306 -0.003935 0.013184 -0.006127 -0.004630 0.028306
#
#
# Mechanical properties :
#
#
# Convention : Reuss Voigt Hill
#
# Bulk Modulus (GPa) = 21.44046 39.89416 30.66731
# Shear Modulus (GPa) = 20.40409 33.26489 26.83449
#
# Velocity S-wave (km/s) = 2.92876 3.73954 3.35871
# Velocity P-wave (km/s) = 4.52219 5.95119 5.28521
#
# Compressibility (1/GPa) = 0.04664078
#
# Stress axis : x y z
#
# Youngs Moduli (GPa) = 54.50884 40.21092 29.38278
#
# Poissons Ratio (x) = 0.42827 -0.28319
# Poissons Ratio (y) = 0.58055 0.41991
# Poissons Ratio (z) = -0.52535 0.57465
#
# Static dielectric constant tensor:
#      x y z
#    x 1.944260 -0.087210 0.129490 
#    y -0.087210 1.834860 0.058830 
#    z 0.129490 0.058830 1.820030 
# 
# From -- ./inp_files/297765.got.cif
#   From: 2010.05.17/outbox.cif.g08.bks.cpg/sg2_149_cif.got.tgz:297765.got - 2010.06.03 11:33:40.
