data_PCOD9011071
_publ_section_title
;
Structure prediction by ZEFSAII (Michael W. Deem and Ramdas Pophale) SiO2 
 PCOD9011071
Probable space group: P -1
;
_chemical_formula_sum "Si O2"
_cell_formula_units_Z 16
_cell_length_a 11.003644
_cell_length_b 11.624263
_cell_length_c 9.917370
_cell_angle_alpha 40.076194
_cell_angle_beta 83.313434
_cell_angle_gamma 62.065837
_cell_volume 652.953913
_symmetry_space_group_name_H-M "P -1"
_symmetry_group_IT_number 2
_symmetry_cell_setting 'triclinic'
loop_
_space_group_symop_operation_xyz
x,y,z
-x,-y,-z
loop_
_atom_site_type_symbol
_atom_site_label
_atom_site_fract_x
_atom_site_fract_y
_atom_site_fract_z
Si Si1 0.100313 0.555753 0.853253
Si Si2 0.617418 0.328109 0.743549
Si Si3 0.834995 0.040851 0.511020
Si Si4 0.623785 0.947553 0.189186
Si Si5 0.100445 0.977344 0.183045
Si Si6 0.615913 0.893911 0.705313
Si Si7 0.886878 0.620879 0.280536
Si Si8 0.238262 0.846930 0.870691
O O1 0.093185 0.519213 0.727513
O O2 0.007363 0.818216 0.658407
O O3 0.273874 0.374076 0.043883
O O4 0.000000 0.500000 0.000000
O O5 0.500000 0.500000 0.500000
O O6 0.579478 0.150610 0.917854
O O7 0.785455 0.210356 0.767655
O O8 0.636771 0.365287 0.864644
O O9 0.828254 0.118787 0.593067
O O10 0.732966 0.950971 0.619546
O O11 0.761346 0.189842 0.253795
O O12 0.485021 0.991677 0.250511
O O13 0.727584 0.973262 0.260457
O O14 0.725880 0.734927 0.274109
O O15 0.930151 0.053088 0.145602
O O16 0.099304 0.188723 0.952421
O O17 0.500000 0.000000 0.500000
O O18 0.000000 0.500000 0.500000
#
# Coordination Sequence:
#
# PCOD9011071 Si02
#       8
#     2   2   2   2   2   2   2   2
#     4  10  22  38  63  91 126 163 213 256 311 368
#     4   9  21  42  61  88 129 164 209 249 311 376
#     4  11  22  42  66  93 124 163 214 262 313 371
#     4   9  22  37  64  92 128 161 209 247 323 365
#     4  11  22  40  64  93 126 164 208 262 308 369
#     4  11  20  38  63  89 129 167 202 260 316 368
#     4  11  22  39  62  98 127 159 214 255 310 375
#     4  10  21  40  65  90 120 168 207 254 311 368
#
# _framework density 24.504027000000001
#
# number of rings (size 3 to 8) (size 9 to 14) (size 15 to 20)
#    0.750    1.000    3.750    1.500    1.750    1.500 
#    2.250    1.875    0.000    0.000    0.000    0.000 
#    0.000    0.000    0.000    0.000    0.000    0.000 
#
# Total GULP energy -89354.172042 kJ/mol
# GULP energy per Si atom -5584.635753 kJ/mol
# Density = 2.444826 g / cm^3
# Si number density = 24.504027 Si / 1000 Ang^3
#
#
#
# Elastic Constant Matrix: (Units=GPa)
#
#
# Indices 1 2 3 4 5 6 
#
# 1 35.9846 18.4550 35.2474 6.5996 25.2290 -2.3133
# 2 18.4550 110.8775 66.0175 27.2639 1.2416 -5.4639
# 3 35.2474 66.0175 204.5763 28.4778 30.4435 -0.1746
# 4 6.5996 27.2639 28.4778 39.8207 0.9215 -0.0685
# 5 25.2290 1.2416 30.4435 0.9215 38.1752 5.5078
# 6 -2.3133 -5.4639 -0.1746 -0.0685 5.5078 39.3869
#
#
#
# Elastic Compliance Matrix: (Units=1/GPa)
#
#
# Indices 1 2 3 4 5 6 
#
# 1 0.064001 -0.007970 -0.001842 -0.002853 -0.041722 0.008475
# 2 -0.007970 0.013721 -0.003373 -0.005836 0.007601 0.000347
# 3 -0.001842 -0.003373 0.007305 -0.002506 -0.004449 0.000074
# 4 -0.002853 -0.005836 -0.002506 0.031290 0.003525 -0.001427
# 5 -0.041722 0.007601 -0.004449 0.003525 0.058364 -0.009571
# 6 0.008475 0.000347 0.000074 -0.001427 -0.009571 0.027271
#
#
# Mechanical properties :
#
#
# Convention : Reuss Voigt Hill
#
# Bulk Modulus (GPa) = 17.04808 65.65312 41.35060
# Shear Modulus (GPa) = 20.17150 38.92446 29.54798
#
# Velocity S-wave (km/s) = 2.87224 3.98991 3.47629
# Velocity P-wave (km/s) = 4.23935 6.93375 5.74669
#
# Compressibility (1/GPa) = 0.05865762
#
# Stress axis : x y z
#
# Youngs Moduli (GPa) = 15.62476 72.88106 136.89221
#
# Poissons Ratio (x) = 0.58083 0.25216
# Poissons Ratio (y) = 0.12452 0.46175
# Poissons Ratio (z) = 0.02878 0.24584
#
# Static dielectric constant tensor:
#      x y z
#    x 2.040210 0.027910 -0.017200 
#    y 0.027910 1.933960 -0.049060 
#    z -0.017200 -0.049060 2.007630 
# 
# From -- ./inp_files/271829.got.cif
#   From: 2010.05.17/outbox.cif.g08.bks.cpg/sg2_136_cif.got.tgz:271829.got - 2010.06.03 11:33:40.
