data_PCOD9011693
_publ_section_title
;
Structure prediction by ZEFSAII (Michael W. Deem and Ramdas Pophale) SiO2 
 PCOD9011693
Probable space group: P -1
;
_chemical_formula_sum "Si O2"
_cell_formula_units_Z 14
_cell_length_a 19.360721
_cell_length_b 8.509658
_cell_length_c 5.603822
_cell_angle_alpha 83.258637
_cell_angle_beta 65.135802
_cell_angle_gamma 44.588944
_cell_volume 563.523850
_symmetry_space_group_name_H-M "P -1"
_symmetry_group_IT_number 2
_symmetry_cell_setting 'triclinic'
loop_
_space_group_symop_operation_xyz
x,y,z
-x,-y,-z
loop_
_atom_site_type_symbol
_atom_site_label
_atom_site_fract_x
_atom_site_fract_y
_atom_site_fract_z
Si Si1 0.667149 0.142046 0.394558
Si Si2 0.340781 0.662364 0.129577
Si Si3 0.097483 0.292444 0.655048
Si Si4 0.773586 0.696698 0.855736
Si Si5 0.874990 0.222580 0.545130
Si Si6 0.542186 0.111267 0.879377
Si Si7 0.915127 0.387958 0.086914
O O1 0.639485 0.282427 0.653864
O O2 0.592979 0.097701 0.556495
O O3 0.799702 0.911659 0.286229
O O4 0.647146 0.257595 0.150440
O O5 0.215848 0.776575 0.294246
O O6 0.435913 0.383048 0.037025
O O7 0.149562 0.270652 0.335366
O O8 0.051227 0.531051 0.781385
O O9 0.010501 0.282115 0.773979
O O10 0.813564 0.474969 0.699900
O O11 0.651594 0.941283 0.919808
O O12 0.796741 0.617216 0.106201
O O13 0.899197 0.239728 0.236282
O O14 0.000000 0.000000 0.500000
O O15 0.500000 0.000000 0.000000
#
# Coordination Sequence:
#
# PCOD9011693 Si02
#       7
#     2   2   2   2   2   2   2
#     4  11  27  47  76 106 146 188 243 295 368 425
#     4  12  27  50  71 109 147 194 236 299 363 428
#     4   9  21  40  67 101 140 186 229 302 353 440
#     4  10  22  41  68 100 134 185 244 295 354 430
#     4  11  25  41  66 101 142 187 240 296 361 429
#     4  11  24  50  74 104 142 190 245 300 353 429
#     4  10  21  40  67 100 138 185 245 287 363 422
#
# _framework density 24.843668000000001
#
# number of rings (size 3 to 8) (size 9 to 14) (size 15 to 20)
#    0.000    1.429    1.429    2.143    8.000    0.571 
#    5.143    3.571    0.000    0.000    0.000    0.000 
#    0.000    0.000    0.000    0.000    0.000    0.000 
#
# Total GULP energy -78197.647272 kJ/mol
# GULP energy per Si atom -5585.546234 kJ/mol
# Density = 2.478712 g / cm^3
# Si number density = 24.843668 Si / 1000 Ang^3
#
#
#
# Elastic Constant Matrix: (Units=GPa)
#
#
# Indices 1 2 3 4 5 6 
#
# 1 85.9063 37.5319 80.2354 -8.9358 -29.9354 5.8493
# 2 37.5319 165.2205 76.1292 -11.8447 -7.2663 -17.1792
# 3 80.2354 76.1292 155.0480 -33.5904 -27.1501 2.9287
# 4 -8.9358 -11.8447 -33.5904 56.3202 4.7301 -1.4758
# 5 -29.9354 -7.2663 -27.1501 4.7301 51.1219 4.2473
# 6 5.8493 -17.1792 2.9287 -1.4758 4.2473 41.2334
#
#
#
# Elastic Compliance Matrix: (Units=1/GPa)
#
#
# Indices 1 2 3 4 5 6 
#
# 1 0.027273 -0.000532 -0.013037 -0.004492 0.009746 -0.004329
# 2 -0.000532 0.008518 -0.004437 -0.000686 -0.001734 0.004093
# 3 -0.013037 -0.004437 0.016954 0.007071 0.000165 -0.000967
# 4 -0.004492 -0.000686 0.007071 0.021218 -0.000995 0.000711
# 5 0.009746 -0.001734 0.000165 -0.000995 0.025599 -0.004789
# 6 -0.004329 0.004093 -0.000967 0.000711 -0.004789 0.027159
#
#
# Mechanical properties :
#
#
# Convention : Reuss Voigt Hill
#
# Bulk Modulus (GPa) = 59.76090 88.21866 73.98978
# Shear Modulus (GPa) = 29.70700 43.88698 36.79699
#
# Velocity S-wave (km/s) = 3.46172 4.20757 3.85274
# Velocity P-wave (km/s) = 6.33128 7.69360 7.04544
#
# Compressibility (1/GPa) = 0.01673335
#
# Stress axis : x y z
#
# Youngs Moduli (GPa) = 36.66582 117.40158 58.98432
#
# Poissons Ratio (x) = 0.06244 0.76900
# Poissons Ratio (y) = 0.01950 0.26169
# Poissons Ratio (z) = 0.47802 0.52086
#
# Static dielectric constant tensor:
#      x y z
#    x 2.027160 0.046610 0.039240 
#    y 0.046610 2.021800 0.090210 
#    z 0.039240 0.090210 2.088970 
# 
# From -- ./inp_files/116785.got.cif
#   From: 2010.05.17/outbox.cif.g08.bks.cpg/sg2_59_cif.got.tgz:116785.got - 2010.06.03 11:33:40.
