data_PCOD9011203
_publ_section_title
;
Structure prediction by ZEFSAII (Michael W. Deem and Ramdas Pophale) SiO2 
 PCOD9011203
Probable space group: P -1
;
_chemical_formula_sum "Si O2"
_cell_formula_units_Z 16
_cell_length_a 11.818394
_cell_length_b 14.945028
_cell_length_c 15.901524
_cell_angle_alpha 34.822172
_cell_angle_beta 54.022583
_cell_angle_gamma 29.192797
_cell_volume 693.016655
_symmetry_space_group_name_H-M "P -1"
_symmetry_group_IT_number 2
_symmetry_cell_setting 'triclinic'
loop_
_space_group_symop_operation_xyz
x,y,z
-x,-y,-z
loop_
_atom_site_type_symbol
_atom_site_label
_atom_site_fract_x
_atom_site_fract_y
_atom_site_fract_z
Si Si1 0.147809 0.355506 0.636462
Si Si2 0.195628 0.769566 0.907315
Si Si3 0.281509 0.554015 0.374059
Si Si4 0.060386 0.762466 0.140379
Si Si5 0.221859 0.328373 0.795926
Si Si6 0.035980 0.850290 0.729206
Si Si7 0.304657 0.576167 0.654376
Si Si8 0.789744 0.779389 0.936592
O O1 0.334025 0.331845 0.560379
O O2 0.159009 0.156470 0.800218
O O3 0.027204 0.517472 0.655930
O O4 0.000000 0.500000 0.500000
O O5 0.169953 0.748133 0.838261
O O6 0.500000 0.500000 0.000000
O O7 0.010984 0.099259 0.746911
O O8 0.104893 0.724996 0.049864
O O9 0.462204 0.520139 0.359366
O O10 0.295779 0.516453 0.295274
O O11 0.000000 0.000000 0.000000
O O12 0.322999 0.398871 0.732230
O O13 0.491223 0.001995 0.891538
O O14 0.129877 0.324682 0.921226
O O15 0.809659 0.941022 0.777262
O O16 0.217391 0.615825 0.756174
O O17 0.917850 0.119272 0.534100
O O18 0.000000 0.500000 0.000000
#
# Coordination Sequence:
#
# PCOD9011203 Si02
#       8
#     2   2   2   2   2   2   2   2
#     4  10  21  40  65  95 126 167 221 270 326 400
#     4  11  22  39  61  91 127 170 220 273 329 391
#     4  10  21  40  65  94 128 171 224 269 334 402
#     4   9  20  39  64  89 124 166 214 267 329 399
#     4  11  23  41  71  95 135 179 220 272 341 396
#     4  11  23  40  64  97 134 168 224 279 329 399
#     4  11  23  41  68  97 130 179 219 275 337 401
#     4  11  23  42  61  99 132 172 221 275 332 392
#
# _framework density 23.087465999999999
#
# number of rings (size 3 to 8) (size 9 to 14) (size 15 to 20)
#    0.000    1.500    1.250    3.750    0.000    4.500 
#    6.750    0.625    0.000    0.000    0.000    0.000 
#    0.000    0.000    0.000    0.000    0.000    0.000 
#
# Total GULP energy -89076.996459 kJ/mol
# GULP energy per Si atom -5567.312279 kJ/mol
# Density = 2.303492 g / cm^3
# Si number density = 23.087466 Si / 1000 Ang^3
#
#
#
# Elastic Constant Matrix: (Units=GPa)
#
#
# Indices 1 2 3 4 5 6 
#
# 1 154.4221 39.8636 51.8625 16.2273 11.0109 4.9527
# 2 39.8636 106.7418 47.0760 22.6542 5.4484 15.5846
# 3 51.8625 47.0760 106.8578 42.1541 6.0978 9.6419
# 4 16.2273 22.6542 42.1541 48.1029 -0.3142 5.7227
# 5 11.0109 5.4484 6.0978 -0.3142 55.5924 18.2576
# 6 4.9527 15.5846 9.6419 5.7227 18.2576 30.6484
#
#
#
# Elastic Compliance Matrix: (Units=1/GPa)
#
#
# Indices 1 2 3 4 5 6 
#
# 1 0.008099 -0.001795 -0.003620 0.001106 -0.001493 0.001426
# 2 -0.001795 0.012737 -0.003748 -0.001442 0.001326 -0.005528
# 3 -0.003620 -0.003748 0.017806 -0.012593 -0.000859 -0.000248
# 4 0.001106 -0.001442 -0.012593 0.032508 0.002483 -0.003033
# 5 -0.001493 0.001326 -0.000859 0.002483 0.022960 -0.014304
# 6 0.001426 -0.005528 -0.000248 -0.003033 -0.014304 0.044374
#
#
# Mechanical properties :
#
#
# Convention : Reuss Voigt Hill
#
# Bulk Modulus (GPa) = 49.22138 71.73619 60.47879
# Shear Modulus (GPa) = 30.56566 42.15004 36.35785
#
# Velocity S-wave (km/s) = 3.64250 4.27742 3.97266
# Velocity P-wave (km/s) = 6.24950 7.45212 6.87714
#
# Compressibility (1/GPa) = 0.02031637
#
# Stress axis : x y z
#
# Youngs Moduli (GPa) = 123.46610 78.50947 56.16179
#
# Poissons Ratio (x) = 0.14092 0.20330
# Poissons Ratio (y) = 0.22162 0.21050
# Poissons Ratio (z) = 0.44694 0.29427
#
# Static dielectric constant tensor:
#      x y z
#    x 1.958380 -0.000650 0.066180 
#    y -0.000650 1.944120 -0.051980 
#    z 0.066180 -0.051980 2.048720 
# 
# From -- ./inp_files/522272.got.cif
#   From: 2010.05.17/outbox.cif.g08.bks.cpg/sg2_262_cif.got.tgz:522272.got - 2010.06.03 11:33:40.
