data_PCOD9011148
_publ_section_title
;
Structure prediction by ZEFSAII (Michael W. Deem and Ramdas Pophale) SiO2 
 PCOD9011148
Probable space group: P -1
;
_chemical_formula_sum "Si O2"
_cell_formula_units_Z 14
_cell_length_a 16.962431
_cell_length_b 4.946933
_cell_length_c 9.117772
_cell_angle_alpha 78.533643
_cell_angle_beta 46.888748
_cell_angle_gamma 86.265188
_cell_volume 544.709416
_symmetry_space_group_name_H-M "P -1"
_symmetry_group_IT_number 2
_symmetry_cell_setting 'triclinic'
loop_
_space_group_symop_operation_xyz
x,y,z
-x,-y,-z
loop_
_atom_site_type_symbol
_atom_site_label
_atom_site_fract_x
_atom_site_fract_y
_atom_site_fract_z
Si Si1 0.045083 0.861760 0.317526
Si Si2 0.933893 0.122002 0.197378
Si Si3 0.788527 0.571544 0.406893
Si Si4 0.533874 0.310184 0.114263
Si Si5 0.670097 0.826385 0.020862
Si Si6 0.600415 0.675393 0.437303
Si Si7 0.825501 0.541879 0.674755
O O1 0.028067 0.100377 0.200151
O O2 0.944356 0.625522 0.442730
O O3 0.151776 0.706128 0.217810
O O4 0.000000 0.000000 0.500000
O O5 0.826322 0.895723 0.358497
O O6 0.886823 0.413367 0.235955
O O7 0.000000 0.000000 0.000000
O O8 0.693545 0.519835 0.414414
O O9 0.757690 0.460903 0.622685
O O10 0.614371 0.523485 0.081063
O O11 0.447562 0.199643 0.364502
O O12 0.597789 0.049971 0.019441
O O13 0.500000 0.500000 0.000000
O O14 0.660680 0.850577 0.207401
O O15 0.781877 0.789867 0.796042
O O16 0.500000 0.500000 0.500000
#
# Coordination Sequence:
#
# PCOD9011148 Si02
#       7
#     2   2   2   2   2   2   2
#     4  10  21  40  65  92 140 176 219 289 332 404
#     4  11  25  42  66 100 139 176 230 279 345 410
#     4  11  24  43  67  97 134 187 221 284 344 412
#     4  11  24  44  69  97 132 173 221 288 342 403
#     4  11  25  41  68  98 129 174 226 279 341 412
#     4  10  25  47  70 101 143 178 237 292 350 404
#     4  10  23  40  64 100 131 179 231 272 346 411
#
# _framework density 25.701775000000001
#
# number of rings (size 3 to 8) (size 9 to 14) (size 15 to 20)
#    0.000    1.429    1.429    2.143    4.000    8.000 
#    0.000    0.000    0.000    0.000    0.000    0.000 
#    0.000    0.000    0.000    0.000    0.000    0.000 
#
# Total GULP energy -77970.725981 kJ/mol
# GULP energy per Si atom -5569.337570 kJ/mol
# Density = 2.564328 g / cm^3
# Si number density = 25.701775 Si / 1000 Ang^3
#
#
#
# Elastic Constant Matrix: (Units=GPa)
#
#
# Indices 1 2 3 4 5 6 
#
# 1 120.1665 34.6085 38.2159 6.1827 17.3906 -45.7495
# 2 34.6085 129.4903 27.3548 38.4562 -10.3763 -25.5507
# 3 38.2159 27.3548 136.8747 25.7153 8.6444 -25.4457
# 4 6.1827 38.4562 25.7153 39.1696 0.2771 -13.8023
# 5 17.3906 -10.3763 8.6444 0.2771 39.0461 1.0033
# 6 -45.7495 -25.5507 -25.4457 -13.8023 1.0033 50.9691
#
#
#
# Elastic Compliance Matrix: (Units=1/GPa)
#
#
# Indices 1 2 3 4 5 6 
#
# 1 0.016179 -0.004156 -0.002084 0.007768 -0.008255 0.013664
# 2 -0.004156 0.012715 0.000515 -0.012400 0.005218 -0.000560
# 3 -0.002084 0.000515 0.009184 -0.005688 -0.000965 0.001451
# 4 0.007768 -0.012400 -0.005688 0.043736 -0.006060 0.009880
# 5 -0.008255 0.005218 -0.000965 -0.006060 0.031124 -0.007529
# 6 0.013664 -0.000560 0.001451 0.009880 -0.007529 0.035152
#
#
# Mechanical properties :
#
#
# Convention : Reuss Voigt Hill
#
# Bulk Modulus (GPa) = 37.55579 65.20999 51.38289
# Shear Modulus (GPa) = 29.68827 44.92711 37.30769
#
# Velocity S-wave (km/s) = 3.40237 4.18546 3.81407
# Velocity P-wave (km/s) = 5.48441 6.98458 6.27945
#
# Compressibility (1/GPa) = 0.02662705
#
# Stress axis : x y z
#
# Youngs Moduli (GPa) = 61.80933 78.64957 108.88067
#
# Poissons Ratio (x) = 0.32688 0.22696
# Poissons Ratio (y) = 0.25689 -0.05610
# Poissons Ratio (z) = 0.12884 -0.04052
#
# Static dielectric constant tensor:
#      x y z
#    x 2.264510 0.014740 -0.188020 
#    y 0.014740 2.069170 -0.190830 
#    z -0.188020 -0.190830 2.295010 
# 
# From -- ./inp_files/286968.got.cif
#   From: 2010.05.17/outbox.cif.g08.bks.cpg/sg2_144_cif.got.tgz:286968.got - 2010.06.03 11:33:40.
