data_PCOD9011412
_publ_section_title
;
Structure prediction by ZEFSAII (Michael W. Deem and Ramdas Pophale) SiO2 
 PCOD9011412
Probable space group: P -1
;
_chemical_formula_sum "Si O2"
_cell_formula_units_Z 16
_cell_length_a 15.942476
_cell_length_b 8.692685
_cell_length_c 16.090845
_cell_angle_alpha 49.141037
_cell_angle_beta 154.855509
_cell_angle_gamma 128.413761
_cell_volume 713.663071
_symmetry_space_group_name_H-M "P -1"
_symmetry_group_IT_number 2
_symmetry_cell_setting 'triclinic'
loop_
_space_group_symop_operation_xyz
x,y,z
-x,-y,-z
loop_
_atom_site_type_symbol
_atom_site_label
_atom_site_fract_x
_atom_site_fract_y
_atom_site_fract_z
Si Si1 0.717727 0.337294 0.735817
Si Si2 0.550558 0.707479 0.652014
Si Si3 0.471125 0.197103 0.009220
Si Si4 0.470714 0.256078 0.791974
Si Si5 0.695128 0.747907 0.517808
Si Si6 0.955217 0.950161 0.882789
Si Si7 0.705860 0.163199 0.480413
Si Si8 0.230326 0.542345 0.711660
O O1 0.616866 0.298836 0.567773
O O2 0.808991 0.571813 0.725280
O O3 0.536766 0.321072 0.644073
O O4 0.869834 0.174094 0.949625
O O5 0.576587 0.480957 0.790081
O O6 0.749574 0.806889 0.754107
O O7 0.472634 0.835361 0.614163
O O8 0.686747 0.301435 0.196559
O O9 0.439999 0.954314 0.080865
O O10 0.438094 0.231040 0.869595
O O11 0.322711 0.327669 0.880729
O O12 0.282720 0.251958 0.561709
O O13 0.721753 0.969177 0.503579
O O14 0.905201 0.152145 0.717282
O O15 0.000000 0.000000 0.000000
O O16 0.687703 0.351364 0.337516
O O17 0.000000 0.500000 0.500000
#
# Coordination Sequence:
#
# PCOD9011412 Si02
#       8
#     2   2   2   2   2   2   2   2
#     4  10  22  42  60  93 132 170 214 258 314 391
#     4  11  22  42  65  94 133 169 213 271 320 375
#     4  10  22  46  69  93 127 165 219 272 323 385
#     4  10  21  41  71  93 124 177 211 261 330 378
#     4  10  21  40  66  89 135 173 204 266 323 374
#     4  12  24  38  65  98 130 172 220 259 317 391
#     4  12  22  42  64  94 130 171 214 268 321 379
#     4  11  25  45  69  98 127 164 219 276 322 380
#
# _framework density 22.419543999999998
#
# number of rings (size 3 to 8) (size 9 to 14) (size 15 to 20)
#    0.000    1.250    5.000    1.125    0.000    2.500 
#    2.250    2.500    0.000    0.000    0.000    0.000 
#    0.000    0.000    0.000    0.000    0.000    0.000 
#
# Total GULP energy -89252.429296 kJ/mol
# GULP energy per Si atom -5578.276831 kJ/mol
# Density = 2.236852 g / cm^3
# Si number density = 22.419544 Si / 1000 Ang^3
#
#
#
# Elastic Constant Matrix: (Units=GPa)
#
#
# Indices 1 2 3 4 5 6 
#
# 1 67.2852 -3.8245 10.6299 6.5196 -24.7040 -9.3199
# 2 -3.8245 101.3918 16.9291 -21.3172 -4.3224 -14.6979
# 3 10.6299 16.9291 72.0435 -7.7515 -7.5663 -8.0500
# 4 6.5196 -21.3172 -7.7515 41.0204 -3.4487 -7.5770
# 5 -24.7040 -4.3224 -7.5663 -3.4487 38.0122 -2.1540
# 6 -9.3199 -14.6979 -8.0500 -7.5770 -2.1540 28.2683
#
#
#
# Elastic Compliance Matrix: (Units=1/GPa)
#
#
# Indices 1 2 3 4 5 6 
#
# 1 0.022133 0.003416 -0.001200 0.001197 0.015221 0.010212
# 2 0.003416 0.013796 -0.001073 0.008826 0.004985 0.010739
# 3 -0.001200 -0.001073 0.015516 0.003660 0.002783 0.004658
# 4 0.001197 0.008826 0.003660 0.032829 0.006356 0.015310
# 5 0.015221 0.004985 0.002783 0.006356 0.038636 0.013050
# 6 0.010212 0.010739 0.004658 0.015310 0.013050 0.050750
#
#
# Mechanical properties :
#
#
# Convention : Reuss Voigt Hill
#
# Bulk Modulus (GPa) = 18.61110 32.02106 25.31608
# Shear Modulus (GPa) = 26.41544 35.92593 31.17069
#
# Velocity S-wave (km/s) = 3.43626 4.00739 3.73277
# Velocity P-wave (km/s) = 4.90542 5.97711 5.46759
#
# Compressibility (1/GPa) = 0.05373137
#
# Stress axis : x y z
#
# Youngs Moduli (GPa) = 45.18185 72.48642 64.44920
#
# Poissons Ratio (x) = -0.24762 0.07734
# Poissons Ratio (y) = -0.15434 0.06913
# Poissons Ratio (z) = 0.05422 0.07775
#
# Static dielectric constant tensor:
#      x y z
#    x 1.838030 -0.030230 -0.038790 
#    y -0.030230 1.899590 0.001870 
#    z -0.038790 0.001870 1.880820 
# 
# From -- ./inp_files/514114.got.cif
#   From: 2010.05.17/outbox.cif.g08.bks.cpg/sg2_258_cif.got.tgz:514114.got - 2010.06.03 11:33:40.
