data_PCOD9011262
_publ_section_title
;
Structure prediction by ZEFSAII (Michael W. Deem and Ramdas Pophale) SiO2 
 PCOD9011262
Probable space group: P -1
;
_chemical_formula_sum "Si O2"
_cell_formula_units_Z 16
_cell_length_a 14.049343
_cell_length_b 23.191330
_cell_length_c 25.676668
_cell_angle_alpha 169.853517
_cell_angle_beta 152.052858
_cell_angle_gamma 29.291528
_cell_volume 690.373612
_symmetry_space_group_name_H-M "P -1"
_symmetry_group_IT_number 2
_symmetry_cell_setting 'triclinic'
loop_
_space_group_symop_operation_xyz
x,y,z
-x,-y,-z
loop_
_atom_site_type_symbol
_atom_site_label
_atom_site_fract_x
_atom_site_fract_y
_atom_site_fract_z
Si Si1 0.641263 0.777925 0.708681
Si Si2 0.306777 0.907098 0.289791
Si Si3 0.081353 0.625669 0.206126
Si Si4 0.764368 0.598311 0.112120
Si Si5 0.435377 0.477870 0.660073
Si Si6 0.683042 0.525110 0.653226
Si Si7 0.884560 0.215945 0.386867
Si Si8 0.491104 0.811010 0.454458
O O1 0.661835 0.754140 0.635702
O O2 0.420116 0.636181 0.490475
O O3 0.799853 0.531307 0.594296
O O4 0.641655 0.151763 0.058790
O O5 0.500000 0.000000 0.500000
O O6 0.371092 0.943673 0.293716
O O7 0.245649 0.565972 0.982184
O O8 0.115033 0.143173 0.418555
O O9 0.320628 0.548747 0.253049
O O10 0.972676 0.506603 0.101020
O O11 0.000000 0.000000 0.500000
O O12 0.000000 0.500000 0.000000
O O13 0.698105 0.973772 0.422602
O O14 0.595754 0.450059 0.860084
O O15 0.398051 0.365717 0.601163
O O16 0.500000 0.500000 0.500000
O O17 0.855567 0.304384 0.512233
O O18 0.755247 0.893321 0.024029
#
# Coordination Sequence:
#
# PCOD9011262 Si02
#       8
#     2   2   2   2   2   2   2   2
#     4  11  23  39  64  97 133 171 217 259 334 404
#     4  10  26  46  70  97 128 176 233 280 328 384
#     4  12  22  39  61  96 134 168 211 266 333 398
#     4  11  22  41  65  92 128 169 216 266 340 386
#     4  12  23  39  63  95 134 175 209 268 327 398
#     4  10  21  40  65  95 135 171 212 269 333 391
#     4  11  23  44  67  97 135 175 219 280 329 390
#     4  11  23  44  62  89 131 170 218 277 316 381
#
# _framework density 23.175856
#
# number of rings (size 3 to 8) (size 9 to 14) (size 15 to 20)
#    0.000    1.000    2.500    5.625    3.500    4.000 
#    0.000    1.250    0.000    0.000    0.000    0.000 
#    0.000    0.000    0.000    0.000    0.000    0.000 
#
# Total GULP energy -89482.847394 kJ/mol
# GULP energy per Si atom -5592.677962 kJ/mol
# Density = 2.312311 g / cm^3
# Si number density = 23.175856 Si / 1000 Ang^3
#
#
#
# Elastic Constant Matrix: (Units=GPa)
#
#
# Indices 1 2 3 4 5 6 
#
# 1 113.7944 24.5547 23.6747 12.2728 10.9596 2.9273
# 2 24.5547 69.4497 18.9410 10.6030 -4.9937 -10.1390
# 3 23.6747 18.9410 96.6697 13.1471 -20.4674 -1.3989
# 4 12.2728 10.6030 13.1471 33.0477 0.8217 -4.6897
# 5 10.9596 -4.9937 -20.4674 0.8217 40.4941 10.4018
# 6 2.9273 -10.1390 -1.3989 -4.6897 10.4018 33.8546
#
#
#
# Elastic Compliance Matrix: (Units=1/GPa)
#
#
# Indices 1 2 3 4 5 6 
#
# 1 0.010683 -0.003208 -0.002666 -0.001900 -0.004360 -0.000918
# 2 -0.003208 0.017258 -0.001947 -0.002927 0.000866 0.004694
# 3 -0.002666 -0.001947 0.013687 -0.004452 0.008244 -0.002937
# 4 -0.001900 -0.002927 -0.004452 0.034508 -0.004120 0.005150
# 5 -0.004360 0.000866 0.008244 -0.004120 0.032710 -0.009644
# 6 -0.000918 0.004694 -0.002937 0.005150 -0.009644 0.034578
#
#
# Mechanical properties :
#
#
# Convention : Reuss Voigt Hill
#
# Bulk Modulus (GPa) = 38.47845 46.02829 42.25337
# Shear Modulus (GPa) = 29.81029 35.66217 32.73623
#
# Velocity S-wave (km/s) = 3.59034 3.92696 3.76242
# Velocity P-wave (km/s) = 5.81604 6.36121 6.09472
#
# Compressibility (1/GPa) = 0.02598857
#
# Stress axis : x y z
#
# Youngs Moduli (GPa) = 93.60740 57.94320 73.06037
#
# Poissons Ratio (x) = 0.18585 0.19477
# Poissons Ratio (y) = 0.30025 0.14222
# Poissons Ratio (z) = 0.24954 0.11279
#
# Static dielectric constant tensor:
#      x y z
#    x 1.956720 0.001730 0.040450 
#    y 0.001730 1.875980 -0.003710 
#    z 0.040450 -0.003710 1.862820 
# 
# From -- ./inp_files/619924.got.cif
#   From: 2010.05.17/outbox.cif.g08.bks.cpg/sg2_310_cif.got.tgz:619924.got - 2010.06.03 11:33:40.
