data_PCOD9011925
_publ_section_title
;
Structure prediction by ZEFSAII (Michael W. Deem and Ramdas Pophale) SiO2 
 PCOD9011925
Probable space group: P -1
;
_chemical_formula_sum "Si O2"
_cell_formula_units_Z 16
_cell_length_a 6.544130
_cell_length_b 9.103745
_cell_length_c 20.395036
_cell_angle_alpha 118.944396
_cell_angle_beta 100.345045
_cell_angle_gamma 47.677262
_cell_volume 765.798481
_symmetry_space_group_name_H-M "P -1"
_symmetry_group_IT_number 2
_symmetry_cell_setting 'triclinic'
loop_
_space_group_symop_operation_xyz
x,y,z
-x,-y,-z
loop_
_atom_site_type_symbol
_atom_site_label
_atom_site_fract_x
_atom_site_fract_y
_atom_site_fract_z
Si Si1 0.303306 0.399879 0.293809
Si Si2 0.409699 0.120748 0.832281
Si Si3 0.311690 0.634030 0.583305
Si Si4 0.795664 0.455045 0.821738
Si Si5 0.665257 0.002461 0.066823
Si Si6 0.798056 0.637633 0.410868
Si Si7 0.138854 0.027803 0.454656
Si Si8 0.279004 0.714100 0.083421
O O1 0.495033 0.392460 0.355641
O O2 0.255013 0.546052 0.259351
O O3 0.001758 0.523918 0.335911
O O4 0.454370 0.134957 0.233710
O O5 0.312971 0.145465 0.906364
O O6 0.624258 0.155879 0.858512
O O7 0.129250 0.319862 0.817628
O O8 0.500000 0.500000 0.500000
O O9 0.166846 0.543651 0.580740
O O10 0.058618 0.893023 0.601917
O O11 0.755107 0.361375 0.864026
O O12 0.552618 0.728307 0.874365
O O13 0.988767 0.888384 0.061575
O O14 0.500000 0.000000 0.000000
O O15 0.864507 0.774674 0.481555
O O16 0.465246 0.813128 0.413657
O O17 0.000000 0.000000 0.500000
O O18 0.500000 0.500000 0.000000
#
# Coordination Sequence:
#
# PCOD9011925 Si02
#       8
#     2   2   2   2   2   2   2   2
#     4  11  26  44  65  94 134 183 221 279 349 401
#     4  10  24  43  63  93 137 176 219 271 334 406
#     4  12  24  44  68  94 131 169 227 288 337 405
#     4  10  24  44  62  92 140 172 222 273 333 401
#     4  10  21  40  67  99 132 171 216 273 326 390
#     4  11  24  41  69  95 127 173 223 278 348 400
#     4  11  23  42  67  99 129 163 223 293 333 403
#     4  11  23  41  72 103 132 178 227 273 327 394
#
# _framework density 20.893224
#
# number of rings (size 3 to 8) (size 9 to 14) (size 15 to 20)
#    0.000    1.250    2.500    1.875    0.000   13.000 
#    0.000    0.000    0.000    0.000    0.000    0.000 
#    0.000    0.000    0.000    0.000    0.000    0.000 
#
# Total GULP energy -89154.366224 kJ/mol
# GULP energy per Si atom -5572.147889 kJ/mol
# Density = 2.084567 g / cm^3
# Si number density = 20.893224 Si / 1000 Ang^3
#
#
#
# Elastic Constant Matrix: (Units=GPa)
#
#
# Indices 1 2 3 4 5 6 
#
# 1 123.4484 55.5973 49.4056 -11.1966 9.8019 -5.9611
# 2 55.5973 143.4574 49.6749 -20.5931 10.5932 -31.5119
# 3 49.4056 49.6749 91.8178 -22.2262 7.8340 -10.2925
# 4 -11.1966 -20.5931 -22.2262 37.8671 -6.4185 1.9136
# 5 9.8019 10.5932 7.8340 -6.4185 30.2828 -1.4440
# 6 -5.9611 -31.5119 -10.2925 1.9136 -1.4440 49.0604
#
#
#
# Elastic Compliance Matrix: (Units=1/GPa)
#
#
# Indices 1 2 3 4 5 6 
#
# 1 0.011378 -0.003197 -0.004768 -0.001377 -0.001703 -0.001668
# 2 -0.003197 0.010968 -0.002743 0.002907 -0.001193 0.005932
# 3 -0.004768 -0.002743 0.016717 0.006809 -0.000336 0.000890
# 4 -0.001377 0.002907 0.006809 0.032257 0.004600 0.002006
# 5 -0.001703 -0.001193 -0.000336 0.004600 0.035043 -0.000192
# 6 -0.001668 0.005932 0.000890 0.002006 -0.000192 0.024094
#
#
# Mechanical properties :
#
#
# Convention : Reuss Voigt Hill
#
# Bulk Modulus (GPa) = 56.66380 74.23102 65.44741
# Shear Modulus (GPa) = 31.69446 37.04514 34.36980
#
# Velocity S-wave (km/s) = 3.89906 4.21535 4.06029
# Velocity P-wave (km/s) = 6.88838 7.70053 7.30575
#
# Compressibility (1/GPa) = 0.01764795
#
# Stress axis : x y z
#
# Youngs Moduli (GPa) = 87.88666 91.17309 59.81791
#
# Poissons Ratio (x) = 0.29148 0.28520
# Poissons Ratio (y) = 0.28097 0.16409
# Poissons Ratio (z) = 0.41903 0.25010
#
# Static dielectric constant tensor:
#      x y z
#    x 1.814210 -0.055770 -0.020570 
#    y -0.055770 1.779600 -0.037270 
#    z -0.020570 -0.037270 1.784380 
# 
# From -- ./inp_files/582514.got.cif
#   From: 2010.05.17/outbox.cif.g08.bks.cpg/sg2_292_cif.got.tgz:582514.got - 2010.06.03 11:33:40.
