data_PCOD9011787
_publ_section_title
;
Structure prediction by ZEFSAII (Michael W. Deem and Ramdas Pophale) SiO2 
 PCOD9011787
Probable space group: P -1
;
_chemical_formula_sum "Si O2"
_cell_formula_units_Z 12
_cell_length_a 7.516418
_cell_length_b 9.220916
_cell_length_c 16.337121
_cell_angle_alpha 39.558361
_cell_angle_beta 126.946407
_cell_angle_gamma 110.310976
_cell_volume 561.072289
_symmetry_space_group_name_H-M "P -1"
_symmetry_group_IT_number 2
_symmetry_cell_setting 'triclinic'
loop_
_space_group_symop_operation_xyz
x,y,z
-x,-y,-z
loop_
_atom_site_type_symbol
_atom_site_label
_atom_site_fract_x
_atom_site_fract_y
_atom_site_fract_z
Si Si1 0.256831 0.636726 0.908706
Si Si2 0.952962 0.836090 0.373411
Si Si3 0.112147 0.627039 0.148214
Si Si4 0.730767 0.577276 0.555321
Si Si5 0.267535 0.930741 0.940889
Si Si6 0.485215 0.778230 0.542261
O O1 0.078849 0.479310 0.903962
O O2 0.143359 0.900870 0.730059
O O3 0.500000 0.500000 0.000000
O O4 0.289486 0.705935 0.982707
O O5 0.857206 0.657256 0.479745
O O6 0.223583 0.772130 0.468737
O O7 0.860724 0.863829 0.243455
O O8 0.109695 0.596230 0.259880
O O9 0.129604 0.870342 0.007163
O O10 0.361792 0.457011 0.274993
O O11 0.500000 0.500000 0.500000
O O12 0.615056 0.797503 0.484656
O O13 0.500000 0.000000 0.000000
O O14 0.500000 0.000000 0.500000
#
# Coordination Sequence:
#
# PCOD9011787 Si02
#       6
#     2   2   2   2   2   2
#     4  10  23  40  64  95 123 165 214 262 311 378
#     4  10  22  41  67  92 127 164 215 256 319 371
#     4  10  22  41  66  91 127 163 213 258 316 371
#     4  10  23  41  62  97 130 161 210 261 317 374
#     4  10  22  43  62  89 126 168 212 251 315 380
#     4  10  21  40  67  93 124 165 210 264 314 375
#
# _framework density 21.387619999999998
#
# number of rings (size 3 to 8) (size 9 to 14) (size 15 to 20)
#    2.000    0.000    1.667    1.500    0.000    7.333 
#    3.000    0.833    0.000    0.000    0.000    0.000 
#    0.000    0.000    0.000    0.000    0.000    0.000 
#
# Total GULP energy -66803.329777 kJ/mol
# GULP energy per Si atom -5566.944148 kJ/mol
# Density = 2.133894 g / cm^3
# Si number density = 21.387620 Si / 1000 Ang^3
#
#
#
# Elastic Constant Matrix: (Units=GPa)
#
#
# Indices 1 2 3 4 5 6 
#
# 1 132.8952 36.7664 95.8490 14.9294 -17.7284 26.4223
# 2 36.7664 94.0717 56.3605 25.3034 -7.2152 23.6433
# 3 95.8490 56.3605 124.7046 17.4589 -4.2375 17.9411
# 4 14.9294 25.3034 17.4589 42.5860 0.3275 15.0343
# 5 -17.7284 -7.2152 -4.2375 0.3275 55.9935 -1.6993
# 6 26.4223 23.6433 17.9411 15.0343 -1.6993 43.3553
#
#
#
# Elastic Compliance Matrix: (Units=1/GPa)
#
#
# Indices 1 2 3 4 5 6 
#
# 1 0.020336 0.004183 -0.016188 -0.000320 0.005522 -0.007648
# 2 0.004183 0.018170 -0.009571 -0.006152 0.002787 -0.006255
# 3 -0.016188 -0.009571 0.023936 -0.000211 -0.004392 0.005081
# 4 -0.000320 -0.006152 -0.000211 0.029718 -0.001288 -0.006718
# 5 0.005522 0.002787 -0.004392 -0.001288 0.019586 -0.001854
# 6 -0.007648 -0.006255 0.005081 -0.006718 -0.001854 0.031292
#
#
# Mechanical properties :
#
#
# Convention : Reuss Voigt Hill
#
# Bulk Modulus (GPa) = 51.84100 81.06926 66.45513
# Shear Modulus (GPa) = 25.95761 39.23334 32.59548
#
# Velocity S-wave (km/s) = 3.48756 4.28763 3.90812
# Velocity P-wave (km/s) = 6.36466 7.90561 7.17662
#
# Compressibility (1/GPa) = 0.01928975
#
# Stress axis : x y z
#
# Youngs Moduli (GPa) = 49.17270 55.03483 41.77747
#
# Poissons Ratio (x) = -0.23019 0.67631
# Poissons Ratio (y) = -0.20567 0.39985
# Poissons Ratio (z) = 0.79602 0.52674
#
# Static dielectric constant tensor:
#      x y z
#    x 1.771090 -0.079870 -0.102570 
#    y -0.079870 1.823260 0.031860 
#    z -0.102570 0.031860 1.809940 
# 
# From -- ./inp_files/512220.got.cif
#   From: 2010.05.17/outbox.cif.g08.bks.cpg/sg2_257_cif.got.tgz:512220.got - 2010.06.03 11:33:40.
