data_PCOD9011471
_publ_section_title
;
Structure prediction by ZEFSAII (Michael W. Deem and Ramdas Pophale) SiO2 
 PCOD9011471
Probable space group: P -1
;
_chemical_formula_sum "Si O2"
_cell_formula_units_Z 14
_cell_length_a 12.418346
_cell_length_b 9.417574
_cell_length_c 7.918126
_cell_angle_alpha 133.337976
_cell_angle_beta 80.387869
_cell_angle_gamma 72.328984
_cell_volume 539.483057
_symmetry_space_group_name_H-M "P -1"
_symmetry_group_IT_number 2
_symmetry_cell_setting 'triclinic'
loop_
_space_group_symop_operation_xyz
x,y,z
-x,-y,-z
loop_
_atom_site_type_symbol
_atom_site_label
_atom_site_fract_x
_atom_site_fract_y
_atom_site_fract_z
Si Si1 0.417447 0.293702 0.901827
Si Si2 0.124920 0.662199 0.233366
Si Si3 0.455663 0.172450 0.308434
Si Si4 0.017768 0.194759 0.239724
Si Si5 0.151375 0.076592 0.605977
Si Si6 0.176694 0.316006 0.481458
Si Si7 0.399088 0.699640 0.426641
O O1 0.264443 0.403748 0.981555
O O2 0.398354 0.469480 0.204550
O O3 0.499669 0.019936 0.709923
O O4 0.498600 0.323668 0.761732
O O5 0.061724 0.723130 0.489896
O O6 0.009295 0.723486 0.181937
O O7 0.160847 0.849146 0.337063
O O8 0.297010 0.345522 0.470233
O O9 0.537392 0.282963 0.406840
O O10 0.500000 0.000000 0.000000
O O11 0.951686 0.419490 0.313511
O O12 0.159625 0.149496 0.219279
O O13 0.000000 0.000000 0.000000
O O14 0.194833 0.188198 0.549147
O O15 0.251568 0.945072 0.628635
#
# Coordination Sequence:
#
# PCOD9011471 Si02
#       7
#     2   2   2   2   2   2   2
#     4  10  21  40  66  92 129 166 214 269 313 380
#     4   9  19  38  65  94 128 162 218 268 317 379
#     4  12  25  40  64  95 132 170 213 265 321 393
#     4  10  22  42  64  89 129 175 207 264 329 387
#     4   9  18  39  62  90 126 161 216 270 304 376
#     4  10  22  40  62  91 128 162 221 264 315 384
#     4  10  22  41  65  92 127 173 214 262 325 376
#
# _framework density 25.950769999999999
#
# number of rings (size 3 to 8) (size 9 to 14) (size 15 to 20)
#    0.000    2.000    1.429    1.286    0.000    4.000 
#    7.714    1.429    0.000    0.000    0.000    0.000 
#    0.000    0.000    0.000    0.000    0.000    0.000 
#
# Total GULP energy -78232.583587 kJ/mol
# GULP energy per Si atom -5588.041685 kJ/mol
# Density = 2.589171 g / cm^3
# Si number density = 25.950770 Si / 1000 Ang^3
#
#
#
# Elastic Constant Matrix: (Units=GPa)
#
#
# Indices 1 2 3 4 5 6 
#
# 1 162.3685 37.0592 50.0108 9.3399 25.9354 -53.2388
# 2 37.0592 97.0043 34.9707 5.2351 15.3302 -0.9117
# 3 50.0108 34.9707 72.6067 -3.6037 38.7980 -9.2394
# 4 9.3399 5.2351 -3.6037 35.2496 0.4005 3.9494
# 5 25.9354 15.3302 38.7980 0.4005 56.5836 2.2142
# 6 -53.2388 -0.9117 -9.2394 3.9494 2.2142 50.8632
#
#
#
# Elastic Compliance Matrix: (Units=1/GPa)
#
#
# Indices 1 2 3 4 5 6 
#
# 1 0.013540 -0.002431 -0.005447 -0.005287 -0.002310 0.013651
# 2 -0.002431 0.013241 -0.006269 -0.001604 0.001970 -0.003407
# 3 -0.005447 -0.006269 0.029302 0.005577 -0.015927 -0.000230
# 4 -0.005287 -0.001604 0.005577 0.031367 -0.000916 -0.006945
# 5 -0.002310 0.001970 -0.015927 -0.000916 0.029379 -0.006483
# 6 0.013651 -0.003407 -0.000230 -0.006945 -0.006483 0.034667
#
#
# Mechanical properties :
#
#
# Convention : Reuss Voigt Hill
#
# Bulk Modulus (GPa) = 35.98338 64.00678 49.99508
# Shear Modulus (GPa) = 26.44776 42.53522 34.49149
#
# Velocity S-wave (km/s) = 3.19588 4.05294 3.64965
# Velocity P-wave (km/s) = 5.24541 6.82788 6.08828
#
# Compressibility (1/GPa) = 0.02779061
#
# Stress axis : x y z
#
# Youngs Moduli (GPa) = 73.85442 75.52537 34.12717
#
# Poissons Ratio (x) = 0.18357 0.18588
# Poissons Ratio (y) = 0.17951 0.21394
# Poissons Ratio (z) = 0.40226 0.47345
#
# Static dielectric constant tensor:
#      x y z
#    x 2.003300 0.008440 0.042640 
#    y 0.008440 2.032910 -0.073890 
#    z 0.042640 -0.073890 2.092410 
# 
# From -- ./inp_files/261006.got.cif
#   From: 2010.05.17/outbox.cif.g08.bks.cpg/sg2_131_cif.got.tgz:261006.got - 2010.06.03 11:33:40.
