data_PCOD9011592
_publ_section_title
;
Structure prediction by ZEFSAII (Michael W. Deem and Ramdas Pophale) SiO2 
 PCOD9011592
Probable space group: P -1
;
_chemical_formula_sum "Si O2"
_cell_formula_units_Z 14
_cell_length_a 15.941491
_cell_length_b 8.937801
_cell_length_c 8.707942
_cell_angle_alpha 62.144953
_cell_angle_beta 35.558439
_cell_angle_gamma 76.198871
_cell_volume 613.267567
_symmetry_space_group_name_H-M "P -1"
_symmetry_group_IT_number 2
_symmetry_cell_setting 'triclinic'
loop_
_space_group_symop_operation_xyz
x,y,z
-x,-y,-z
loop_
_atom_site_type_symbol
_atom_site_label
_atom_site_fract_x
_atom_site_fract_y
_atom_site_fract_z
Si Si1 0.568821 0.192747 0.735771
Si Si2 0.720823 0.231358 0.163991
Si Si3 0.049389 0.204871 0.781015
Si Si4 0.860772 0.868024 0.634866
Si Si5 0.818925 0.144203 0.758869
Si Si6 0.855581 0.460689 0.342682
Si Si7 0.632352 0.574306 0.149076
O O1 0.618142 0.167911 0.497309
O O2 0.713565 0.333474 0.527702
O O3 0.441418 0.295363 0.895513
O O4 0.500000 0.000000 0.000000
O O5 0.685026 0.413049 0.083349
O O6 0.705346 0.120914 0.081181
O O7 0.894436 0.255477 0.946038
O O8 0.153494 0.210562 0.475954
O O9 0.142717 0.344849 0.696640
O O10 0.000000 0.000000 0.000000
O O11 0.039199 0.915918 0.362029
O O12 0.789609 0.024480 0.707552
O O13 0.779203 0.706412 0.943273
O O14 0.867383 0.344300 0.532073
O O15 0.000000 0.500000 0.000000
O O16 0.500000 0.500000 0.500000
#
# Coordination Sequence:
#
# PCOD9011592 Si02
#       7
#     2   2   2   2   2   2   2
#     4  11  25  45  73 104 144 182 224 290 353 417
#     4  10  22  46  67 101 136 187 229 283 346 417
#     4  11  23  40  70 104 139 174 237 295 338 398
#     4  10  21  40  66  96 133 179 227 284 342 404
#     4  10  22  40  70 100 130 178 236 287 339 411
#     4  12  23  41  70 103 134 181 232 286 348 404
#     4  10  22  41  65  91 137 184 219 271 344 421
#
# _framework density 22.828536
#
# number of rings (size 3 to 8) (size 9 to 14) (size 15 to 20)
#    0.000    1.429    1.429    3.429    4.000    2.286 
#    0.000   10.714    0.000    0.000    0.000    0.000 
#    0.000    0.000    0.000    0.000    0.000    0.000 
#
# Total GULP energy -77987.417026 kJ/mol
# GULP energy per Si atom -5570.529788 kJ/mol
# Density = 2.277658 g / cm^3
# Si number density = 22.828536 Si / 1000 Ang^3
#
#
#
# Elastic Constant Matrix: (Units=GPa)
#
#
# Indices 1 2 3 4 5 6 
#
# 1 64.3809 51.0873 43.0754 8.5669 -4.4194 2.1081
# 2 51.0873 182.6685 78.0451 10.0568 5.9718 7.6363
# 3 43.0754 78.0451 141.6332 16.5058 5.6571 2.6950
# 4 8.5669 10.0568 16.5058 47.4744 1.1545 -1.3331
# 5 -4.4194 5.9718 5.6571 1.1545 32.7846 3.4304
# 6 2.1081 7.6363 2.6950 -1.3331 3.4304 37.1096
#
#
#
# Elastic Compliance Matrix: (Units=1/GPa)
#
#
# Indices 1 2 3 4 5 6 
#
# 1 0.022594 -0.004486 -0.004376 -0.001736 0.004736 -0.000543
# 2 -0.004486 0.008114 -0.003047 0.000156 -0.001452 -0.001054
# 3 -0.004376 -0.003047 0.010385 -0.002126 -0.001774 0.000209
# 4 -0.001736 0.000156 -0.002126 0.022133 -0.000789 0.001089
# 5 0.004736 -0.001452 -0.001774 -0.000789 0.032035 -0.002831
# 6 -0.000543 -0.001054 0.000209 0.001089 -0.002831 0.027481
#
#
# Mechanical properties :
#
#
# Convention : Reuss Voigt Hill
#
# Bulk Modulus (GPa) = 57.88696 81.45535 69.67116
# Shear Modulus (GPa) = 32.82620 37.90537 35.36578
#
# Velocity S-wave (km/s) = 3.79614 4.07927 3.94025
# Velocity P-wave (km/s) = 6.68031 7.61223 7.16145
#
# Compressibility (1/GPa) = 0.01727505
#
# Stress axis : x y z
#
# Youngs Moduli (GPa) = 44.25968 123.25011 96.29234
#
# Poissons Ratio (x) = 0.55286 0.42141
# Poissons Ratio (y) = 0.19853 0.29338
# Poissons Ratio (z) = 0.19370 0.37551
#
# Static dielectric constant tensor:
#      x y z
#    x 2.007410 0.034740 0.026750 
#    y 0.034740 1.922510 -0.107520 
#    z 0.026750 -0.107520 2.178120 
# 
# From -- ./inp_files/222899.got.cif
#   From: 2010.05.17/outbox.cif.g08.bks.cpg/sg2_112_cif.got.tgz:222899.got - 2010.06.03 11:33:40.
