data_PCOD9011347
_publ_section_title
;
Structure prediction by ZEFSAII (Michael W. Deem and Ramdas Pophale) SiO2 
 PCOD9011347
Probable space group: P -1
;
_chemical_formula_sum "Si O2"
_cell_formula_units_Z 14
_cell_length_a 12.547021
_cell_length_b 11.676289
_cell_length_c 8.035506
_cell_angle_alpha 118.556206
_cell_angle_beta 106.434769
_cell_angle_gamma 36.569634
_cell_volume 604.483203
_symmetry_space_group_name_H-M "P -1"
_symmetry_group_IT_number 2
_symmetry_cell_setting 'triclinic'
loop_
_space_group_symop_operation_xyz
x,y,z
-x,-y,-z
loop_
_atom_site_type_symbol
_atom_site_label
_atom_site_fract_x
_atom_site_fract_y
_atom_site_fract_z
Si Si1 0.639513 0.775117 0.811506
Si Si2 0.415165 0.758868 0.749406
Si Si3 0.056315 0.841859 0.773522
Si Si4 0.480021 0.462097 0.779897
Si Si5 0.960936 0.385324 0.877286
Si Si6 0.818085 0.024431 0.502183
Si Si7 0.845865 0.834264 0.860167
O O1 0.515825 0.773199 0.688398
O O2 0.757944 0.578683 0.855478
O O3 0.771086 0.754574 0.758251
O O4 0.500000 0.000000 0.000000
O O5 0.474911 0.461463 0.275419
O O6 0.255470 0.856989 0.627131
O O7 0.321231 0.922852 0.975759
O O8 0.968933 0.956390 0.634356
O O9 0.272410 0.621137 0.745139
O O10 0.947293 0.807792 0.735853
O O11 0.000000 0.000000 0.000000
O O12 0.632907 0.209058 0.656004
O O13 0.500000 0.500000 0.000000
O O14 0.090577 0.196483 0.668806
O O15 0.006701 0.288110 0.010309
O O16 0.000000 0.500000 0.000000
#
# Coordination Sequence:
#
# PCOD9011347 Si02
#       7
#     2   2   2   2   2   2   2
#     4   9  19  37  68  95 126 170 226 281 331 393
#     4  10  21  40  66 100 133 171 234 285 330 400
#     4  12  24  44  66  94 146 186 221 276 340 407
#     4  12  25  43  66  99 142 185 223 275 341 404
#     4   9  20  41  68  94 130 170 226 286 334 396
#     4  11  25  43  67 102 135 180 233 277 338 405
#     4   9  19  41  64  95 129 179 228 274 342 398
#
# _framework density 23.160281999999999
#
# number of rings (size 3 to 8) (size 9 to 14) (size 15 to 20)
#    0.000    1.714    2.857    1.286    4.000    0.571 
#    0.000    3.571    0.000    0.000    0.000    0.000 
#    0.000    0.000    0.000    0.000    0.000    0.000 
#
# Total GULP energy -77940.320341 kJ/mol
# GULP energy per Si atom -5567.165739 kJ/mol
# Density = 2.310757 g / cm^3
# Si number density = 23.160282 Si / 1000 Ang^3
#
#
#
# Elastic Constant Matrix: (Units=GPa)
#
#
# Indices 1 2 3 4 5 6 
#
# 1 141.6141 27.4124 16.6344 -12.1656 9.3364 -21.3762
# 2 27.4124 152.9863 53.9064 9.1581 15.3323 -12.0196
# 3 16.6344 53.9064 113.2506 -4.4501 19.3746 -1.4924
# 4 -12.1656 9.1581 -4.4501 50.9665 -0.6175 3.9543
# 5 9.3364 15.3323 19.3746 -0.6175 13.1291 -4.6526
# 6 -21.3762 -12.0196 -1.4924 3.9543 -4.6526 36.9244
#
#
#
# Elastic Compliance Matrix: (Units=1/GPa)
#
#
# Indices 1 2 3 4 5 6 
#
# 1 0.008193 -0.000918 -0.000108 0.001774 -0.003146 0.003854
# 2 -0.000918 0.008543 -0.003338 -0.002237 -0.003841 0.001870
# 3 -0.000108 -0.003338 0.013306 0.001759 -0.016603 -0.002891
# 4 0.001774 -0.002237 0.001759 0.020741 -0.000969 -0.001973
# 5 -0.003146 -0.003841 -0.016603 -0.000969 0.111012 0.010349
# 6 0.003854 0.001870 -0.002891 -0.001973 0.010349 0.031320
#
#
# Mechanical properties :
#
#
# Convention : Reuss Voigt Hill
#
# Bulk Modulus (GPa) = 46.91539 67.08416 56.99978
# Shear Modulus (GPa) = 23.92939 40.86387 32.39663
#
# Velocity S-wave (km/s) = 3.21784 4.20503 3.74411
# Velocity P-wave (km/s) = 5.84010 7.25289 6.58450
#
# Compressibility (1/GPa) = 0.02131497
#
# Stress axis : x y z
#
# Youngs Moduli (GPa) = 122.04991 117.05613 75.15437
#
# Poissons Ratio (x) = 0.10750 0.00809
# Poissons Ratio (y) = 0.11208 0.25084
# Poissons Ratio (z) = 0.01313 0.39070
#
# Static dielectric constant tensor:
#      x y z
#    x 1.856090 0.058080 -0.046980 
#    y 0.058080 1.907090 0.014090 
#    z -0.046980 0.014090 1.864890 
# 
# From -- ./inp_files/313977.got.cif
#   From: 2010.05.17/outbox.cif.g08.bks.cpg/sg2_157_cif.got.tgz:313977.got - 2010.06.03 11:33:40.
