data_PCOD9011306
_publ_section_title
;
Structure prediction by ZEFSAII (Michael W. Deem and Ramdas Pophale) SiO2 
 PCOD9011306
Probable space group: P -1
;
_chemical_formula_sum "Si O2"
_cell_formula_units_Z 15
_cell_length_a 14.544765
_cell_length_b 7.776168
_cell_length_c 6.759395
_cell_angle_alpha 92.963369
_cell_angle_beta 105.501876
_cell_angle_gamma 120.015540
_cell_volume 621.949635
_symmetry_space_group_name_H-M "P -1"
_symmetry_group_IT_number 2
_symmetry_cell_setting 'triclinic'
loop_
_space_group_symop_operation_xyz
x,y,z
-x,-y,-z
loop_
_atom_site_type_symbol
_atom_site_label
_atom_site_fract_x
_atom_site_fract_y
_atom_site_fract_z
Si Si1 0.136301 0.808848 0.712026
Si Si2 0.050365 0.929187 0.349879
Si Si3 0.500000 0.000000 0.000000
Si Si4 0.421011 0.580172 0.203868
Si Si5 0.628527 0.794849 0.112504
Si Si6 0.042573 0.351860 0.073685
Si Si7 0.703556 0.340158 0.189255
Si Si8 0.760212 0.618115 0.592495
O O1 0.081672 0.777993 0.464299
O O2 0.187626 0.671838 0.782660
O O3 0.242405 0.037085 0.781019
O O4 0.047849 0.786009 0.820057
O O5 0.967149 0.793254 0.119388
O O6 0.161154 0.136238 0.345512
O O7 0.000000 0.000000 0.500000
O O8 0.392750 0.863227 0.769316
O O9 0.434557 0.115101 0.038580
O O10 0.555638 0.712405 0.268326
O O11 0.357429 0.492821 0.365295
O O12 0.384489 0.390165 0.029683
O O13 0.373610 0.701074 0.056487
O O14 0.000000 0.500000 0.000000
O O15 0.164136 0.451018 0.250986
O O16 0.739335 0.534980 0.352382
#
# Coordination Sequence:
#
# PCOD9011306 Si02
#       8
#     2   2   1   2   2   2   2   2
#     4  11  23  43  66  92 137 175 225 272 334 404
#     4  12  27  43  65  97 135 182 224 280 338 398
#     4   8  18  40  62  94 130 168 220 258 336 392
#     4  10  21  40  65  97 131 166 221 280 327 403
#     4   9  19  39  66  91 128 175 211 270 343 384
#     4  12  27  43  67  99 133 179 230 283 336 398
#     4  10  22  41  68  98 131 183 214 281 335 398
#     4  12  25  40  68  99 133 174 232 272 338 400
#
# _framework density 24.117711
#
# number of rings (size 3 to 8) (size 9 to 14) (size 15 to 20)
#    0.000    1.333    1.333    3.600    5.600    1.067 
#    0.000   22.000    0.000    0.000    0.000    0.000 
#    0.000    0.000    0.000    0.000    0.000    0.000 
#
# Total GULP energy -83598.056523 kJ/mol
# GULP energy per Si atom -5573.203768 kJ/mol
# Density = 2.406282 g / cm^3
# Si number density = 24.117711 Si / 1000 Ang^3
#
#
#
# Elastic Constant Matrix: (Units=GPa)
#
#
# Indices 1 2 3 4 5 6 
#
# 1 70.5235 13.3541 -1.6155 -2.6817 -22.2459 17.0535
# 2 13.3541 66.7075 13.2593 3.1294 -12.5894 12.8782
# 3 -1.6155 13.2593 47.5006 3.0097 -6.9808 1.9503
# 4 -2.6817 3.1294 3.0097 35.3250 1.4948 3.8933
# 5 -22.2459 -12.5894 -6.9808 1.4948 26.5672 -7.0579
# 6 17.0535 12.8782 1.9503 3.8933 -7.0579 51.9246
#
#
#
# Elastic Compliance Matrix: (Units=1/GPa)
#
#
# Indices 1 2 3 4 5 6 
#
# 1 0.020839 -0.000897 0.003523 0.001160 0.016669 -0.004575
# 2 -0.000897 0.017702 -0.003907 -0.001214 0.005866 -0.003061
# 3 0.003523 -0.003907 0.023452 -0.001703 0.007373 0.000061
# 4 0.001160 -0.001214 -0.001703 0.029026 -0.002352 -0.002512
# 5 0.016669 0.005866 0.007373 -0.002352 0.056625 0.000667
# 6 -0.004575 -0.003061 0.000061 -0.002512 0.000667 0.021797
#
#
# Mechanical properties :
#
#
# Convention : Reuss Voigt Hill
#
# Bulk Modulus (GPa) = 16.82649 26.08083 21.45366
# Shear Modulus (GPa) = 26.06715 33.41226 29.73970
#
# Velocity S-wave (km/s) = 3.29116 3.72611 3.51537
# Velocity P-wave (km/s) = 4.62972 5.41750 5.03903
#
# Compressibility (1/GPa) = 0.05943009
#
# Stress axis : x y z
#
# Youngs Moduli (GPa) = 47.98740 56.49113 42.64061
#
# Poissons Ratio (x) = 0.05069 -0.15023
# Poissons Ratio (y) = 0.04306 0.16661
# Poissons Ratio (z) = -0.16907 0.22072
#
# Static dielectric constant tensor:
#      x y z
#    x 1.919390 -0.235520 0.075300 
#    y -0.235520 1.148470 0.149070 
#    z 0.075300 0.149070 1.867620 
# 
# From -- ./inp_files/43682.got.cif
#   From: 2010.05.17/outbox.cif.g08.bks.cpg/sg2_22_cif.got.tgz:43682.got - 2010.06.03 11:33:40.
