data_PCOD9011583
_publ_section_title
;
Structure prediction by ZEFSAII (Michael W. Deem and Ramdas Pophale) SiO2 
 PCOD9011583
Probable space group: P -1
;
_chemical_formula_sum "Si O2"
_cell_formula_units_Z 16
_cell_length_a 13.699626
_cell_length_b 11.486294
_cell_length_c 5.827120
_cell_angle_alpha 115.764714
_cell_angle_beta 124.507391
_cell_angle_gamma 90.088359
_cell_volume 641.439831
_symmetry_space_group_name_H-M "P -1"
_symmetry_group_IT_number 2
_symmetry_cell_setting 'triclinic'
loop_
_space_group_symop_operation_xyz
x,y,z
-x,-y,-z
loop_
_atom_site_type_symbol
_atom_site_label
_atom_site_fract_x
_atom_site_fract_y
_atom_site_fract_z
Si Si1 0.908269 0.647587 0.604377
Si Si2 0.374581 0.195750 0.227886
Si Si3 0.363857 0.730324 0.586739
Si Si4 0.159006 0.118770 0.548883
Si Si5 0.975818 0.153497 0.714996
Si Si6 0.568777 0.512239 0.347788
Si Si7 0.179377 0.649175 0.893563
Si Si8 0.719745 0.097715 0.053349
O O1 0.857923 0.763740 0.533199
O O2 0.814917 0.494467 0.316670
O O3 0.038208 0.647862 0.659961
O O4 0.958498 0.697225 0.966164
O O5 0.522332 0.237431 0.414384
O O6 0.344912 0.328265 0.392362
O O7 0.301301 0.151305 0.849569
O O8 0.328037 0.061578 0.209203
O O9 0.380671 0.614127 0.675860
O O10 0.366141 0.866733 0.837458
O O11 0.228310 0.662710 0.230139
O O12 0.085212 0.126239 0.692909
O O13 0.086841 0.957967 0.259705
O O14 0.857726 0.133992 0.378480
O O15 0.500000 0.500000 0.500000
O O16 0.500000 0.500000 0.000000
O O17 0.267704 0.790975 0.027445
#
# Coordination Sequence:
#
# PCOD9011583 Si02
#       8
#     2   2   2   2   2   2   2   2
#     4  11  22  41  63  98 133 176 228 280 356 411
#     4  10  24  46  68 102 136 186 233 286 357 424
#     4  11  24  46  71  98 141 180 233 289 351 430
#     4  10  21  42  65  94 132 172 230 283 342 422
#     4  10  21  40  66  96 129 174 226 288 346 409
#     4  10  24  48  71 100 142 188 240 290 346 424
#     4  11  25  39  66  99 136 179 224 289 348 430
#     4  11  23  44  69 100 139 178 234 290 354 422
#
# _framework density 24.943881000000001
#
# number of rings (size 3 to 8) (size 9 to 14) (size 15 to 20)
#    0.000    1.500    2.500    1.500    3.500    3.000 
#    9.000    0.000    0.000    0.000    0.000    0.000 
#    0.000    0.000    0.000    0.000    0.000    0.000 
#
# Total GULP energy -89371.817161 kJ/mol
# GULP energy per Si atom -5585.738573 kJ/mol
# Density = 2.488711 g / cm^3
# Si number density = 24.943881 Si / 1000 Ang^3
#
#
#
# Elastic Constant Matrix: (Units=GPa)
#
#
# Indices 1 2 3 4 5 6 
#
# 1 44.3397 10.9672 5.1337 -5.0152 13.9480 4.7985
# 2 10.9672 161.8187 55.9110 3.4562 7.2042 2.6423
# 3 5.1337 55.9110 79.0660 1.6339 4.0236 6.3373
# 4 -5.0152 3.4562 1.6339 52.4028 -10.4981 2.3117
# 5 13.9480 7.2042 4.0236 -10.4981 25.2759 -0.0476
# 6 4.7985 2.6423 6.3373 2.3117 -0.0476 29.3359
#
#
#
# Elastic Compliance Matrix: (Units=1/GPa)
#
#
# Indices 1 2 3 4 5 6 
#
# 1 0.028108 -0.001210 0.000172 -0.000088 -0.015238 -0.004544
# 2 -0.001210 0.008314 -0.005791 -0.000734 -0.001084 0.000756
# 3 0.000172 -0.005791 0.017056 -0.000247 -0.001268 -0.003174
# 4 -0.000088 -0.000734 -0.000247 0.021004 0.009018 -0.001507
# 5 -0.015238 -0.001084 -0.001268 0.009018 0.052233 0.002238
# 6 -0.004544 0.000756 -0.003174 -0.001507 0.002238 0.035571
#
#
# Mechanical properties :
#
#
# Convention : Reuss Voigt Hill
#
# Bulk Modulus (GPa) = 25.11315 47.69425 36.40370
# Shear Modulus (GPa) = 26.42473 35.61707 31.02090
#
# Velocity S-wave (km/s) = 3.25832 3.78284 3.53034
# Velocity P-wave (km/s) = 4.92395 6.18401 5.58960
#
# Compressibility (1/GPa) = 0.03981977
#
# Stress axis : x y z
#
# Youngs Moduli (GPa) = 35.57724 120.27528 58.63160
#
# Poissons Ratio (x) = 0.14553 -0.01009
# Poissons Ratio (y) = 0.04305 0.33954
# Poissons Ratio (z) = -0.00612 0.69653
#
# Static dielectric constant tensor:
#      x y z
#    x 2.008050 0.023230 -0.010740 
#    y 0.023230 2.017780 0.019280 
#    z -0.010740 0.019280 1.974140 
# 
# From -- ./inp_files/95425.got.cif
#   From: 2010.05.17/outbox.cif.g08.bks.cpg/sg2_48_cif.got.tgz:95425.got - 2010.06.03 11:33:40.
