data_PCOD9011389
_publ_section_title
;
Structure prediction by ZEFSAII (Michael W. Deem and Ramdas Pophale) SiO2 
 PCOD9011389
Probable space group: P -1
;
_chemical_formula_sum "Si O2"
_cell_formula_units_Z 14
_cell_length_a 8.568494
_cell_length_b 14.321255
_cell_length_c 6.198643
_cell_angle_alpha 123.563474
_cell_angle_beta 76.026411
_cell_angle_gamma 125.919811
_cell_volume 509.412383
_symmetry_space_group_name_H-M "P -1"
_symmetry_group_IT_number 2
_symmetry_cell_setting 'triclinic'
loop_
_space_group_symop_operation_xyz
x,y,z
-x,-y,-z
loop_
_atom_site_type_symbol
_atom_site_label
_atom_site_fract_x
_atom_site_fract_y
_atom_site_fract_z
Si Si1 0.868650 0.486832 0.227094
Si Si2 0.144329 0.733436 0.766480
Si Si3 0.755082 0.642611 0.881342
Si Si4 0.412474 0.611657 0.150319
Si Si5 0.872687 0.017436 0.390753
Si Si6 0.763038 0.812921 0.767341
Si Si7 0.477867 0.120069 0.386625
O O1 0.804062 0.350973 0.205543
O O2 0.002283 0.620850 0.493360
O O3 0.688323 0.467269 0.135522
O O4 0.000000 0.500000 0.000000
O O5 0.339633 0.866813 0.779124
O O6 0.986671 0.748715 0.960446
O O7 0.698941 0.491712 0.749160
O O8 0.686348 0.669862 0.716443
O O9 0.633414 0.657250 0.126071
O O10 0.411115 0.743985 0.331890
O O11 0.687195 0.997751 0.554098
O O12 0.798772 0.902424 0.084318
O O13 0.000000 0.000000 0.500000
O O14 0.037174 0.145870 0.364812
O O15 0.634420 0.842442 0.697182
#
# Coordination Sequence:
#
# PCOD9011389 Si02
#       7
#     2   2   2   2   2   2   2
#     4  11  20  40  55  80 123 176 201 231 275 368
#     4  11  23  35  59  87 122 161 203 236 299 346
#     4  11  23  37  55  96 123 156 191 253 301 343
#     4  11  22  37  60  86 128 161 199 234 295 354
#     4   9  20  41  66  88 109 155 209 248 287 360
#     4  10  21  40  66  87 119 152 203 250 297 347
#     4  11  21  38  63  91 114 164 205 233 288 369
#
# _framework density 27.482645000000002
#
# number of rings (size 3 to 8) (size 9 to 14) (size 15 to 20)
#    0.000    1.429    4.286    1.714    0.000    3.429 
#    0.000    0.714    0.000    7.714    0.000    0.000 
#    0.000    0.000    0.000    0.000    0.000    0.000 
#
# Total GULP energy -78319.913838 kJ/mol
# GULP energy per Si atom -5594.279560 kJ/mol
# Density = 2.742009 g / cm^3
# Si number density = 27.482645 Si / 1000 Ang^3
#
#
#
# Elastic Constant Matrix: (Units=GPa)
#
#
# Indices 1 2 3 4 5 6 
#
# 1 110.8519 47.4047 27.8114 -24.2905 -9.0818 39.6327
# 2 47.4047 162.5408 35.4195 -47.9748 -6.6896 46.6696
# 3 27.8114 35.4195 94.5045 -7.2470 23.8050 11.4107
# 4 -24.2905 -47.9748 -7.2470 50.1246 15.6544 -14.8169
# 5 -9.0818 -6.6896 23.8050 15.6544 48.6885 -22.2711
# 6 39.6327 46.6696 11.4107 -14.8169 -22.2711 64.2071
#
#
#
# Elastic Compliance Matrix: (Units=1/GPa)
#
#
# Indices 1 2 3 4 5 6 
#
# 1 0.012938 -0.000130 -0.002411 0.004045 -0.000847 -0.006824
# 2 -0.000130 0.011205 -0.001582 0.009624 -0.003982 -0.006944
# 3 -0.002411 -0.001582 0.014858 0.001643 -0.009851 -0.003040
# 4 0.004045 0.009624 0.001643 0.033334 -0.012363 -0.006380
# 5 -0.000847 -0.003982 -0.009851 -0.012363 0.035281 0.014553
# 6 -0.006824 -0.006944 -0.003040 -0.006380 0.014553 0.028950
#
#
# Mechanical properties :
#
#
# Convention : Reuss Voigt Hill
#
# Bulk Modulus (GPa) = 32.51460 65.46317 48.98888
# Shear Modulus (GPa) = 32.24448 49.75483 40.99965
#
# Velocity S-wave (km/s) = 3.42901 4.25951 3.86662
# Velocity P-wave (km/s) = 5.24730 6.93273 6.14804
#
# Compressibility (1/GPa) = 0.03075542
#
# Stress axis : x y z
#
# Youngs Moduli (GPa) = 77.29118 89.24350 67.30170
#
# Poissons Ratio (x) = 0.01157 0.16229
# Poissons Ratio (y) = 0.01002 0.10648
# Poissons Ratio (z) = 0.18638 0.14120
#
# Static dielectric constant tensor:
#      x y z
#    x 2.229310 0.063670 -0.065360 
#    y 0.063670 2.129540 -0.006650 
#    z -0.065360 -0.006650 2.141770 
# 
# From -- ./inp_files/45000.got.cif
#   From: 2010.05.17/outbox.cif.g08.bks.cpg/sg2_23_cif.got.tgz:45000.got - 2010.06.03 11:33:40.
