data_PCOD9011554
_publ_section_title
;
Structure prediction by ZEFSAII (Michael W. Deem and Ramdas Pophale) SiO2 
 PCOD9011554
Probable space group: P -1
;
_chemical_formula_sum "Si O2"
_cell_formula_units_Z 15
_cell_length_a 6.297062
_cell_length_b 14.953022
_cell_length_c 10.879967
_cell_angle_alpha 38.251164
_cell_angle_beta 115.486966
_cell_angle_gamma 120.362568
_cell_volume 546.193089
_symmetry_space_group_name_H-M "P -1"
_symmetry_group_IT_number 2
_symmetry_cell_setting 'triclinic'
loop_
_space_group_symop_operation_xyz
x,y,z
-x,-y,-z
loop_
_atom_site_type_symbol
_atom_site_label
_atom_site_fract_x
_atom_site_fract_y
_atom_site_fract_z
Si Si1 0.821903 0.117482 0.790746
Si Si2 0.110064 0.232887 0.488638
Si Si3 0.707812 0.033861 0.268450
Si Si4 0.662960 0.249706 0.218083
Si Si5 0.719855 0.687624 0.208830
Si Si6 0.000000 0.500000 0.000000
Si Si7 0.192716 0.308326 0.058711
Si Si8 0.618544 0.363852 0.605635
O O1 0.754039 0.256582 0.691713
O O2 0.925613 0.155705 0.636432
O O3 0.084041 0.143541 0.900466
O O4 0.544394 0.004447 0.831364
O O5 0.363431 0.336645 0.494302
O O6 0.942774 0.311409 0.281856
O O7 0.187484 0.108626 0.562716
O O8 0.639470 0.090743 0.321561
O O9 0.940858 0.171682 0.139528
O O10 0.419095 0.249098 0.226310
O O11 0.739008 0.387712 0.993257
O O12 0.763969 0.540121 0.444893
O O13 0.477213 0.687859 0.225551
O O14 0.746176 0.656141 0.107010
O O15 0.169868 0.440046 0.997972
#
# Coordination Sequence:
#
# PCOD9011554 Si02
#       8
#     2   2   2   2   2   1   2   2
#     4  10  21  40  66  95 130 174 227 278 330 388
#     4  10  22  40  69  97 134 177 222 282 328 392
#     4  10  23  43  62  99 135 176 231 270 329 397
#     4  11  24  42  67  97 135 179 222 273 334 402
#     4  10  22  41  66  98 132 175 221 278 335 398
#     4  10  26  44  62  98 138 176 220 264 336 402
#     4  11  25  43  67  97 140 180 218 272 335 403
#     4   9  21  40  65 101 132 167 229 277 335 394
#
# _framework density 27.462816
#
# number of rings (size 3 to 8) (size 9 to 14) (size 15 to 20)
#    0.000    1.867    0.000    2.000    3.733    9.067 
#    0.000    9.333    0.000    0.000    0.000    0.000 
#    0.000    0.000    0.000    0.000    0.000    0.000 
#
# Total GULP energy -83640.792031 kJ/mol
# GULP energy per Si atom -5576.052802 kJ/mol
# Density = 2.740031 g / cm^3
# Si number density = 27.462816 Si / 1000 Ang^3
#
#
#
# Elastic Constant Matrix: (Units=GPa)
#
#
# Indices 1 2 3 4 5 6 
#
# 1 204.9389 64.6789 38.5171 10.0000 0.7715 -9.1665
# 2 64.6789 123.7391 27.8822 1.4323 -0.0408 -12.3645
# 3 38.5171 27.8822 60.1535 10.7517 -16.3897 -3.8427
# 4 10.0000 1.4323 10.7517 34.4852 0.5621 -2.9963
# 5 0.7715 -0.0408 -16.3897 0.5621 47.4997 13.1184
# 6 -9.1665 -12.3645 -3.8427 -2.9963 13.1184 69.9692
#
#
#
# Elastic Compliance Matrix: (Units=1/GPa)
#
#
# Indices 1 2 3 4 5 6 
#
# 1 0.006321 -0.002569 -0.003045 -0.000720 -0.001261 0.000413
# 2 -0.002569 0.010448 -0.003877 0.001696 -0.001777 0.001703
# 3 -0.003045 -0.003877 0.023864 -0.006689 0.008833 -0.001716
# 4 -0.000720 0.001696 -0.006689 0.031428 -0.003157 0.001776
# 5 -0.001261 -0.001777 0.008833 -0.003157 0.025514 -0.004913
# 6 0.000413 0.001703 -0.001716 0.001776 -0.004913 0.015550
#
#
# Mechanical properties :
#
#
# Convention : Reuss Voigt Hill
#
# Bulk Modulus (GPa) = 46.18672 72.33200 59.25936
# Shear Modulus (GPa) = 35.88826 47.57437 41.73131
#
# Velocity S-wave (km/s) = 3.61888 4.16663 3.90238
# Velocity P-wave (km/s) = 5.85800 7.03868 6.47531
#
# Compressibility (1/GPa) = 0.02165125
#
# Stress axis : x y z
#
# Youngs Moduli (GPa) = 158.20695 95.71597 41.90474
#
# Poissons Ratio (x) = 0.24586 0.12761
# Poissons Ratio (y) = 0.40637 0.16245
# Poissons Ratio (z) = 0.48177 0.37105
#
# Static dielectric constant tensor:
#      x y z
#    x 2.171820 0.076730 0.123690 
#    y 0.076730 2.149350 0.016720 
#    z 0.123690 0.016720 2.519550 
# 
# From -- ./inp_files/366746.got.cif
#   From: 2010.05.17/outbox.cif.g08.bks.cpg/sg2_184_cif.got.tgz:366746.got - 2010.06.03 11:33:40.
