data_PCOD9011421
_publ_section_title
;
Structure prediction by ZEFSAII (Michael W. Deem and Ramdas Pophale) SiO2 
 PCOD9011421
Probable space group: P -1
;
_chemical_formula_sum "Si O2"
_cell_formula_units_Z 15
_cell_length_a 11.694481
_cell_length_b 16.777640
_cell_length_c 12.804347
_cell_angle_alpha 145.199087
_cell_angle_beta 145.834718
_cell_angle_gamma 28.077635
_cell_volume 623.358350
_symmetry_space_group_name_H-M "P -1"
_symmetry_group_IT_number 2
_symmetry_cell_setting 'triclinic'
loop_
_space_group_symop_operation_xyz
x,y,z
-x,-y,-z
loop_
_atom_site_type_symbol
_atom_site_label
_atom_site_fract_x
_atom_site_fract_y
_atom_site_fract_z
Si Si1 0.827152 0.290982 0.468886
Si Si2 0.451640 0.414400 0.118062
Si Si3 0.647889 0.663076 0.761105
Si Si4 0.000000 0.500000 0.000000
Si Si5 0.366246 0.437265 0.741808
Si Si6 0.817916 0.700714 0.711367
Si Si7 0.792342 0.041932 0.728606
Si Si8 0.711872 0.012484 0.854815
O O1 0.656109 0.373122 0.320387
O O2 0.852804 0.438883 0.690265
O O3 0.639480 0.281537 0.392968
O O4 0.089349 0.097914 0.428395
O O5 0.491985 0.496308 0.137615
O O6 0.165026 0.532143 0.077449
O O7 0.524006 0.226503 0.936693
O O8 0.714881 0.700275 0.962108
O O9 0.729173 0.708786 0.770268
O O10 0.246445 0.406927 0.520477
O O11 0.558688 0.243876 0.734849
O O12 0.125883 0.588556 0.796937
O O13 0.657184 0.900193 0.758857
O O14 0.746451 0.957280 0.700028
O O15 0.024858 0.038292 0.947483
#
# Coordination Sequence:
#
# PCOD9011421 Si02
#       8
#     2   2   2   1   2   2   2   2
#     4   9  19  42  66  83 127 172 209 253 323 369
#     4  10  21  44  62  93 126 172 206 263 309 388
#     4  10  21  40  66  90 125 171 210 262 311 378
#     4  10  24  38  66  96 120 162 220 254 318 370
#     4  11  24  39  66  93 132 163 218 252 322 376
#     4  11  24  41  61  99 127 168 207 270 305 385
#     4  10  22  40  63  94 123 173 207 268 311 382
#     4  10  23  39  63  91 134 160 214 259 329 356
#
# _framework density 24.063206000000001
#
# number of rings (size 3 to 8) (size 9 to 14) (size 15 to 20)
#    0.000    1.867    1.333    2.400    5.600    2.667 
#    2.400    2.667    0.000    0.000    0.000    0.000 
#    0.000    0.000    0.000    0.000    0.000    0.000 
#
# Total GULP energy -83640.954163 kJ/mol
# GULP energy per Si atom -5576.063611 kJ/mol
# Density = 2.400844 g / cm^3
# Si number density = 24.063206 Si / 1000 Ang^3
#
#
#
# Elastic Constant Matrix: (Units=GPa)
#
#
# Indices 1 2 3 4 5 6 
#
# 1 182.9760 63.2759 26.1414 20.0865 20.9993 42.8732
# 2 63.2759 100.7054 18.3839 20.2416 11.9717 8.7835
# 3 26.1414 18.3839 46.9428 4.7410 9.0262 6.6600
# 4 20.0865 20.2416 4.7410 38.7753 2.3985 0.6247
# 5 20.9993 11.9717 9.0262 2.3985 33.3582 11.3755
# 6 42.8732 8.7835 6.6600 0.6247 11.3755 35.7364
#
#
#
# Elastic Compliance Matrix: (Units=1/GPa)
#
#
# Indices 1 2 3 4 5 6 
#
# 1 0.010072 -0.004509 -0.002035 -0.002419 -0.000447 -0.010411
# 2 -0.004509 0.014162 -0.002579 -0.004651 -0.002312 0.003227
# 3 -0.002035 -0.002579 0.024319 -0.000304 -0.004326 -0.000074
# 4 -0.002419 -0.004651 -0.000304 0.029454 -0.000075 0.003611
# 5 -0.000447 -0.002312 -0.004326 -0.000075 0.035462 -0.009376
# 6 -0.010411 0.003227 -0.000074 0.003611 -0.009376 0.042615
#
#
# Mechanical properties :
#
#
# Convention : Reuss Voigt Hill
#
# Bulk Modulus (GPa) = 32.99668 60.69185 46.84426
# Shear Modulus (GPa) = 27.11019 36.42884 31.76952
#
# Velocity S-wave (km/s) = 3.36016 3.89508 3.63747
# Velocity P-wave (km/s) = 5.36624 6.74578 6.09516
#
# Compressibility (1/GPa) = 0.03030608
#
# Stress axis : x y z
#
# Youngs Moduli (GPa) = 99.28925 70.61047 41.12016
#
# Poissons Ratio (x) = 0.31840 0.08370
# Poissons Ratio (y) = 0.44772 0.10604
# Poissons Ratio (z) = 0.20209 0.18208
#
# Static dielectric constant tensor:
#      x y z
#    x 1.835370 -0.107500 0.218790 
#    y -0.107500 1.859290 0.070670 
#    z 0.218790 0.070670 1.633570 
# 
# From -- ./inp_files/521790.got.cif
#   From: 2010.05.17/outbox.cif.g08.bks.cpg/sg2_261_cif.got.tgz:521790.got - 2010.06.03 11:33:40.
