data_PCOD9011402
_publ_section_title
;
Structure prediction by ZEFSAII (Michael W. Deem and Ramdas Pophale) SiO2 
 PCOD9011402
Probable space group: P -1
;
_chemical_formula_sum "Si O2"
_cell_formula_units_Z 16
_cell_length_a 14.461893
_cell_length_b 11.377386
_cell_length_c 14.582627
_cell_angle_alpha 132.956795
_cell_angle_beta 32.175719
_cell_angle_gamma 147.337854
_cell_volume 685.511801
_symmetry_space_group_name_H-M "P -1"
_symmetry_group_IT_number 2
_symmetry_cell_setting 'triclinic'
loop_
_space_group_symop_operation_xyz
x,y,z
-x,-y,-z
loop_
_atom_site_type_symbol
_atom_site_label
_atom_site_fract_x
_atom_site_fract_y
_atom_site_fract_z
Si Si1 0.175013 0.019283 0.929925
Si Si2 0.325112 0.738793 0.447198
Si Si3 0.986879 0.215464 0.614318
Si Si4 0.279159 0.712937 0.874165
Si Si5 0.566107 0.825211 0.027307
Si Si6 0.615701 0.746030 0.749122
Si Si7 0.849230 0.250838 0.570181
Si Si8 0.821105 0.338737 0.265689
O O1 0.422367 0.162242 0.743986
O O2 0.250904 0.127646 0.025188
O O3 0.082585 0.779139 0.895666
O O4 0.000000 0.000000 0.000000
O O5 0.246781 0.835387 0.496881
O O6 0.306276 0.755505 0.579456
O O7 0.118189 0.480452 0.462580
O O8 0.859275 0.124611 0.573917
O O9 0.260034 0.337052 0.436022
O O10 0.987914 0.399620 0.744212
O O11 0.840876 0.009785 0.693634
O O12 0.419351 0.692151 0.817251
O O13 0.336826 0.720256 0.721814
O O14 0.342091 0.940081 0.956999
O O15 0.000000 0.500000 0.000000
O O16 0.322055 0.717061 0.227112
O O17 0.537081 0.697322 0.894661
#
# Coordination Sequence:
#
# PCOD9011402 Si02
#       8
#     2   2   2   2   2   2   2   2
#     4  10  22  42  63  99 129 159 207 258 318 380
#     4   9  19  37  64  91 117 165 206 253 314 370
#     4  10  22  41  62  93 126 163 214 256 307 365
#     4  11  23  38  63  95 127 165 207 256 319 371
#     4  10  21  40  66  89 122 170 209 255 316 365
#     4  11  23  40  65  93 125 165 216 259 297 373
#     4   9  18  37  64  88 119 160 215 254 302 372
#     4  10  22  41  62  90 126 169 201 252 322 365
#
# _framework density 23.340225
#
# number of rings (size 3 to 8) (size 9 to 14) (size 15 to 20)
#    0.000    2.000    1.250    1.500    3.500    1.500 
#   13.500    0.000    0.000   13.500    0.000    0.000 
#    0.000    0.000    0.000    0.000    0.000    0.000 
#
# Total GULP energy -89348.606880 kJ/mol
# GULP energy per Si atom -5584.287930 kJ/mol
# Density = 2.328710 g / cm^3
# Si number density = 23.340225 Si / 1000 Ang^3
#
#
#
# Elastic Constant Matrix: (Units=GPa)
#
#
# Indices 1 2 3 4 5 6 
#
# 1 203.3584 -2.8395 55.9315 7.9257 -4.3989 17.1585
# 2 -2.8395 62.9425 14.6314 -10.3099 -7.1088 7.3102
# 3 55.9315 14.6314 64.1438 -13.7447 -1.0345 7.2624
# 4 7.9257 -10.3099 -13.7447 22.5539 5.2134 2.5702
# 5 -4.3989 -7.1088 -1.0345 5.2134 49.7284 -7.0324
# 6 17.1585 7.3102 7.2624 2.5702 -7.0324 29.9402
#
#
#
# Elastic Compliance Matrix: (Units=1/GPa)
#
#
# Indices 1 2 3 4 5 6 
#
# 1 0.007701 0.001462 -0.008365 -0.007206 0.001212 -0.001838
# 2 0.001462 0.018471 -0.003680 0.005886 0.001422 -0.004626
# 3 -0.008365 -0.003680 0.028295 0.019665 -0.003251 -0.003623
# 4 -0.007206 0.005886 0.019665 0.064334 -0.007454 -0.009351
# 5 0.001212 0.001422 -0.003251 -0.007454 0.021916 0.005535
# 6 -0.001838 -0.004626 -0.003623 -0.009351 0.005535 0.038564
#
#
# Mechanical properties :
#
#
# Convention : Reuss Voigt Hill
#
# Bulk Modulus (GPa) = 30.02969 51.76572 40.89770
# Shear Modulus (GPa) = 23.63558 37.95924 30.79741
#
# Velocity S-wave (km/s) = 3.18568 4.03717 3.63643
# Velocity P-wave (km/s) = 5.14056 6.63013 5.93228
#
# Compressibility (1/GPa) = 0.03330038
#
# Stress axis : x y z
#
# Youngs Moduli (GPa) = 129.86092 54.13936 35.34255
#
# Poissons Ratio (x) = -0.07914 0.29562
# Poissons Ratio (y) = -0.18982 0.13006
# Poissons Ratio (z) = 1.08623 0.19923
#
# Static dielectric constant tensor:
#      x y z
#    x 1.928980 -0.020890 0.031960 
#    y -0.020890 1.961330 -0.008300 
#    z 0.031960 -0.008300 1.921650 
# 
# From -- ./inp_files/532660.got.cif
#   From: 2010.05.17/outbox.cif.g08.bks.cpg/sg2_267_cif.got.tgz:532660.got - 2010.06.03 11:33:40.
