data_PCOD9011364
_publ_section_title
;
Structure prediction by ZEFSAII (Michael W. Deem and Ramdas Pophale) SiO2 
 PCOD9011364
Probable space group: P -1
;
_chemical_formula_sum "Si O2"
_cell_formula_units_Z 16
_cell_length_a 9.181252
_cell_length_b 9.373086
_cell_length_c 21.596928
_cell_angle_alpha 151.288929
_cell_angle_beta 53.647625
_cell_angle_gamma 125.991682
_cell_volume 707.955448
_symmetry_space_group_name_H-M "P -1"
_symmetry_group_IT_number 2
_symmetry_cell_setting 'triclinic'
loop_
_space_group_symop_operation_xyz
x,y,z
-x,-y,-z
loop_
_atom_site_type_symbol
_atom_site_label
_atom_site_fract_x
_atom_site_fract_y
_atom_site_fract_z
Si Si1 0.159020 0.554022 0.071557
Si Si2 0.475022 0.067296 0.460468
Si Si3 0.921721 0.667613 0.867099
Si Si4 0.556961 0.637340 0.816264
Si Si5 0.516162 0.824934 0.025248
Si Si6 0.039955 0.977463 0.158206
Si Si7 0.148098 0.576864 0.548205
Si Si8 0.135862 0.311271 0.582148
O O1 0.377566 0.668590 0.052622
O O2 0.082565 0.570247 0.165806
O O3 0.075315 0.220007 0.940876
O O4 0.087827 0.762690 0.118581
O O5 0.658794 0.285814 0.477101
O O6 0.313906 0.242275 0.547187
O O7 0.500000 0.000000 0.500000
O O8 0.446216 0.718977 0.312083
O O9 0.707236 0.703668 0.930149
O O10 0.036538 0.553636 0.738016
O O11 0.000000 0.000000 0.000000
O O12 0.439988 0.713283 0.933808
O O13 0.769993 0.806297 0.826502
O O14 0.473912 0.810349 0.845266
O O15 0.913851 0.166627 0.297522
O O16 0.169362 0.355505 0.516173
O O17 0.000000 0.500000 0.500000
O O18 0.000000 0.000000 0.500000
#
# Coordination Sequence:
#
# PCOD9011364 Si02
#       8
#     2   2   2   2   2   2   2   2
#     4  10  22  39  67 100 139 184 229 291 353 432
#     4  12  27  46  73 106 144 193 242 298 365 435
#     4  12  26  42  69 101 145 183 237 293 369 425
#     4  10  21  41  68  99 139 182 231 290 351 427
#     4  10  21  40  66 101 137 181 233 290 352 425
#     4  10  21  41  67 101 138 180 237 288 357 423
#     4  12  26  47  75 104 143 191 244 301 365 434
#     4  12  28  50  73 108 151 193 245 305 362 439
#
# _framework density 22.600292
#
# number of rings (size 3 to 8) (size 9 to 14) (size 15 to 20)
#    0.000    1.000    0.000    6.750    5.250    2.000 
#    0.000    2.500    0.000    0.000    0.000    0.000 
#    0.000    0.000    0.000    0.000    0.000    0.000 
#
# Total GULP energy -89150.828778 kJ/mol
# GULP energy per Si atom -5571.926799 kJ/mol
# Density = 2.254885 g / cm^3
# Si number density = 22.600292 Si / 1000 Ang^3
#
#
#
# Elastic Constant Matrix: (Units=GPa)
#
#
# Indices 1 2 3 4 5 6 
#
# 1 106.2495 66.0577 28.2553 0.6154 -16.1754 -0.1041
# 2 66.0577 197.6490 25.5904 -7.5468 5.1328 -12.2389
# 3 28.2553 25.5904 58.3453 9.7214 -11.0392 -0.9786
# 4 0.6154 -7.5468 9.7214 36.2308 -1.6773 3.7057
# 5 -16.1754 5.1328 -11.0392 -1.6773 29.7030 -1.2953
# 6 -0.1041 -12.2389 -0.9786 3.7057 -1.2953 40.4514
#
#
#
# Elastic Compliance Matrix: (Units=1/GPa)
#
#
# Indices 1 2 3 4 5 6 
#
# 1 0.014307 -0.004566 -0.003625 0.000237 0.007193 -0.001224
# 2 -0.004566 0.007130 -0.001981 0.001712 -0.004279 0.001804
# 3 -0.003625 -0.001981 0.021955 -0.006023 0.006217 0.000673
# 4 0.000237 0.001712 -0.006023 0.029775 -0.000828 -0.002381
# 5 0.007193 -0.004279 0.006217 -0.000828 0.040598 0.000250
# 6 -0.001224 0.001804 0.000673 -0.002381 0.000250 0.025506
#
#
# Mechanical properties :
#
#
# Convention : Reuss Voigt Hill
#
# Bulk Modulus (GPa) = 43.38651 66.89448 55.14050
# Shear Modulus (GPa) = 29.88707 37.43307 33.66007
#
# Velocity S-wave (km/s) = 3.64045 4.07419 3.86342
# Velocity P-wave (km/s) = 6.07532 7.19689 6.65976
#
# Compressibility (1/GPa) = 0.02304864
#
# Stress axis : x y z
#
# Youngs Moduli (GPa) = 69.89604 140.25087 45.54826
#
# Poissons Ratio (x) = 0.64036 0.16511
# Poissons Ratio (y) = 0.31913 0.09022
# Poissons Ratio (z) = 0.25337 0.27780
#
# Static dielectric constant tensor:
#      x y z
#    x 1.931190 -0.040240 0.031270 
#    y -0.040240 1.939610 0.083720 
#    z 0.031270 0.083720 1.992900 
# 
# From -- ./inp_files/588272.got.cif
#   From: 2010.05.17/outbox.cif.g08.bks.cpg/sg2_295_cif.got.tgz:588272.got - 2010.06.03 11:33:40.
