data_PCOD9011350
_publ_section_title
;
Structure prediction by ZEFSAII (Michael W. Deem and Ramdas Pophale) SiO2 
 PCOD9011350
Probable space group: P -1
;
_chemical_formula_sum "Si O2"
_cell_formula_units_Z 16
_cell_length_a 5.493934
_cell_length_b 25.124600
_cell_length_c 5.357572
_cell_angle_alpha 63.067741
_cell_angle_beta 81.615464
_cell_angle_gamma 62.040252
_cell_volume 580.274676
_symmetry_space_group_name_H-M "P -1"
_symmetry_group_IT_number 2
_symmetry_cell_setting 'triclinic'
loop_
_space_group_symop_operation_xyz
x,y,z
-x,-y,-z
loop_
_atom_site_type_symbol
_atom_site_label
_atom_site_fract_x
_atom_site_fract_y
_atom_site_fract_z
Si Si1 0.846127 0.401874 0.191060
Si Si2 0.349884 0.473801 0.783013
Si Si3 0.114100 0.084280 0.730086
Si Si4 0.659907 0.214199 0.402626
Si Si5 0.692648 0.835452 0.092920
Si Si6 0.711874 0.654227 0.135934
Si Si7 0.239390 0.957424 0.747696
Si Si8 0.198897 0.714968 0.370240
O O1 0.897605 0.456758 0.221270
O O2 0.905036 0.340640 0.491815
O O3 0.530240 0.439565 0.074092
O O4 0.987054 0.371052 0.971119
O O5 0.500000 0.500000 0.500000
O O6 0.311401 0.413382 0.797905
O O7 0.255290 0.117799 0.812538
O O8 0.898149 0.140122 0.453720
O O9 0.317338 0.013742 0.727559
O O10 0.914708 0.066171 0.973055
O O11 0.474454 0.198812 0.668455
O O12 0.825953 0.248656 0.443115
O O13 0.456621 0.272395 0.129091
O O14 0.989025 0.775239 0.100446
O O15 0.507440 0.887263 0.796925
O O16 0.527795 0.675670 0.364606
O O17 0.000000 0.000000 0.500000
#
# Coordination Sequence:
#
# PCOD9011350 Si02
#       8
#     2   2   2   2   2   2   2   2
#     4  11  24  43  67  95 133 173 224 287 343 406
#     4  11  24  44  67  97 132 177 227 281 345 416
#     4   9  21  40  65  95 135 180 229 281 341 409
#     4  10  22  41  64  94 136 174 227 286 338 406
#     4  10  21  42  68  94 139 185 224 290 345 400
#     4  12  24  41  69  95 132 182 223 280 352 407
#     4  10  21  40  66 100 137 179 231 281 343 413
#     4  11  23  42  64  99 134 173 236 282 338 417
#
# _framework density 27.573148
#
# number of rings (size 3 to 8) (size 9 to 14) (size 15 to 20)
#    0.000    1.500    3.750    0.750    0.000    6.000 
#    0.000    8.750    0.000    0.000    0.000    0.000 
#    0.000    0.000    0.000    0.000    0.000    0.000 
#
# Total GULP energy -89348.782168 kJ/mol
# GULP energy per Si atom -5584.298885 kJ/mol
# Density = 2.751039 g / cm^3
# Si number density = 27.573148 Si / 1000 Ang^3
#
#
#
# Elastic Constant Matrix: (Units=GPa)
#
#
# Indices 1 2 3 4 5 6 
#
# 1 65.3215 41.5583 11.7505 -19.5618 -5.0670 -1.9520
# 2 41.5583 162.4859 36.8849 -30.6312 -3.4284 -7.8239
# 3 11.7505 36.8849 105.5846 -36.6027 -10.8663 4.9259
# 4 -19.5618 -30.6312 -36.6027 51.6372 1.6585 -4.7497
# 5 -5.0670 -3.4284 -10.8663 1.6585 35.2992 -11.0197
# 6 -1.9520 -7.8239 4.9259 -4.7497 -11.0197 51.5366
#
#
#
# Elastic Compliance Matrix: (Units=1/GPa)
#
#
# Indices 1 2 3 4 5 6 
#
# 1 0.019779 -0.004141 0.001659 0.006224 0.003024 0.001182
# 2 -0.004141 0.008071 -0.001673 0.002164 0.000020 0.001432
# 3 0.001659 -0.001673 0.013382 0.009015 0.003827 0.000179
# 4 0.006224 0.002164 0.009015 0.029578 0.003479 0.003172
# 5 0.003024 0.000020 0.003827 0.003479 0.031934 0.006901
# 6 0.001182 0.001432 0.000179 0.003172 0.006901 0.021417
#
#
# Mechanical properties :
#
#
# Convention : Reuss Voigt Hill
#
# Bulk Modulus (GPa) = 30.37588 57.08659 43.73124
# Shear Modulus (GPa) = 34.85677 43.90782 39.38229
#
# Velocity S-wave (km/s) = 3.55935 3.99483 3.78336
# Velocity P-wave (km/s) = 5.28511 6.48282 5.91436
#
# Compressibility (1/GPa) = 0.03292085
#
# Stress axis : x y z
#
# Youngs Moduli (GPa) = 50.55852 123.90520 74.72877
#
# Poissons Ratio (x) = 0.51314 -0.12400
# Poissons Ratio (y) = 0.20938 0.12504
# Poissons Ratio (z) = -0.08389 0.20732
#
# Static dielectric constant tensor:
#      x y z
#    x 2.290730 -0.095870 -0.024700 
#    y -0.095870 2.206560 0.054990 
#    z -0.024700 0.054990 2.210220 
# 
# From -- ./inp_files/14384.got.cif
#   From: 2010.05.17/outbox.cif.g08.bks.cpg/sg2_8_cif.got.tgz:14384.got - 2010.06.03 11:33:40.
