data_PCOD9011458
_publ_section_title
;
Structure prediction by ZEFSAII (Michael W. Deem and Ramdas Pophale) SiO2 
 PCOD9011458
Probable space group: P -1
;
_chemical_formula_sum "Si O2"
_cell_formula_units_Z 16
_cell_length_a 14.151104
_cell_length_b 8.800475
_cell_length_c 11.720909
_cell_angle_alpha 147.482872
_cell_angle_beta 85.766881
_cell_angle_gamma 104.229412
_cell_volume 735.209970
_symmetry_space_group_name_H-M "P -1"
_symmetry_group_IT_number 2
_symmetry_cell_setting 'triclinic'
loop_
_space_group_symop_operation_xyz
x,y,z
-x,-y,-z
loop_
_atom_site_type_symbol
_atom_site_label
_atom_site_fract_x
_atom_site_fract_y
_atom_site_fract_z
Si Si1 0.084924 0.858057 0.442707
Si Si2 0.754949 0.740273 0.683252
Si Si3 0.606980 0.133768 0.929189
Si Si4 0.763564 0.637193 0.118467
Si Si5 0.891000 0.254971 0.874966
Si Si6 0.974963 0.293463 0.248890
Si Si7 0.385320 0.840398 0.791256
Si Si8 0.238386 0.179352 0.015383
O O1 0.142996 0.853459 0.317727
O O2 0.021129 0.544473 0.307686
O O3 0.172962 0.034391 0.633963
O O4 0.000000 0.000000 0.500000
O O5 0.700873 0.441920 0.431151
O O6 0.864165 0.956702 0.764411
O O7 0.764034 0.662654 0.764560
O O8 0.679477 0.932108 0.796173
O O9 0.652950 0.435869 0.041894
O O10 0.602304 0.226672 0.119858
O O11 0.493581 0.929836 0.778104
O O12 0.771849 0.652993 0.991867
O O13 0.828480 0.452100 0.051663
O O14 0.000000 0.500000 0.000000
O O15 0.000000 0.500000 0.500000
O O16 0.854726 0.134397 0.167840
O O17 0.000000 0.000000 0.000000
O O18 0.342470 0.113199 0.959695
#
# Coordination Sequence:
#
# PCOD9011458 Si02
#       8
#     2   2   2   2   2   2   2   2
#     4  12  25  39  69  97 131 181 235 286 344 413
#     4  10  22  38  65  89 128 172 222 278 343 414
#     4   9  21  41  64  93 124 166 220 287 340 411
#     4  11  23  42  59  93 131 167 221 276 351 406
#     4  11  22  38  61  89 126 168 222 283 333 410
#     4  12  28  48  69 102 150 195 232 287 359 431
#     4  10  21  40  66  92 124 167 225 278 347 412
#     4  11  25  39  62  95 131 175 218 273 343 419
#
# _framework density 21.762491000000001
#
# number of rings (size 3 to 8) (size 9 to 14) (size 15 to 20)
#    0.000    1.250    2.500    2.625    7.000    1.500 
#    0.000    0.625    0.000    0.000    0.000    0.000 
#    0.000    0.000    0.000    0.000    0.000    0.000 
#
# Total GULP energy -89095.629972 kJ/mol
# GULP energy per Si atom -5568.476873 kJ/mol
# Density = 2.171296 g / cm^3
# Si number density = 21.762491 Si / 1000 Ang^3
#
#
#
# Elastic Constant Matrix: (Units=GPa)
#
#
# Indices 1 2 3 4 5 6 
#
# 1 60.7159 9.5573 15.4905 10.7878 5.5779 16.1140
# 2 9.5573 115.1109 48.7517 11.6749 5.5829 5.9802
# 3 15.4905 48.7517 89.6287 2.2367 12.2616 -2.1271
# 4 10.7878 11.6749 2.2367 34.6815 -0.7753 8.8310
# 5 5.5779 5.5829 12.2616 -0.7753 23.4932 1.8405
# 6 16.1140 5.9802 -2.1271 8.8310 1.8405 29.6033
#
#
#
# Elastic Compliance Matrix: (Units=1/GPa)
#
#
# Indices 1 2 3 4 5 6 
#
# 1 0.021091 0.001029 -0.004022 -0.003995 -0.002452 -0.010633
# 2 0.001029 0.011864 -0.006680 -0.003234 0.000512 -0.002504
# 3 -0.004022 -0.006680 0.016446 0.001075 -0.006381 0.004796
# 4 -0.003995 -0.003234 0.001075 0.032967 0.002800 -0.007104
# 5 -0.002452 0.000512 -0.006381 0.002800 0.046681 -0.002965
# 6 -0.010633 -0.002504 0.004796 -0.007104 -0.002965 0.042722
#
#
# Mechanical properties :
#
#
# Convention : Reuss Voigt Hill
#
# Bulk Modulus (GPa) = 33.27241 45.89496 39.58368
# Shear Modulus (GPa) = 24.85879 30.33266 27.59573
#
# Velocity S-wave (km/s) = 3.38343 3.73742 3.56482
# Velocity P-wave (km/s) = 5.53041 6.30549 5.93063
#
# Compressibility (1/GPa) = 0.03005493
#
# Stress axis : x y z
#
# Youngs Moduli (GPa) = 47.41249 84.28767 60.80654
#
# Poissons Ratio (x) = -0.08671 0.24457
# Poissons Ratio (y) = -0.04878 0.40618
# Poissons Ratio (z) = 0.19070 0.56303
#
# Static dielectric constant tensor:
#      x y z
#    x 1.893100 0.014150 -0.059540 
#    y 0.014150 1.794990 -0.003590 
#    z -0.059540 -0.003590 1.912550 
# 
# From -- ./inp_files/328328.got.cif
#   From: 2010.05.17/outbox.cif.g08.bks.cpg/sg2_165_cif.got.tgz:328328.got - 2010.06.03 11:33:40.
