data_PCOD9011558
_publ_section_title
;
Structure prediction by ZEFSAII (Michael W. Deem and Ramdas Pophale) SiO2 
 PCOD9011558
Probable space group: P -1
;
_chemical_formula_sum "Si O2"
_cell_formula_units_Z 12
_cell_length_a 10.286214
_cell_length_b 8.332597
_cell_length_c 11.814614
_cell_angle_alpha 45.527248
_cell_angle_beta 50.897761
_cell_angle_gamma 81.329343
_cell_volume 477.025328
_symmetry_space_group_name_H-M "P -1"
_symmetry_group_IT_number 2
_symmetry_cell_setting 'triclinic'
loop_
_space_group_symop_operation_xyz
x,y,z
-x,-y,-z
loop_
_atom_site_type_symbol
_atom_site_label
_atom_site_fract_x
_atom_site_fract_y
_atom_site_fract_z
Si Si1 0.108459 0.786191 0.914553
Si Si2 0.620369 0.648587 0.472768
Si Si3 0.258435 0.993172 0.304367
Si Si4 0.238913 0.657779 0.296314
Si Si5 0.288652 0.724598 0.632303
Si Si6 0.206696 0.446333 0.180978
O O1 0.178224 0.820122 0.729163
O O2 0.187552 0.063533 0.792775
O O3 0.202346 0.633780 0.996299
O O4 0.877085 0.580240 0.151162
O O5 0.500000 0.500000 0.500000
O O6 0.687532 0.483630 0.589342
O O7 0.473404 0.720073 0.581483
O O8 0.304572 0.937840 0.180244
O O9 0.346772 0.898137 0.401429
O O10 0.022063 0.778840 0.554548
O O11 0.296260 0.278580 0.169435
O O12 0.297409 0.622931 0.155967
O O13 0.000000 0.500000 0.500000
#
# Coordination Sequence:
#
# PCOD9011558 Si02
#       6
#     2   2   2   2   2   2
#     4  10  23  42  69 101 130 178 226 276 338 399
#     4  12  24  43  67  98 137 175 223 280 332 401
#     4   9  17  37  63  92 128 171 218 268 334 390
#     4  10  21  40  66  95 131 180 218 271 343 396
#     4  10  21  42  68  97 130 174 231 274 331 401
#     4   9  19  37  63  92 129 172 217 271 328 398
#
# _framework density 25.155895999999998
#
# number of rings (size 3 to 8) (size 9 to 14) (size 15 to 20)
#    0.000    2.000    1.667    1.500    0.000    4.667 
#    3.000    4.167    0.000    0.000    0.000    0.000 
#    0.000    0.000    0.000    0.000    0.000    0.000 
#
# Total GULP energy -67189.630181 kJ/mol
# GULP energy per Si atom -5599.135848 kJ/mol
# Density = 2.509864 g / cm^3
# Si number density = 25.155896 Si / 1000 Ang^3
#
#
#
# Elastic Constant Matrix: (Units=GPa)
#
#
# Indices 1 2 3 4 5 6 
#
# 1 124.7442 34.4167 25.4680 -1.6323 -2.9923 1.9974
# 2 34.4167 150.2232 34.0433 -5.6640 4.9275 16.8808
# 3 25.4680 34.0433 70.3289 -7.3782 -11.8713 11.5891
# 4 -1.6323 -5.6640 -7.3782 40.5846 3.5176 -10.2376
# 5 -2.9923 4.9275 -11.8713 3.5176 38.7633 -0.3903
# 6 1.9974 16.8808 11.5891 -10.2376 -0.3903 50.8766
#
#
#
# Elastic Compliance Matrix: (Units=1/GPa)
#
#
# Indices 1 2 3 4 5 6 
#
# 1 0.008967 -0.001554 -0.002613 -0.000157 0.000111 0.000728
# 2 -0.001554 0.008067 -0.003398 0.000178 -0.002221 -0.001823
# 3 -0.002613 -0.003398 0.018364 0.001615 0.005682 -0.002585
# 4 -0.000157 0.000178 0.001615 0.026342 -0.001882 0.004865
# 5 0.000111 -0.002221 0.005682 -0.001882 0.027992 -0.000726
# 6 0.000728 -0.001823 -0.002585 0.004865 -0.000726 0.021794
#
#
# Mechanical properties :
#
#
# Convention : Reuss Voigt Hill
#
# Bulk Modulus (GPa) = 49.33520 59.23914 54.28717
# Shear Modulus (GPa) = 37.47749 42.80278 40.14014
#
# Velocity S-wave (km/s) = 3.86399 4.12940 3.99890
# Velocity P-wave (km/s) = 6.28980 6.80704 6.55353
#
# Compressibility (1/GPa) = 0.02026950
#
# Stress axis : x y z
#
# Youngs Moduli (GPa) = 111.51393 123.95897 54.45318
#
# Poissons Ratio (x) = 0.19260 0.14228
# Poissons Ratio (y) = 0.17326 0.18504
# Poissons Ratio (z) = 0.29138 0.42123
#
# Static dielectric constant tensor:
#      x y z
#    x 1.995990 0.030780 -0.081270 
#    y 0.030780 2.031410 0.027920 
#    z -0.081270 0.027920 1.957440 
# 
# From -- ./inp_files/166587.got.cif
#   From: 2010.05.17/outbox.cif.g08.bks.cpg/sg2_84_cif.got.tgz:166587.got - 2010.06.03 11:33:40.
