data_PCOD9011133
_publ_section_title
;
Structure prediction by ZEFSAII (Michael W. Deem and Ramdas Pophale) SiO2 
 PCOD9011133
Probable space group: P -1
;
_chemical_formula_sum "Si O2"
_cell_formula_units_Z 16
_cell_length_a 12.247134
_cell_length_b 8.911365
_cell_length_c 11.110846
_cell_angle_alpha 114.224443
_cell_angle_beta 131.916537
_cell_angle_gamma 54.920243
_cell_volume 737.735947
_symmetry_space_group_name_H-M "P -1"
_symmetry_group_IT_number 2
_symmetry_cell_setting 'triclinic'
loop_
_space_group_symop_operation_xyz
x,y,z
-x,-y,-z
loop_
_atom_site_type_symbol
_atom_site_label
_atom_site_fract_x
_atom_site_fract_y
_atom_site_fract_z
Si Si1 0.447546 0.478775 0.086795
Si Si2 0.827142 0.461858 0.944376
Si Si3 0.297174 0.059053 0.613237
Si Si4 0.318192 0.923018 0.832871
Si Si5 0.931362 0.242764 0.483272
Si Si6 0.328687 0.363696 0.578043
Si Si7 0.441738 0.341195 0.391273
Si Si8 0.953445 0.756619 0.162297
O O1 0.258517 0.570542 0.012551
O O2 0.520617 0.260279 0.085193
O O3 0.533317 0.570658 0.265112
O O4 0.500000 0.500000 0.000000
O O5 0.682871 0.594836 0.791581
O O6 0.073836 0.425659 0.908802
O O7 0.934374 0.282926 0.885458
O O8 0.343107 0.194223 0.612990
O O9 0.100049 0.141065 0.500991
O O10 0.400149 0.851697 0.575119
O O11 0.193379 0.841860 0.667206
O O12 0.342542 0.041014 0.782406
O O13 0.220184 0.063428 0.912225
O O14 0.840528 0.458666 0.460010
O O15 0.651170 0.672692 0.561627
O O16 0.965996 0.227250 0.647297
O O17 0.500000 0.500000 0.500000
#
# Coordination Sequence:
#
# PCOD9011133 Si02
#       8
#     2   2   2   2   2   2   2   2
#     4  11  25  42  63  92 128 166 207 262 326 378
#     4  11  23  41  63  91 127 169 208 255 323 370
#     4  11  22  36  63  97 123 159 208 270 310 361
#     4  10  22  41  66  94 120 171 216 254 318 378
#     4  10  21  40  65  92 129 166 215 256 317 374
#     4  11  23  40  62  95 126 165 211 266 311 373
#     4  12  22  41  65  90 126 168 214 256 315 380
#     4  10  22  38  66  93 122 169 215 258 310 379
#
# _framework density 21.687975999999999
#
# number of rings (size 3 to 8) (size 9 to 14) (size 15 to 20)
#    0.000    1.250    3.750    3.000    5.250    1.500 
#    0.000    0.625    0.000    0.000    0.000    0.000 
#    0.000    0.000    0.000    0.000    0.000    0.000 
#
# Total GULP energy -89414.463780 kJ/mol
# GULP energy per Si atom -5588.403986 kJ/mol
# Density = 2.163861 g / cm^3
# Si number density = 21.687976 Si / 1000 Ang^3
#
#
#
# Elastic Constant Matrix: (Units=GPa)
#
#
# Indices 1 2 3 4 5 6 
#
# 1 122.6016 51.8087 11.3664 11.4618 -22.9600 -9.2684
# 2 51.8087 152.2836 3.0359 27.9172 -10.0110 -12.7786
# 3 11.3664 3.0359 41.9715 17.8523 -0.0398 -1.5800
# 4 11.4618 27.9172 17.8523 23.8341 -0.4901 -10.5168
# 5 -22.9600 -10.0110 -0.0398 -0.4901 33.6541 4.1277
# 6 -9.2684 -12.7786 -1.5800 -10.5168 4.1277 40.2555
#
#
#
# Elastic Compliance Matrix: (Units=1/GPa)
#
#
# Indices 1 2 3 4 5 6 
#
# 1 0.011088 -0.003600 -0.003668 0.002298 0.006374 0.001213
# 2 -0.003600 0.010668 0.007377 -0.017011 0.000683 -0.001667
# 3 -0.003668 0.007377 0.041629 -0.041457 0.000083 -0.007708
# 4 0.002298 -0.017011 -0.041457 0.100681 -0.004562 0.020273
# 5 0.006374 0.000683 0.000083 -0.004562 0.034574 -0.003049
# 6 0.001213 -0.001667 -0.007708 0.020273 -0.003049 0.029898
#
#
# Mechanical properties :
#
#
# Convention : Reuss Voigt Hill
#
# Bulk Modulus (GPa) = 15.72250 49.91984 32.82117
# Shear Modulus (GPa) = 20.03838 36.25846 28.14842
#
# Velocity S-wave (km/s) = 3.04293 4.09323 3.60652
# Velocity P-wave (km/s) = 4.42844 6.73844 5.70165
#
# Compressibility (1/GPa) = 0.06360311
#
# Stress axis : x y z
#
# Youngs Moduli (GPa) = 90.18478 93.73964 24.02172
#
# Poissons Ratio (x) = 0.33743 0.08811
# Poissons Ratio (y) = 0.32463 -0.17720
# Poissons Ratio (z) = 0.33081 -0.69149
#
# Static dielectric constant tensor:
#      x y z
#    x 1.810230 -0.034170 -0.004020 
#    y -0.034170 1.812270 -0.010140 
#    z -0.004020 -0.010140 1.841750 
# 
# From -- ./inp_files/426529.got.cif
#   From: 2010.05.17/outbox.cif.g08.bks.cpg/sg2_214_cif.got.tgz:426529.got - 2010.06.03 11:33:40.
