data_PCOD9011207
_publ_section_title
;
Structure prediction by ZEFSAII (Michael W. Deem and Ramdas Pophale) SiO2 
 PCOD9011207
Probable space group: P -1
;
_chemical_formula_sum "Si O2"
_cell_formula_units_Z 16
_cell_length_a 12.357545
_cell_length_b 12.606265
_cell_length_c 8.786402
_cell_angle_alpha 51.855014
_cell_angle_beta 133.134332
_cell_angle_gamma 113.934634
_cell_volume 785.226446
_symmetry_space_group_name_H-M "P -1"
_symmetry_group_IT_number 2
_symmetry_cell_setting 'triclinic'
loop_
_space_group_symop_operation_xyz
x,y,z
-x,-y,-z
loop_
_atom_site_type_symbol
_atom_site_label
_atom_site_fract_x
_atom_site_fract_y
_atom_site_fract_z
Si Si1 0.263852 0.212864 0.766438
Si Si2 0.672941 0.384152 0.885673
Si Si3 0.043475 0.673973 0.576311
Si Si4 0.574962 0.514724 0.223540
Si Si5 0.527914 0.849847 0.225785
Si Si6 0.600182 0.044213 0.696139
Si Si7 0.101054 0.552616 0.186042
Si Si8 0.819727 0.273399 0.663662
O O1 0.337585 0.345824 0.792642
O O2 0.317561 0.201860 0.652715
O O3 0.086450 0.218776 0.599162
O O4 0.334000 0.086232 0.036839
O O5 0.557407 0.476847 0.787493
O O6 0.590505 0.252969 0.863375
O O7 0.741134 0.458821 0.739285
O O8 0.808456 0.335053 0.169952
O O9 0.089414 0.698463 0.425871
O O10 0.956878 0.536879 0.650586
O O11 0.691186 0.389900 0.452791
O O12 0.500000 0.500000 0.000000
O O13 0.501467 0.866493 0.364224
O O14 0.500000 0.000000 0.000000
O O15 0.737276 0.133924 0.699122
O O16 0.500000 0.000000 0.500000
O O17 0.090906 0.702760 0.113951
O O18 0.000000 0.500000 0.000000
#
# Coordination Sequence:
#
# PCOD9011207 Si02
#       8
#     2   2   2   2   2   2   2   2
#     4  10  23  41  64  92 130 168 214 260 318 382
#     4  10  21  40  65  94 130 163 213 268 318 378
#     4  11  23  40  65  91 133 169 206 258 330 374
#     4  11  21  37  65  99 118 167 220 259 316 376
#     4   9  20  40  65  86 122 166 212 262 307 376
#     4  11  24  43  66  95 127 166 216 268 316 374
#     4  10  22  39  60  92 125 166 206 261 320 374
#     4  12  23  39  68  92 132 169 211 267 320 377
#
# _framework density 20.376287999999999
#
# number of rings (size 3 to 8) (size 9 to 14) (size 15 to 20)
#    0.000    1.500    3.750    1.125    3.500    2.000 
#    0.000    5.000    0.000    0.000    0.000    0.000 
#    0.000    0.000    0.000    0.000    0.000    0.000 
#
# Total GULP energy -89207.700374 kJ/mol
# GULP energy per Si atom -5575.481273 kJ/mol
# Density = 2.032991 g / cm^3
# Si number density = 20.376288 Si / 1000 Ang^3
#
#
#
# Elastic Constant Matrix: (Units=GPa)
#
#
# Indices 1 2 3 4 5 6 
#
# 1 182.1226 46.8804 29.4182 11.9531 -3.2290 4.3198
# 2 46.8804 102.2291 13.3755 5.5591 -3.5261 6.7824
# 3 29.4182 13.3755 43.8908 8.2015 15.3935 2.2221
# 4 11.9531 5.5591 8.2015 37.6560 0.5265 -9.0882
# 5 -3.2290 -3.5261 15.3935 0.5265 36.2856 -5.0512
# 6 4.3198 6.7824 2.2221 -9.0882 -5.0512 30.3916
#
#
#
# Elastic Compliance Matrix: (Units=1/GPa)
#
#
# Indices 1 2 3 4 5 6 
#
# 1 0.006963 -0.002468 -0.004570 -0.000878 0.002334 0.000021
# 2 -0.002468 0.011427 -0.002060 -0.000981 0.001487 -0.002095
# 3 -0.004570 -0.002060 0.033490 -0.006756 -0.015544 -0.005943
# 4 -0.000878 -0.000981 -0.006756 0.030987 0.003736 0.010725
# 5 0.002334 0.001487 -0.015544 0.003736 0.035494 0.007489
# 6 0.000021 -0.002095 -0.005943 0.010725 0.007489 0.038255
#
#
# Mechanical properties :
#
#
# Convention : Reuss Voigt Hill
#
# Bulk Modulus (GPa) = 29.68949 56.39897 43.04423
# Shear Modulus (GPa) = 26.87576 36.77120 31.82348
#
# Velocity S-wave (km/s) = 3.63571 4.25268 3.95624
# Velocity P-wave (km/s) = 5.67686 7.20087 6.48379
#
# Compressibility (1/GPa) = 0.03368195
#
# Stress axis : x y z
#
# Youngs Moduli (GPa) = 143.61755 87.51179 29.85975
#
# Poissons Ratio (x) = 0.21600 0.13647
# Poissons Ratio (y) = 0.35448 0.06152
# Poissons Ratio (z) = 0.65640 0.18030
#
# Static dielectric constant tensor:
#      x y z
#    x 1.744910 0.002060 -0.001220 
#    y 0.002060 1.764870 0.034440 
#    z -0.001220 0.034440 1.799870 
# 
# From -- ./inp_files/261833.got.cif
#   From: 2010.05.17/outbox.cif.g08.bks.cpg/sg2_131_cif.got.tgz:261833.got - 2010.06.03 11:33:40.
