data_PCOD9011378
_publ_section_title
;
Structure prediction by ZEFSAII (Michael W. Deem and Ramdas Pophale) SiO2 
 PCOD9011378
Probable space group: P -1
;
_chemical_formula_sum "Si O2"
_cell_formula_units_Z 15
_cell_length_a 13.359711
_cell_length_b 5.426007
_cell_length_c 8.791920
_cell_angle_alpha 81.074894
_cell_angle_beta 83.480976
_cell_angle_gamma 100.655675
_cell_volume 612.076713
_symmetry_space_group_name_H-M "P -1"
_symmetry_group_IT_number 2
_symmetry_cell_setting 'triclinic'
loop_
_space_group_symop_operation_xyz
x,y,z
-x,-y,-z
loop_
_atom_site_type_symbol
_atom_site_label
_atom_site_fract_x
_atom_site_fract_y
_atom_site_fract_z
Si Si1 0.764733 0.369237 0.091440
Si Si2 0.338641 0.987255 0.099918
Si Si3 0.438579 0.416703 0.865593
Si Si4 0.000000 0.500000 0.000000
Si Si5 0.074923 0.588901 0.334751
Si Si6 0.674230 0.057372 0.406886
Si Si7 0.451246 0.742802 0.368854
Si Si8 0.796069 0.846187 0.666914
O O1 0.667446 0.492019 0.136610
O O2 0.752500 0.158269 0.248094
O O3 0.879794 0.527815 0.047621
O O4 0.741569 0.233456 0.945982
O O5 0.402705 0.884906 0.228601
O O6 0.280698 0.185556 0.172433
O O7 0.404945 0.116328 0.934881
O O8 0.514731 0.489154 0.703686
O O9 0.500000 0.500000 0.000000
O O10 0.024927 0.553837 0.177690
O O11 0.125374 0.886526 0.331963
O O12 0.000000 0.500000 0.500000
O O13 0.153200 0.393702 0.344792
O O14 0.636756 0.282365 0.487569
O O15 0.731447 0.902848 0.527090
O O16 0.563155 0.894783 0.390087
#
# Coordination Sequence:
#
# PCOD9011378 Si02
#       8
#     2   2   2   1   2   2   2   2
#     4  12  24  45  68 106 147 197 259 319 384 462
#     4  11  22  43  68  99 154 193 245 316 388 465
#     4  12  23  38  73 107 142 195 248 315 395 468
#     4  12  28  50  78 116 148 210 276 322 384 468
#     4  12  27  52  78 112 150 203 265 334 389 456
#     4  10  23  42  70 105 149 196 243 316 390 475
#     4  10  21  40  66 106 146 188 247 306 392 481
#     4  11  26  49  75 104 155 202 252 321 400 457
#
# _framework density 24.506730000000001
#
# number of rings (size 3 to 8) (size 9 to 14) (size 15 to 20)
#    0.000    0.800    4.000    3.200    0.000    3.200 
#    4.800    0.000    0.000    0.000    0.000    0.000 
#    0.000    0.000    0.000    0.000    0.000    0.000 
#
# Total GULP energy -83578.884980 kJ/mol
# GULP energy per Si atom -5571.925665 kJ/mol
# Density = 2.445095 g / cm^3
# Si number density = 24.506730 Si / 1000 Ang^3
#
#
#
# Elastic Constant Matrix: (Units=GPa)
#
#
# Indices 1 2 3 4 5 6 
#
# 1 147.1395 27.2009 45.5744 15.5007 7.7149 -12.1007
# 2 27.2009 51.6850 25.7997 1.3942 2.9501 -5.1386
# 3 45.5744 25.7997 151.8022 11.0778 -0.0123 1.1408
# 4 15.5007 1.3942 11.0778 31.3321 -0.6009 -3.9503
# 5 7.7149 2.9501 -0.0123 -0.6009 60.8470 6.8161
# 6 -12.1007 -5.1386 1.1408 -3.9503 6.8161 37.7563
#
#
#
# Elastic Compliance Matrix: (Units=1/GPa)
#
#
# Indices 1 2 3 4 5 6 
#
# 1 0.008530 -0.003214 -0.001799 -0.003182 -0.001208 0.002236
# 2 -0.003214 0.022832 -0.003078 0.001965 -0.000966 0.002550
# 3 -0.001799 -0.003078 0.007802 -0.001914 0.000531 -0.001527
# 4 -0.003182 0.001965 -0.001914 0.034445 0.000329 0.002850
# 5 -0.001208 -0.000966 0.000531 0.000329 0.017039 -0.003576
# 6 0.002236 0.002550 -0.001527 0.002850 -0.003576 0.028539
#
#
# Mechanical properties :
#
#
# Convention : Reuss Voigt Hill
#
# Bulk Modulus (GPa) = 43.51445 60.86408 52.18927
# Shear Modulus (GPa) = 34.95756 42.79052 38.87404
#
# Velocity S-wave (km/s) = 3.78093 4.18314 3.98711
# Velocity P-wave (km/s) = 6.07085 6.94414 6.52213
#
# Compressibility (1/GPa) = 0.02298087
#
# Stress axis : x y z
#
# Youngs Moduli (GPa) = 117.23027 43.79878 128.17117
#
# Poissons Ratio (x) = 0.14077 0.23063
# Poissons Ratio (y) = 0.37678 0.39453
# Poissons Ratio (z) = 0.21094 0.13482
#
# Static dielectric constant tensor:
#      x y z
#    x 2.070220 0.083640 -0.042730 
#    y 0.083640 2.122250 -0.021350 
#    z -0.042730 -0.021350 2.019900 
# 
# From -- ./inp_files/122569.got.cif
#   From: 2010.05.17/outbox.cif.g08.bks.cpg/sg2_62_cif.got.tgz:122569.got - 2010.06.03 11:33:40.
