data_PCOD9011171
_publ_section_title
;
Structure prediction by ZEFSAII (Michael W. Deem and Ramdas Pophale) SiO2 
 PCOD9011171
Probable space group: P -1
;
_chemical_formula_sum "Si O2"
_cell_formula_units_Z 16
_cell_length_a 9.064705
_cell_length_b 16.026880
_cell_length_c 14.686075
_cell_angle_alpha 151.239021
_cell_angle_beta 100.467062
_cell_angle_gamma 60.797279
_cell_volume 726.247212
_symmetry_space_group_name_H-M "P -1"
_symmetry_group_IT_number 2
_symmetry_cell_setting 'triclinic'
loop_
_space_group_symop_operation_xyz
x,y,z
-x,-y,-z
loop_
_atom_site_type_symbol
_atom_site_label
_atom_site_fract_x
_atom_site_fract_y
_atom_site_fract_z
Si Si1 0.565472 0.276814 0.541005
Si Si2 0.671132 0.666103 0.280373
Si Si3 0.952640 0.826957 0.065118
Si Si4 0.271816 0.484651 0.243157
Si Si5 0.832805 0.995195 0.734984
Si Si6 0.218280 0.266292 0.186119
Si Si7 0.447335 0.214846 0.818440
Si Si8 0.265819 0.239749 0.371717
O O1 0.487682 0.339677 0.695693
O O2 0.587088 0.455636 0.679815
O O3 0.407853 0.274877 0.467319
O O4 0.794630 0.011299 0.302499
O O5 0.680188 0.647916 0.155809
O O6 0.561365 0.936517 0.553137
O O7 0.892970 0.445828 0.141447
O O8 0.807451 0.885810 0.021686
O O9 0.086445 0.885825 0.106600
O O10 0.306209 0.337396 0.193936
O O11 0.032636 0.741351 0.469834
O O12 0.314639 0.349520 0.024278
O O13 0.736377 0.942109 0.748950
O O14 0.650804 0.171810 0.811030
O O15 0.318871 0.178277 0.212352
O O16 0.974770 0.509527 0.408696
#
# Coordination Sequence:
#
# PCOD9011171 Si02
#       8
#     2   2   2   2   2   2   2   2
#     4  11  22  41  65  93 132 169 210 261 316 379
#     4  11  23  42  65  96 126 164 216 260 320 383
#     4  11  23  40  65  93 131 170 208 264 315 376
#     4  10  23  41  64  95 130 168 212 261 316 376
#     4  10  22  42  63  93 133 166 211 262 313 380
#     4  10  21  40  65  93 129 171 211 264 313 374
#     4  11  23  41  69  92 125 170 209 264 322 376
#     4  10  21  41  66  91 129 173 212 260 317 374
#
# _framework density 22.031065000000002
#
# number of rings (size 3 to 8) (size 9 to 14) (size 15 to 20)
#    0.000    1.500    2.500    2.250    0.000    4.500 
#    0.000    5.625    0.000    0.000    0.000    0.000 
#    0.000    0.000    0.000    0.000    0.000    0.000 
#
# Total GULP energy -89363.019438 kJ/mol
# GULP energy per Si atom -5585.188715 kJ/mol
# Density = 2.198092 g / cm^3
# Si number density = 22.031065 Si / 1000 Ang^3
#
#
#
# Elastic Constant Matrix: (Units=GPa)
#
#
# Indices 1 2 3 4 5 6 
#
# 1 136.0184 50.3471 35.5848 -4.4477 20.9844 19.0000
# 2 50.3471 140.1023 54.8310 -20.8949 1.2856 5.6054
# 3 35.5848 54.8310 105.4837 -9.3869 -0.7086 11.0531
# 4 -4.4477 -20.8949 -9.3869 20.9306 4.0493 -9.6356
# 5 20.9844 1.2856 -0.7086 4.0493 42.2747 -3.7422
# 6 19.0000 5.6054 11.0531 -9.6356 -3.7422 23.6063
#
#
#
# Elastic Compliance Matrix: (Units=1/GPa)
#
#
# Indices 1 2 3 4 5 6 
#
# 1 0.011441 -0.004070 -0.001161 -0.006128 -0.005974 -0.011147
# 2 -0.004070 0.011888 -0.004515 0.012349 0.001089 0.007780
# 3 -0.001161 -0.004515 0.012563 -0.001212 0.000663 -0.004265
# 4 -0.006128 0.012349 -0.001212 0.073421 -0.001528 0.032295
# 5 -0.005974 0.001089 0.000663 -0.001528 0.027450 0.007967
# 6 -0.011147 0.007780 -0.004265 0.032295 0.007967 0.065928
#
#
# Mechanical properties :
#
#
# Convention : Reuss Voigt Hill
#
# Bulk Modulus (GPa) = 60.98508 73.68114 67.33311
# Shear Modulus (GPa) = 21.96362 33.41842 27.69102
#
# Velocity S-wave (km/s) = 3.16086 3.89894 3.54914
# Velocity P-wave (km/s) = 6.40803 7.33388 6.88653
#
# Compressibility (1/GPa) = 0.01639745
#
# Stress axis : x y z
#
# Youngs Moduli (GPa) = 87.40795 84.11999 79.60179
#
# Poissons Ratio (x) = 0.34237 0.09245
# Poissons Ratio (y) = 0.35575 0.35943
# Poissons Ratio (z) = 0.10151 0.37983
#
# Static dielectric constant tensor:
#      x y z
#    x 1.837940 0.004840 0.001210 
#    y 0.004840 1.780010 -0.003600 
#    z 0.001210 -0.003600 1.901040 
# 
# From -- ./inp_files/505825.got.cif
#   From: 2010.05.17/outbox.cif.g08.bks.cpg/sg2_253_cif.got.tgz:505825.got - 2010.06.03 11:33:40.
