data_PCOD9011732
_publ_section_title
;
Structure prediction by ZEFSAII (Michael W. Deem and Ramdas Pophale) SiO2 
 PCOD9011732
Probable space group: P -1
;
_chemical_formula_sum "Si O2"
_cell_formula_units_Z 14
_cell_length_a 12.564101
_cell_length_b 30.927172
_cell_length_c 15.402803
_cell_angle_alpha 19.194687
_cell_angle_beta 148.006381
_cell_angle_gamma 158.940859
_cell_volume 678.549190
_symmetry_space_group_name_H-M "P -1"
_symmetry_group_IT_number 2
_symmetry_cell_setting 'triclinic'
loop_
_space_group_symop_operation_xyz
x,y,z
-x,-y,-z
loop_
_atom_site_type_symbol
_atom_site_label
_atom_site_fract_x
_atom_site_fract_y
_atom_site_fract_z
Si Si1 0.799854 0.132201 0.894696
Si Si2 0.305009 0.862160 0.710103
Si Si3 0.803045 0.833738 0.461194
Si Si4 0.861464 0.793981 0.761212
Si Si5 0.172919 0.535740 0.966073
Si Si6 0.516658 0.045425 0.679484
Si Si7 0.598906 0.512819 0.276258
O O1 0.720618 0.117874 0.767229
O O2 0.088471 0.358425 0.700271
O O3 0.500000 0.000000 0.000000
O O4 0.905362 0.033558 0.162466
O O5 0.080166 0.872750 0.557118
O O6 0.500000 0.000000 0.500000
O O7 0.520902 0.956206 0.765880
O O8 0.081455 0.632166 0.963736
O O9 0.678797 0.730746 0.665772
O O10 0.564727 0.697256 0.476626
O O11 0.678978 0.634031 0.014248
O O12 0.000000 0.000000 0.500000
O O13 0.165614 0.863308 0.815981
O O14 0.389223 0.760917 0.654254
O O15 0.365077 0.497345 0.191156
O O16 0.000000 0.500000 0.000000
#
# Coordination Sequence:
#
# PCOD9011732 Si02
#       7
#     2   2   2   2   2   2   2
#     4  12  24  41  59  89 135 169 190 242 313 375
#     4  10  21  40  67  89 115 158 212 260 300 343
#     4  10  23  37  61  91 122 157 207 253 301 358
#     4  11  17  37  62  88 117 158 204 262 294 348
#     4  11  22  39  69  90 115 157 211 263 298 350
#     4  11  22  38  60  93 122 158 205 246 310 365
#     4  11  22  39  62  90 123 158 210 249 304 357
#
# _framework density 20.632255000000001
#
# number of rings (size 3 to 8) (size 9 to 14) (size 15 to 20)
#    0.000    1.143    5.714    1.286    0.000    1.714 
#    0.000    1.429    0.000    0.000    0.000    0.000 
#    0.000    0.000    0.000    0.000    0.000    0.000 
#
# Total GULP energy -78155.847358 kJ/mol
# GULP energy per Si atom -5582.560526 kJ/mol
# Density = 2.058529 g / cm^3
# Si number density = 20.632255 Si / 1000 Ang^3
#
#
#
# Elastic Constant Matrix: (Units=GPa)
#
#
# Indices 1 2 3 4 5 6 
#
# 1 121.0901 35.0926 2.9755 1.3231 -2.2485 -15.7684
# 2 35.0926 107.7158 -8.9173 -8.7752 0.0608 -44.0007
# 3 2.9755 -8.9173 19.2789 -8.8235 4.9779 -6.2866
# 4 1.3231 -8.7752 -8.8235 28.7259 -9.2738 -1.1021
# 5 -2.2485 0.0608 4.9779 -9.2738 23.1896 -4.5635
# 6 -15.7684 -44.0007 -6.2866 -1.1021 -4.5635 44.3085
#
#
#
# Elastic Compliance Matrix: (Units=1/GPa)
#
#
# Indices 1 2 3 4 5 6 
#
# 1 0.009599 -0.005093 -0.006620 -0.004063 0.000217 -0.002659
# 2 -0.005093 0.029466 0.034122 0.023659 0.008202 0.033724
# 3 -0.006620 0.034122 0.104180 0.046112 0.004782 0.047950
# 4 -0.004063 0.023659 0.046112 0.064709 0.021911 0.032457
# 5 0.000217 0.008202 0.004782 0.021911 0.053807 0.014988
# 6 -0.002659 0.033724 0.047950 0.032457 0.014988 0.064266
#
#
# Mechanical properties :
#
#
# Convention : Reuss Voigt Hill
#
# Bulk Modulus (GPa) = 5.31731 34.04294 19.68012
# Shear Modulus (GPa) = 14.53926 33.84041 24.18984
#
# Velocity S-wave (km/s) = 2.65747 4.05430 3.42779
# Velocity P-wave (km/s) = 3.46396 6.20098 5.02250
#
# Compressibility (1/GPa) = 0.18806494
#
# Stress axis : x y z
#
# Youngs Moduli (GPa) = 104.17757 33.93729 9.59876
#
# Poissons Ratio (x) = 0.17283 0.06354
# Poissons Ratio (y) = 0.53054 -0.32753
# Poissons Ratio (z) = 0.68963 -1.15801
#
# Static dielectric constant tensor:
#      x y z
#    x 1.761470 -0.025470 0.009130 
#    y -0.025470 1.801900 -0.007700 
#    z 0.009130 -0.007700 1.720120 
# 
# From -- ./inp_files/246450.got.cif
#   From: 2010.05.17/outbox.cif.g08.bks.cpg/sg2_124_cif.got.tgz:246450.got - 2010.06.03 11:33:40.
