data_PCOD9011725
_publ_section_title
;
Structure prediction by ZEFSAII (Michael W. Deem and Ramdas Pophale) SiO2 
 PCOD9011725
Probable space group: P -1
;
_chemical_formula_sum "Si O2"
_cell_formula_units_Z 14
_cell_length_a 9.476154
_cell_length_b 12.259177
_cell_length_c 11.247924
_cell_angle_alpha 144.174256
_cell_angle_beta 51.348674
_cell_angle_gamma 130.220042
_cell_volume 568.880704
_symmetry_space_group_name_H-M "P -1"
_symmetry_group_IT_number 2
_symmetry_cell_setting 'triclinic'
loop_
_space_group_symop_operation_xyz
x,y,z
-x,-y,-z
loop_
_atom_site_type_symbol
_atom_site_label
_atom_site_fract_x
_atom_site_fract_y
_atom_site_fract_z
Si Si1 0.377832 0.924334 0.756435
Si Si2 0.628639 0.360047 0.952003
Si Si3 0.973213 0.591028 0.272956
Si Si4 0.350018 0.583703 0.293881
Si Si5 0.982720 0.750133 0.899397
Si Si6 0.276910 0.162306 0.442617
Si Si7 0.083015 0.007451 0.653057
O O1 0.347263 0.778807 0.532245
O O2 0.167424 0.909678 0.894891
O O3 0.510531 0.835026 0.691733
O O4 0.502252 0.145020 0.863354
O O5 0.850177 0.396957 0.897557
O O6 0.628651 0.381927 0.828030
O O7 0.524123 0.512673 0.185898
O O8 0.936778 0.392978 0.188184
O O9 0.792443 0.646442 0.368721
O O10 0.061468 0.780007 0.480416
O O11 0.161075 0.397934 0.244576
O O12 0.869018 0.855209 0.137649
O O13 0.220994 0.084463 0.537423
O O14 0.126705 0.005949 0.298645
#
# Coordination Sequence:
#
# PCOD9011725 Si02
#       7
#     2   2   2   2   2   2   2
#     4  12  23  41  61  93 125 160 194 253 302 360
#     4  10  21  40  67  87 115 165 204 249 300 341
#     4   9  20  41  61  93 120 157 196 256 298 347
#     4  10  25  40  59  95 119 155 214 245 287 374
#     4  11  25  38  63  89 128 162 192 247 318 344
#     4   9  20  40  65  89 119 156 209 246 290 358
#     4   9  19  41  60  89 122 152 206 246 289 363
#
# _framework density 24.609731
#
# number of rings (size 3 to 8) (size 9 to 14) (size 15 to 20)
#    0.857    1.143    1.429    0.857    6.000    5.714 
#    2.571    0.000    0.000    0.000    0.000    0.000 
#    0.000    0.000    0.000    0.000    0.000    0.000 
#
# Total GULP energy -78225.789438 kJ/mol
# GULP energy per Si atom -5587.556388 kJ/mol
# Density = 2.455372 g / cm^3
# Si number density = 24.609731 Si / 1000 Ang^3
#
#
#
# Elastic Constant Matrix: (Units=GPa)
#
#
# Indices 1 2 3 4 5 6 
#
# 1 70.2671 43.9417 6.7356 -5.8067 -16.0432 12.2114
# 2 43.9417 43.5064 -4.9026 19.8422 -6.6929 36.7520
# 3 6.7356 -4.9026 74.6951 16.7588 -6.2423 -14.2264
# 4 -5.8067 19.8422 16.7588 20.2610 7.0064 -12.4666
# 5 -16.0432 -6.6929 -6.2423 7.0064 36.7561 4.1146
# 6 12.2114 36.7520 -14.2264 -12.4666 4.1146 16.5206
#
#
#
# Elastic Compliance Matrix: (Units=1/GPa)
#
#
# Indices 1 2 3 4 5 6 
#
# 1 0.021929 -0.002600 -0.004093 -0.003754 0.011312 -0.019599
# 2 -0.002600 -0.002252 -0.000361 0.017842 -0.007464 0.021944
# 3 -0.004093 -0.000361 0.018191 -0.008587 0.001458 0.012649
# 4 -0.003754 0.017842 -0.008587 0.020332 -0.000495 -0.028845
# 5 0.011312 -0.007464 0.001458 -0.000495 0.030969 0.001412
# 6 -0.019599 0.021944 0.012649 -0.028845 0.001412 0.014974
#
#
# Mechanical properties :
#
#
# Convention : Reuss Voigt Hill
#
# Bulk Modulus (GPa) = 42.08974 31.11311 36.60143
# Shear Modulus (GPa) = 39.62891 24.22048 31.92470
#
# Velocity S-wave (km/s) = 4.01720 3.14057 3.60563
# Velocity P-wave (km/s) = 6.21749 5.08144 5.67795
#
# Compressibility (1/GPa) = 0.02375876
#
# Stress axis : x y z
#
# Youngs Moduli (GPa) = 45.60273 -444.02230 54.97234
#
# Poissons Ratio (x) = -1.15463 0.22501
# Poissons Ratio (y) = 0.11858 0.01983
# Poissons Ratio (z) = 0.18666 -0.16015
#
# Static dielectric constant tensor:
#      x y z
#    x 2.032770 0.018890 -0.008530 
#    y 0.018890 1.930510 -0.009790 
#    z -0.008530 -0.009790 1.936870 
# 
# From -- ./inp_files/521070.got.cif
#   From: 2010.05.17/outbox.cif.g08.bks.cpg/sg2_261_cif.got.tgz:521070.got - 2010.06.03 11:33:40.
