data_PCOD9011232
_publ_section_title
;
Structure prediction by ZEFSAII (Michael W. Deem and Ramdas Pophale) SiO2 
 PCOD9011232
Probable space group: P -1
;
_chemical_formula_sum "Si O2"
_cell_formula_units_Z 16
_cell_length_a 19.403299
_cell_length_b 15.921277
_cell_length_c 9.528559
_cell_angle_alpha 47.773946
_cell_angle_beta 141.467817
_cell_angle_gamma 159.358767
_cell_volume 621.836668
_symmetry_space_group_name_H-M "P -1"
_symmetry_group_IT_number 2
_symmetry_cell_setting 'triclinic'
loop_
_space_group_symop_operation_xyz
x,y,z
-x,-y,-z
loop_
_atom_site_type_symbol
_atom_site_label
_atom_site_fract_x
_atom_site_fract_y
_atom_site_fract_z
Si Si1 0.496281 0.121216 0.132492
Si Si2 0.332964 0.215568 0.245781
Si Si3 0.009329 0.689116 0.685231
Si Si4 0.288555 0.337583 0.455945
Si Si5 0.545004 0.176981 0.668785
Si Si6 0.196591 0.492934 0.032465
Si Si7 0.036508 0.109690 0.712113
Si Si8 0.909026 0.433457 0.589717
O O1 0.633098 0.226121 0.380949
O O2 0.517068 0.010727 0.230858
O O3 0.676319 0.377581 0.060770
O O4 0.229729 0.911972 0.892515
O O5 0.574515 0.498378 0.370632
O O6 0.377374 0.122203 0.396108
O O7 0.232576 0.198248 0.977831
O O8 0.146056 0.049332 0.266142
O O9 0.807070 0.432274 0.729520
O O10 0.897725 0.702866 0.432140
O O11 0.070810 0.669244 0.669543
O O12 0.500000 0.500000 0.500000
O O13 0.156146 0.328590 0.196464
O O14 0.105531 0.068217 0.449235
O O15 0.595138 0.265400 0.806849
O O16 0.963268 0.359768 0.822300
O O17 0.000000 0.500000 0.500000
#
# Coordination Sequence:
#
# PCOD9011232 Si02
#       8
#     2   2   2   2   2   2   2   2
#     4  11  23  40  67  88 125 170 205 259 318 365
#     4   9  21  38  61  93 117 162 216 258 305 367
#     4  12  25  43  59  96 133 165 211 257 317 384
#     4   9  18  36  59  91 120 150 204 262 302 363
#     4  11  23  40  65  90 134 170 203 259 321 379
#     4  10  21  40  65  95 125 159 216 263 310 378
#     4  10  22  38  68  86 123 167 208 260 311 365
#     4  10  25  38  64  96 119 161 216 262 308 378
#
# _framework density 25.730229999999999
#
# number of rings (size 3 to 8) (size 9 to 14) (size 15 to 20)
#    0.000    1.750    1.250    3.000    7.000    7.000 
#    0.000    2.500    0.000    0.000    0.000    0.000 
#    0.000    0.000    0.000    0.000    0.000    0.000 
#
# Total GULP energy -89441.240714 kJ/mol
# GULP energy per Si atom -5590.077545 kJ/mol
# Density = 2.567167 g / cm^3
# Si number density = 25.730230 Si / 1000 Ang^3
#
#
#
# Elastic Constant Matrix: (Units=GPa)
#
#
# Indices 1 2 3 4 5 6 
#
# 1 55.4469 8.3295 19.7602 -4.7549 1.3141 -2.6216
# 2 8.3295 61.1706 6.7526 -3.5371 -6.0984 -9.7565
# 3 19.7602 6.7526 166.1695 1.1138 16.8653 -5.9470
# 4 -4.7549 -3.5371 1.1138 33.1949 -10.6128 8.0285
# 5 1.3141 -6.0984 16.8653 -10.6128 28.8418 -7.2296
# 6 -2.6216 -9.7565 -5.9470 8.0285 -7.2296 33.7011
#
#
#
# Elastic Compliance Matrix: (Units=1/GPa)
#
#
# Indices 1 2 3 4 5 6 
#
# 1 0.019422 -0.002090 -0.002362 0.003006 0.001166 0.000023
# 2 -0.002090 0.018538 -0.001023 0.002523 0.007028 0.005930
# 3 -0.002362 -0.001023 0.006863 -0.002303 -0.004912 0.000226
# 4 0.003006 0.002523 -0.002303 0.036602 0.013914 -0.005177
# 5 0.001166 0.007028 -0.004912 0.013914 0.046058 0.007824
# 6 0.000023 0.005930 0.000226 -0.005177 0.007824 0.034343
#
#
# Mechanical properties :
#
#
# Convention : Reuss Voigt Hill
#
# Bulk Modulus (GPa) = 29.52294 39.16353 34.34323
# Shear Modulus (GPa) = 27.16404 35.67722 31.42063
#
# Velocity S-wave (km/s) = 3.25272 3.72773 3.49830
# Velocity P-wave (km/s) = 5.06022 5.81221 5.44920
#
# Compressibility (1/GPa) = 0.03387197
#
# Stress axis : x y z
#
# Youngs Moduli (GPa) = 51.48691 53.94446 145.71908
#
# Poissons Ratio (x) = 0.11275 0.34425
# Poissons Ratio (y) = 0.10762 0.14903
# Poissons Ratio (z) = 0.12163 0.05517
#
# Static dielectric constant tensor:
#      x y z
#    x 2.104610 0.082770 -0.027290 
#    y 0.082770 2.017980 0.065080 
#    z -0.027290 0.065080 2.063500 
# 
# From -- ./inp_files/448342.got.cif
#   From: 2010.05.17/outbox.cif.g08.bks.cpg/sg2_225_cif.got.tgz:448342.got - 2010.06.03 11:33:40.
