data_PCOD9011753
_publ_section_title
;
Structure prediction by ZEFSAII (Michael W. Deem and Ramdas Pophale) SiO2 
 PCOD9011753
Probable space group: P -1
;
_chemical_formula_sum "Si O2"
_cell_formula_units_Z 14
_cell_length_a 11.030084
_cell_length_b 17.647631
_cell_length_c 11.863594
_cell_angle_alpha 36.370520
_cell_angle_beta 135.648378
_cell_angle_gamma 149.164860
_cell_volume 699.793994
_symmetry_space_group_name_H-M "P -1"
_symmetry_group_IT_number 2
_symmetry_cell_setting 'triclinic'
loop_
_space_group_symop_operation_xyz
x,y,z
-x,-y,-z
loop_
_atom_site_type_symbol
_atom_site_label
_atom_site_fract_x
_atom_site_fract_y
_atom_site_fract_z
Si Si1 0.064824 0.498056 0.415285
Si Si2 0.292580 0.814987 0.026643
Si Si3 0.288613 0.636262 0.036515
Si Si4 0.067882 0.163173 0.287590
Si Si5 0.400517 0.807658 0.662254
Si Si6 0.318140 0.298618 0.075285
Si Si7 0.451607 0.481554 0.721213
O O1 0.140269 0.664219 0.200419
O O2 0.278892 0.504785 0.534759
O O3 0.000000 0.500000 0.500000
O O4 0.841451 0.325540 0.409177
O O5 0.374999 0.752530 0.065640
O O6 0.124163 0.824909 0.831986
O O7 0.500000 0.000000 0.000000
O O8 0.366234 0.743070 0.844622
O O9 0.412388 0.558731 0.211895
O O10 0.000000 0.500000 0.000000
O O11 0.092065 0.174770 0.153879
O O12 0.326927 0.334191 0.295954
O O13 0.000000 0.000000 0.500000
O O14 0.500000 0.000000 0.500000
O O15 0.433934 0.217109 0.253967
O O16 0.500000 0.500000 0.000000
O O17 0.294364 0.328062 0.894706
#
# Coordination Sequence:
#
# PCOD9011753 Si02
#       7
#     2   2   2   2   2   2   2
#     4  12  24  43  69  99 134 173 222 271 324 397
#     4  12  26  43  65  98 134 171 220 278 328 388
#     4  11  22  47  67  88 137 175 216 271 336 392
#     4  11  21  37  64  95 127 168 219 268 326 390
#     4  11  25  42  68  97 130 178 216 273 334 394
#     4   9  19  40  62  88 125 171 217 259 324 394
#     4  10  21  40  67  91 125 178 215 262 329 390
#
# _framework density 20.005887000000001
#
# number of rings (size 3 to 8) (size 9 to 14) (size 15 to 20)
#    0.000    1.143    2.857    5.143    4.000    0.571 
#    2.571    1.429    0.000    0.000    0.000    0.000 
#    0.000    0.000    0.000    0.000    0.000    0.000 
#
# Total GULP energy -78113.152975 kJ/mol
# GULP energy per Si atom -5579.510927 kJ/mol
# Density = 1.996035 g / cm^3
# Si number density = 20.005887 Si / 1000 Ang^3
#
#
#
# Elastic Constant Matrix: (Units=GPa)
#
#
# Indices 1 2 3 4 5 6 
#
# 1 105.7772 21.7991 42.4268 -15.9326 9.1330 -16.2518
# 2 21.7991 105.2654 39.5096 -14.2244 3.6918 -15.0239
# 3 42.4268 39.5096 132.0042 -17.2522 25.6285 0.1044
# 4 -15.9326 -14.2244 -17.2522 33.8497 3.2994 3.8144
# 5 9.1330 3.6918 25.6285 3.2994 39.2376 4.9993
# 6 -16.2518 -15.0239 0.1044 3.8144 4.9993 26.9958
#
#
#
# Elastic Compliance Matrix: (Units=1/GPa)
#
#
# Indices 1 2 3 4 5 6 
#
# 1 0.012617 0.000273 -0.003238 0.003752 -0.002134 0.007625
# 2 0.000273 0.011982 -0.003300 0.002761 -0.000092 0.006472
# 3 -0.003238 -0.003300 0.011319 0.003828 -0.006241 -0.003215
# 4 0.003752 0.002761 0.003828 0.035056 -0.006587 0.000047
# 5 -0.002134 -0.000092 -0.006241 -0.006587 0.031411 -0.006198
# 6 0.007625 0.006472 -0.003215 0.000047 -0.006198 0.046389
#
#
# Mechanical properties :
#
#
# Convention : Reuss Voigt Hill
#
# Bulk Modulus (GPa) = 42.75991 61.16864 51.96427
# Shear Modulus (GPa) = 29.56794 35.97071 32.76932
#
# Velocity S-wave (km/s) = 3.84860 4.24489 4.05159
# Velocity P-wave (km/s) = 6.41631 7.39372 6.92229
#
# Compressibility (1/GPa) = 0.02338639
#
# Stress axis : x y z
#
# Youngs Moduli (GPa) = 79.25535 83.45757 88.34963
#
# Poissons Ratio (x) = -0.02275 0.28609
# Poissons Ratio (y) = -0.02161 0.29159
# Poissons Ratio (z) = 0.25665 0.27544
#
# Static dielectric constant tensor:
#      x y z
#    x 1.894770 0.047060 -0.037330 
#    y 0.047060 1.705570 0.007150 
#    z -0.037330 0.007150 1.706320 
# 
# From -- ./inp_files/391486.got.cif
#   From: 2010.05.17/outbox.cif.g08.bks.cpg/sg2_196_cif.got.tgz:391486.got - 2010.06.03 11:33:40.
