data_PCOD9011272
_publ_section_title
;
Structure prediction by ZEFSAII (Michael W. Deem and Ramdas Pophale) SiO2 
 PCOD9011272
Probable space group: P -1
;
_chemical_formula_sum "Si O2"
_cell_formula_units_Z 13
_cell_length_a 6.695391
_cell_length_b 12.751591
_cell_length_c 11.675566
_cell_angle_alpha 54.600280
_cell_angle_beta 47.522080
_cell_angle_gamma 57.195533
_cell_volume 580.176258
_symmetry_space_group_name_H-M "P -1"
_symmetry_group_IT_number 2
_symmetry_cell_setting 'triclinic'
loop_
_space_group_symop_operation_xyz
x,y,z
-x,-y,-z
loop_
_atom_site_type_symbol
_atom_site_label
_atom_site_fract_x
_atom_site_fract_y
_atom_site_fract_z
Si Si1 0.000000 0.500000 0.500000
Si Si2 0.733993 0.497730 0.004546
Si Si3 0.851145 0.976671 0.754751
Si Si4 0.932345 0.307735 0.241362
Si Si5 0.870018 0.273640 0.555294
Si Si6 0.778299 0.641140 0.263083
Si Si7 0.778277 0.930585 0.079225
O O1 0.032901 0.346316 0.533275
O O2 0.832392 0.554876 0.411185
O O3 0.782896 0.642169 0.921913
O O4 0.017961 0.426034 0.874636
O O5 0.500000 0.500000 0.000000
O O6 0.709842 0.410826 0.181359
O O7 0.039996 0.843202 0.711158
O O8 0.953129 0.112285 0.627880
O O9 0.542080 0.008995 0.797547
O O10 0.801809 0.941619 0.926680
O O11 0.886050 0.314548 0.390341
O O12 0.539137 0.320216 0.682099
O O13 0.857256 0.777047 0.175880
O O14 0.000000 0.000000 0.000000
#
# Coordination Sequence:
#
# PCOD9011272 Si02
#       7
#     1   2   2   2   2   2   2
#     4  12  24  40  68  92 136 168 220 270 324 394
#     4  11  26  43  66  98 132 178 217 267 335 390
#     4  10  22  41  66  95 134 167 219 273 328 390
#     4  11  24  44  67  98 136 171 217 279 327 391
#     4  11  25  43  68 101 128 176 222 273 336 380
#     4  11  24  43  66  95 130 174 225 273 317 402
#     4  10  21  40  65  96 126 176 217 265 328 396
#
# _framework density 22.406983
#
# number of rings (size 3 to 8) (size 9 to 14) (size 15 to 20)
#    0.000    1.231    3.077    1.846    4.308    1.231 
#    0.000    0.000    0.000    7.385    0.000    0.000 
#    0.000    0.000    0.000    0.000    0.000    0.000 
#
# Total GULP energy -72399.053648 kJ/mol
# GULP energy per Si atom -5569.157973 kJ/mol
# Density = 2.235598 g / cm^3
# Si number density = 22.406983 Si / 1000 Ang^3
#
#
#
# Elastic Constant Matrix: (Units=GPa)
#
#
# Indices 1 2 3 4 5 6 
#
# 1 69.9753 35.3122 3.4700 -4.0070 8.8853 31.1447
# 2 35.3122 120.7582 38.4054 -25.4318 -0.6797 23.5068
# 3 3.4700 38.4054 71.5561 -14.7572 13.3053 3.1837
# 4 -4.0070 -25.4318 -14.7572 47.1618 4.2287 2.9391
# 5 8.8853 -0.6797 13.3053 4.2287 34.3825 -9.2830
# 6 31.1447 23.5068 3.1837 2.9391 -9.2830 27.0916
#
#
#
# Elastic Compliance Matrix: (Units=1/GPa)
#
#
# Indices 1 2 3 4 5 6 
#
# 1 0.061169 -0.001461 0.014571 0.018821 -0.047876 -0.089211
# 2 -0.001461 0.013857 -0.005389 0.006416 -0.000950 -0.010732
# 3 0.014571 -0.005389 0.022592 0.008566 -0.019720 -0.022416
# 4 0.018821 0.006416 0.008566 0.033467 -0.022882 -0.039681
# 5 -0.047876 -0.000950 -0.019720 -0.022882 0.075221 0.086437
# 6 -0.089211 -0.010732 -0.022416 -0.039681 0.086437 0.185339
#
#
# Mechanical properties :
#
#
# Convention : Reuss Voigt Hill
#
# Bulk Modulus (GPa) = 8.84497 46.29607 27.57052
# Shear Modulus (GPa) = 12.08052 34.06733 23.07392
#
# Velocity S-wave (km/s) = 2.32446 3.90345 3.21248
# Velocity P-wave (km/s) = 3.34068 6.40485 5.10795
#
# Compressibility (1/GPa) = 0.11305863
#
# Stress axis : x y z
#
# Youngs Moduli (GPa) = 16.34826 72.16466 44.26402
#
# Poissons Ratio (x) = 0.10542 -0.64496
# Poissons Ratio (y) = 0.02388 0.23855
# Poissons Ratio (z) = -0.23821 0.38892
#
# Static dielectric constant tensor:
#      x y z
#    x 1.842840 0.004150 -0.040810 
#    y 0.004150 1.917120 -0.044390 
#    z -0.040810 -0.044390 1.871710 
# 
# From -- ./inp_files/363778.got.cif
#   From: 2010.05.17/outbox.cif.g08.bks.cpg/sg2_182_cif.got.tgz:363778.got - 2010.06.03 11:33:40.
