data_PCOD9011881
_publ_section_title
;
Structure prediction by ZEFSAII (Michael W. Deem and Ramdas Pophale) SiO2 
 PCOD9011881
Probable space group: P -1
;
_chemical_formula_sum "Si O2"
_cell_formula_units_Z 14
_cell_length_a 22.025245
_cell_length_b 15.591476
_cell_length_c 9.479098
_cell_angle_alpha 45.694842
_cell_angle_beta 28.101358
_cell_angle_gamma 26.647057
_cell_volume 622.232824
_symmetry_space_group_name_H-M "P -1"
_symmetry_group_IT_number 2
_symmetry_cell_setting 'triclinic'
loop_
_space_group_symop_operation_xyz
x,y,z
-x,-y,-z
loop_
_atom_site_type_symbol
_atom_site_label
_atom_site_fract_x
_atom_site_fract_y
_atom_site_fract_z
Si Si1 0.775165 0.748306 0.149737
Si Si2 0.080476 0.950892 0.227628
Si Si3 0.564822 0.588311 0.730565
Si Si4 0.107156 0.670976 0.904262
Si Si5 0.624057 0.912791 0.582640
Si Si6 0.803406 0.563911 0.770109
Si Si7 0.097088 0.665627 0.443771
O O1 0.666033 0.833491 0.429152
O O2 0.610599 0.837057 0.255054
O O3 0.000000 0.500000 0.000000
O O4 0.876032 0.798116 0.834951
O O5 0.097897 0.809118 0.278515
O O6 0.330688 0.816458 0.888222
O O7 0.000000 0.000000 0.500000
O O8 0.924738 0.161510 0.217552
O O9 0.765110 0.444442 0.372492
O O10 0.674504 0.550375 0.693170
O O11 0.500000 0.500000 0.000000
O O12 0.249619 0.492475 0.936021
O O13 0.852907 0.809777 0.268626
O O14 0.614013 0.804311 0.829467
O O15 0.898225 0.411922 0.620737
O O16 0.000000 0.500000 0.500000
#
# Coordination Sequence:
#
# PCOD9011881 Si02
#       7
#     2   2   2   2   2   2   2
#     4  11  21  37  67 102 125 164 232 276 329 397
#     4  11  22  41  71 102 131 170 229 286 337 389
#     4  10  21  40  67  97 128 174 225 274 332 393
#     4  11  22  43  65  96 139 178 218 281 333 399
#     4  10  22  40  64  97 131 175 213 280 336 384
#     4  10  24  45  63  94 144 179 223 272 333 406
#     4  11  22  41  68  97 133 176 222 283 332 398
#
# _framework density 22.499618000000002
#
# number of rings (size 3 to 8) (size 9 to 14) (size 15 to 20)
#    0.000    1.429    5.714    0.000    2.000    1.714 
#    2.571    4.286    0.000    0.000    0.000    0.000 
#    0.000    0.000    0.000    0.000    0.000    0.000 
#
# Total GULP energy -78076.363460 kJ/mol
# GULP energy per Si atom -5576.883104 kJ/mol
# Density = 2.244841 g / cm^3
# Si number density = 22.499618 Si / 1000 Ang^3
#
#
#
# Elastic Constant Matrix: (Units=GPa)
#
#
# Indices 1 2 3 4 5 6 
#
# 1 104.2513 33.4388 19.1665 -12.4861 -1.2537 6.7045
# 2 33.4388 126.9779 19.9302 -19.1846 2.5458 -11.1532
# 3 19.1665 19.9302 62.2707 -15.1882 -10.3218 -6.1945
# 4 -12.4861 -19.1846 -15.1882 34.7880 -7.6369 -1.4237
# 5 -1.2537 2.5458 -10.3218 -7.6369 27.0692 -4.4276
# 6 6.7045 -11.1532 -6.1945 -1.4237 -4.4276 39.4828
#
#
#
# Elastic Compliance Matrix: (Units=1/GPa)
#
#
# Indices 1 2 3 4 5 6 
#
# 1 0.011269 -0.002624 -0.002719 0.001188 -0.000438 -0.003088
# 2 -0.002624 0.009611 -0.000869 0.004187 0.000350 0.003214
# 3 -0.002719 -0.000869 0.022636 0.011453 0.012736 0.005609
# 4 0.001188 0.004187 0.011453 0.040330 0.016400 0.006071
# 5 -0.000438 0.000350 0.012736 0.016400 0.047699 0.008112
# 6 -0.003088 0.003214 0.005609 0.006071 0.008112 0.028768
#
#
# Mechanical properties :
#
#
# Convention : Reuss Voigt Hill
#
# Bulk Modulus (GPa) = 32.16180 48.73012 40.44596
# Shear Modulus (GPa) = 27.30717 34.99895 31.15306
#
# Velocity S-wave (km/s) = 3.48756 3.94831 3.72506
# Velocity P-wave (km/s) = 5.52656 6.51849 6.04291
#
# Compressibility (1/GPa) = 0.03109279
#
# Stress axis : x y z
#
# Youngs Moduli (GPa) = 88.73683 104.05014 44.17654
#
# Poissons Ratio (x) = 0.27301 0.12010
# Poissons Ratio (y) = 0.23283 0.03840
# Poissons Ratio (z) = 0.24125 0.09045
#
# Static dielectric constant tensor:
#      x y z
#    x 1.831790 -0.047690 -0.055720 
#    y -0.047690 2.029420 0.100430 
#    z -0.055720 0.100430 1.980650 
# 
# From -- ./inp_files/347484.got.cif
#   From: 2010.05.17/outbox.cif.g08.bks.cpg/sg2_174_cif.got.tgz:347484.got - 2010.06.03 11:33:40.
