data_PCOD9011267
_publ_section_title
;
Structure prediction by ZEFSAII (Michael W. Deem and Ramdas Pophale) SiO2 
 PCOD9011267
Probable space group: P -1
;
_chemical_formula_sum "Si O2"
_cell_formula_units_Z 14
_cell_length_a 16.160268
_cell_length_b 10.046514
_cell_length_c 9.295163
_cell_angle_alpha 95.116991
_cell_angle_beta 121.119505
_cell_angle_gamma 35.736499
_cell_volume 566.457264
_symmetry_space_group_name_H-M "P -1"
_symmetry_group_IT_number 2
_symmetry_cell_setting 'triclinic'
loop_
_space_group_symop_operation_xyz
x,y,z
-x,-y,-z
loop_
_atom_site_type_symbol
_atom_site_label
_atom_site_fract_x
_atom_site_fract_y
_atom_site_fract_z
Si Si1 0.127587 0.562608 0.377870
Si Si2 0.102910 0.225579 0.545682
Si Si3 0.392212 0.757824 0.345870
Si Si4 0.661661 0.461503 0.302112
Si Si5 0.567291 0.063449 0.393634
Si Si6 0.105307 0.659572 0.046468
Si Si7 0.092595 0.791352 0.766188
O O1 0.301102 0.429668 0.616010
O O2 0.913852 0.812924 0.311764
O O3 0.247366 0.272893 0.430999
O O4 0.086187 0.687229 0.203774
O O5 0.000000 0.500000 0.500000
O O6 0.955063 0.306150 0.326856
O O7 0.332103 0.970911 0.647662
O O8 0.500000 0.500000 0.500000
O O9 0.452990 0.673675 0.224663
O O10 0.487045 0.772322 0.506726
O O11 0.137012 0.090152 0.182115
O O12 0.710114 0.393214 0.170063
O O13 0.869580 0.133951 0.537987
O O14 0.325909 0.303118 0.169914
O O15 0.127389 0.756986 0.965100
#
# Coordination Sequence:
#
# PCOD9011267 Si02
#       7
#     2   2   2   2   2   2   2
#     4  10  23  41  65  95 128 174 208 262 325 368
#     4   9  19  42  64  86 133 172 203 266 321 363
#     4  12  24  41  65  95 127 167 211 267 319 373
#     4  10  21  42  65  87 136 162 207 271 315 371
#     4  11  23  43  63  93 138 163 209 274 308 376
#     4  12  24  39  68  98 123 171 219 252 325 382
#     4  10  21  40  65  96 119 171 216 258 318 379
#
# _framework density 24.715015999999999
#
# number of rings (size 3 to 8) (size 9 to 14) (size 15 to 20)
#    0.000    1.429    4.286    0.429    0.000    4.000 
#    0.000    6.429    0.000    6.857    0.000    0.000 
#    0.000    0.000    0.000    0.000    0.000    0.000 
#
# Total GULP energy -78080.208529 kJ/mol
# GULP energy per Si atom -5577.157752 kJ/mol
# Density = 2.465876 g / cm^3
# Si number density = 24.715016 Si / 1000 Ang^3
#
#
#
# Elastic Constant Matrix: (Units=GPa)
#
#
# Indices 1 2 3 4 5 6 
#
# 1 110.1945 58.9575 31.2825 8.3842 -18.7317 -51.1174
# 2 58.9575 103.0566 33.9918 5.2658 -9.7996 -35.6545
# 3 31.2825 33.9918 73.6210 7.1741 -24.3986 -26.4000
# 4 8.3842 5.2658 7.1741 25.6615 -22.3861 -5.7801
# 5 -18.7317 -9.7996 -24.3986 -22.3861 36.3460 13.1908
# 6 -51.1174 -35.6545 -26.4000 -5.7801 13.1908 88.9401
#
#
#
# Elastic Compliance Matrix: (Units=1/GPa)
#
#
# Indices 1 2 3 4 5 6 
#
# 1 0.016303 -0.006886 0.000171 0.002828 0.006255 0.005916
# 2 -0.006886 0.015512 -0.005423 -0.004664 -0.006348 0.001290
# 3 0.000171 -0.005423 0.022685 0.014234 0.021766 0.002355
# 4 0.002828 -0.004664 0.014234 0.094073 0.067675 0.000057
# 5 0.006255 -0.006348 0.021766 0.067675 0.085605 -0.000787
# 6 0.005916 0.001290 0.002355 0.000057 -0.000787 0.015980
#
#
# Mechanical properties :
#
#
# Convention : Reuss Voigt Hill
#
# Bulk Modulus (GPa) = 33.08579 59.48175 46.28377
# Shear Modulus (GPa) = 17.57403 41.03219 29.30311
#
# Velocity S-wave (km/s) = 2.66948 4.07899 3.44705
# Velocity P-wave (km/s) = 4.78722 6.80467 5.88307
#
# Compressibility (1/GPa) = 0.03022446
#
# Stress axis : x y z
#
# Youngs Moduli (GPa) = 61.33754 64.46445 44.08130
#
# Poissons Ratio (x) = 0.44391 -0.00753
# Poissons Ratio (y) = 0.42237 0.23906
# Poissons Ratio (z) = -0.01048 0.34959
#
# Static dielectric constant tensor:
#      x y z
#    x 2.050820 -0.019470 0.032430 
#    y -0.019470 1.949330 0.017360 
#    z 0.032430 0.017360 2.015930 
# 
# From -- ./inp_files/332073.got.cif
#   From: 2010.05.17/outbox.cif.g08.bks.cpg/sg2_167_cif.got.tgz:332073.got - 2010.06.03 11:33:40.
