data_PCOD9011670
_publ_section_title
;
Structure prediction by ZEFSAII (Michael W. Deem and Ramdas Pophale) SiO2 
 PCOD9011670
Probable space group: P -1
;
_chemical_formula_sum "Si O2"
_cell_formula_units_Z 14
_cell_length_a 6.197033
_cell_length_b 17.845700
_cell_length_c 5.121021
_cell_angle_alpha 75.675648
_cell_angle_beta 88.403166
_cell_angle_gamma 99.423549
_cell_volume 539.936787
_symmetry_space_group_name_H-M "P -1"
_symmetry_group_IT_number 2
_symmetry_cell_setting 'triclinic'
loop_
_space_group_symop_operation_xyz
x,y,z
-x,-y,-z
loop_
_atom_site_type_symbol
_atom_site_label
_atom_site_fract_x
_atom_site_fract_y
_atom_site_fract_z
Si Si1 0.389472 0.264048 0.962397
Si Si2 0.011748 0.164070 0.434836
Si Si3 0.319640 0.115372 0.870929
Si Si4 0.774339 0.305093 0.333295
Si Si5 0.656954 0.047967 0.240530
Si Si6 0.792618 0.595362 0.012690
Si Si7 0.601851 0.443253 0.355164
O O1 0.599035 0.284438 0.123497
O O2 0.281307 0.340713 0.841619
O O3 0.204953 0.205178 0.195481
O O4 0.412101 0.211446 0.753501
O O5 0.865220 0.227144 0.474064
O O6 0.870291 0.095956 0.327134
O O7 0.096117 0.125147 0.719384
O O8 0.295951 0.021345 0.886566
O O9 0.512075 0.108529 0.081843
O O10 0.686221 0.363297 0.493287
O O11 0.986604 0.361070 0.158047
O O12 0.500000 0.000000 0.500000
O O13 0.588639 0.581710 0.829813
O O14 0.802619 0.508780 0.188464
O O15 0.500000 0.500000 0.500000
#
# Coordination Sequence:
#
# PCOD9011670 Si02
#       7
#     2   2   2   2   2   2   2
#     4  10  22  43  65  97 137 174 235 284 336 412
#     4  11  24  44  67  99 140 178 228 294 340 406
#     4  11  24  42  71  98 131 183 229 275 353 406
#     4  10  21  43  68  93 144 182 222 295 344 399
#     4  11  25  45  68 100 138 179 231 287 341 414
#     4   9  21  40  64  96 136 182 224 288 344 397
#     4  10  21  40  66  99 136 180 235 279 341 418
#
# _framework density 25.928961999999999
#
# number of rings (size 3 to 8) (size 9 to 14) (size 15 to 20)
#    0.000    1.714    1.429    1.714    0.000    7.429 
#    0.000    7.143    0.000    0.000    0.000    0.000 
#    0.000    0.000    0.000    0.000    0.000    0.000 
#
# Total GULP energy -77937.463831 kJ/mol
# GULP energy per Si atom -5566.961702 kJ/mol
# Density = 2.586995 g / cm^3
# Si number density = 25.928962 Si / 1000 Ang^3
#
#
#
# Elastic Constant Matrix: (Units=GPa)
#
#
# Indices 1 2 3 4 5 6 
#
# 1 98.4679 46.3413 13.7309 -2.3839 8.5004 8.2268
# 2 46.3413 197.9203 14.5352 0.7158 22.9209 -4.6881
# 3 13.7309 14.5352 41.6881 -3.2232 24.2047 3.2686
# 4 -2.3839 0.7158 -3.2232 26.1457 -4.7896 8.7649
# 5 8.5004 22.9209 24.2047 -4.7896 40.7622 -14.1884
# 6 8.2268 -4.6881 3.2686 8.7649 -14.1884 58.0581
#
#
#
# Elastic Compliance Matrix: (Units=1/GPa)
#
#
# Indices 1 2 3 4 5 6 
#
# 1 0.011993 -0.002673 -0.002876 0.001497 0.000215 -0.001927
# 2 -0.002673 0.006017 0.000545 -0.000995 -0.003196 0.000203
# 3 -0.002876 0.000545 0.041362 0.002858 -0.027035 -0.008915
# 4 0.001497 -0.000995 0.002858 0.041114 0.001161 -0.006376
# 5 0.000215 -0.003196 -0.027035 0.001161 0.046826 0.012502
# 6 -0.001927 0.000203 -0.008915 -0.006376 0.012502 0.022033
#
#
# Mechanical properties :
#
#
# Convention : Reuss Voigt Hill
#
# Bulk Modulus (GPa) = 20.25778 54.14346 37.20062
# Shear Modulus (GPa) = 25.53530 42.55780 34.04655
#
# Velocity S-wave (km/s) = 3.14159 4.05572 3.62756
# Velocity P-wave (km/s) = 4.58139 6.54665 5.65012
#
# Compressibility (1/GPa) = 0.04936376
#
# Stress axis : x y z
#
# Youngs Moduli (GPa) = 83.38022 166.20017 24.17694
#
# Poissons Ratio (x) = 0.44423 0.06954
# Poissons Ratio (y) = 0.22286 -0.01318
# Poissons Ratio (z) = 0.23984 -0.09062
#
# Static dielectric constant tensor:
#      x y z
#    x 2.113510 0.006230 -0.207860 
#    y 0.006230 1.936180 0.081310 
#    z -0.207860 0.081310 2.153160 
# 
# From -- ./inp_files/7742.got.cif
#   From: 2010.05.17/outbox.cif.g08.bks.cpg/sg2_4_cif.got.tgz:7742.got - 2010.06.03 11:33:40.
