data_PCOD9011293
_publ_section_title
;
Structure prediction by ZEFSAII (Michael W. Deem and Ramdas Pophale) SiO2 
 PCOD9011293
Probable space group: P -1
;
_chemical_formula_sum "Si O2"
_cell_formula_units_Z 16
_cell_length_a 8.626515
_cell_length_b 11.362139
_cell_length_c 10.340195
_cell_angle_alpha 68.516925
_cell_angle_beta 96.240738
_cell_angle_gamma 50.663566
_cell_volume 642.431891
_symmetry_space_group_name_H-M "P -1"
_symmetry_group_IT_number 2
_symmetry_cell_setting 'triclinic'
loop_
_space_group_symop_operation_xyz
x,y,z
-x,-y,-z
loop_
_atom_site_type_symbol
_atom_site_label
_atom_site_fract_x
_atom_site_fract_y
_atom_site_fract_z
Si Si1 0.767325 0.856975 0.071776
Si Si2 0.534029 0.658573 0.731904
Si Si3 0.066002 0.811842 0.610587
Si Si4 0.632955 0.966357 0.395188
Si Si5 0.460818 0.671462 0.428576
Si Si6 0.041975 0.011288 0.850801
Si Si7 0.092082 0.717083 0.928776
Si Si8 0.770387 0.668876 0.339531
O O1 0.847118 0.675086 0.205232
O O2 0.852095 0.913858 0.157233
O O3 0.871763 0.831665 0.954378
O O4 0.500000 0.000000 0.000000
O O5 0.335699 0.669532 0.696855
O O6 0.562506 0.664100 0.576487
O O7 0.465982 0.833726 0.716791
O O8 0.731064 0.480813 0.907704
O O9 0.014213 0.762448 0.756233
O O10 0.903861 0.833379 0.490253
O O11 0.000000 0.000000 0.500000
O O12 0.630801 0.859218 0.330078
O O13 0.500000 0.000000 0.500000
O O14 0.500000 0.500000 0.500000
O O15 0.192176 0.852579 0.306866
O O16 0.599019 0.653256 0.331863
O O17 0.189202 0.804536 0.903957
O O18 0.000000 0.000000 0.000000
O O19 0.000000 0.500000 0.500000
#
# Coordination Sequence:
#
# PCOD9011293 Si02
#       8
#     2   2   2   2   2   2   2   2
#     4  11  26  43  68 102 148 195 237 303 379 432
#     4  11  24  45  71 108 141 196 250 303 370 444
#     4  10  24  43  73 103 139 193 244 297 363 443
#     4  11  25  46  72 103 150 194 245 305 378 435
#     4  12  24  43  76 103 144 194 252 305 368 446
#     4  10  21  40  65  96 136 188 238 297 358 428
#     4  11  23  46  70 105 148 186 252 302 366 445
#     4  12  26  45  72 108 146 189 253 310 367 442
#
# _framework density 24.905365
#
# number of rings (size 3 to 8) (size 9 to 14) (size 15 to 20)
#    0.000    1.000    1.250    6.375    8.750    0.000 
#    0.000    0.625    0.000    0.000    0.000    0.000 
#    0.000    0.000    0.000    0.000    0.000    0.000 
#
# Total GULP energy -89332.559004 kJ/mol
# GULP energy per Si atom -5583.284938 kJ/mol
# Density = 2.484868 g / cm^3
# Si number density = 24.905365 Si / 1000 Ang^3
#
#
#
# Elastic Constant Matrix: (Units=GPa)
#
#
# Indices 1 2 3 4 5 6 
#
# 1 143.5410 14.1727 39.1011 -10.6540 -20.1274 -13.4256
# 2 14.1727 67.6264 36.4161 -9.6882 -6.1723 3.4528
# 3 39.1011 36.4161 169.6355 -11.0102 -6.6935 -5.6369
# 4 -10.6540 -9.6882 -11.0102 39.1205 -10.2978 -8.3367
# 5 -20.1274 -6.1723 -6.6935 -10.2978 48.6621 -1.0116
# 6 -13.4256 3.4528 -5.6369 -8.3367 -1.0116 37.8405
#
#
#
# Elastic Compliance Matrix: (Units=1/GPa)
#
#
# Indices 1 2 3 4 5 6 
#
# 1 0.008604 -0.000331 -0.001372 0.003799 0.004211 0.003828
# 2 -0.000331 0.017487 -0.003395 0.003614 0.002351 -0.001360
# 3 -0.001372 -0.003395 0.007055 0.001067 0.000221 0.001115
# 4 0.003799 0.003614 0.001067 0.031999 0.009124 0.008471
# 5 0.004211 0.002351 0.000221 0.009124 0.024634 0.003981
# 6 0.003828 -0.001360 0.001115 0.008471 0.003981 0.030048
#
#
# Mechanical properties :
#
#
# Convention : Reuss Voigt Hill
#
# Bulk Modulus (GPa) = 43.57629 62.24253 52.90941
# Shear Modulus (GPa) = 36.31801 44.53214 40.42508
#
# Velocity S-wave (km/s) = 3.82283 4.23313 4.03320
# Velocity P-wave (km/s) = 6.08442 6.99559 6.55586
#
# Compressibility (1/GPa) = 0.02294826
#
# Stress axis : x y z
#
# Youngs Moduli (GPa) = 116.22944 57.18668 141.73923
#
# Poissons Ratio (x) = 0.01893 0.19448
# Poissons Ratio (y) = 0.03847 0.48127
# Poissons Ratio (z) = 0.15948 0.19418
#
# Static dielectric constant tensor:
#      x y z
#    x 1.974000 -0.014080 -0.013900 
#    y -0.014080 2.139630 0.069400 
#    z -0.013900 0.069400 1.886790 
# 
# From -- ./inp_files/392345.got.cif
#   From: 2010.05.17/outbox.cif.g08.bks.cpg/sg2_197_cif.got.tgz:392345.got - 2010.06.03 11:33:40.
