data_PCOD9011937
_publ_section_title
;
Structure prediction by ZEFSAII (Michael W. Deem and Ramdas Pophale) SiO2 
 PCOD9011937
Probable space group: P -1
;
_chemical_formula_sum "Si O2"
_cell_formula_units_Z 14
_cell_length_a 15.054871
_cell_length_b 12.196070
_cell_length_c 10.059531
_cell_angle_alpha 55.302411
_cell_angle_beta 146.844795
_cell_angle_gamma 144.076622
_cell_volume 557.609672
_symmetry_space_group_name_H-M "P -1"
_symmetry_group_IT_number 2
_symmetry_cell_setting 'triclinic'
loop_
_space_group_symop_operation_xyz
x,y,z
-x,-y,-z
loop_
_atom_site_type_symbol
_atom_site_label
_atom_site_fract_x
_atom_site_fract_y
_atom_site_fract_z
Si Si1 0.864039 0.261200 0.269846
Si Si2 0.249612 0.587518 0.809299
Si Si3 0.170620 0.246890 0.991482
Si Si4 0.651213 0.406848 0.511476
Si Si5 0.193163 0.267726 0.311223
Si Si6 0.798771 0.977628 0.192718
Si Si7 0.339692 0.082688 0.543939
O O1 0.747372 0.334459 0.097722
O O2 0.139286 0.468505 0.423307
O O3 0.799908 0.119469 0.170995
O O4 0.739746 0.096491 0.349280
O O5 0.200739 0.404557 0.847673
O O6 0.000000 0.500000 0.500000
O O7 0.523286 0.769452 0.978401
O O8 0.399478 0.297456 0.205924
O O9 0.205177 0.312010 0.142866
O O10 0.900938 0.036246 0.765824
O O11 0.722159 0.569211 0.591578
O O12 0.569760 0.234240 0.627097
O O13 0.335067 0.213576 0.538668
O O14 0.916851 0.070424 0.134428
O O15 0.000000 0.000000 0.500000
#
# Coordination Sequence:
#
# PCOD9011937 Si02
#       7
#     2   2   2   2   2   2   2
#     4  11  24  44  65 100 134 180 222 278 346 406
#     4  12  26  44  63 102 144 176 221 280 348 405
#     4  11  23  40  64  95 136 181 221 279 335 405
#     4  10  23  41  69  99 130 173 236 281 331 398
#     4  10  21  40  68 100 123 170 237 283 325 392
#     4  11  23  45  73  98 127 180 235 276 331 405
#     4  11  21  39  66  97 136 173 225 282 337 395
#
# _framework density 25.10717
#
# number of rings (size 3 to 8) (size 9 to 14) (size 15 to 20)
#    0.000    1.143    2.857    5.571    2.000    2.857 
#    2.571    2.857    0.000    0.000    0.000    0.000 
#    0.000    0.000    0.000    0.000    0.000    0.000 
#
# Total GULP energy -77982.897118 kJ/mol
# GULP energy per Si atom -5570.206937 kJ/mol
# Density = 2.505002 g / cm^3
# Si number density = 25.107170 Si / 1000 Ang^3
#
#
#
# Elastic Constant Matrix: (Units=GPa)
#
#
# Indices 1 2 3 4 5 6 
#
# 1 84.4374 36.4125 32.2033 14.3981 16.5686 24.4257
# 2 36.4125 146.4133 50.9717 41.0993 25.0932 33.4019
# 3 32.2033 50.9717 117.2773 27.6114 20.3017 23.5212
# 4 14.3981 41.0993 27.6114 40.7060 9.2234 5.0373
# 5 16.5686 25.0932 20.3017 9.2234 26.5319 18.0858
# 6 24.4257 33.4019 23.5212 5.0373 18.0858 55.3576
#
#
#
# Elastic Compliance Matrix: (Units=1/GPa)
#
#
# Indices 1 2 3 4 5 6 
#
# 1 0.015175 -0.001151 -0.001864 -0.001608 -0.003797 -0.003822
# 2 -0.001151 0.011634 -0.001149 -0.009285 -0.003405 -0.004066
# 3 -0.001864 -0.001149 0.011740 -0.005072 -0.003752 -0.001785
# 4 -0.001608 -0.009285 -0.005072 0.038042 -0.003821 0.006254
# 5 -0.003797 -0.003405 -0.003752 -0.003821 0.056112 -0.012660
# 6 -0.003822 -0.004066 -0.001785 0.006254 -0.012660 0.026530
#
#
# Mechanical properties :
#
#
# Convention : Reuss Voigt Hill
#
# Bulk Modulus (GPa) = 33.09073 65.25589 49.17331
# Shear Modulus (GPa) = 28.14753 39.75513 33.95133
#
# Velocity S-wave (km/s) = 3.35191 3.98353 3.68129
# Velocity P-wave (km/s) = 5.30931 6.87062 6.13980
#
# Compressibility (1/GPa) = 0.03021995
#
# Stress axis : x y z
#
# Youngs Moduli (GPa) = 65.89600 85.95558 85.17910
#
# Poissons Ratio (x) = 0.09893 0.15880
# Poissons Ratio (y) = 0.07584 0.09790
# Poissons Ratio (z) = 0.12285 0.09879
#
# Static dielectric constant tensor:
#      x y z
#    x 1.968780 0.025170 -0.080220 
#    y 0.025170 2.113010 -0.023610 
#    z -0.080220 -0.023610 2.136720 
# 
# From -- ./inp_files/239855.got.cif
#   From: 2010.05.17/outbox.cif.g08.bks.cpg/sg2_120_cif.got.tgz:239855.got - 2010.06.03 11:33:40.
