data_PCOD9011523
_publ_section_title
;
Structure prediction by ZEFSAII (Michael W. Deem and Ramdas Pophale) SiO2 
 PCOD9011523
Probable space group: P -1
;
_chemical_formula_sum "Si O2"
_cell_formula_units_Z 16
_cell_length_a 10.810275
_cell_length_b 12.218079
_cell_length_c 5.548088
_cell_angle_alpha 116.629714
_cell_angle_beta 104.513683
_cell_angle_gamma 70.058075
_cell_volume 611.604681
_symmetry_space_group_name_H-M "P -1"
_symmetry_group_IT_number 2
_symmetry_cell_setting 'triclinic'
loop_
_space_group_symop_operation_xyz
x,y,z
-x,-y,-z
loop_
_atom_site_type_symbol
_atom_site_label
_atom_site_fract_x
_atom_site_fract_y
_atom_site_fract_z
Si Si1 0.755609 0.898581 0.099461
Si Si2 0.954481 0.180135 0.405326
Si Si3 0.936593 0.119137 0.836189
Si Si4 0.639749 0.023599 0.658348
Si Si5 0.904131 0.599469 0.372267
Si Si6 0.556893 0.299835 0.764667
Si Si7 0.306906 0.490958 0.095051
Si Si8 0.340302 0.314478 0.324124
O O1 0.913023 0.865584 0.101520
O O2 0.720277 0.973899 0.404216
O O3 0.696820 0.777008 0.981631
O O4 0.691196 0.963589 0.882798
O O5 0.875907 0.170421 0.600430
O O6 0.024360 0.294322 0.574431
O O7 0.882176 0.192688 0.125413
O O8 0.044323 0.032624 0.280286
O O9 0.620705 0.172963 0.811387
O O10 0.500000 0.000000 0.500000
O O11 0.774961 0.677449 0.530998
O O12 0.000000 0.500000 0.500000
O O13 0.836239 0.523701 0.073534
O O14 0.657563 0.381488 0.831184
O O15 0.485189 0.265555 0.455593
O O16 0.430481 0.386979 0.931568
O O17 0.320435 0.455038 0.347279
#
# Coordination Sequence:
#
# PCOD9011523 Si02
#       8
#     2   2   2   2   2   2   2   2
#     4  12  24  39  69  97 136 176 219 269 345 403
#     4  10  21  41  66  94 127 169 223 278 325 393
#     4  10  21  40  66  94 127 172 221 269 333 397
#     4  12  25  41  63 105 136 171 215 280 336 402
#     4  11  25  43  65  97 132 173 229 280 334 397
#     4  10  23  42  66  98 134 172 225 275 329 405
#     4  10  23  44  69  92 130 182 225 270 338 395
#     4  11  22  41  70  93 129 178 223 274 332 411
#
# _framework density 26.160686999999999
#
# number of rings (size 3 to 8) (size 9 to 14) (size 15 to 20)
#    0.000    1.250    2.500    3.000    3.500    1.500 
#    2.250    0.000    0.000    0.000    0.000    0.000 
#    0.000    0.000    0.000    0.000    0.000    0.000 
#
# Total GULP energy -89592.820343 kJ/mol
# GULP energy per Si atom -5599.551271 kJ/mol
# Density = 2.610114 g / cm^3
# Si number density = 26.160687 Si / 1000 Ang^3
#
#
#
# Elastic Constant Matrix: (Units=GPa)
#
#
# Indices 1 2 3 4 5 6 
#
# 1 91.9582 45.3530 57.1879 0.3918 21.8658 27.1720
# 2 45.3530 137.5931 40.9237 -4.4696 3.0284 39.4130
# 3 57.1879 40.9237 108.6777 -19.1115 3.8282 -6.5010
# 4 0.3918 -4.4696 -19.1115 50.2846 7.2876 3.0087
# 5 21.8658 3.0284 3.8282 7.2876 40.0778 4.8747
# 6 27.1720 39.4130 -6.5010 3.0087 4.8747 49.0686
#
#
#
# Elastic Compliance Matrix: (Units=1/GPa)
#
#
# Indices 1 2 3 4 5 6 
#
# 1 0.028745 0.000511 -0.016618 -0.003822 -0.011351 -0.017168
# 2 0.000511 0.011647 -0.005389 -0.000498 0.000710 -0.010392
# 3 -0.016618 -0.005389 0.021884 0.006408 0.004320 0.015608
# 4 -0.003822 -0.000498 0.006408 0.022588 -0.002872 0.002266
# 5 -0.011351 0.000710 0.004320 -0.002872 0.030786 0.003405
# 6 -0.017168 -0.010392 0.015608 0.002266 0.003405 0.039824
#
#
# Mechanical properties :
#
#
# Convention : Reuss Voigt Hill
#
# Bulk Modulus (GPa) = 51.85555 69.46204 60.65879
# Shear Modulus (GPa) = 24.40278 40.87049 32.63663
#
# Velocity S-wave (km/s) = 3.05750 3.95687 3.53589
# Velocity P-wave (km/s) = 5.68589 6.89097 6.31723
#
# Compressibility (1/GPa) = 0.01928434
#
# Stress axis : x y z
#
# Youngs Moduli (GPa) = 34.78861 85.85741 45.69613
#
# Poissons Ratio (x) = -0.04388 0.75937
# Poissons Ratio (y) = -0.01778 0.24626
# Poissons Ratio (z) = 0.57811 0.46269
#
# Static dielectric constant tensor:
#      x y z
#    x 2.038680 -0.024200 -0.027240 
#    y -0.024200 2.043180 0.011470 
#    z -0.027240 0.011470 2.159400 
# 
# From -- ./inp_files/71979.got.cif
#   From: 2010.05.17/outbox.cif.g08.bks.cpg/sg2_36_cif.got.tgz:71979.got - 2010.06.03 11:33:40.
