data_PCOD9011672
_publ_section_title
;
Structure prediction by ZEFSAII (Michael W. Deem and Ramdas Pophale) SiO2 
 PCOD9011672
Probable space group: P -1
;
_chemical_formula_sum "Si O2"
_cell_formula_units_Z 16
_cell_length_a 20.025369
_cell_length_b 7.727463
_cell_length_c 15.284206
_cell_angle_alpha 136.214627
_cell_angle_beta 154.133404
_cell_angle_gamma 41.925364
_cell_volume 678.195559
_symmetry_space_group_name_H-M "P -1"
_symmetry_group_IT_number 2
_symmetry_cell_setting 'triclinic'
loop_
_space_group_symop_operation_xyz
x,y,z
-x,-y,-z
loop_
_atom_site_type_symbol
_atom_site_label
_atom_site_fract_x
_atom_site_fract_y
_atom_site_fract_z
Si Si1 0.772309 0.573524 0.706563
Si Si2 0.657282 0.189583 0.554287
Si Si3 0.442142 0.977141 0.788578
Si Si4 0.509279 0.469859 0.104357
Si Si5 0.787999 0.086196 0.992202
Si Si6 0.823201 0.605640 0.586762
Si Si7 0.566263 0.383065 0.703089
Si Si8 0.070977 0.299325 0.434224
O O1 0.463906 0.922289 0.688135
O O2 0.872980 0.519340 0.714435
O O3 0.590267 0.710773 0.504485
O O4 0.805730 0.780278 0.888701
O O5 0.748258 0.332570 0.647017
O O6 0.589933 0.374882 0.624488
O O7 0.770807 0.922797 0.634463
O O8 0.512344 0.672963 0.788664
O O9 0.250980 0.131596 0.615138
O O10 0.513093 0.164902 0.997367
O O11 0.354928 0.705943 0.044478
O O12 0.672133 0.505227 0.347350
O O13 0.500000 0.500000 0.000000
O O14 0.729544 0.206170 0.871926
O O15 0.956279 0.120075 0.226613
O O16 0.932790 0.546114 0.606199
O O17 0.000000 0.500000 0.500000
#
# Coordination Sequence:
#
# PCOD9011672 Si02
#       8
#     2   2   2   2   2   2   2   2
#     4  11  22  39  68 100 132 172 231 276 334 400
#     4  10  21  40  66  99 139 170 214 287 340 380
#     4  10  22  39  66  94 133 175 221 270 335 398
#     4  12  21  37  66  99 125 178 235 267 328 403
#     4  12  24  39  71 100 130 178 227 276 339 405
#     4  11  22  43  69  98 136 175 228 282 336 398
#     4  11  22  42  68 102 138 169 224 293 328 394
#     4  11  23  45  64  97 139 181 217 274 349 406
#
# _framework density 23.592016000000001
#
# number of rings (size 3 to 8) (size 9 to 14) (size 15 to 20)
#    0.000    1.000    6.250    2.625    1.750    1.000 
#    0.000    5.625    0.000    7.500    0.000    0.000 
#    0.000    0.000    0.000    0.000    0.000    0.000 
#
# Total GULP energy -89155.391004 kJ/mol
# GULP energy per Si atom -5572.211938 kJ/mol
# Density = 2.353832 g / cm^3
# Si number density = 23.592016 Si / 1000 Ang^3
#
#
#
# Elastic Constant Matrix: (Units=GPa)
#
#
# Indices 1 2 3 4 5 6 
#
# 1 135.9746 46.7257 28.3293 42.7265 -27.3023 -9.0858
# 2 46.7257 80.9708 51.7399 29.8153 -1.9321 -1.4347
# 3 28.3293 51.7399 111.4072 49.4142 -1.9821 -5.5691
# 4 42.7265 29.8153 49.4142 43.5642 -2.8305 -7.8351
# 5 -27.3023 -1.9321 -1.9821 -2.8305 39.6521 10.7080
# 6 -9.0858 -1.4347 -5.5691 -7.8351 10.7080 45.9985
#
#
#
# Elastic Compliance Matrix: (Units=1/GPa)
#
#
# Indices 1 2 3 4 5 6 
#
# 1 0.016339 -0.006991 0.008086 -0.020071 0.010380 -0.001847
# 2 -0.006991 0.021322 -0.009328 0.002497 -0.003926 -0.000506
# 3 0.008086 -0.009328 0.024028 -0.028816 0.004743 -0.001797
# 4 -0.020071 0.002497 -0.028816 0.074287 -0.012016 0.008076
# 5 0.010380 -0.003926 0.004743 -0.012016 0.033540 -0.007352
# 6 -0.001847 -0.000506 -0.001797 0.008076 -0.007352 0.024229
#
#
# Mechanical properties :
#
#
# Convention : Reuss Voigt Hill
#
# Bulk Modulus (GPa) = 22.11159 64.66025 43.38592
# Shear Modulus (GPa) = 22.19416 39.28014 30.73715
#
# Velocity S-wave (km/s) = 3.07049 4.08484 3.61343
# Velocity P-wave (km/s) = 4.68651 7.05089 5.98659
#
# Compressibility (1/GPa) = 0.04522515
#
# Stress axis : x y z
#
# Youngs Moduli (GPa) = 61.20238 46.89927 41.61861
#
# Poissons Ratio (x) = 0.32785 -0.33654
# Poissons Ratio (y) = 0.42784 0.38821
# Poissons Ratio (z) = -0.49490 0.43747
#
# Static dielectric constant tensor:
#      x y z
#    x 2.073870 0.063230 0.006530 
#    y 0.063230 2.043300 0.032280 
#    z 0.006530 0.032280 1.896970 
# 
# From -- ./inp_files/540341.got.cif
#   From: 2010.05.17/outbox.cif.g08.bks.cpg/sg2_271_cif.got.tgz:540341.got - 2010.06.03 11:33:40.
