data_PCOD9011438
_publ_section_title
;
Structure prediction by ZEFSAII (Michael W. Deem and Ramdas Pophale) SiO2 
 PCOD9011438
Probable space group: P -1
;
_chemical_formula_sum "Si O2"
_cell_formula_units_Z 16
_cell_length_a 17.219730
_cell_length_b 15.120858
_cell_length_c 6.742341
_cell_angle_alpha 108.838096
_cell_angle_beta 78.386239
_cell_angle_gamma 151.018501
_cell_volume 792.344205
_symmetry_space_group_name_H-M "P -1"
_symmetry_group_IT_number 2
_symmetry_cell_setting 'triclinic'
loop_
_space_group_symop_operation_xyz
x,y,z
-x,-y,-z
loop_
_atom_site_type_symbol
_atom_site_label
_atom_site_fract_x
_atom_site_fract_y
_atom_site_fract_z
Si Si1 0.229705 0.496115 0.558511
Si Si2 0.470331 0.910460 0.752355
Si Si3 0.728980 0.808593 0.493313
Si Si4 0.641359 0.568640 0.693673
Si Si5 0.990729 0.631624 0.733711
Si Si6 0.762647 0.224058 0.541130
Si Si7 0.969206 0.195451 0.807359
Si Si8 0.122740 0.166738 0.893592
O O1 0.377580 0.717547 0.693871
O O2 0.288801 0.451865 0.462501
O O3 0.140838 0.439763 0.363666
O O4 0.096180 0.363186 0.702707
O O5 0.350156 0.845284 0.621620
O O6 0.640475 0.070738 0.667136
O O7 0.500000 0.000000 0.000000
O O8 0.701604 0.718724 0.640680
O O9 0.552610 0.635540 0.360598
O O10 0.845877 0.873300 0.329095
O O11 0.808570 0.988896 0.638306
O O12 0.711326 0.645712 0.934512
O O13 0.133240 0.750341 0.594681
O O14 0.893431 0.436715 0.696919
O O15 0.058802 0.755685 0.977196
O O16 0.052390 0.190287 0.861985
O O17 0.000000 0.000000 0.000000
#
# Coordination Sequence:
#
# PCOD9011438 Si02
#       8
#     2   2   2   2   2   2   2   2
#     4  11  23  39  62  91 122 164 211 256 310 372
#     4  10  21  40  66  91 124 164 197 255 321 366
#     4  11  25  40  62  91 127 163 208 263 310 372
#     4  11  23  43  60  89 127 165 206 257 317 365
#     4  10  22  40  64  92 123 164 207 256 309 369
#     4   9  21  42  63  91 126 159 206 251 307 383
#     4  12  23  39  64  93 122 162 214 258 305 373
#     4  12  22  41  66  87 121 172 209 252 316 371
#
# _framework density 20.193245000000001
#
# number of rings (size 3 to 8) (size 9 to 14) (size 15 to 20)
#    0.000    1.250    3.750    2.250    0.000    3.000 
#    0.000    3.750    0.000    0.000    0.000    0.000 
#    0.000    0.000    0.000    0.000    0.000    0.000 
#
# Total GULP energy -89492.418182 kJ/mol
# GULP energy per Si atom -5593.276136 kJ/mol
# Density = 2.014728 g / cm^3
# Si number density = 20.193245 Si / 1000 Ang^3
#
#
#
# Elastic Constant Matrix: (Units=GPa)
#
#
# Indices 1 2 3 4 5 6 
#
# 1 31.7412 11.3235 2.2641 6.0682 -15.3727 9.9678
# 2 11.3235 138.5980 51.7496 5.3892 -17.5522 3.4487
# 3 2.2641 51.7496 109.5021 21.7898 -26.2205 0.2762
# 4 6.0682 5.3892 21.7898 27.8868 0.7374 0.2153
# 5 -15.3727 -17.5522 -26.2205 0.7374 38.7874 -1.3551
# 6 9.9678 3.4487 0.2762 0.2153 -1.3551 26.9103
#
#
#
# Elastic Compliance Matrix: (Units=1/GPa)
#
#
# Indices 1 2 3 4 5 6 
#
# 1 0.055386 -0.004084 0.011637 -0.020945 0.027720 -0.018548
# 2 -0.004084 0.009210 -0.005123 0.003135 -0.000963 0.000311
# 3 0.011637 -0.005123 0.018014 -0.015982 0.014671 -0.002972
# 4 -0.020945 0.003135 -0.015982 0.052740 -0.018474 0.006168
# 5 0.027720 -0.000963 0.014671 -0.018474 0.046328 -0.007814
# 6 -0.018548 0.000311 -0.002972 0.006168 -0.007814 0.043578
#
#
# Mechanical properties :
#
#
# Convention : Reuss Voigt Hill
#
# Bulk Modulus (GPa) = 11.43255 45.61286 28.52270
# Shear Modulus (GPa) = 20.03586 33.01717 26.52652
#
# Velocity S-wave (km/s) = 3.15335 4.04797 3.62834
# Velocity P-wave (km/s) = 4.35109 6.66973 5.63105
#
# Compressibility (1/GPa) = 0.08746959
#
# Stress axis : x y z
#
# Youngs Moduli (GPa) = 18.05523 108.57626 55.51331
#
# Poissons Ratio (x) = 0.44338 -0.64601
# Poissons Ratio (y) = 0.07373 0.28441
# Poissons Ratio (z) = -0.21011 0.55627
#
# Static dielectric constant tensor:
#      x y z
#    x 1.711340 0.001330 0.024270 
#    y 0.001330 1.703650 0.012030 
#    z 0.024270 0.012030 1.686670 
# 
# From -- ./inp_files/46337.got.cif
#   From: 2010.05.17/outbox.cif.g08.bks.cpg/sg2_24_cif.got.tgz:46337.got - 2010.06.03 11:33:40.
