data_PCOD9011299
_publ_section_title
;
Structure prediction by ZEFSAII (Michael W. Deem and Ramdas Pophale) SiO2 
 PCOD9011299
Probable space group: P -1
;
_chemical_formula_sum "Si O2"
_cell_formula_units_Z 12
_cell_length_a 14.917344
_cell_length_b 9.144595
_cell_length_c 8.187138
_cell_angle_alpha 109.961487
_cell_angle_beta 145.602953
_cell_angle_gamma 51.822693
_cell_volume 458.824210
_symmetry_space_group_name_H-M "P -1"
_symmetry_group_IT_number 2
_symmetry_cell_setting 'triclinic'
loop_
_space_group_symop_operation_xyz
x,y,z
-x,-y,-z
loop_
_atom_site_type_symbol
_atom_site_label
_atom_site_fract_x
_atom_site_fract_y
_atom_site_fract_z
Si Si1 0.324709 0.824420 0.513653
Si Si2 0.169150 0.612565 0.341775
Si Si3 0.843718 0.962717 0.190844
Si Si4 0.471517 0.201925 0.524611
Si Si5 0.290706 0.425695 0.794360
Si Si6 0.927432 0.756989 0.566689
O O1 0.259304 0.688788 0.389994
O O2 0.440129 0.790293 0.508503
O O3 0.134760 0.058512 0.347313
O O4 0.486404 0.753217 0.875512
O O5 0.242999 0.406573 0.292564
O O6 0.272312 0.540732 0.649857
O O7 0.944582 0.810373 0.130488
O O8 0.828728 0.850955 0.274741
O O9 0.000000 0.000000 0.500000
O O10 0.628179 0.163961 0.885764
O O11 0.500000 0.000000 0.500000
O O12 0.167887 0.341488 0.543933
O O13 0.164626 0.585936 0.813425
#
# Coordination Sequence:
#
# PCOD9011299 Si02
#       6
#     2   2   2   2   2   2
#     4  12  23  39  65  97 132 172 216 276 328 388
#     4  11  25  42  68  97 133 179 220 271 329 397
#     4  11  24  45  72  98 130 174 225 273 324 395
#     4  12  28  45  66  98 140 176 217 273 336 392
#     4  10  22  38  67  94 131 172 224 265 324 393
#     4  10  21  40  65  97 127 174 222 268 321 392
#
# _framework density 26.153807
#
# number of rings (size 3 to 8) (size 9 to 14) (size 15 to 20)
#    0.000    1.000    1.667    4.500    4.667    2.667 
#    0.000    0.000    0.000    0.000    0.000    0.000 
#    0.000    0.000    0.000    0.000    0.000    0.000 
#
# Total GULP energy -67257.654921 kJ/mol
# GULP energy per Si atom -5604.804577 kJ/mol
# Density = 2.609428 g / cm^3
# Si number density = 26.153807 Si / 1000 Ang^3
#
#
#
# Elastic Constant Matrix: (Units=GPa)
#
#
# Indices 1 2 3 4 5 6 
#
# 1 119.7846 36.5797 14.2868 -11.1044 -25.6137 4.4535
# 2 36.5797 175.3831 7.6167 -14.3934 19.9851 -16.0573
# 3 14.2868 7.6167 62.6338 -9.1689 -3.9973 12.5505
# 4 -11.1044 -14.3934 -9.1689 30.3703 -4.6504 5.9345
# 5 -25.6137 19.9851 -3.9973 -4.6504 28.7873 -9.5198
# 6 4.4535 -16.0573 12.5505 5.9345 -9.5198 42.6096
#
#
#
# Elastic Compliance Matrix: (Units=1/GPa)
#
#
# Indices 1 2 3 4 5 6 
#
# 1 0.013531 -0.004143 -0.000847 0.005112 0.015643 0.000057
# 2 -0.004143 0.007755 -0.000836 0.000270 -0.008599 0.001643
# 3 -0.000847 -0.000836 0.018526 0.006317 0.001349 -0.006262
# 4 0.005112 0.000270 0.006317 0.039420 0.009753 -0.005604
# 5 0.015643 -0.008599 0.001349 0.009753 0.058519 0.006443
# 6 0.000057 0.001643 -0.006262 -0.005604 0.006443 0.028147
#
#
# Mechanical properties :
#
#
# Convention : Reuss Voigt Hill
#
# Bulk Modulus (GPa) = 35.51316 52.75200 44.13258
# Shear Modulus (GPa) = 26.74673 40.30801 33.52737
#
# Velocity S-wave (km/s) = 3.20139 3.93006 3.58429
# Velocity P-wave (km/s) = 5.22238 6.38808 5.83441
#
# Compressibility (1/GPa) = 0.02815858
#
# Stress axis : x y z
#
# Youngs Moduli (GPa) = 73.90207 128.95301 53.97689
#
# Poissons Ratio (x) = 0.53428 0.04574
# Poissons Ratio (y) = 0.30619 0.04515
# Poissons Ratio (z) = 0.06262 0.10786
#
# Static dielectric constant tensor:
#      x y z
#    x 2.016170 -0.027300 0.014470 
#    y -0.027300 2.045570 0.041670 
#    z 0.014470 0.041670 2.031660 
# 
# From -- ./inp_files/156375.got.cif
#   From: 2010.05.17/outbox.cif.g08.bks.cpg/sg2_79_cif.got.tgz:156375.got - 2010.06.03 11:33:40.
