data_PCOD9011891
_publ_section_title
;
Structure prediction by ZEFSAII (Michael W. Deem and Ramdas Pophale) SiO2 
 PCOD9011891
Probable space group: P -1
;
_chemical_formula_sum "Si O2"
_cell_formula_units_Z 15
_cell_length_a 20.250688
_cell_length_b 12.301802
_cell_length_c 5.284643
_cell_angle_alpha 69.039440
_cell_angle_beta 59.392708
_cell_angle_gamma 31.661476
_cell_volume 586.361441
_symmetry_space_group_name_H-M "P -1"
_symmetry_group_IT_number 2
_symmetry_cell_setting 'triclinic'
loop_
_space_group_symop_operation_xyz
x,y,z
-x,-y,-z
loop_
_atom_site_type_symbol
_atom_site_label
_atom_site_fract_x
_atom_site_fract_y
_atom_site_fract_z
Si Si1 0.487064 0.228321 0.971599
Si Si2 0.186264 0.560489 0.162789
Si Si3 0.220129 0.171786 0.216906
Si Si4 0.020632 0.136140 0.294196
Si Si5 0.723172 0.169623 0.713732
Si Si6 0.991495 0.399568 0.846840
Si Si7 0.000000 0.000000 0.000000
Si Si8 0.496998 0.634061 0.666531
O O1 0.516829 0.273398 0.633959
O O2 0.624479 0.977027 0.949928
O O3 0.347924 0.339290 0.067421
O O4 0.468808 0.328157 0.183113
O O5 0.097434 0.567180 0.210313
O O6 0.129890 0.661710 0.467545
O O7 0.136619 0.734193 0.955015
O O8 0.124621 0.360392 0.043955
O O9 0.120310 0.299461 0.547482
O O10 0.248636 0.998169 0.278336
O O11 0.060548 0.994533 0.127058
O O12 0.121086 0.974708 0.469901
O O13 0.049076 0.229940 0.064305
O O14 0.616535 0.387306 0.601047
O O15 0.644932 0.252215 0.068325
#
# Coordination Sequence:
#
# PCOD9011891 Si02
#       8
#     2   2   2   2   2   2   1   2
#     4  11  25  43  68  99 141 174 225 273 347 400
#     4  11  24  40  64  96 133 174 217 273 336 407
#     4  10  22  45  66  95 125 178 226 282 328 394
#     4  11  22  40  64  98 127 175 218 278 328 407
#     4  10  21  40  67  97 133 172 224 274 339 395
#     4  10  23  43  68  92 129 169 234 277 331 389
#     4  10  24  38  64  90 136 170 214 264 336 398
#     4  10  24  41  67 102 137 176 217 279 339 413
#
# _framework density 25.581493999999999
#
# number of rings (size 3 to 8) (size 9 to 14) (size 15 to 20)
#    0.000    1.600    1.333    2.000    5.600    6.933 
#    4.800    0.667    0.000    0.000    0.000    0.000 
#    0.000    0.000    0.000    0.000    0.000    0.000 
#
# Total GULP energy -83616.892898 kJ/mol
# GULP energy per Si atom -5574.459527 kJ/mol
# Density = 2.552327 g / cm^3
# Si number density = 25.581494 Si / 1000 Ang^3
#
#
#
# Elastic Constant Matrix: (Units=GPa)
#
#
# Indices 1 2 3 4 5 6 
#
# 1 91.4106 34.1158 13.0752 12.9230 8.6153 1.4417
# 2 34.1158 162.4314 14.3094 25.4786 -9.5535 -5.1000
# 3 13.0752 14.3094 56.8698 2.1039 12.2985 0.3105
# 4 12.9230 25.4786 2.1039 40.6138 -8.3335 -14.2428
# 5 8.6153 -9.5535 12.2985 -8.3335 39.4205 7.3393
# 6 1.4417 -5.1000 0.3105 -14.2428 7.3393 53.6165
#
#
#
# Elastic Compliance Matrix: (Units=1/GPa)
#
#
# Indices 1 2 3 4 5 6 
#
# 1 0.012850 -0.002223 -0.001504 -0.003697 -0.003463 -0.001056
# 2 -0.002223 0.007449 -0.001691 -0.003604 0.002145 -0.000473
# 3 -0.001504 -0.001691 0.019777 -0.000646 -0.006477 0.000480
# 4 -0.003697 -0.003604 -0.000646 0.031835 0.005476 0.007468
# 5 -0.003463 0.002145 -0.006477 0.005476 0.030261 -0.002353
# 6 -0.001056 -0.000473 0.000480 0.007468 -0.002353 0.020937
#
#
# Mechanical properties :
#
#
# Convention : Reuss Voigt Hill
#
# Bulk Modulus (GPa) = 34.19926 48.19030 41.19478
# Shear Modulus (GPa) = 34.79654 43.34427 39.07040
#
# Velocity S-wave (km/s) = 3.69212 4.12073 3.91230
# Velocity P-wave (km/s) = 5.61903 6.44355 6.04536
#
# Compressibility (1/GPa) = 0.02924040
#
# Stress axis : x y z
#
# Youngs Moduli (GPa) = 77.81942 134.24659 50.56316
#
# Poissons Ratio (x) = 0.29849 0.07602
# Poissons Ratio (y) = 0.17303 0.08551
# Poissons Ratio (z) = 0.11701 0.22702
#
# Static dielectric constant tensor:
#      x y z
#    x 2.161480 -0.026520 0.007440 
#    y -0.026520 1.984910 -0.004670 
#    z 0.007440 -0.004670 1.754050 
# 
# From -- ./inp_files/118603.got.cif
#   From: 2010.05.17/outbox.cif.g08.bks.cpg/sg2_60_cif.got.tgz:118603.got - 2010.06.03 11:33:40.
