data_PCOD9011595
_publ_section_title
;
Structure prediction by ZEFSAII (Michael W. Deem and Ramdas Pophale) SiO2 
 PCOD9011595
Probable space group: P -1
;
_chemical_formula_sum "Si O2"
_cell_formula_units_Z 16
_cell_length_a 12.011118
_cell_length_b 6.972811
_cell_length_c 23.179265
_cell_angle_alpha 59.058611
_cell_angle_beta 31.195873
_cell_angle_gamma 47.580003
_cell_volume 732.197851
_symmetry_space_group_name_H-M "P -1"
_symmetry_group_IT_number 2
_symmetry_cell_setting 'triclinic'
loop_
_space_group_symop_operation_xyz
x,y,z
-x,-y,-z
loop_
_atom_site_type_symbol
_atom_site_label
_atom_site_fract_x
_atom_site_fract_y
_atom_site_fract_z
Si Si1 0.799160 0.194854 0.688100
Si Si2 0.498661 0.532612 0.880177
Si Si3 0.005374 0.224654 0.770521
Si Si4 0.152105 0.768336 0.686467
Si Si5 0.021431 0.251144 0.470192
Si Si6 0.001217 0.598484 0.135945
Si Si7 0.488453 0.026356 0.771771
Si Si8 0.337887 0.320219 0.529190
O O1 0.633829 0.386993 0.783282
O O2 0.918065 0.303755 0.573016
O O3 0.633094 0.109160 0.739043
O O4 0.028702 0.946259 0.657419
O O5 0.712552 0.404360 0.854583
O O6 0.416847 0.833500 0.863199
O O7 0.262512 0.506271 0.003098
O O8 0.039017 0.194225 0.828386
O O9 0.155425 0.356001 0.657316
O O10 0.109249 0.956070 0.731106
O O11 0.005186 0.627946 0.791143
O O12 0.454045 0.599053 0.569814
O O13 0.844626 0.503564 0.469199
O O14 0.313164 0.136850 0.342735
O O15 0.000000 0.000000 0.500000
O O16 0.762693 0.725457 0.180095
O O17 0.500000 0.000000 0.500000
#
# Coordination Sequence:
#
# PCOD9011595 Si02
#       8
#     2   2   2   2   2   2   2   2
#     4  10  24  42  69  96 133 175 213 279 332 398
#     4  11  24  45  65  95 130 179 228 265 330 391
#     4  10  23  43  65  95 130 173 217 281 327 389
#     4  10  23  41  65 100 131 168 221 271 335 391
#     4  10  21  40  66  96 134 174 213 271 343 396
#     4  12  26  40  68  96 132 180 223 270 325 396
#     4  11  24  43  63  97 134 174 223 267 336 396
#     4  10  21  41  67  97 136 169 224 276 334 399
#
# _framework density 21.852015000000002
#
# number of rings (size 3 to 8) (size 9 to 14) (size 15 to 20)
#    0.000    1.500    1.250    3.000    3.500    7.500 
#    0.000    0.000    0.000    0.000    0.000    0.000 
#    0.000    0.000    0.000    0.000    0.000    0.000 
#
# Total GULP energy -89442.357075 kJ/mol
# GULP energy per Si atom -5590.147317 kJ/mol
# Density = 2.180228 g / cm^3
# Si number density = 21.852015 Si / 1000 Ang^3
#
#
#
# Elastic Constant Matrix: (Units=GPa)
#
#
# Indices 1 2 3 4 5 6 
#
# 1 66.7086 -11.9072 22.7151 3.4372 7.0035 -3.9155
# 2 -11.9072 48.7216 16.9583 -2.9856 -8.1743 -1.3898
# 3 22.7151 16.9583 133.2467 -0.7630 -39.6879 -4.9221
# 4 3.4372 -2.9856 -0.7630 22.6469 7.2262 -15.1545
# 5 7.0035 -8.1743 -39.6879 7.2262 13.4179 8.4532
# 6 -3.9155 -1.3898 -4.9221 -15.1545 8.4532 20.4222
#
#
#
# Elastic Compliance Matrix: (Units=1/GPa)
#
#
# Indices 1 2 3 4 5 6 
#
# 1 0.014094 0.004230 0.000542 -0.015177 0.013699 -0.013812
# 2 0.004230 0.023234 -0.002026 0.000670 0.005518 0.000117
# 3 0.000542 -0.002026 0.003532 0.021015 -0.017218 0.023539
# 4 -0.015177 0.000670 0.021015 0.022714 0.062567 -0.006842
# 5 0.013699 0.005518 -0.017218 0.062567 -0.057374 0.069029
# 6 -0.013812 0.000117 0.023539 -0.006842 0.069029 0.018349
#
#
# Mechanical properties :
#
#
# Convention : Reuss Voigt Hill
#
# Bulk Modulus (GPa) = 21.57404 33.80105 27.68754
# Shear Modulus (GPa) = 144.89571 26.02476 85.46024
#
# Velocity S-wave (km/s) = 8.15179 3.45477 6.26047
# Velocity P-wave (km/s) = 9.92454 5.60496 8.05953
#
# Compressibility (1/GPa) = 0.04635201
#
# Stress axis : x y z
#
# Youngs Moduli (GPa) = 70.95187 43.04008 283.15688
#
# Poissons Ratio (x) = -0.18207 -0.15354
# Poissons Ratio (y) = -0.30014 0.57377
# Poissons Ratio (z) = -0.03847 0.08721
#
# Static dielectric constant tensor:
#      x y z
#    x 1.828800 0.066850 -0.000090 
#    y 0.066850 1.823450 -0.000550 
#    z -0.000090 -0.000550 1.782780 
# 
# From -- ./inp_files/259017.got.cif
#   From: 2010.05.17/outbox.cif.g08.bks.cpg/sg2_130_cif.got.tgz:259017.got - 2010.06.03 11:33:40.
