data_PCOD9011679
_publ_section_title
;
Structure prediction by ZEFSAII (Michael W. Deem and Ramdas Pophale) SiO2 
 PCOD9011679
Probable space group: P -1
;
_chemical_formula_sum "Si O2"
_cell_formula_units_Z 16
_cell_length_a 9.555497
_cell_length_b 13.756078
_cell_length_c 9.746305
_cell_angle_alpha 52.114654
_cell_angle_beta 71.388004
_cell_angle_gamma 53.013314
_cell_volume 805.074180
_symmetry_space_group_name_H-M "P -1"
_symmetry_group_IT_number 2
_symmetry_cell_setting 'triclinic'
loop_
_space_group_symop_operation_xyz
x,y,z
-x,-y,-z
loop_
_atom_site_type_symbol
_atom_site_label
_atom_site_fract_x
_atom_site_fract_y
_atom_site_fract_z
Si Si1 0.898691 0.374896 0.543467
Si Si2 0.301040 0.126546 0.979845
Si Si3 0.778688 0.693313 0.896386
Si Si4 0.257187 0.325157 0.572289
Si Si5 0.036138 0.852218 0.047845
Si Si6 0.165846 0.592777 0.782863
Si Si7 0.342920 0.675838 0.877024
Si Si8 0.536247 0.838790 0.600404
O O1 0.747444 0.528323 0.524019
O O2 0.930014 0.247759 0.743503
O O3 0.858906 0.367493 0.403862
O O4 0.080007 0.370101 0.505763
O O5 0.254407 0.260363 0.776147
O O6 0.144081 0.103489 0.013298
O O7 0.299403 0.168974 0.099954
O O8 0.500000 0.000000 0.000000
O O9 0.703462 0.732244 0.734852
O O10 0.981800 0.637267 0.871125
O O11 0.732196 0.582341 0.073943
O O12 0.415758 0.205427 0.534280
O O13 0.201176 0.752899 0.979247
O O14 0.000000 0.000000 0.000000
O O15 0.246255 0.666493 0.780813
O O16 0.405905 0.787838 0.731849
O O17 0.500000 0.500000 0.000000
O O18 0.500000 0.000000 0.500000
#
# Coordination Sequence:
#
# PCOD9011679 Si02
#       8
#     2   2   2   2   2   2   2   2
#     4  10  21  41  71  95 132 175 228 289 343 408
#     4  11  23  42  69  99 138 179 228 283 344 418
#     4  11  22  40  69 100 133 175 236 274 343 412
#     4  10  21  40  67 100 128 174 234 279 338 410
#     4  11  27  46  68 100 143 186 225 286 360 414
#     4  11  22  42  69 101 130 175 229 296 334 405
#     4  12  26  47  72 102 141 186 237 289 346 416
#     4  12  26  43  68  98 140 184 229 281 347 415
#
# _framework density 19.873944000000002
#
# number of rings (size 3 to 8) (size 9 to 14) (size 15 to 20)
#    0.000    1.000    5.000    1.500    5.250    0.000 
#    4.500    2.500    0.000    0.000    0.000    0.000 
#    0.000    0.000    0.000    0.000    0.000    0.000 
#
# Total GULP energy -89178.793605 kJ/mol
# GULP energy per Si atom -5573.674600 kJ/mol
# Density = 1.982871 g / cm^3
# Si number density = 19.873944 Si / 1000 Ang^3
#
#
#
# Elastic Constant Matrix: (Units=GPa)
#
#
# Indices 1 2 3 4 5 6 
#
# 1 78.8781 42.5965 27.5151 -9.7969 -11.2699 11.4855
# 2 42.5965 144.0073 37.1596 8.4269 -18.1850 9.2645
# 3 27.5151 37.1596 63.6642 8.9045 -3.5389 14.4003
# 4 -9.7969 8.4269 8.9045 33.8290 3.6619 -1.0939
# 5 -11.2699 -18.1850 -3.5389 3.6619 28.9104 -1.0236
# 6 11.4855 9.2645 14.4003 -1.0939 -1.0236 29.2752
#
#
#
# Elastic Compliance Matrix: (Units=1/GPa)
#
#
# Indices 1 2 3 4 5 6 
#
# 1 0.018635 -0.003818 -0.006094 0.007532 0.003066 -0.002717
# 2 -0.003818 0.009692 -0.003339 -0.003135 0.004600 0.000117
# 3 -0.006094 -0.003339 0.023093 -0.007165 -0.001032 -0.008216
# 4 0.007532 -0.003135 -0.007165 0.034956 -0.004245 0.002720
# 5 0.003066 0.004600 -0.001032 -0.004245 0.039057 -0.000944
# 6 -0.002717 0.000117 -0.008216 0.002720 -0.000944 0.039297
#
#
# Mechanical properties :
#
#
# Convention : Reuss Voigt Hill
#
# Bulk Modulus (GPa) = 40.13190 55.67688 47.90439
# Shear Modulus (GPa) = 25.05793 30.35480 27.70637
#
# Velocity S-wave (km/s) = 3.55469 3.91239 3.73782
# Velocity P-wave (km/s) = 6.08973 6.96311 6.54101
#
# Compressibility (1/GPa) = 0.02491783
#
# Stress axis : x y z
#
# Youngs Moduli (GPa) = 53.66362 103.17756 43.30307
#
# Poissons Ratio (x) = 0.39397 0.26387
# Poissons Ratio (y) = 0.20491 0.14459
# Poissons Ratio (z) = 0.32700 0.34451
#
# Static dielectric constant tensor:
#      x y z
#    x 1.731000 -0.039310 -0.016690 
#    y -0.039310 1.769550 -0.069000 
#    z -0.016690 -0.069000 1.756560 
# 
# From -- ./inp_files/185057.got.cif
#   From: 2010.05.17/outbox.cif.g08.bks.cpg/sg2_93_cif.got.tgz:185057.got - 2010.06.03 11:33:40.
