data_PCOD9011959
_publ_section_title
;
Structure prediction by ZEFSAII (Michael W. Deem and Ramdas Pophale) SiO2 
 PCOD9011959
Probable space group: P -1
;
_chemical_formula_sum "Si O2"
_cell_formula_units_Z 14
_cell_length_a 13.071973
_cell_length_b 10.346169
_cell_length_c 18.334163
_cell_angle_alpha 42.624350
_cell_angle_beta 152.394436
_cell_angle_gamma 146.761115
_cell_volume 629.663355
_symmetry_space_group_name_H-M "P -1"
_symmetry_group_IT_number 2
_symmetry_cell_setting 'triclinic'
loop_
_space_group_symop_operation_xyz
x,y,z
-x,-y,-z
loop_
_atom_site_type_symbol
_atom_site_label
_atom_site_fract_x
_atom_site_fract_y
_atom_site_fract_z
Si Si1 0.343463 0.718919 0.532842
Si Si2 0.544303 0.912845 0.140324
Si Si3 0.549988 0.780652 0.944341
Si Si4 0.488014 0.917698 0.690375
Si Si5 0.445701 0.522768 0.329247
Si Si6 0.171039 0.147637 0.433897
Si Si7 0.044995 0.294295 0.803683
O O1 0.354228 0.716973 0.627061
O O2 0.475713 0.613662 0.616330
O O3 0.053016 0.601834 0.360519
O O4 0.500000 0.000000 0.500000
O O5 0.363392 0.649967 0.169229
O O6 0.509642 0.063407 0.113232
O O7 0.846673 0.974871 0.306114
O O8 0.500000 0.000000 0.000000
O O9 0.530739 0.828699 0.828349
O O10 0.308506 0.509237 0.922048
O O11 0.845636 0.834564 0.117081
O O12 0.312514 0.020732 0.551395
O O13 0.790034 0.127743 0.764133
O O14 0.232724 0.335745 0.331926
O O15 0.690234 0.715658 0.458776
#
# Coordination Sequence:
#
# PCOD9011959 Si02
#       7
#     2   2   2   2   2   2   2
#     4  10  21  40  68 101 128 166 228 278 322 388
#     4  12  29  43  65 101 140 177 223 274 338 404
#     4  11  25  43  65  96 137 178 216 270 335 403
#     4  11  23  42  71  99 126 173 225 276 325 390
#     4  11  23  45  72  98 134 178 222 281 328 392
#     4  11  24  43  73  99 129 180 226 270 333 398
#     4  10  23  43  66  95 136 172 215 277 332 394
#
# _framework density 22.234102
#
# number of rings (size 3 to 8) (size 9 to 14) (size 15 to 20)
#    0.000    1.143    4.286    1.714    6.000    3.429 
#    0.000    0.000    0.000    0.000    0.000    0.000 
#    0.000    0.000    0.000    0.000    0.000    0.000 
#
# Total GULP energy -78192.125034 kJ/mol
# GULP energy per Si atom -5585.151788 kJ/mol
# Density = 2.218350 g / cm^3
# Si number density = 22.234102 Si / 1000 Ang^3
#
#
#
# Elastic Constant Matrix: (Units=GPa)
#
#
# Indices 1 2 3 4 5 6 
#
# 1 137.6973 44.1522 53.1049 0.9414 -4.6761 -3.8977
# 2 44.1522 62.2972 25.3825 -11.2383 8.5811 -2.5648
# 3 53.1049 25.3825 60.2451 -25.6311 12.8714 1.5087
# 4 0.9414 -11.2383 -25.6311 -6.1324 4.5164 -22.1458
# 5 -4.6761 8.5811 12.8714 4.5164 56.1650 -9.4476
# 6 -3.8977 -2.5648 1.5087 -22.1458 -9.4476 33.5426
#
#
#
# Elastic Compliance Matrix: (Units=1/GPa)
#
#
# Indices 1 2 3 4 5 6 
#
# 1 0.011007 -0.004327 -0.005408 0.007966 0.003423 0.007415
# 2 -0.004327 0.021146 -0.006631 -0.004792 -0.002079 -0.002337
# 3 -0.005408 -0.006631 0.018360 -0.016846 -0.004714 -0.014411
# 4 0.007966 -0.004792 -0.016846 -0.026235 0.004906 -0.014622
# 5 0.003423 -0.002079 -0.004714 0.004906 0.020694 0.009519
# 6 0.007415 -0.002337 -0.014411 -0.014622 0.009519 0.024171
#
#
# Mechanical properties :
#
#
# Convention : Reuss Voigt Hill
#
# Bulk Modulus (GPa) = 56.23661 56.16876 56.20269
# Shear Modulus (GPa) = 46.38093 25.88838 36.13466
#
# Velocity S-wave (km/s) = 4.57226 3.41597 4.03574
# Velocity P-wave (km/s) = 7.29534 6.39341 6.85921
#
# Compressibility (1/GPa) = 0.01778201
#
# Stress axis : x y z
#
# Youngs Moduli (GPa) = 90.85179 47.28948 54.46497
#
# Poissons Ratio (x) = 0.20463 0.29452
# Poissons Ratio (y) = 0.39312 0.36117
# Poissons Ratio (z) = 0.49128 0.31359
#
# Static dielectric constant tensor:
#      x y z
#    x 1.868330 0.028620 -0.007540 
#    y 0.028620 1.867740 0.023610 
#    z -0.007540 0.023610 1.856510 
# 
# From -- ./inp_files/402750.got.cif
#   From: 2010.05.17/outbox.cif.g08.bks.cpg/sg2_202_cif.got.tgz:402750.got - 2010.06.03 11:33:40.
