data_PCOD9011319
_publ_section_title
;
Structure prediction by ZEFSAII (Michael W. Deem and Ramdas Pophale) SiO2 
 PCOD9011319
Probable space group: P -1
;
_chemical_formula_sum "Si O2"
_cell_formula_units_Z 14
_cell_length_a 12.391790
_cell_length_b 8.023969
_cell_length_c 9.300574
_cell_angle_alpha 110.393168
_cell_angle_beta 54.714052
_cell_angle_gamma 128.929027
_cell_volume 587.078274
_symmetry_space_group_name_H-M "P -1"
_symmetry_group_IT_number 2
_symmetry_cell_setting 'triclinic'
loop_
_space_group_symop_operation_xyz
x,y,z
-x,-y,-z
loop_
_atom_site_type_symbol
_atom_site_label
_atom_site_fract_x
_atom_site_fract_y
_atom_site_fract_z
Si Si1 0.453660 0.318821 0.361134
Si Si2 0.347004 0.794470 0.985981
Si Si3 0.121343 0.169967 0.572352
Si Si4 0.066050 0.743742 0.053551
Si Si5 0.648264 0.112788 0.525333
Si Si6 0.843022 0.472002 0.681821
Si Si7 0.060755 0.878131 0.791778
O O1 0.500000 0.500000 0.500000
O O2 0.601705 0.359883 0.164106
O O3 0.296409 0.289801 0.404428
O O4 0.396083 0.081590 0.391244
O O5 0.254797 0.857867 0.968618
O O6 0.218600 0.672051 0.172814
O O7 0.500000 0.000000 0.000000
O O8 0.033988 0.275486 0.734206
O O9 0.138594 0.077238 0.682571
O O10 0.000000 0.000000 0.500000
O O11 0.037205 0.858478 0.976376
O O12 0.000000 0.500000 0.000000
O O13 0.699048 0.328181 0.637516
O O14 0.807283 0.179748 0.337921
O O15 0.500000 0.000000 0.500000
O O16 0.000000 0.500000 0.500000
O O17 0.903046 0.703656 0.770305
#
# Coordination Sequence:
#
# PCOD9011319 Si02
#       7
#     2   2   2   2   2   2   2
#     4  11  24  42  65  98 140 175 221 287 349 408
#     4  12  23  42  72 102 139 178 237 289 346 410
#     4  11  26  45  69  99 141 187 229 286 355 415
#     4  12  24  42  72 104 134 186 239 283 342 423
#     4  10  21  40  65  97 135 179 224 283 349 410
#     4  10  22  40  68  99 137 176 234 285 343 409
#     4  10  23  41  66 100 139 177 233 288 343 413
#
# _framework density 23.846906000000001
#
# number of rings (size 3 to 8) (size 9 to 14) (size 15 to 20)
#    0.000    1.143    2.857    3.000    4.000    1.143 
#    0.000    0.000    0.000    2.571    0.000    0.000 
#    0.000    0.000    0.000    0.000    0.000    0.000 
#
# Total GULP energy -78004.088228 kJ/mol
# GULP energy per Si atom -5571.720588 kJ/mol
# Density = 2.379263 g / cm^3
# Si number density = 23.846906 Si / 1000 Ang^3
#
#
#
# Elastic Constant Matrix: (Units=GPa)
#
#
# Indices 1 2 3 4 5 6 
#
# 1 127.1178 28.8909 43.6843 9.4039 -12.2475 25.7286
# 2 28.8909 59.6848 6.9560 -0.0673 -5.5529 18.6465
# 3 43.6843 6.9560 132.3801 5.4154 -5.2501 -4.4000
# 4 9.4039 -0.0673 5.4154 41.8793 -3.2328 12.0352
# 5 -12.2475 -5.5529 -5.2501 -3.2328 25.5596 -1.5192
# 6 25.7286 18.6465 -4.4000 12.0352 -1.5192 46.3512
#
#
#
# Elastic Compliance Matrix: (Units=1/GPa)
#
#
# Indices 1 2 3 4 5 6 
#
# 1 0.011189 -0.003069 -0.003545 -0.000310 0.003624 -0.005114
# 2 -0.003069 0.020885 -0.000344 0.003135 0.002950 -0.007448
# 3 -0.003545 -0.000344 0.008908 -0.001295 0.000088 0.003291
# 4 -0.000310 0.003135 -0.001295 0.026673 0.003163 -0.008034
# 5 0.003624 0.002950 0.000088 0.003163 0.041763 -0.002642
# 6 -0.005114 -0.007448 0.003291 -0.008034 -0.002642 0.029721
#
#
# Mechanical properties :
#
#
# Convention : Reuss Voigt Hill
#
# Bulk Modulus (GPa) = 36.94386 53.13836 45.04111
# Shear Modulus (GPa) = 30.84963 38.73479 34.79221
#
# Velocity S-wave (km/s) = 3.60064 4.03465 3.82381
# Velocity P-wave (km/s) = 5.72817 6.63596 6.19870
#
# Compressibility (1/GPa) = 0.02706810
#
# Stress axis : x y z
#
# Youngs Moduli (GPa) = 89.37015 47.88069 112.26294
#
# Poissons Ratio (x) = 0.14694 0.39794
# Poissons Ratio (y) = 0.27426 0.03857
# Poissons Ratio (z) = 0.31679 0.01645
#
# Static dielectric constant tensor:
#      x y z
#    x 2.034020 -0.026060 -0.016750 
#    y -0.026060 1.928220 0.054280 
#    z -0.016750 0.054280 1.997940 
# 
# From -- ./inp_files/244923.got.cif
#   From: 2010.05.17/outbox.cif.g08.bks.cpg/sg2_123_cif.got.tgz:244923.got - 2010.06.03 11:33:40.
