data_PCOD9011443
_publ_section_title
;
Structure prediction by ZEFSAII (Michael W. Deem and Ramdas Pophale) SiO2 
 PCOD9011443
Probable space group: P -1
;
_chemical_formula_sum "Si O2"
_cell_formula_units_Z 14
_cell_length_a 26.881124
_cell_length_b 17.569116
_cell_length_c 8.611444
_cell_angle_alpha 31.015293
_cell_angle_beta 41.124860
_cell_angle_gamma 20.243578
_cell_volume 695.025076
_symmetry_space_group_name_H-M "P -1"
_symmetry_group_IT_number 2
_symmetry_cell_setting 'triclinic'
loop_
_space_group_symop_operation_xyz
x,y,z
-x,-y,-z
loop_
_atom_site_type_symbol
_atom_site_label
_atom_site_fract_x
_atom_site_fract_y
_atom_site_fract_z
Si Si1 0.611087 0.922975 0.290697
Si Si2 0.185165 0.307659 0.525401
Si Si3 0.354641 0.833996 0.707106
Si Si4 0.466957 0.208396 0.803087
Si Si5 0.893948 0.791147 0.582337
Si Si6 0.141651 0.653959 0.785027
Si Si7 0.109362 0.539666 0.739561
O O1 0.679918 0.908853 0.288162
O O2 0.763260 0.601107 0.419808
O O3 0.500000 0.000000 0.500000
O O4 0.520831 0.130431 0.990304
O O5 0.033693 0.534314 0.583264
O O6 0.238866 0.090135 0.661258
O O7 0.161152 0.502817 0.145428
O O8 0.431681 0.846412 0.428698
O O9 0.252598 0.918345 0.676411
O O10 0.500000 0.500000 0.000000
O O11 0.287470 0.513620 0.685669
O O12 0.500000 0.000000 0.000000
O O13 0.952292 0.804561 0.553749
O O14 0.859823 0.688477 0.917421
O O15 0.124444 0.582574 0.797128
O O16 0.000000 0.000000 0.500000
#
# Coordination Sequence:
#
# PCOD9011443 Si02
#       7
#     2   2   2   2   2   2   2
#     4  11  19  37  68  93 120 170 217 267 322 374
#     4  11  23  40  63  94 126 169 217 262 321 394
#     4  12  25  42  66  98 129 171 215 272 327 385
#     4  12  21  44  69  89 133 171 214 272 325 380
#     4  10  21  41  67  87 129 171 210 261 331 384
#     4  12  25  41  65  97 130 172 217 265 328 389
#     4  10  21  40  66  91 125 172 212 265 324 385
#
# _framework density 20.143158
#
# number of rings (size 3 to 8) (size 9 to 14) (size 15 to 20)
#    0.000    0.857    7.143    0.429    2.000    0.000 
#    2.571    3.571    0.000    0.000    0.000    0.000 
#    0.000    0.000    0.000    0.000    0.000    0.000 
#
# Total GULP energy -78049.294171 kJ/mol
# GULP energy per Si atom -5574.949584 kJ/mol
# Density = 2.009731 g / cm^3
# Si number density = 20.143158 Si / 1000 Ang^3
#
#
#
# Elastic Constant Matrix: (Units=GPa)
#
#
# Indices 1 2 3 4 5 6 
#
# 1 133.7641 28.3626 30.2113 -5.5590 38.4078 -31.2258
# 2 28.3626 90.7122 25.9654 5.7774 11.3347 -29.4816
# 3 30.2113 25.9654 41.0238 -3.7944 15.9654 -0.9848
# 4 -5.5590 5.7774 -3.7944 39.3341 -8.7603 16.0549
# 5 38.4078 11.3347 15.9654 -8.7603 25.5450 -5.5589
# 6 -31.2258 -29.4816 -0.9848 16.0549 -5.5589 41.4922
#
#
#
# Elastic Compliance Matrix: (Units=1/GPa)
#
#
# Indices 1 2 3 4 5 6 
#
# 1 0.021853 0.009316 -0.011162 -0.016304 -0.030150 0.025070
# 2 0.009316 0.027316 -0.019927 -0.020818 -0.013816 0.032151
# 3 -0.011162 -0.019927 0.047950 0.016506 -0.004877 -0.028461
# 4 -0.016304 -0.020818 0.016506 0.052311 0.032102 -0.042610
# 5 -0.030150 -0.013816 -0.004877 0.032102 0.097712 -0.031953
# 6 0.025070 0.032151 -0.028461 -0.042610 -0.031953 0.077343
#
#
# Mechanical properties :
#
#
# Convention : Reuss Voigt Hill
#
# Bulk Modulus (GPa) = 18.66611 48.28652 33.47631
# Shear Modulus (GPa) = 12.95703 33.33832 23.14768
#
# Velocity S-wave (km/s) = 2.53898 4.07267 3.39360
# Velocity P-wave (km/s) = 4.22872 6.79259 5.65780
#
# Compressibility (1/GPa) = 0.05357303
#
# Stress axis : x y z
#
# Youngs Moduli (GPa) = 45.75943 36.60803 20.85497
#
# Poissons Ratio (x) = -0.34103 0.23279
# Poissons Ratio (y) = -0.42628 0.41557
# Poissons Ratio (z) = 0.51078 0.72948
#
# Static dielectric constant tensor:
#      x y z
#    x 1.755690 -0.027380 0.068450 
#    y -0.027380 1.685970 -0.038230 
#    z 0.068450 -0.038230 1.720820 
# 
# From -- ./inp_files/154189.got.cif
#   From: 2010.05.17/outbox.cif.g08.bks.cpg/sg2_78_cif.got.tgz:154189.got - 2010.06.03 11:33:40.
