data_PCOD9011587
_publ_section_title
;
Structure prediction by ZEFSAII (Michael W. Deem and Ramdas Pophale) SiO2 
 PCOD9011587
Probable space group: P -1
;
_chemical_formula_sum "Si O2"
_cell_formula_units_Z 14
_cell_length_a 19.477285
_cell_length_b 8.573239
_cell_length_c 8.364305
_cell_angle_alpha 53.563853
_cell_angle_beta 120.587154
_cell_angle_gamma 146.509634
_cell_volume 619.750825
_symmetry_space_group_name_H-M "P -1"
_symmetry_group_IT_number 2
_symmetry_cell_setting 'triclinic'
loop_
_space_group_symop_operation_xyz
x,y,z
-x,-y,-z
loop_
_atom_site_type_symbol
_atom_site_label
_atom_site_fract_x
_atom_site_fract_y
_atom_site_fract_z
Si Si1 0.702081 0.124058 0.505941
Si Si2 0.666347 0.441347 0.096572
Si Si3 0.870284 0.658476 0.614086
Si Si4 0.125914 0.228440 0.112370
Si Si5 0.753783 0.819101 0.273550
Si Si6 0.125983 0.811189 0.534049
Si Si7 0.502743 0.472857 0.830329
O O1 0.638998 0.203910 0.318083
O O2 0.814865 0.388108 0.601249
O O3 0.767510 0.133297 0.434120
O O4 0.602205 0.799087 0.667584
O O5 0.738704 0.734118 0.120421
O O6 0.759071 0.539366 0.011490
O O7 0.549785 0.340190 0.947127
O O8 0.879993 0.635811 0.827373
O O9 0.766293 0.631178 0.482151
O O10 0.000000 0.000000 0.500000
O O11 0.139826 0.045046 0.323210
O O12 0.000000 0.000000 0.000000
O O13 0.634425 0.711304 0.262184
O O14 0.867840 0.146709 0.292371
O O15 0.000000 0.500000 0.500000
O O16 0.500000 0.500000 0.000000
#
# Coordination Sequence:
#
# PCOD9011587 Si02
#       7
#     2   2   2   2   2   2   2
#     4  11  22  42  69  92 133 174 216 265 333 385
#     4  10  21  42  64  97 132 165 214 273 321 380
#     4  10  21  40  66  96 131 175 215 268 335 386
#     4  11  21  39  62  94 136 164 213 280 316 382
#     4   9  21  40  67  86 134 170 210 266 330 372
#     4  11  22  40  64  96 127 172 217 264 333 395
#     4  10  22  43  68  94 131 172 225 268 317 389
#
# _framework density 22.589725000000001
#
# number of rings (size 3 to 8) (size 9 to 14) (size 15 to 20)
#    0.000    1.714    1.429    4.286    0.000    5.714 
#   10.286    2.143    0.000    0.000    0.000    0.000 
#    0.000    0.000    0.000    0.000    0.000    0.000 
#
# Total GULP energy -78086.233038 kJ/mol
# GULP energy per Si atom -5577.588074 kJ/mol
# Density = 2.253831 g / cm^3
# Si number density = 22.589725 Si / 1000 Ang^3
#
#
#
# Elastic Constant Matrix: (Units=GPa)
#
#
# Indices 1 2 3 4 5 6 
#
# 1 103.9607 20.4567 35.8675 12.7424 1.6544 3.4675
# 2 20.4567 55.5067 11.6219 16.6879 -0.9185 -9.6462
# 3 35.8675 11.6219 82.6417 -3.7251 10.3812 3.0814
# 4 12.7424 16.6879 -3.7251 28.9430 -1.3470 -5.1911
# 5 1.6544 -0.9185 10.3812 -1.3470 44.8210 12.5597
# 6 3.4675 -9.6462 3.0814 -5.1911 12.5597 42.4478
#
#
#
# Elastic Compliance Matrix: (Units=1/GPa)
#
#
# Indices 1 2 3 4 5 6 
#
# 1 0.012662 -0.002281 -0.005484 -0.005296 0.001202 -0.002158
# 2 -0.002281 0.024010 -0.003072 -0.012454 -0.000331 0.004440
# 3 -0.005484 -0.003072 0.015600 0.006101 -0.003393 0.000368
# 4 -0.005296 -0.012454 0.006101 0.045339 -0.000947 0.002984
# 5 0.001202 -0.000331 -0.003393 -0.000947 0.025111 -0.007473
# 6 -0.002158 0.004440 0.000368 0.002984 -0.007473 0.027293
#
#
# Mechanical properties :
#
#
# Convention : Reuss Voigt Hill
#
# Bulk Modulus (GPa) = 32.68141 42.00013 37.34077
# Shear Modulus (GPa) = 27.48930 34.85323 31.17126
#
# Velocity S-wave (km/s) = 3.49219 3.93221 3.71871
# Velocity P-wave (km/s) = 5.54610 6.26493 5.91644
#
# Compressibility (1/GPa) = 0.03059843
#
# Stress axis : x y z
#
# Youngs Moduli (GPa) = 78.97747 41.64914 64.10243
#
# Poissons Ratio (x) = 0.09501 0.35152
# Poissons Ratio (y) = 0.18016 0.19691
# Poissons Ratio (z) = 0.43310 0.12794
#
# Static dielectric constant tensor:
#      x y z
#    x 1.909990 -0.060930 0.065370 
#    y -0.060930 1.989460 -0.013170 
#    z 0.065370 -0.013170 1.875630 
# 
# From -- ./inp_files/204554.got.cif
#   From: 2010.05.17/outbox.cif.g08.bks.cpg/sg2_103_cif.got.tgz:204554.got - 2010.06.03 11:33:40.
