data_PCOD9011249
_publ_section_title
;
Structure prediction by ZEFSAII (Michael W. Deem and Ramdas Pophale) SiO2 
 PCOD9011249
Probable space group: P -1
;
_chemical_formula_sum "Si O2"
_cell_formula_units_Z 16
_cell_length_a 18.647189
_cell_length_b 7.978512
_cell_length_c 5.677348
_cell_angle_alpha 121.938494
_cell_angle_beta 73.148759
_cell_angle_gamma 100.960678
_cell_volume 685.308097
_symmetry_space_group_name_H-M "P -1"
_symmetry_group_IT_number 2
_symmetry_cell_setting 'triclinic'
loop_
_space_group_symop_operation_xyz
x,y,z
-x,-y,-z
loop_
_atom_site_type_symbol
_atom_site_label
_atom_site_fract_x
_atom_site_fract_y
_atom_site_fract_z
Si Si1 0.173995 0.807922 0.545807
Si Si2 0.303252 0.984419 0.266563
Si Si3 0.194288 0.124419 0.111554
Si Si4 0.960533 0.933969 0.242834
Si Si5 0.077947 0.411319 0.276202
Si Si6 0.603340 0.345396 0.219091
Si Si7 0.453046 0.372135 0.139743
Si Si8 0.661233 0.726133 0.180002
O O1 0.255014 0.842072 0.382442
O O2 0.137922 0.593864 0.369873
O O3 0.116631 0.955924 0.594393
O O4 0.177419 0.897147 0.874112
O O5 0.243454 0.116006 0.290758
O O6 0.355510 0.128763 0.481376
O O7 0.347548 0.843115 0.951063
O O8 0.119339 0.245947 0.269792
O O9 0.252871 0.226140 0.942635
O O10 0.940973 0.701974 0.036616
O O11 0.000000 0.000000 0.500000
O O12 0.000000 0.000000 0.000000
O O13 0.000000 0.500000 0.500000
O O14 0.518432 0.286700 0.172807
O O15 0.593975 0.472968 0.555373
O O16 0.642836 0.503512 0.117677
O O17 0.500000 0.500000 0.000000
O O18 0.394121 0.233418 0.952814
#
# Coordination Sequence:
#
# PCOD9011249 Si02
#       8
#     2   2   2   2   2   2   2   2
#     4  10  24  42  65  97 131 175 227 277 344 411
#     4  11  24  40  66  95 129 175 223 280 335 407
#     4  10  24  41  63  97 136 168 224 284 336 407
#     4  11  25  46  71 103 143 177 229 294 354 424
#     4  11  23  45  71  98 131 183 228 281 353 414
#     4  10  21  40  65  95 129 175 221 270 337 398
#     4   9  20  39  65  95 133 169 218 274 324 404
#     4  10  21  42  63  92 132 174 216 273 335 397
#
# _framework density 23.347163999999999
#
# number of rings (size 3 to 8) (size 9 to 14) (size 15 to 20)
#    0.000    1.750    1.250    1.500    3.500    7.000 
#    2.250    8.750    0.000    0.000    0.000    0.000 
#    0.000    0.000    0.000    0.000    0.000    0.000 
#
# Total GULP energy -89324.688005 kJ/mol
# GULP energy per Si atom -5582.793000 kJ/mol
# Density = 2.329402 g / cm^3
# Si number density = 23.347164 Si / 1000 Ang^3
#
#
#
# Elastic Constant Matrix: (Units=GPa)
#
#
# Indices 1 2 3 4 5 6 
#
# 1 108.5003 25.7230 65.1503 16.4970 23.3077 3.9536
# 2 25.7230 67.9328 43.1049 16.3250 -0.3684 16.8442
# 3 65.1503 43.1049 129.8421 16.8260 17.4956 -11.8408
# 4 16.4970 16.3250 16.8260 34.7696 1.4587 3.8466
# 5 23.3077 -0.3684 17.4956 1.4587 55.0026 -0.4262
# 6 3.9536 16.8442 -11.8408 3.8466 -0.4262 24.0731
#
#
#
# Elastic Compliance Matrix: (Units=1/GPa)
#
#
# Indices 1 2 3 4 5 6 
#
# 1 0.015115 0.001852 -0.007919 -0.003249 -0.003844 -0.007222
# 2 0.001852 0.030706 -0.013327 -0.005975 0.003607 -0.027326
# 3 -0.007919 -0.013327 0.018346 -0.000950 -0.002391 0.019759
# 4 -0.003249 -0.005975 -0.000950 0.033660 0.000737 -0.001118
# 5 -0.003844 0.003607 -0.002391 0.000737 0.020553 -0.002823
# 6 -0.007222 -0.027326 0.019759 -0.001118 -0.002823 0.071694
#
#
# Mechanical properties :
#
#
# Convention : Reuss Voigt Hill
#
# Bulk Modulus (GPa) = 39.40031 63.80350 51.60191
# Shear Modulus (GPa) = 21.06844 34.25556 27.66200
#
# Velocity S-wave (km/s) = 3.00725 3.83459 3.44584
# Velocity P-wave (km/s) = 5.38243 6.85514 6.16294
#
# Compressibility (1/GPa) = 0.02538051
#
# Stress axis : x y z
#
# Youngs Moduli (GPa) = 66.15826 32.56670 54.50690
#
# Poissons Ratio (x) = -0.06031 0.43163
# Poissons Ratio (y) = -0.12251 0.72639
# Poissons Ratio (z) = 0.52389 0.43401
#
# Static dielectric constant tensor:
#      x y z
#    x 1.899060 0.035210 0.029120 
#    y 0.035210 1.949530 -0.047600 
#    z 0.029120 -0.047600 1.899460 
# 
# From -- ./inp_files/55571.got.cif
#   From: 2010.05.17/outbox.cif.g08.bks.cpg/sg2_28_cif.got.tgz:55571.got - 2010.06.03 11:33:40.
