data_PCOD9011323
_publ_section_title
;
Structure prediction by ZEFSAII (Michael W. Deem and Ramdas Pophale) SiO2 
 PCOD9011323
Probable space group: P -1
;
_chemical_formula_sum "Si O2"
_cell_formula_units_Z 14
_cell_length_a 8.801187
_cell_length_b 9.418337
_cell_length_c 12.048656
_cell_angle_alpha 48.237757
_cell_angle_beta 118.137968
_cell_angle_gamma 128.148943
_cell_volume 582.765392
_symmetry_space_group_name_H-M "P -1"
_symmetry_group_IT_number 2
_symmetry_cell_setting 'triclinic'
loop_
_space_group_symop_operation_xyz
x,y,z
-x,-y,-z
loop_
_atom_site_type_symbol
_atom_site_label
_atom_site_fract_x
_atom_site_fract_y
_atom_site_fract_z
Si Si1 0.046235 0.349760 0.009595
Si Si2 0.405692 0.749269 0.836028
Si Si3 0.329986 0.860296 0.163241
Si Si4 0.114801 0.870764 0.571174
Si Si5 0.302467 0.194163 0.290478
Si Si6 0.152174 0.509953 0.459091
Si Si7 0.478819 0.425744 0.660825
O O1 0.248115 0.509655 0.935107
O O2 0.863762 0.225088 0.931733
O O3 0.108513 0.190087 0.176559
O O4 0.000000 0.500000 0.000000
O O5 0.270787 0.867440 0.711243
O O6 0.531090 0.760725 0.765433
O O7 0.558046 0.885579 0.912276
O O8 0.276510 0.746309 0.326679
O O9 0.469780 0.768080 0.209656
O O10 0.955445 0.632276 0.611159
O O11 0.236938 0.975378 0.448140
O O12 0.000000 0.000000 0.500000
O O13 0.382736 0.382800 0.311541
O O14 0.265544 0.398661 0.618673
O O15 0.000000 0.500000 0.500000
O O16 0.500000 0.500000 0.500000
#
# Coordination Sequence:
#
# PCOD9011323 Si02
#       7
#     2   2   2   2   2   2   2
#     4  12  26  49  72  98 145 185 233 286 350 427
#     4  12  26  46  73 104 139 183 234 290 354 409
#     4  11  23  46  69  99 139 182 233 281 344 424
#     4  12  22  41  71 102 136 182 231 281 342 409
#     4  12  25  45  68 105 145 181 230 296 348 409
#     4  11  21  38  67 104 136 174 228 288 340 401
#     4  10  21  40  65  97 137 177 227 283 335 405
#
# _framework density 24.023389000000002
#
# number of rings (size 3 to 8) (size 9 to 14) (size 15 to 20)
#    0.000    0.571    2.857    7.714    0.000    1.143 
#    2.571    0.000    0.000    0.000    0.000    0.000 
#    0.000    0.000    0.000    0.000    0.000    0.000 
#
# Total GULP energy -78383.676392 kJ/mol
# GULP energy per Si atom -5598.834028 kJ/mol
# Density = 2.396871 g / cm^3
# Si number density = 24.023389 Si / 1000 Ang^3
#
#
#
# Elastic Constant Matrix: (Units=GPa)
#
#
# Indices 1 2 3 4 5 6 
#
# 1 116.3176 11.8165 11.1232 10.9956 9.5598 -5.6474
# 2 11.8165 114.3999 24.8694 29.4223 18.2552 13.3622
# 3 11.1232 24.8694 59.0375 19.7807 7.9198 10.3652
# 4 10.9956 29.4223 19.7807 28.2226 8.9878 4.3994
# 5 9.5598 18.2552 7.9198 8.9878 31.7442 4.5345
# 6 -5.6474 13.3622 10.3652 4.3994 4.5345 34.0136
#
#
#
# Elastic Compliance Matrix: (Units=1/GPa)
#
#
# Indices 1 2 3 4 5 6 
#
# 1 0.009235 -0.000019 -0.001018 -0.002568 -0.002142 0.002469
# 2 -0.000019 0.012651 -0.000598 -0.011186 -0.003543 -0.002872
# 3 -0.001018 -0.000598 0.023102 -0.014269 -0.000347 -0.005082
# 4 -0.002568 -0.011186 -0.014269 0.059912 -0.006400 0.001420
# 5 -0.002142 -0.003543 -0.000347 -0.006400 0.036497 -0.002896
# 6 0.002469 -0.002872 -0.005082 0.001420 -0.002896 0.032689
#
#
# Mechanical properties :
#
#
# Convention : Reuss Voigt Hill
#
# Bulk Modulus (GPa) = 23.97032 42.81925 33.39479
# Shear Modulus (GPa) = 26.14227 34.92581 30.53404
#
# Velocity S-wave (km/s) = 3.30237 3.81704 3.56899
# Velocity P-wave (km/s) = 4.95383 6.10648 5.56010
#
# Compressibility (1/GPa) = 0.04171825
#
# Stress axis : x y z
#
# Youngs Moduli (GPa) = 108.28358 79.04512 43.28672
#
# Poissons Ratio (x) = 0.00148 0.04406
# Poissons Ratio (y) = 0.00203 0.02590
# Poissons Ratio (z) = 0.11021 0.04729
#
# Static dielectric constant tensor:
#      x y z
#    x 1.968680 0.042140 -0.008890 
#    y 0.042140 2.220870 -0.033350 
#    z -0.008890 -0.033350 1.959790 
# 
# From -- ./inp_files/381149.got.cif
#   From: 2010.05.17/outbox.cif.g08.bks.cpg/sg2_191_cif.got.tgz:381149.got - 2010.06.03 11:33:40.
