data_PCOD9011039
_publ_section_title
;
Structure prediction by ZEFSAII (Michael W. Deem and Ramdas Pophale) SiO2 
 PCOD9011039
Probable space group: P -1
;
_chemical_formula_sum "Si O2"
_cell_formula_units_Z 16
_cell_length_a 14.724229
_cell_length_b 8.078715
_cell_length_c 8.124378
_cell_angle_alpha 51.554158
_cell_angle_beta 105.577071
_cell_angle_gamma 111.728063
_cell_volume 702.140930
_symmetry_space_group_name_H-M "P -1"
_symmetry_group_IT_number 2
_symmetry_cell_setting 'triclinic'
loop_
_space_group_symop_operation_xyz
x,y,z
-x,-y,-z
loop_
_atom_site_type_symbol
_atom_site_label
_atom_site_fract_x
_atom_site_fract_y
_atom_site_fract_z
Si Si1 0.755309 0.376822 0.915466
Si Si2 0.372560 0.913335 0.678013
Si Si3 0.531935 0.828548 0.999486
Si Si4 0.878452 0.198031 0.836574
Si Si5 0.798622 0.380191 0.392412
Si Si6 0.608314 0.603142 0.694505
Si Si7 0.067176 0.431114 0.938162
Si Si8 0.722081 0.775074 0.982760
O O1 0.816656 0.238255 0.938102
O O2 0.679773 0.477199 0.717387
O O3 0.691029 0.219573 0.119574
O O4 0.837809 0.583690 0.904313
O O5 0.473629 0.846472 0.789542
O O6 0.299380 0.821578 0.547878
O O7 0.396065 0.174862 0.531997
O O8 0.490897 0.583719 0.203561
O O9 0.645264 0.868428 0.992335
O O10 0.500000 0.000000 0.000000
O O11 0.858809 0.374140 0.589206
O O12 0.991015 0.243417 0.915027
O O13 0.821094 0.964497 0.881375
O O14 0.877815 0.387424 0.280627
O O15 0.757390 0.589756 0.213442
O O16 0.660361 0.671045 0.855796
O O17 0.000000 0.500000 0.000000
#
# Coordination Sequence:
#
# PCOD9011039 Si02
#       8
#     2   2   2   2   2   2   2   2
#     4   9  20  41  61  92 131 163 204 257 307 363
#     4  10  21  40  65  87 124 166 204 253 308 368
#     4  11  25  42  61  92 129 161 207 258 306 369
#     4  11  23  38  64  94 126 164 209 256 308 364
#     4  11  22  40  63  96 126 161 208 255 309 367
#     4  11  21  40  67  89 122 168 209 251 311 368
#     4   9  19  40  65  89 128 168 198 254 314 363
#     4  12  23  39  64  93 126 164 207 259 308 362
#
# _framework density 22.787447
#
# number of rings (size 3 to 8) (size 9 to 14) (size 15 to 20)
#    0.000    1.500    5.000    2.250    0.000    4.500 
#    0.000    0.000    0.000   12.750    0.000    0.000 
#    0.000    0.000    0.000    0.000    0.000    0.000 
#
# Total GULP energy -89242.362578 kJ/mol
# GULP energy per Si atom -5577.647661 kJ/mol
# Density = 2.273558 g / cm^3
# Si number density = 22.787447 Si / 1000 Ang^3
#
#
#
# Elastic Constant Matrix: (Units=GPa)
#
#
# Indices 1 2 3 4 5 6 
#
# 1 108.5852 21.4709 31.4281 -0.9909 12.0777 23.7731
# 2 21.4709 90.6884 13.1148 -7.5187 0.4150 26.0165
# 3 31.4281 13.1148 75.7273 -22.8461 11.9207 7.6742
# 4 -0.9909 -7.5187 -22.8461 38.0975 0.0781 -0.1458
# 5 12.0777 0.4150 11.9207 0.0781 14.1363 -0.4061
# 6 23.7731 26.0165 7.6742 -0.1458 -0.4061 41.6872
#
#
#
# Elastic Compliance Matrix: (Units=1/GPa)
#
#
# Indices 1 2 3 4 5 6 
#
# 1 0.012679 -0.000839 -0.003976 -0.002228 -0.007617 -0.006057
# 2 -0.000839 0.013800 -0.000635 0.002289 0.000605 -0.008003
# 3 -0.003976 -0.000635 0.021152 0.012480 -0.014528 -0.001328
# 4 -0.002228 0.002289 0.012480 0.034135 -0.008946 -0.002423
# 5 -0.007617 0.000605 -0.014528 -0.008946 0.089745 0.007484
# 6 -0.006057 -0.008003 -0.001328 -0.002423 0.007484 0.032746
#
#
# Mechanical properties :
#
#
# Convention : Reuss Voigt Hill
#
# Bulk Modulus (GPa) = 27.22537 45.22539 36.22538
# Shear Modulus (GPa) = 21.98745 32.71667 27.35206
#
# Velocity S-wave (km/s) = 3.10964 3.79322 3.46831
# Velocity P-wave (km/s) = 4.98665 6.25095 5.65425
#
# Compressibility (1/GPa) = 0.03673045
#
# Stress axis : x y z
#
# Youngs Moduli (GPa) = 78.87070 72.46249 47.27649
#
# Poissons Ratio (x) = 0.06080 0.18797
# Poissons Ratio (y) = 0.06618 0.03004
# Poissons Ratio (z) = 0.31358 0.04605
#
# Static dielectric constant tensor:
#      x y z
#    x 1.844650 -0.028860 -0.004970 
#    y -0.028860 1.973590 0.057450 
#    z -0.004970 0.057450 1.849640 
# 
# From -- ./inp_files/297549.got.cif
#   From: 2010.05.17/outbox.cif.g08.bks.cpg/sg2_149_cif.got.tgz:297549.got - 2010.06.03 11:33:40.
