data_PCOD9011771
_publ_section_title
;
Structure prediction by ZEFSAII (Michael W. Deem and Ramdas Pophale) SiO2 
 PCOD9011771
Probable space group: P -1
;
_chemical_formula_sum "Si O2"
_cell_formula_units_Z 13
_cell_length_a 12.112084
_cell_length_b 14.960059
_cell_length_c 7.489538
_cell_angle_alpha 31.875292
_cell_angle_beta 53.709490
_cell_angle_gamma 43.138087
_cell_volume 488.555187
_symmetry_space_group_name_H-M "P -1"
_symmetry_group_IT_number 2
_symmetry_cell_setting 'triclinic'
loop_
_space_group_symop_operation_xyz
x,y,z
-x,-y,-z
loop_
_atom_site_type_symbol
_atom_site_label
_atom_site_fract_x
_atom_site_fract_y
_atom_site_fract_z
Si Si1 0.394157 0.367984 0.772017
Si Si2 0.685720 0.988496 0.352125
Si Si3 0.062703 0.753250 0.990829
Si Si4 0.000000 0.000000 0.000000
Si Si5 0.364323 0.601130 0.736485
Si Si6 0.815984 0.673248 0.203302
Si Si7 0.418601 0.197629 0.499398
O O1 0.325318 0.559847 0.642222
O O2 0.483567 0.380775 0.487138
O O3 0.238683 0.363577 0.870825
O O4 0.546191 0.182564 0.043785
O O5 0.597040 0.026875 0.561030
O O6 0.698976 0.808088 0.530844
O O7 0.844114 0.989921 0.216721
O O8 0.000003 0.909642 0.946799
O O9 0.122782 0.538706 0.394371
O O10 0.935836 0.751445 0.976788
O O11 0.204461 0.753412 0.741375
O O12 0.420492 0.396998 0.134328
O O13 0.656016 0.823204 0.215268
#
# Coordination Sequence:
#
# PCOD9011771 Si02
#       7
#     2   2   2   1   2   2   2
#     4  10  22  39  65  97 127 157 211 271 311 355
#     4  10  22  40  63  91 129 164 208 258 316 369
#     4  10  23  40  63  94 126 170 211 251 315 383
#     4  12  24  40  64  92 130 170 204 264 308 390
#     4   9  21  40  63  97 122 164 216 255 311 372
#     4  10  21  40  67  92 125 163 217 261 307 371
#     4   9  19  40  63  92 118 170 218 242 307 385
#
# _framework density 26.609072999999999
#
# number of rings (size 3 to 8) (size 9 to 14) (size 15 to 20)
#    0.000    2.154    1.538    0.000    8.615    2.462 
#    0.000    5.385    0.000    0.000    0.000    0.000 
#    0.000    0.000    0.000    0.000    0.000    0.000 
#
# Total GULP energy -72393.908879 kJ/mol
# GULP energy per Si atom -5568.762221 kJ/mol
# Density = 2.654851 g / cm^3
# Si number density = 26.609073 Si / 1000 Ang^3
#
#
#
# Elastic Constant Matrix: (Units=GPa)
#
#
# Indices 1 2 3 4 5 6 
#
# 1 133.8590 28.2451 27.4393 4.1940 -38.1506 24.7819
# 2 28.2451 87.4136 2.3844 25.3463 -0.9673 25.7537
# 3 27.4393 2.3844 59.3192 -0.5229 -0.1733 -4.4378
# 4 4.1940 25.3463 -0.5229 35.4099 -0.5741 0.2141
# 5 -38.1506 -0.9673 -0.1733 -0.5741 49.7151 8.6790
# 6 24.7819 25.7537 -4.4378 0.2141 8.6790 35.8124
#
#
#
# Elastic Compliance Matrix: (Units=1/GPa)
#
#
# Indices 1 2 3 4 5 6 
#
# 1 0.017075 0.000676 -0.009195 -0.002277 0.016083 -0.017325
# 2 0.000676 0.020276 -0.002451 -0.014475 0.003553 -0.016127
# 3 -0.009195 -0.002451 0.022189 0.002942 -0.009280 0.013107
# 4 -0.002277 -0.014475 0.002942 0.038774 -0.003849 0.013050
# 5 0.016083 0.003553 -0.009280 -0.003849 0.036582 -0.023677
# 6 -0.017325 -0.016127 0.013107 0.013050 -0.023677 0.058794
#
#
# Mechanical properties :
#
#
# Convention : Reuss Voigt Hill
#
# Bulk Modulus (GPa) = 26.59591 44.08103 35.33847
# Shear Modulus (GPa) = 21.91409 39.02235 30.46822
#
# Velocity S-wave (km/s) = 2.87288 3.83365 3.38750
# Velocity P-wave (km/s) = 4.58490 6.01648 5.34880
#
# Compressibility (1/GPa) = 0.03759977
#
# Stress axis : x y z
#
# Youngs Moduli (GPa) = 58.56431 49.31916 45.06709
#
# Poissons Ratio (x) = -0.03334 0.41439
# Poissons Ratio (y) = -0.03959 0.11048
# Poissons Ratio (z) = 0.53849 0.12090
#
# Static dielectric constant tensor:
#      x y z
#    x 2.170550 0.015970 0.086000 
#    y 0.015970 2.156750 -0.091860 
#    z 0.086000 -0.091860 2.232570 
# 
# From -- ./inp_files/263890.got.cif
#   From: 2010.05.17/outbox.cif.g08.bks.cpg/sg2_132_cif.got.tgz:263890.got - 2010.06.03 11:33:40.
