data_PCOD9011942
_publ_section_title
;
Structure prediction by ZEFSAII (Michael W. Deem and Ramdas Pophale) SiO2 
 PCOD9011942
Probable space group: P -1
;
_chemical_formula_sum "Si O2"
_cell_formula_units_Z 14
_cell_length_a 7.918862
_cell_length_b 14.262116
_cell_length_c 8.576866
_cell_angle_alpha 139.664839
_cell_angle_beta 118.683602
_cell_angle_gamma 72.310210
_cell_volume 546.748617
_symmetry_space_group_name_H-M "P -1"
_symmetry_group_IT_number 2
_symmetry_cell_setting 'triclinic'
loop_
_space_group_symop_operation_xyz
x,y,z
-x,-y,-z
loop_
_atom_site_type_symbol
_atom_site_label
_atom_site_fract_x
_atom_site_fract_y
_atom_site_fract_z
Si Si1 0.997766 0.217787 0.343327
Si Si2 0.228213 0.534853 0.865952
Si Si3 0.065297 0.935501 0.188872
Si Si4 0.441257 0.838278 0.834150
Si Si5 0.522107 0.440673 0.676168
Si Si6 0.104759 0.393967 0.027490
Si Si7 0.750475 0.900458 0.272959
O O1 0.787458 0.210118 0.322517
O O2 0.132495 0.366929 0.618088
O O3 0.093992 0.079982 0.276760
O O4 0.957071 0.189490 0.106986
O O5 0.351425 0.536761 0.765577
O O6 0.045561 0.624375 0.921131
O O7 0.369410 0.573959 0.126493
O O8 0.231624 0.964486 0.430316
O O9 0.874938 0.936850 0.216147
O O10 0.534740 0.717933 0.620158
O O11 0.535406 0.846379 0.057162
O O12 0.500000 0.000000 0.000000
O O13 0.684496 0.523740 0.742298
O O14 0.147038 0.236142 0.787438
O O15 0.000000 0.500000 0.000000
#
# Coordination Sequence:
#
# PCOD9011942 Si02
#       7
#     2   2   2   2   2   2   2
#     4  11  22  44  72  99 139 189 226 284 352 412
#     4  10  21  40  68 100 131 180 234 275 340 408
#     4  10  23  41  69 100 135 185 232 284 342 416
#     4  12  25  43  68 103 142 182 230 287 350 412
#     4  10  22  40  68 100 135 177 231 284 331 413
#     4  10  21  42  69  95 130 182 226 279 343 398
#     4  11  24  43  68 102 139 177 237 285 341 415
#
# _framework density 25.605919
#
# number of rings (size 3 to 8) (size 9 to 14) (size 15 to 20)
#    0.000    1.429    2.857    2.571    4.000    1.143 
#    2.571    1.429    0.000    0.000    0.000    0.000 
#    0.000    0.000    0.000    0.000    0.000    0.000 
#
# Total GULP energy -78269.175394 kJ/mol
# GULP energy per Si atom -5590.655385 kJ/mol
# Density = 2.554764 g / cm^3
# Si number density = 25.605919 Si / 1000 Ang^3
#
#
#
# Elastic Constant Matrix: (Units=GPa)
#
#
# Indices 1 2 3 4 5 6 
#
# 1 83.9184 -0.7460 2.2423 -16.8241 -0.5440 4.7828
# 2 -0.7460 84.0132 15.9965 4.7831 -0.6553 7.4676
# 3 2.2423 15.9965 157.3369 -9.8343 -13.3696 6.5849
# 4 -16.8241 4.7831 -9.8343 22.1278 5.5605 1.7360
# 5 -0.5440 -0.6553 -13.3696 5.5605 47.1091 -4.3932
# 6 4.7828 7.4676 6.5849 1.7360 -4.3932 21.1951
#
#
#
# Elastic Compliance Matrix: (Units=1/GPa)
#
#
# Indices 1 2 3 4 5 6 
#
# 1 0.014603 -0.000282 0.000651 0.012208 -0.001531 -0.004715
# 2 -0.000282 0.012671 -0.001343 -0.003210 -0.000180 -0.003758
# 3 0.000651 -0.001343 0.006903 0.003660 0.001344 -0.001839
# 4 0.012208 -0.003210 0.003660 0.059181 -0.006689 -0.008994
# 5 -0.001531 -0.000180 0.001344 -0.006689 0.022871 0.005280
# 6 -0.004715 -0.003758 -0.001839 -0.008994 0.005280 0.051971
#
#
# Mechanical properties :
#
#
# Convention : Reuss Voigt Hill
#
# Bulk Modulus (GPa) = 31.02822 40.02824 35.52823
# Shear Modulus (GPa) = 27.64095 38.60477 33.12286
#
# Velocity S-wave (km/s) = 3.28910 3.88706 3.60052
# Velocity P-wave (km/s) = 5.15443 5.98431 5.58481
#
# Compressibility (1/GPa) = 0.03222873
#
# Stress axis : x y z
#
# Youngs Moduli (GPa) = 68.48069 78.91733 144.86422
#
# Poissons Ratio (x) = 0.02226 -0.09428
# Poissons Ratio (y) = 0.01932 0.19455
# Poissons Ratio (z) = -0.04457 0.10598
#
# Static dielectric constant tensor:
#      x y z
#    x 2.066650 0.018380 0.007410 
#    y 0.018380 2.092070 -0.043670 
#    z 0.007410 -0.043670 2.014330 
# 
# From -- ./inp_files/209579.got.cif
#   From: 2010.05.17/outbox.cif.g08.bks.cpg/sg2_105_cif.got.tgz:209579.got - 2010.06.03 11:33:40.
