data_PCOD9011057
_publ_section_title
;
Structure prediction by ZEFSAII (Michael W. Deem and Ramdas Pophale) SiO2 
 PCOD9011057
Probable space group: P -1
;
_chemical_formula_sum "Si O2"
_cell_formula_units_Z 12
_cell_length_a 8.996161
_cell_length_b 10.884827
_cell_length_c 11.803784
_cell_angle_alpha 72.102448
_cell_angle_beta 64.147381
_cell_angle_gamma 125.641566
_cell_volume 541.746320
_symmetry_space_group_name_H-M "P -1"
_symmetry_group_IT_number 2
_symmetry_cell_setting 'triclinic'
loop_
_space_group_symop_operation_xyz
x,y,z
-x,-y,-z
loop_
_atom_site_type_symbol
_atom_site_label
_atom_site_fract_x
_atom_site_fract_y
_atom_site_fract_z
Si Si1 0.913151 0.885480 0.683018
Si Si2 0.061313 0.265078 0.969162
Si Si3 0.533474 0.388783 0.903605
Si Si4 0.539403 0.242974 0.396752
Si Si5 0.509195 0.118179 0.871131
Si Si6 0.542162 0.051868 0.638697
O O1 0.791666 0.659873 0.771991
O O2 0.643569 0.771205 0.878368
O O3 0.000000 0.000000 0.500000
O O4 0.227360 0.100686 0.584551
O O5 0.291625 0.313276 0.931404
O O6 0.244052 0.505924 0.791839
O O7 0.820017 0.158246 0.171701
O O8 0.833022 0.068847 0.002289
O O9 0.643636 0.336753 0.814276
O O10 0.439173 0.080033 0.376137
O O11 0.667497 0.234716 0.453960
O O12 0.656182 0.157457 0.696590
O O13 0.500000 0.000000 0.000000
#
# Coordination Sequence:
#
# PCOD9011057 Si02
#       6
#     2   2   2   2   2   2
#     4  11  23  37  66  92 120 163 206 261 303 358
#     4  10  21  40  65  89 123 165 202 256 309 359
#     4  11  23  43  62  90 132 159 209 255 310 370
#     4  11  20  41  63  97 118 160 213 251 308 365
#     4  10  24  42  62  90 127 173 199 249 319 366
#     4   9  23  38  63  90 128 160 202 256 308 365
#
# _framework density 22.150589
#
# number of rings (size 3 to 8) (size 9 to 14) (size 15 to 20)
#    1.000    0.667    3.333    1.000    2.333    2.667 
#    3.000    3.333    0.000    0.000    0.000    0.000 
#    0.000    0.000    0.000    0.000    0.000    0.000 
#
# Total GULP energy -66971.335676 kJ/mol
# GULP energy per Si atom -5580.944640 kJ/mol
# Density = 2.210017 g / cm^3
# Si number density = 22.150589 Si / 1000 Ang^3
#
#
#
# Elastic Constant Matrix: (Units=GPa)
#
#
# Indices 1 2 3 4 5 6 
#
# 1 58.7899 7.2724 24.6670 -5.1162 9.9852 10.3176
# 2 7.2724 76.6389 25.7863 21.6944 5.3759 -6.0452
# 3 24.6670 25.7863 123.9155 0.2730 22.0543 -3.4391
# 4 -5.1162 21.6944 0.2730 29.1316 11.2232 -0.9775
# 5 9.9852 5.3759 22.0543 11.2232 38.1139 -2.4593
# 6 10.3176 -6.0452 -3.4391 -0.9775 -2.4593 29.8972
#
#
#
# Elastic Compliance Matrix: (Units=1/GPa)
#
#
# Indices 1 2 3 4 5 6 
#
# 1 0.022223 -0.004134 -0.002569 0.009444 -0.007119 -0.009078
# 2 -0.004134 0.019825 -0.004244 -0.017702 0.006270 0.004884
# 3 -0.002569 -0.004244 0.010599 0.005065 -0.006295 0.000895
# 4 0.009444 -0.017702 0.005065 0.056610 -0.019968 -0.006047
# 5 -0.007119 0.006270 -0.006295 -0.019968 0.037088 0.005398
# 6 -0.009078 0.004884 0.000895 -0.006047 0.005398 0.037918
#
#
# Mechanical properties :
#
#
# Convention : Reuss Voigt Hill
#
# Bulk Modulus (GPa) = 32.51848 41.64397 37.08123
# Shear Modulus (GPa) = 23.10446 32.86979 27.98713
#
# Velocity S-wave (km/s) = 3.23315 3.85635 3.55842
# Velocity P-wave (km/s) = 5.35259 6.21851 5.80172
#
# Compressibility (1/GPa) = 0.03075174
#
# Stress axis : x y z
#
# Youngs Moduli (GPa) = 44.99788 50.44225 94.35198
#
# Poissons Ratio (x) = 0.20855 0.24241
# Poissons Ratio (y) = 0.18604 0.40041
# Poissons Ratio (z) = 0.11561 0.21407
#
# Static dielectric constant tensor:
#      x y z
#    x 1.882170 0.044010 -0.020350 
#    y 0.044010 1.799980 0.032150 
#    z -0.020350 0.032150 1.798930 
# 
# From -- ./inp_files/389337.got.cif
#   From: 2010.05.17/outbox.cif.g08.bks.cpg/sg2_195_cif.got.tgz:389337.got - 2010.06.03 11:33:40.
