data_PCOD9011442
_publ_section_title
;
Structure prediction by ZEFSAII (Michael W. Deem and Ramdas Pophale) SiO2 
 PCOD9011442
Probable space group: P -1
;
_chemical_formula_sum "Si O2"
_cell_formula_units_Z 14
_cell_length_a 6.911656
_cell_length_b 21.487838
_cell_length_c 4.971437
_cell_angle_alpha 118.783306
_cell_angle_beta 72.877382
_cell_angle_gamma 93.291652
_cell_volume 615.290865
_symmetry_space_group_name_H-M "P -1"
_symmetry_group_IT_number 2
_symmetry_cell_setting 'triclinic'
loop_
_space_group_symop_operation_xyz
x,y,z
-x,-y,-z
loop_
_atom_site_type_symbol
_atom_site_label
_atom_site_fract_x
_atom_site_fract_y
_atom_site_fract_z
Si Si1 0.390490 0.782271 0.333197
Si Si2 0.647609 0.506328 0.701369
Si Si3 0.033256 0.699037 0.474187
Si Si4 0.833496 0.931910 0.131738
Si Si5 0.889088 0.085417 0.523978
Si Si6 0.359097 0.199298 0.203606
Si Si7 0.977976 0.611143 0.811785
O O1 0.246112 0.847493 0.399346
O O2 0.522104 0.806487 0.578112
O O3 0.252754 0.724339 0.384329
O O4 0.530120 0.755758 0.969077
O O5 0.500000 0.500000 0.500000
O O6 0.834524 0.444322 0.476490
O O7 0.765075 0.577465 0.799705
O O8 0.500000 0.500000 0.000000
O O9 0.865553 0.762198 0.584254
O O10 0.992542 0.679102 0.755870
O O11 0.005345 0.632390 0.153800
O O12 0.015553 0.902371 0.198340
O O13 0.777565 0.012973 0.418049
O O14 0.664221 0.877542 0.079066
O O15 0.922632 0.932068 0.794475
#
# Coordination Sequence:
#
# PCOD9011442 Si02
#       7
#     2   2   2   2   2   2   2
#     4  12  26  41  66  96 129 178 227 274 338 397
#     4  11  24  45  74 104 136 169 218 273 313 381
#     4  12  26  45  65  96 144 174 220 272 318 398
#     4  10  21  40  66  91 125 171 221 283 345 394
#     4  10  21  40  66  91 125 171 221 283 345 394
#     4  12  26  41  66  96 129 178 227 274 338 397
#     4  11  26  44  70 102 133 180 216 260 333 380
#
# _framework density 22.753464000000001
#
# number of rings (size 3 to 8) (size 9 to 14) (size 15 to 20)
#    0.000    0.857    1.429    5.143    2.000   10.286 
#    0.000    0.000    0.000    0.000    0.000    0.000 
#    0.000    0.000    0.000    0.000    0.000    0.000 
#
# Total GULP energy -78373.865858 kJ/mol
# GULP energy per Si atom -5598.133276 kJ/mol
# Density = 2.270168 g / cm^3
# Si number density = 22.753464 Si / 1000 Ang^3
#
#
#
# Elastic Constant Matrix: (Units=GPa)
#
#
# Indices 1 2 3 4 5 6 
#
# 1 85.5436 26.9933 23.0627 -11.6444 11.9526 9.9591
# 2 26.9933 68.1423 2.4567 -18.6833 2.8972 7.1392
# 3 23.0627 2.4567 74.9958 -26.5290 6.9274 5.7950
# 4 -11.6444 -18.6833 -26.5290 37.4837 -1.1978 0.7987
# 5 11.9526 2.8972 6.9274 -1.1978 38.6375 -9.3925
# 6 9.9591 7.1392 5.7950 0.7987 -9.3925 34.4151
#
#
#
# Elastic Compliance Matrix: (Units=1/GPa)
#
#
# Indices 1 2 3 4 5 6 
#
# 1 0.015587 -0.005726 -0.004276 -0.001104 -0.004591 -0.003830
# 2 -0.005726 0.020818 0.006167 0.013007 -0.001569 -0.004430
# 3 -0.004276 0.006167 0.021046 0.016631 -0.003602 -0.004955
# 4 -0.001104 0.013007 0.016631 0.044617 -0.004009 -0.007309
# 5 -0.004591 -0.001569 -0.003602 -0.004009 0.030539 0.010688
# 6 -0.003830 -0.004430 -0.004955 -0.007309 0.010688 0.035005
#
#
# Mechanical properties :
#
#
# Convention : Reuss Voigt Hill
#
# Bulk Modulus (GPa) = 20.08816 37.07858 28.58337
# Shear Modulus (GPa) = 26.05846 33.85186 29.95516
#
# Velocity S-wave (km/s) = 3.38783 3.86134 3.63231
# Velocity P-wave (km/s) = 4.91436 6.01757 5.49373
#
# Compressibility (1/GPa) = 0.04978056
#
# Stress axis : x y z
#
# Youngs Moduli (GPa) = 64.15642 48.03461 47.51567
#
# Poissons Ratio (x) = 0.27507 0.20318
# Poissons Ratio (y) = 0.36739 -0.29305
# Poissons Ratio (z) = 0.27434 -0.29625
#
# Static dielectric constant tensor:
#      x y z
#    x 1.817400 0.013950 -0.036410 
#    y 0.013950 1.871220 0.048720 
#    z -0.036410 0.048720 1.807150 
# 
# From -- ./inp_files/11602.got.cif
#   From: 2010.05.17/outbox.cif.g08.bks.cpg/sg2_6_cif.got.tgz:11602.got - 2010.06.03 11:33:40.
