data_PCOD9011612
_publ_section_title
;
Structure prediction by ZEFSAII (Michael W. Deem and Ramdas Pophale) SiO2 
 PCOD9011612
Probable space group: P -1
;
_chemical_formula_sum "Si O2"
_cell_formula_units_Z 14
_cell_length_a 8.573502
_cell_length_b 11.013169
_cell_length_c 10.923328
_cell_angle_alpha 81.048334
_cell_angle_beta 128.220475
_cell_angle_gamma 130.975564
_cell_volume 554.728994
_symmetry_space_group_name_H-M "P -1"
_symmetry_group_IT_number 2
_symmetry_cell_setting 'triclinic'
loop_
_space_group_symop_operation_xyz
x,y,z
-x,-y,-z
loop_
_atom_site_type_symbol
_atom_site_label
_atom_site_fract_x
_atom_site_fract_y
_atom_site_fract_z
Si Si1 0.839997 0.676859 0.127973
Si Si2 0.564599 0.135721 0.175422
Si Si3 0.706907 0.762404 0.822971
Si Si4 0.293011 0.670271 0.306341
Si Si5 0.524041 0.177635 0.871152
Si Si6 0.918784 0.995591 0.655765
Si Si7 0.138690 0.451203 0.492615
O O1 0.035581 0.645102 0.222266
O O2 0.965747 0.821855 0.270212
O O3 0.500000 0.500000 0.000000
O O4 0.879570 0.767908 0.007037
O O5 0.412087 0.166344 0.182922
O O6 0.872526 0.245671 0.369630
O O7 0.422410 0.940818 0.116817
O O8 0.591646 0.214271 0.043037
O O9 0.433641 0.555689 0.687652
O O10 0.873247 0.882311 0.766394
O O11 0.307650 0.662972 0.168592
O O12 0.243944 0.535677 0.394446
O O13 0.605174 0.864082 0.464768
O O14 0.189621 0.059698 0.708524
O O15 0.000000 0.500000 0.500000
#
# Coordination Sequence:
#
# PCOD9011612 Si02
#       7
#     2   2   2   2   2   2   2
#     4  12  24  40  67 100 127 163 221 276 317 372
#     4  10  21  40  66  97 128 171 218 265 320 383
#     4  10  21  41  69  92 123 171 221 266 317 376
#     4  11  25  42  65  98 131 172 212 265 333 376
#     4  11  24  39  66  95 135 175 212 259 326 394
#     4  11  24  44  65  93 132 174 219 263 316 391
#     4   9  20  42  66  91 125 164 215 271 316 371
#
# _framework density 25.237549999999999
#
# number of rings (size 3 to 8) (size 9 to 14) (size 15 to 20)
#    0.000    1.429    1.429    3.857    4.000    4.000 
#    0.000    2.857    0.000    0.000    0.000    0.000 
#    0.000    0.000    0.000    0.000    0.000    0.000 
#
# Total GULP energy -78359.750424 kJ/mol
# GULP energy per Si atom -5597.125030 kJ/mol
# Density = 2.518011 g / cm^3
# Si number density = 25.237550 Si / 1000 Ang^3
#
#
#
# Elastic Constant Matrix: (Units=GPa)
#
#
# Indices 1 2 3 4 5 6 
#
# 1 89.2888 24.0291 22.2748 -1.7474 12.2865 26.0116
# 2 24.0291 51.6559 25.7138 9.6375 -7.5088 24.3955
# 3 22.2748 25.7138 111.1727 16.8522 18.5649 15.4115
# 4 -1.7474 9.6375 16.8522 49.1333 13.3902 -3.3932
# 5 12.2865 -7.5088 18.5649 13.3902 29.4101 -12.5843
# 6 26.0116 24.3955 15.4115 -3.3932 -12.5843 32.6178
#
#
#
# Elastic Compliance Matrix: (Units=1/GPa)
#
#
# Indices 1 2 3 4 5 6 
#
# 1 0.023389 -0.005616 0.003979 0.006353 -0.027924 -0.026444
# 2 -0.005616 0.035975 -0.005637 -0.009911 0.012820 -0.015850
# 3 0.003979 -0.005637 0.014054 0.000312 -0.017362 -0.012263
# 4 0.006353 -0.009911 0.000312 0.027385 -0.018791 -0.002201
# 5 -0.027924 0.012820 -0.017362 -0.018791 0.091692 0.054304
# 6 -0.026444 -0.015850 -0.012263 -0.002201 0.054304 0.090117
#
#
# Mechanical properties :
#
#
# Convention : Reuss Voigt Hill
#
# Bulk Modulus (GPa) = 16.98685 44.01696 30.50191
# Shear Modulus (GPa) = 15.78364 34.23889 25.01127
#
# Velocity S-wave (km/s) = 2.50352 3.68729 3.15148
# Velocity P-wave (km/s) = 3.88616 5.96716 5.03534
#
# Compressibility (1/GPa) = 0.05886906
#
# Stress axis : x y z
#
# Youngs Moduli (GPa) = 42.75550 27.79671 71.15579
#
# Poissons Ratio (x) = 0.15611 -0.28310
# Poissons Ratio (y) = 0.24012 0.40110
# Poissons Ratio (z) = -0.17011 0.15669
#
# Static dielectric constant tensor:
#      x y z
#    x 1.937620 0.013440 -0.013610 
#    y 0.013440 2.027620 0.013080 
#    z -0.013610 0.013080 2.005750 
# 
# From -- ./inp_files/183071.got.cif
#   From: 2010.05.17/outbox.cif.g08.bks.cpg/sg2_92_cif.got.tgz:183071.got - 2010.06.03 11:33:40.
