data_PCOD9011791
_publ_section_title
;
Structure prediction by ZEFSAII (Michael W. Deem and Ramdas Pophale) SiO2 
 PCOD9011791
Probable space group: P -1
;
_chemical_formula_sum "Si O2"
_cell_formula_units_Z 16
_cell_length_a 11.218600
_cell_length_b 16.759747
_cell_length_c 28.225845
_cell_angle_alpha 158.305606
_cell_angle_beta 22.591771
_cell_angle_gamma 147.693533
_cell_volume 750.638791
_symmetry_space_group_name_H-M "P -1"
_symmetry_group_IT_number 2
_symmetry_cell_setting 'triclinic'
loop_
_space_group_symop_operation_xyz
x,y,z
-x,-y,-z
loop_
_atom_site_type_symbol
_atom_site_label
_atom_site_fract_x
_atom_site_fract_y
_atom_site_fract_z
Si Si1 0.415316 0.384050 0.107364
Si Si2 0.716770 0.279424 0.307307
Si Si3 0.506843 0.488430 0.301782
Si Si4 0.367519 0.239034 0.505209
Si Si5 0.950016 0.838245 0.673313
Si Si6 0.163821 0.657448 0.990104
Si Si7 0.206568 0.823807 0.385949
Si Si8 0.737484 0.970046 0.721081
O O1 0.493242 0.356908 0.119148
O O2 0.421759 0.624343 0.217749
O O3 0.069798 0.316497 0.189082
O O4 0.661693 0.218838 0.899304
O O5 0.500000 0.500000 0.500000
O O6 0.647433 0.227608 0.358639
O O7 0.574017 0.111187 0.231978
O O8 0.620324 0.570761 0.356326
O O9 0.307423 0.282249 0.269544
O O10 0.779266 0.429762 0.131707
O O11 0.270875 0.688390 0.479594
O O12 0.044641 0.257333 0.603983
O O13 0.378281 0.010421 0.401691
O O14 0.843191 0.845970 0.661842
O O15 0.966284 0.090040 0.820664
O O16 0.000000 0.500000 0.000000
O O17 0.001858 0.927348 0.561435
#
# Coordination Sequence:
#
# PCOD9011791 Si02
#       8
#     2   2   2   2   2   2   2   2
#     4  11  23  40  69  89 126 169 214 260 322 372
#     4  11  20  40  68  92 126 166 212 261 314 380
#     4  11  24  42  69  90 131 172 211 267 327 369
#     4  10  23  39  66  95 128 169 208 262 323 376
#     4  10  24  42  67  98 126 167 220 263 319 380
#     4  11  27  45  64  97 129 170 219 267 316 386
#     4  10  22  43  62  94 134 161 210 267 314 386
#     4  10  21  40  67  93 126 165 216 258 318 384
#
# _framework density 21.315176999999998
#
# number of rings (size 3 to 8) (size 9 to 14) (size 15 to 20)
#    0.000    1.500    2.500    2.250    8.750    0.500 
#    0.000    6.875    0.000    0.000    0.000    0.000 
#    0.000    0.000    0.000    0.000    0.000    0.000 
#
# Total GULP energy -89447.414406 kJ/mol
# GULP energy per Si atom -5590.463400 kJ/mol
# Density = 2.126666 g / cm^3
# Si number density = 21.315177 Si / 1000 Ang^3
#
#
#
# Elastic Constant Matrix: (Units=GPa)
#
#
# Indices 1 2 3 4 5 6 
#
# 1 96.9220 24.6359 42.1529 2.0257 18.9211 -9.3543
# 2 24.6359 112.7820 44.1564 11.9887 8.6616 -21.9199
# 3 42.1529 44.1564 84.9894 14.5947 2.0873 -10.6242
# 4 2.0257 11.9887 14.5947 27.4690 -4.2991 0.9249
# 5 18.9211 8.6616 2.0873 -4.2991 33.1601 9.6482
# 6 -9.3543 -21.9199 -10.6242 0.9249 9.6482 30.6317
#
#
#
# Elastic Compliance Matrix: (Units=1/GPa)
#
#
# Indices 1 2 3 4 5 6 
#
# 1 0.016103 0.001706 -0.007769 0.000219 -0.011137 0.006945
# 2 0.001706 0.014092 -0.005698 -0.004922 -0.008243 0.011374
# 3 -0.007769 -0.005698 0.019530 -0.006658 0.004047 -0.000750
# 4 0.000219 -0.004922 -0.006658 0.044034 0.010296 -0.010337
# 5 -0.011137 -0.008243 0.004047 0.010296 0.046384 -0.022817
# 6 0.006945 0.011374 -0.000750 -0.010337 -0.022817 0.050144
#
#
# Mechanical properties :
#
#
# Convention : Reuss Voigt Hill
#
# Bulk Modulus (GPa) = 38.16418 57.39818 47.78118
# Shear Modulus (GPa) = 22.46770 30.50203 26.48487
#
# Velocity S-wave (km/s) = 3.25017 3.78696 3.52879
# Velocity P-wave (km/s) = 5.65936 6.79030 6.25046
#
# Compressibility (1/GPa) = 0.02620258
#
# Stress axis : x y z
#
# Youngs Moduli (GPa) = 62.10170 70.96391 51.20310
#
# Poissons Ratio (x) = -0.12107 0.39779
# Poissons Ratio (y) = -0.10595 0.29177
# Poissons Ratio (z) = 0.48246 0.40437
#
# Static dielectric constant tensor:
#      x y z
#    x 1.835230 0.050540 0.013660 
#    y 0.050540 1.809800 0.015360 
#    z 0.013660 0.015360 1.746330 
# 
# From -- ./inp_files/623157.got.cif
#   From: 2010.05.17/outbox.cif.g08.bks.cpg/sg2_312_cif.got.tgz:623157.got - 2010.06.03 11:33:40.
