data_PCOD9011858
_publ_section_title
;
Structure prediction by ZEFSAII (Michael W. Deem and Ramdas Pophale) SiO2 
 PCOD9011858
Probable space group: P -1
;
_chemical_formula_sum "Si O2"
_cell_formula_units_Z 16
_cell_length_a 13.739007
_cell_length_b 11.602017
_cell_length_c 7.736873
_cell_angle_alpha 143.447696
_cell_angle_beta 120.190051
_cell_angle_gamma 58.908393
_cell_volume 619.521722
_symmetry_space_group_name_H-M "P -1"
_symmetry_group_IT_number 2
_symmetry_cell_setting 'triclinic'
loop_
_space_group_symop_operation_xyz
x,y,z
-x,-y,-z
loop_
_atom_site_type_symbol
_atom_site_label
_atom_site_fract_x
_atom_site_fract_y
_atom_site_fract_z
Si Si1 0.079239 0.044860 0.443198
Si Si2 0.606689 0.340775 0.132285
Si Si3 0.158121 0.191422 0.042280
Si Si4 0.769808 0.957940 0.733419
Si Si5 0.098546 0.586552 0.292948
Si Si6 0.757432 0.337531 0.802495
Si Si7 0.610994 0.673933 0.309283
Si Si8 0.395630 0.891479 0.804964
O O1 0.178740 0.102575 0.480855
O O2 0.963418 0.189475 0.445056
O O3 0.126703 0.807936 0.196379
O O4 0.089513 0.106466 0.726747
O O5 0.607142 0.569519 0.366551
O O6 0.578652 0.270852 0.213020
O O7 0.509987 0.301819 0.865791
O O8 0.726890 0.192663 0.008561
O O9 0.137036 0.140448 0.158734
O O10 0.140284 0.425289 0.282494
O O11 0.286209 0.065110 0.966915
O O12 0.657442 0.871498 0.569801
O O13 0.202392 0.592273 0.261406
O O14 0.000000 0.500000 0.000000
O O15 0.657306 0.216565 0.528953
O O16 0.703969 0.515379 0.092417
O O17 0.500000 0.000000 0.000000
#
# Coordination Sequence:
#
# PCOD9011858 Si02
#       8
#     2   2   2   2   2   2   2   2
#     4  10  21  42  67  92 133 175 219 280 340 377
#     4  10  24  41  59  93 133 174 223 269 327 396
#     4   9  22  40  64  96 130 171 225 265 336 391
#     4  11  22  42  67  92 140 172 218 282 329 393
#     4  10  21  40  67  96 129 172 226 280 327 394
#     4  11  23  40  67  97 133 172 229 270 331 410
#     4  11  23  38  65  94 128 181 219 268 335 394
#     4  10  24  41  66  93 136 176 212 274 338 391
#
# _framework density 25.826374000000001
#
# number of rings (size 3 to 8) (size 9 to 14) (size 15 to 20)
#    0.000    1.750    1.250    2.250    7.000    5.000 
#    0.000    0.000    0.000    6.000    0.000    0.000 
#    0.000    0.000    0.000    0.000    0.000    0.000 
#
# Total GULP energy -89510.160826 kJ/mol
# GULP energy per Si atom -5594.385052 kJ/mol
# Density = 2.576759 g / cm^3
# Si number density = 25.826374 Si / 1000 Ang^3
#
#
#
# Elastic Constant Matrix: (Units=GPa)
#
#
# Indices 1 2 3 4 5 6 
#
# 1 87.7696 24.5564 5.2527 -1.5307 7.4800 2.8255
# 2 24.5564 181.3724 15.6614 22.7157 -4.2066 -1.6231
# 3 5.2527 15.6614 55.7988 5.5472 16.1492 -7.7357
# 4 -1.5307 22.7157 5.5472 38.1612 -6.6993 3.8443
# 5 7.4800 -4.2066 16.1492 -6.6993 40.9348 6.4933
# 6 2.8255 -1.6231 -7.7357 3.8443 6.4933 35.5889
#
#
#
# Elastic Compliance Matrix: (Units=1/GPa)
#
#
# Indices 1 2 3 4 5 6 
#
# 1 0.012145 -0.001841 -0.000344 0.001394 -0.001897 -0.000927
# 2 -0.001841 0.006356 -0.001495 -0.003504 0.000956 0.000315
# 3 -0.000344 -0.001495 0.023236 -0.005261 -0.011331 0.007646
# 4 0.001394 -0.003504 -0.005261 0.031049 0.007516 -0.006139
# 5 -0.001897 0.000956 -0.011331 0.007516 0.031989 -0.008917
# 6 -0.000927 0.000315 0.007646 -0.006139 -0.008917 0.032139
#
#
# Mechanical properties :
#
#
# Convention : Reuss Voigt Hill
#
# Bulk Modulus (GPa) = 29.09120 46.20907 37.65014
# Shear Modulus (GPa) = 32.10605 41.56833 36.83719
#
# Velocity S-wave (km/s) = 3.52966 4.01625 3.78079
# Velocity P-wave (km/s) = 5.28204 6.27997 5.80250
#
# Compressibility (1/GPa) = 0.03437466
#
# Stress axis : x y z
#
# Youngs Moduli (GPa) = 82.33737 157.33743 43.03646
#
# Poissons Ratio (x) = 0.28973 0.01482
# Poissons Ratio (y) = 0.15162 0.06435
# Poissons Ratio (z) = 0.02836 0.23527
#
# Static dielectric constant tensor:
#      x y z
#    x 2.036670 0.038970 0.072010 
#    y 0.038970 2.039760 -0.026800 
#    z 0.072010 -0.026800 2.064940 
# 
# From -- ./inp_files/308840.got.cif
#   From: 2010.05.17/outbox.cif.g08.bks.cpg/sg2_155_cif.got.tgz:308840.got - 2010.06.03 11:33:40.
