data_PCOD9011494
_publ_section_title
;
Structure prediction by ZEFSAII (Michael W. Deem and Ramdas Pophale) SiO2 
 PCOD9011494
Probable space group: P -1
;
_chemical_formula_sum "Si O2"
_cell_formula_units_Z 16
_cell_length_a 8.422398
_cell_length_b 11.008327
_cell_length_c 8.894657
_cell_angle_alpha 60.580068
_cell_angle_beta 91.316025
_cell_angle_gamma 109.548764
_cell_volume 666.807450
_symmetry_space_group_name_H-M "P -1"
_symmetry_group_IT_number 2
_symmetry_cell_setting 'triclinic'
loop_
_space_group_symop_operation_xyz
x,y,z
-x,-y,-z
loop_
_atom_site_type_symbol
_atom_site_label
_atom_site_fract_x
_atom_site_fract_y
_atom_site_fract_z
Si Si1 0.268915 0.164965 0.127078
Si Si2 0.981297 0.334631 0.653748
Si Si3 0.327167 0.299397 0.730497
Si Si4 0.121476 0.613063 0.058203
Si Si5 0.842825 0.116764 0.537599
Si Si6 0.187927 0.333880 0.260364
Si Si7 0.383214 0.826137 0.718366
Si Si8 0.483593 0.651964 0.580233
O O1 0.228152 0.304984 0.106931
O O2 0.443460 0.150856 0.201044
O O3 0.131150 0.022856 0.295765
O O4 0.281869 0.183819 0.937737
O O5 0.955280 0.335853 0.830695
O O6 0.833265 0.216122 0.622342
O O7 0.000000 0.500000 0.500000
O O8 0.150397 0.296347 0.654124
O O9 0.408179 0.472242 0.681948
O O10 0.466736 0.284408 0.625660
O O11 0.218150 0.506682 0.185316
O O12 0.241669 0.754685 0.884575
O O13 0.000000 0.500000 0.000000
O O14 0.682852 0.063838 0.448986
O O15 0.002652 0.227664 0.379012
O O16 0.331364 0.294709 0.372354
O O17 0.372383 0.706503 0.658315
#
# Coordination Sequence:
#
# PCOD9011494 Si02
#       8
#     2   2   2   2   2   2   2   2
#     4  11  26  42  64  93 135 179 219 263 326 398
#     4  12  23  41  68 101 133 168 215 278 329 381
#     4  11  22  40  65  97 131 169 215 268 334 393
#     4  12  21  38  68 102 128 160 220 275 328 375
#     4  12  24  44  63  94 134 178 221 264 327 394
#     4  11  21  41  64  96 126 172 215 270 325 386
#     4  11  24  42  65  95 128 175 221 274 324 384
#     4  10  21  40  66  93 128 164 213 275 332 383
#
# _framework density 23.994933
#
# number of rings (size 3 to 8) (size 9 to 14) (size 15 to 20)
#    0.000    0.750    3.750    4.500    0.000    5.500 
#    0.000    3.750    0.000    0.000    0.000    0.000 
#    0.000    0.000    0.000    0.000    0.000    0.000 
#
# Total GULP energy -89330.550880 kJ/mol
# GULP energy per Si atom -5583.159430 kJ/mol
# Density = 2.394032 g / cm^3
# Si number density = 23.994933 Si / 1000 Ang^3
#
#
#
# Elastic Constant Matrix: (Units=GPa)
#
#
# Indices 1 2 3 4 5 6 
#
# 1 61.7605 -0.9886 27.8841 14.6433 6.3888 7.1744
# 2 -0.9886 30.1492 6.9950 15.8276 3.0918 -9.6693
# 3 27.8841 6.9950 149.2248 15.0683 -3.3638 -9.9455
# 4 14.6433 15.8276 15.0683 34.7828 -12.1969 -2.8705
# 5 6.3888 3.0918 -3.3638 -12.1969 31.6130 14.0621
# 6 7.1744 -9.6693 -9.9455 -2.8705 14.0621 27.7605
#
#
#
# Elastic Compliance Matrix: (Units=1/GPa)
#
#
# Indices 1 2 3 4 5 6 
#
# 1 0.024431 0.016714 -0.003155 -0.022342 -0.017786 0.005076
# 2 0.016714 0.090697 0.001347 -0.065829 -0.060439 0.051562
# 3 -0.003155 0.001347 0.007798 -0.002940 -0.001907 0.004740
# 4 -0.022342 -0.065829 -0.002940 0.088030 0.062806 -0.040920
# 5 -0.017786 -0.060439 -0.001907 0.062806 0.090233 -0.056352
# 6 0.005076 0.051562 0.004740 -0.040920 -0.056352 0.078682
#
#
# Mechanical properties :
#
#
# Convention : Reuss Voigt Hill
#
# Bulk Modulus (GPa) = 6.54724 34.32396 20.43560
# Shear Modulus (GPa) = 12.46969 32.64752 22.55861
#
# Velocity S-wave (km/s) = 2.28212 3.69263 3.06950
# Velocity P-wave (km/s) = 3.11105 5.70232 4.59321
#
# Compressibility (1/GPa) = 0.15273623
#
# Stress axis : x y z
#
# Youngs Moduli (GPa) = 40.93182 11.02570 128.24525
#
# Poissons Ratio (x) = -0.18428 0.40464
# Poissons Ratio (y) = -0.68413 -0.17270
# Poissons Ratio (z) = 0.12915 -0.01485
#
# Static dielectric constant tensor:
#      x y z
#    x 1.994680 0.022080 0.058550 
#    y 0.022080 1.965760 0.003250 
#    z 0.058550 0.003250 1.938510 
# 
# From -- ./inp_files/184295.got.cif
#   From: 2010.05.17/outbox.cif.g08.bks.cpg/sg2_93_cif.got.tgz:184295.got - 2010.06.03 11:33:40.
