data_PCOD9011189
_publ_section_title
;
Structure prediction by ZEFSAII (Michael W. Deem and Ramdas Pophale) SiO2 
 PCOD9011189
Probable space group: P -1
;
_chemical_formula_sum "Si O2"
_cell_formula_units_Z 14
_cell_length_a 16.238024
_cell_length_b 8.846065
_cell_length_c 7.199097
_cell_angle_alpha 48.911026
_cell_angle_beta 82.323091
_cell_angle_gamma 51.281797
_cell_volume 536.134529
_symmetry_space_group_name_H-M "P -1"
_symmetry_group_IT_number 2
_symmetry_cell_setting 'triclinic'
loop_
_space_group_symop_operation_xyz
x,y,z
-x,-y,-z
loop_
_atom_site_type_symbol
_atom_site_label
_atom_site_fract_x
_atom_site_fract_y
_atom_site_fract_z
Si Si1 0.697807 0.109671 0.983485
Si Si2 0.822878 0.319804 0.266553
Si Si3 0.789961 0.385525 0.791533
Si Si4 0.890034 0.767747 0.693592
Si Si5 0.416440 0.005868 0.145333
Si Si6 0.348799 0.012399 0.537452
Si Si7 0.075739 0.578720 0.552757
O O1 0.641646 0.171631 0.157056
O O2 0.817042 0.766451 0.200759
O O3 0.611024 0.152173 0.829101
O O4 0.740612 0.262954 0.827354
O O5 0.915408 0.298601 0.363881
O O6 0.835292 0.071749 0.534117
O O7 0.833874 0.283732 0.071149
O O8 0.697690 0.646216 0.081128
O O9 0.679772 0.733731 0.549711
O O10 0.893618 0.318575 0.700860
O O11 0.776650 0.821217 0.664204
O O12 0.949965 0.688588 0.534880
O O13 0.000000 0.500000 0.000000
O O14 0.442172 0.890651 0.443308
O O15 0.500000 0.000000 0.000000
#
# Coordination Sequence:
#
# PCOD9011189 Si02
#       7
#     2   2   2   2   2   2   2
#     4  10  21  42  66  99 134 169 213 276 329 393
#     4  10  22  44  63  93 140 170 216 280 325 376
#     4  10  21  40  65  93 135 175 214 269 327 383
#     4  12  23  40  67  96 136 188 221 261 326 390
#     4  10  23  46  73  96 124 171 224 277 341 400
#     4  10  23  43  63  95 140 169 218 282 323 386
#     4  10  24  38  64  97 131 179 226 258 318 399
#
# _framework density 26.112850999999999
#
# number of rings (size 3 to 8) (size 9 to 14) (size 15 to 20)
#    0.000    1.714    1.429    3.000    4.000    3.429 
#    0.000    3.571    0.000    0.000    0.000    0.000 
#    0.000    0.000    0.000    0.000    0.000    0.000 
#
# Total GULP energy -78387.079050 kJ/mol
# GULP energy per Si atom -5599.077075 kJ/mol
# Density = 2.605342 g / cm^3
# Si number density = 26.112851 Si / 1000 Ang^3
#
#
#
# Elastic Constant Matrix: (Units=GPa)
#
#
# Indices 1 2 3 4 5 6 
#
# 1 133.4188 65.5101 37.8700 6.9004 -42.5049 1.4871
# 2 65.5101 107.7419 41.0379 35.7582 -22.9767 -8.9223
# 3 37.8700 41.0379 84.6542 6.8421 -32.3774 -0.7687
# 4 6.9004 35.7582 6.8421 44.9297 2.5945 -17.5494
# 5 -42.5049 -22.9767 -32.3774 2.5945 44.2744 -0.3074
# 6 1.4871 -8.9223 -0.7687 -17.5494 -0.3074 48.0134
#
#
#
# Elastic Compliance Matrix: (Units=1/GPa)
#
#
# Indices 1 2 3 4 5 6 
#
# 1 0.014155 -0.007999 0.001138 0.003170 0.010080 -0.000683
# 2 -0.007999 0.021285 -0.005370 -0.015520 0.000338 -0.001553
# 3 0.001138 -0.005370 0.018337 0.000434 0.011687 -0.000506
# 4 0.003170 -0.015520 0.000434 0.038816 -0.006891 0.011168
# 5 0.010080 0.000338 0.011687 -0.006891 0.041373 -0.002316
# 6 -0.000683 -0.001553 -0.000506 0.011168 -0.002316 0.024619
#
#
# Mechanical properties :
#
#
# Convention : Reuss Voigt Hill
#
# Bulk Modulus (GPa) = 34.11294 68.29457 51.20375
# Shear Modulus (GPa) = 25.93117 39.53662 32.73390
#
# Velocity S-wave (km/s) = 3.15468 3.89532 3.54440
# Velocity P-wave (km/s) = 5.13433 6.81482 6.03337
#
# Compressibility (1/GPa) = 0.02931439
#
# Stress axis : x y z
#
# Youngs Moduli (GPa) = 70.64853 46.98139 54.53484
#
# Poissons Ratio (x) = 0.37581 -0.06208
# Poissons Ratio (y) = 0.56513 0.29287
# Poissons Ratio (z) = -0.08043 0.25231
#
# Static dielectric constant tensor:
#      x y z
#    x 2.102480 0.007050 -0.019280 
#    y 0.007050 2.064870 0.034900 
#    z -0.019280 0.034900 2.148620 
# 
# From -- ./inp_files/291563.got.cif
#   From: 2010.05.17/outbox.cif.g08.bks.cpg/sg2_146_cif.got.tgz:291563.got - 2010.06.03 11:33:40.
