data_PCOD9011977
_publ_section_title
;
Structure prediction by ZEFSAII (Michael W. Deem and Ramdas Pophale) SiO2 
 PCOD9011977
Probable space group: P -1
;
_chemical_formula_sum "Si O2"
_cell_formula_units_Z 16
_cell_length_a 7.426456
_cell_length_b 20.132360
_cell_length_c 19.978239
_cell_angle_alpha 159.723141
_cell_angle_beta 143.070838
_cell_angle_gamma 48.486215
_cell_volume 565.005612
_symmetry_space_group_name_H-M "P -1"
_symmetry_group_IT_number 2
_symmetry_cell_setting 'triclinic'
loop_
_space_group_symop_operation_xyz
x,y,z
-x,-y,-z
loop_
_atom_site_type_symbol
_atom_site_label
_atom_site_fract_x
_atom_site_fract_y
_atom_site_fract_z
Si Si1 0.316990 0.431931 0.203824
Si Si2 0.009263 0.731260 0.719393
Si Si3 0.347814 0.973045 0.302874
Si Si4 0.109669 0.610568 0.434945
Si Si5 0.125890 0.985326 0.702982
Si Si6 0.387001 0.545520 0.192524
Si Si7 0.721953 0.694686 0.198610
Si Si8 0.817322 0.871474 0.931173
O O1 0.627696 0.656570 0.511866
O O2 0.117582 0.453809 0.229548
O O3 0.185592 0.433768 0.092646
O O4 0.391768 0.222229 0.022824
O O5 0.004003 0.818064 0.874199
O O6 0.000000 0.500000 0.500000
O O7 0.200786 0.912087 0.893501
O O8 0.552539 0.837502 0.249902
O O9 0.195213 0.984139 0.340348
O O10 0.546457 0.213490 0.567439
O O11 0.049736 0.901541 0.091904
O O12 0.444896 0.687806 0.651164
O O13 0.756586 0.538515 0.298187
O O14 0.154380 0.819517 0.605597
O O15 0.038362 0.864479 0.492678
O O16 0.233798 0.423935 0.964859
O O17 0.500000 0.500000 0.000000
#
# Coordination Sequence:
#
# PCOD9011977 Si02
#       8
#     2   2   2   2   2   2   2   2
#     4  11  24  45  69 108 146 188 238 296 366 427
#     4  10  21  40  68 101 152 193 228 294 358 425
#     4  11  24  43  74 109 141 192 248 294 361 442
#     4  10  23  46  71 105 154 181 238 298 352 443
#     4  11  25  43  74 101 145 195 238 305 366 423
#     4  11  25  45  75 105 144 194 236 303 365 433
#     4  12  25  46  75 103 143 192 248 308 367 422
#     4  10  22  41  70 109 145 193 236 294 356 431
#
# _framework density 28.318301999999999
#
# number of rings (size 3 to 8) (size 9 to 14) (size 15 to 20)
#    0.000    1.250    3.750    1.875    1.750    3.500 
#    2.250    3.125    0.000    0.000    0.000    0.000 
#    0.000    0.000    0.000    0.000    0.000    0.000 
#
# Total GULP energy -89569.114510 kJ/mol
# GULP energy per Si atom -5598.069657 kJ/mol
# Density = 2.825385 g / cm^3
# Si number density = 28.318302 Si / 1000 Ang^3
#
#
#
# Elastic Constant Matrix: (Units=GPa)
#
#
# Indices 1 2 3 4 5 6 
#
# 1 127.5613 35.5598 64.1755 2.1082 -27.9515 10.1426
# 2 35.5598 160.4511 80.1380 25.1865 -15.0499 1.3418
# 3 64.1755 80.1380 184.3317 10.9512 -20.8758 11.7205
# 4 2.1082 25.1865 10.9512 59.1749 -4.9304 3.8817
# 5 -27.9515 -15.0499 -20.8758 -4.9304 57.1503 -2.5466
# 6 10.1426 1.3418 11.7205 3.8817 -2.5466 32.0555
#
#
#
# Elastic Compliance Matrix: (Units=1/GPa)
#
#
# Indices 1 2 3 4 5 6 
#
# 1 0.010448 -0.000658 -0.002834 0.000890 0.003887 -0.002041
# 2 -0.000658 0.008567 -0.003350 -0.003058 0.000513 0.001486
# 3 -0.002834 -0.003350 0.008044 0.000212 0.000604 -0.001882
# 4 0.000890 -0.003058 0.000212 0.018384 0.001188 -0.002363
# 5 0.003887 0.000513 0.000604 0.001188 0.019855 -0.000039
# 6 -0.002041 0.001486 -0.001882 -0.002363 -0.000039 0.032751
#
#
# Mechanical properties :
#
#
# Convention : Reuss Voigt Hill
#
# Bulk Modulus (GPa) = 74.77197 92.45452 83.61324
# Shear Modulus (GPa) = 43.03234 49.17419 46.10326
#
# Velocity S-wave (km/s) = 3.90243 4.17163 4.03927
# Velocity P-wave (km/s) = 6.83862 7.47814 7.16552
#
# Compressibility (1/GPa) = 0.01337400
#
# Stress axis : x y z
#
# Youngs Moduli (GPa) = 95.71130 116.72440 124.31998
#
# Poissons Ratio (x) = 0.07680 0.35237
# Poissons Ratio (y) = 0.06297 0.41650
# Poissons Ratio (z) = 0.27128 0.39105
#
# Static dielectric constant tensor:
#      x y z
#    x 2.324050 -0.142290 0.058360 
#    y -0.142290 2.254440 -0.052220 
#    z 0.058360 -0.052220 2.281720 
# 
# From -- ./inp_files/591751.got.cif
#   From: 2010.05.17/outbox.cif.g08.bks.cpg/sg2_296_cif.got.tgz:591751.got - 2010.06.03 11:33:40.
