data_PCOD9011490
_publ_section_title
;
Structure prediction by ZEFSAII (Michael W. Deem and Ramdas Pophale) SiO2 
 PCOD9011490
Probable space group: P -1
;
_chemical_formula_sum "Si O2"
_cell_formula_units_Z 16
_cell_length_a 10.261361
_cell_length_b 11.863924
_cell_length_c 10.682276
_cell_angle_alpha 133.744518
_cell_angle_beta 51.069315
_cell_angle_gamma 139.208632
_cell_volume 598.426247
_symmetry_space_group_name_H-M "P -1"
_symmetry_group_IT_number 2
_symmetry_cell_setting 'triclinic'
loop_
_space_group_symop_operation_xyz
x,y,z
-x,-y,-z
loop_
_atom_site_type_symbol
_atom_site_label
_atom_site_fract_x
_atom_site_fract_y
_atom_site_fract_z
Si Si1 0.581689 0.765294 0.269625
Si Si2 0.225802 0.759432 0.354473
Si Si3 0.771989 0.943456 0.567509
Si Si4 0.164443 0.453084 0.882349
Si Si5 0.957711 0.112728 0.225746
Si Si6 0.600652 0.613522 0.791422
Si Si7 0.373234 0.608215 0.629612
Si Si8 0.046291 0.691511 0.870931
O O1 0.436187 0.819286 0.339272
O O2 0.669151 0.837520 0.414045
O O3 0.449518 0.538160 0.185280
O O4 0.786477 0.888758 0.161152
O O5 0.106577 0.536265 0.231808
O O6 0.104494 0.796694 0.559144
O O7 0.232468 0.871914 0.312729
O O8 0.607858 0.788953 0.647308
O O9 0.000000 0.000000 0.500000
O O10 0.042771 0.283263 0.926422
O O11 0.395733 0.608027 0.911115
O O12 0.000000 0.500000 0.000000
O O13 0.948879 0.200414 0.169573
O O14 0.187937 0.185061 0.170176
O O15 0.239910 0.449579 0.695126
O O16 0.627811 0.510840 0.577385
O O17 0.260648 0.714285 0.765402
#
# Coordination Sequence:
#
# PCOD9011490 Si02
#       8
#     2   2   2   2   2   2   2   2
#     4  10  22  38  62 103 132 161 214 281 326 379
#     4  11  20  38  63  97 135 168 215 269 333 384
#     4  10  22  35  60  97 133 164 216 280 320 376
#     4  10  25  41  62  91 133 175 210 266 332 393
#     4  11  20  36  68  97 127 163 218 269 322 379
#     4  11  21  40  70  95 121 167 222 271 319 385
#     4  10  21  40  66  93 125 169 219 264 325 388
#     4  11  21  39  65  96 129 173 213 262 332 393
#
# _framework density 26.736792999999999
#
# number of rings (size 3 to 8) (size 9 to 14) (size 15 to 20)
#    0.000    1.500    2.500    4.500    3.500    4.500 
#    0.000    1.250    5.500    0.000    0.000    0.000 
#    0.000    0.000    0.000    0.000    0.000    0.000 
#
# Total GULP energy -89417.996251 kJ/mol
# GULP energy per Si atom -5588.624766 kJ/mol
# Density = 2.667594 g / cm^3
# Si number density = 26.736793 Si / 1000 Ang^3
#
#
#
# Elastic Constant Matrix: (Units=GPa)
#
#
# Indices 1 2 3 4 5 6 
#
# 1 211.3562 54.6481 19.0302 -25.7991 -25.9716 30.9238
# 2 54.6481 153.8338 38.7024 -35.3171 -8.0848 16.7504
# 3 19.0302 38.7024 121.1283 -32.1075 -9.0731 -4.6982
# 4 -25.7991 -35.3171 -32.1075 43.7907 -1.2189 -0.3371
# 5 -25.9716 -8.0848 -9.0731 -1.2189 39.1084 -18.0078
# 6 30.9238 16.7504 -4.6982 -0.3371 -18.0078 59.4617
#
#
#
# Elastic Compliance Matrix: (Units=1/GPa)
#
#
# Indices 1 2 3 4 5 6 
#
# 1 0.006008 -0.001199 0.000374 0.002919 0.003088 -0.001805
# 2 -0.001199 0.008676 -0.001232 0.005373 0.000011 -0.001884
# 3 0.000374 -0.001232 0.010904 0.007344 0.003763 0.002195
# 4 0.002919 0.005373 0.007344 0.034424 0.005562 -0.000571
# 5 0.003088 0.000011 0.003763 0.005562 0.032630 0.008602
# 6 -0.001805 -0.001884 0.002195 -0.000571 0.008602 0.021062
#
#
# Mechanical properties :
#
#
# Convention : Reuss Voigt Hill
#
# Bulk Modulus (GPa) = 46.56764 79.00883 62.78823
# Shear Modulus (GPa) = 40.00806 53.40136 46.70471
#
# Velocity S-wave (km/s) = 3.87249 4.47396 4.18405
# Velocity P-wave (km/s) = 6.11962 7.50355 6.84664
#
# Compressibility (1/GPa) = 0.02147414
#
# Stress axis : x y z
#
# Youngs Moduli (GPa) = 166.45561 115.26440 91.70890
#
# Poissons Ratio (x) = 0.13825 -0.03433
# Poissons Ratio (y) = 0.19965 0.11294
# Poissons Ratio (z) = -0.06231 0.14195
#
# Static dielectric constant tensor:
#      x y z
#    x 2.125260 -0.007270 0.075930 
#    y -0.007270 2.090730 0.046110 
#    z 0.075930 0.046110 2.194250 
# 
# From -- ./inp_files/387797.got.cif
#   From: 2010.05.17/outbox.cif.g08.bks.cpg/sg2_194_cif.got.tgz:387797.got - 2010.06.03 11:33:40.
