data_PCOD9011872
_publ_section_title
;
Structure prediction by ZEFSAII (Michael W. Deem and Ramdas Pophale) SiO2 
 PCOD9011872
Probable space group: P -1
;
_chemical_formula_sum "Si O2"
_cell_formula_units_Z 14
_cell_length_a 13.966091
_cell_length_b 13.005981
_cell_length_c 8.534058
_cell_angle_alpha 119.872806
_cell_angle_beta 99.398939
_cell_angle_gamma 31.221451
_cell_volume 565.439296
_symmetry_space_group_name_H-M "P -1"
_symmetry_group_IT_number 2
_symmetry_cell_setting 'triclinic'
loop_
_space_group_symop_operation_xyz
x,y,z
-x,-y,-z
loop_
_atom_site_type_symbol
_atom_site_label
_atom_site_fract_x
_atom_site_fract_y
_atom_site_fract_z
Si Si1 0.273669 0.883374 0.646290
Si Si2 0.634119 0.838762 0.754906
Si Si3 0.346133 0.976543 0.290934
Si Si4 0.244824 0.564388 0.523537
Si Si5 0.198557 0.638029 0.941229
Si Si6 0.785767 0.787341 0.250942
Si Si7 0.784109 0.136384 0.722598
O O1 0.516590 0.635139 0.604434
O O2 0.296011 0.781509 0.415954
O O3 0.234189 0.057055 0.695682
O O4 0.056224 0.097622 0.858999
O O5 0.760296 0.573275 0.598299
O O6 0.717861 0.879192 0.771066
O O7 0.444156 0.025490 0.713307
O O8 0.500000 0.000000 0.000000
O O9 0.615198 0.663140 0.173073
O O10 0.269931 0.924753 0.243439
O O11 0.210106 0.203855 0.556361
O O12 0.201914 0.634740 0.750957
O O13 0.057993 0.826984 0.561185
O O14 0.278863 0.676591 0.058099
O O15 0.000000 0.500000 0.000000
#
# Coordination Sequence:
#
# PCOD9011872 Si02
#       7
#     2   2   2   2   2   2   2
#     4  10  24  44  68 102 137 187 227 288 349 409
#     4  11  25  42  65 101 139 175 230 294 342 418
#     4  11  24  43  72 102 138 190 227 284 358 417
#     4  11  26  46  67 105 140 175 248 280 351 416
#     4  12  23  47  73  99 143 185 233 286 350 414
#     4  10  21  40  67  96 137 177 230 280 348 418
#     4  11  25  46  71 103 140 185 235 288 341 419
#
# _framework density 24.759511
#
# number of rings (size 3 to 8) (size 9 to 14) (size 15 to 20)
#    0.000    1.143    4.286    2.571    8.000    3.429 
#    0.000    0.000    0.000    0.000    0.000    0.000 
#    0.000    0.000    0.000    0.000    0.000    0.000 
#
# Total GULP energy -78287.398955 kJ/mol
# GULP energy per Si atom -5591.957068 kJ/mol
# Density = 2.470316 g / cm^3
# Si number density = 24.759511 Si / 1000 Ang^3
#
#
#
# Elastic Constant Matrix: (Units=GPa)
#
#
# Indices 1 2 3 4 5 6 
#
# 1 117.6903 8.9411 38.7195 -6.9923 -6.3268 10.1622
# 2 8.9411 56.3186 6.4145 15.4552 2.1955 -1.6343
# 3 38.7195 6.4145 120.2138 5.7580 8.7761 0.6043
# 4 -6.9923 15.4552 5.7580 25.7355 -4.8309 -0.3128
# 5 -6.3268 2.1955 8.7761 -4.8309 36.9973 12.5366
# 6 10.1622 -1.6343 0.6043 -0.3128 12.5366 30.0207
#
#
#
# Elastic Compliance Matrix: (Units=1/GPa)
#
#
# Indices 1 2 3 4 5 6 
#
# 1 0.011593 -0.003875 -0.004331 0.007584 0.006494 -0.006681
# 2 -0.003875 0.023080 0.001218 -0.016274 -0.006116 0.004928
# 3 -0.004331 0.001218 0.010245 -0.005108 -0.005057 0.003385
# 4 0.007584 -0.016274 -0.005108 0.054247 0.013397 -0.008380
# 5 0.006494 -0.006116 -0.005057 0.013397 0.037539 -0.017966
# 6 -0.006681 0.004928 0.003385 -0.008380 -0.017966 0.043187
#
#
# Mechanical properties :
#
#
# Convention : Reuss Voigt Hill
#
# Bulk Modulus (GPa) = 32.31898 44.70812 38.51355
# Shear Modulus (GPa) = 24.48803 34.56054 29.52428
#
# Velocity S-wave (km/s) = 3.14830 3.74016 3.45692
# Velocity P-wave (km/s) = 5.12809 6.06200 5.61450
#
# Compressibility (1/GPa) = 0.03094157
#
# Stress axis : x y z
#
# Youngs Moduli (GPa) = 86.26186 43.32725 97.60598
#
# Poissons Ratio (x) = 0.16791 0.42271
# Poissons Ratio (y) = 0.33430 -0.11887
# Poissons Ratio (z) = 0.37358 -0.05277
#
# Static dielectric constant tensor:
#      x y z
#    x 2.040450 -0.119760 -0.050060 
#    y -0.119760 1.932600 0.033530 
#    z -0.050060 0.033530 2.018080 
# 
# From -- ./inp_files/297366.got.cif
#   From: 2010.05.17/outbox.cif.g08.bks.cpg/sg2_149_cif.got.tgz:297366.got - 2010.06.03 11:33:40.
