data_PCOD9011609
_publ_section_title
;
Structure prediction by ZEFSAII (Michael W. Deem and Ramdas Pophale) SiO2 
 PCOD9011609
Probable space group: P -1
;
_chemical_formula_sum "Si O2"
_cell_formula_units_Z 15
_cell_length_a 8.980896
_cell_length_b 14.583922
_cell_length_c 11.342547
_cell_angle_alpha 144.077099
_cell_angle_beta 90.404739
_cell_angle_gamma 104.977070
_cell_volume 778.235732
_symmetry_space_group_name_H-M "P -1"
_symmetry_group_IT_number 2
_symmetry_cell_setting 'triclinic'
loop_
_space_group_symop_operation_xyz
x,y,z
-x,-y,-z
loop_
_atom_site_type_symbol
_atom_site_label
_atom_site_fract_x
_atom_site_fract_y
_atom_site_fract_z
Si Si1 0.465900 0.105157 0.213547
Si Si2 0.908558 0.538172 0.429712
Si Si3 0.000000 0.000000 0.500000
Si Si4 0.776275 0.370573 0.627263
Si Si5 0.119213 0.227411 0.965556
Si Si6 0.135426 0.706238 0.214443
Si Si7 0.245401 0.802107 0.055510
Si Si8 0.823165 0.830120 0.836913
O O1 0.631971 0.269729 0.427994
O O2 0.323693 0.150448 0.209628
O O3 0.392670 0.978990 0.194687
O O4 0.500000 0.000000 0.000000
O O5 0.842600 0.670507 0.611717
O O6 0.000000 0.500000 0.500000
O O7 0.050053 0.613473 0.408160
O O8 0.767130 0.358208 0.190861
O O9 0.103933 0.102547 0.727042
O O10 0.951889 0.165291 0.649430
O O11 0.751671 0.274047 0.650879
O O12 0.798100 0.566641 0.849987
O O13 0.928125 0.185244 0.954219
O O14 0.204191 0.199564 0.053985
O O15 0.237815 0.754129 0.142553
O O16 0.000000 0.500000 0.000000
O O17 0.000000 0.000000 0.000000
#
# Coordination Sequence:
#
# PCOD9011609 Si02
#       8
#     2   2   1   2   2   2   2   2
#     4  12  27  42  61  97 141 175 217 275 348 393
#     4  11  19  38  66  91 125 167 217 268 323 395
#     4  10  22  36  68 102 124 162 238 272 312 398
#     4  11  23  42  65  96 137 172 215 283 343 389
#     4  10  21  40  66  97 127 168 229 270 321 405
#     4  11  21  41  70  98 126 177 225 279 330 390
#     4  10  21  42  63  94 128 168 221 270 323 404
#     4  12  23  38  67  95 128 177 224 272 331 403
#
# _framework density 19.274367000000002
#
# number of rings (size 3 to 8) (size 9 to 14) (size 15 to 20)
#    0.000    1.067    8.000    1.600    3.733    1.067 
#    0.000    0.000    0.000    4.000    0.000    0.000 
#    0.000    0.000    0.000    0.000    0.000    0.000 
#
# Total GULP energy -83503.245817 kJ/mol
# GULP energy per Si atom -5566.883054 kJ/mol
# Density = 1.923050 g / cm^3
# Si number density = 19.274367 Si / 1000 Ang^3
#
#
#
# Elastic Constant Matrix: (Units=GPa)
#
#
# Indices 1 2 3 4 5 6 
#
# 1 51.5703 15.0894 40.0374 6.8147 -5.1769 -18.5731
# 2 15.0894 127.8237 37.8815 -13.3107 -10.3677 -18.1867
# 3 40.0374 37.8815 168.3605 -3.7929 -18.8509 -13.5525
# 4 6.8147 -13.3107 -3.7929 32.7316 -6.1167 4.7883
# 5 -5.1769 -10.3677 -18.8509 -6.1167 28.0333 2.2665
# 6 -18.5731 -18.1867 -13.5525 4.7883 2.2665 25.5373
#
#
#
# Elastic Compliance Matrix: (Units=1/GPa)
#
#
# Indices 1 2 3 4 5 6 
#
# 1 0.034767 -0.000134 -0.006895 -0.012147 -0.002861 0.024063
# 2 -0.000134 0.009564 -0.001292 0.003587 0.003015 0.005088
# 3 -0.006895 -0.001292 0.008260 0.003117 0.004690 -0.002552
# 4 -0.012147 0.003587 0.003117 0.038775 0.010678 -0.012844
# 5 -0.002861 0.003015 0.004690 0.010678 0.041998 -0.003175
# 6 0.024063 0.005088 -0.002552 -0.012844 -0.003175 0.061618
#
#
# Mechanical properties :
#
#
# Convention : Reuss Voigt Hill
#
# Bulk Modulus (GPa) = 27.81721 59.30790 43.56255
# Shear Modulus (GPa) = 22.36056 34.24352 28.30204
#
# Velocity S-wave (km/s) = 3.40975 4.21959 3.83610
# Velocity P-wave (km/s) = 5.47407 7.38763 6.50163
#
# Compressibility (1/GPa) = 0.03594897
#
# Stress axis : x y z
#
# Youngs Moduli (GPa) = 28.76255 104.55960 121.06712
#
# Poissons Ratio (x) = 0.01404 0.83473
# Poissons Ratio (y) = 0.00386 0.15643
# Poissons Ratio (z) = 0.19831 0.13510
#
# Static dielectric constant tensor:
#      x y z
#    x 1.653280 0.009510 0.006200 
#    y 0.009510 1.721630 0.001120 
#    z 0.006200 0.001120 1.671620 
# 
# From -- ./inp_files/400049.got.cif
#   From: 2010.05.17/outbox.cif.g08.bks.cpg/sg2_201_cif.got.tgz:400049.got - 2010.06.03 11:33:40.
