data_PCOD9011317
_publ_section_title
;
Structure prediction by ZEFSAII (Michael W. Deem and Ramdas Pophale) SiO2 
 PCOD9011317
Probable space group: P -1
;
_chemical_formula_sum "Si O2"
_cell_formula_units_Z 14
_cell_length_a 5.718200
_cell_length_b 7.478928
_cell_length_c 13.800437
_cell_angle_alpha 82.664822
_cell_angle_beta 85.492568
_cell_angle_gamma 94.372420
_cell_volume 581.323550
_symmetry_space_group_name_H-M "P -1"
_symmetry_group_IT_number 2
_symmetry_cell_setting 'triclinic'
loop_
_space_group_symop_operation_xyz
x,y,z
-x,-y,-z
loop_
_atom_site_type_symbol
_atom_site_label
_atom_site_fract_x
_atom_site_fract_y
_atom_site_fract_z
Si Si1 0.966062 0.787902 0.987428
Si Si2 0.344079 0.649730 0.266796
Si Si3 0.885069 0.268162 0.547598
Si Si4 0.687247 0.430231 0.362795
Si Si5 0.454489 0.798772 0.059298
Si Si6 0.270639 0.121290 0.413676
Si Si7 0.922988 0.698487 0.771763
O O1 0.955578 0.767048 0.873923
O O2 0.206579 0.713456 0.026379
O O3 0.705606 0.714836 0.040248
O O4 0.000000 0.000000 0.000000
O O5 0.129392 0.677294 0.343970
O O6 0.554999 0.606673 0.333709
O O7 0.407564 0.802262 0.175691
O O8 0.282278 0.465082 0.220867
O O9 0.809245 0.418020 0.464223
O O10 0.116673 0.191366 0.501665
O O11 0.699829 0.088458 0.561386
O O12 0.496243 0.258450 0.385319
O O13 0.851395 0.390031 0.270776
O O14 0.500000 0.000000 0.000000
O O15 0.126889 0.149726 0.316381
#
# Coordination Sequence:
#
# PCOD9011317 Si02
#       7
#     2   2   2   2   2   2   2
#     4  10  24  45  72  97 136 175 235 290 341 404
#     4  11  25  40  66  95 139 177 226 281 353 410
#     4  10  21  40  65  97 134 174 224 279 341 411
#     4  10  22  41  62 100 131 179 220 277 346 417
#     4  10  25  46  69 103 131 180 235 288 344 411
#     4   9  21  39  65  97 132 172 227 279 339 411
#     4  10  24  41  65  96 136 178 223 283 348 411
#
# _framework density 24.082974
#
# number of rings (size 3 to 8) (size 9 to 14) (size 15 to 20)
#    0.000    2.000    0.000    0.857   10.000    8.571 
#    0.000    0.000    0.000    0.000    0.000    0.000 
#    0.000    0.000    0.000    0.000    0.000    0.000 
#
# Total GULP energy -78251.318666 kJ/mol
# GULP energy per Si atom -5589.379905 kJ/mol
# Density = 2.402816 g / cm^3
# Si number density = 24.082974 Si / 1000 Ang^3
#
#
#
# Elastic Constant Matrix: (Units=GPa)
#
#
# Indices 1 2 3 4 5 6 
#
# 1 137.9252 6.3616 45.8098 8.7298 -2.6491 2.7510
# 2 6.3616 70.3271 54.1439 2.7356 11.5470 -6.8021
# 3 45.8098 54.1439 189.2012 12.6562 -9.6240 -3.6251
# 4 8.7298 2.7356 12.6562 49.6364 4.1830 6.2956
# 5 -2.6491 11.5470 -9.6240 4.1830 34.2054 -0.6767
# 6 2.7510 -6.8021 -3.6251 6.2956 -0.6767 20.2459
#
#
#
# Elastic Compliance Matrix: (Units=1/GPa)
#
#
# Indices 1 2 3 4 5 6 
#
# 1 0.007994 0.000935 -0.002182 -0.000763 -0.000235 -0.000934
# 2 0.000935 0.021255 -0.006690 0.000440 -0.008932 0.005381
# 3 -0.002182 -0.006690 0.008079 -0.001716 0.004576 0.000182
# 4 -0.000763 0.000440 -0.001716 0.021874 -0.003504 -0.006975
# 5 -0.000235 -0.008932 0.004576 -0.003504 0.033950 0.000074
# 6 -0.000934 0.005381 0.000182 -0.006975 0.000074 0.053531
#
#
# Mechanical properties :
#
#
# Convention : Reuss Voigt Hill
#
# Bulk Modulus (GPa) = 46.60975 67.78713 57.19844
# Shear Modulus (GPa) = 29.46239 40.22677 34.84458
#
# Velocity S-wave (km/s) = 3.50147 4.09141 3.80788
# Velocity P-wave (km/s) = 5.97853 7.10830 6.56776
#
# Compressibility (1/GPa) = 0.02145474
#
# Stress axis : x y z
#
# Youngs Moduli (GPa) = 125.08964 47.04818 123.77657
#
# Poissons Ratio (x) = -0.04398 0.27007
# Poissons Ratio (y) = -0.11693 0.82801
# Poissons Ratio (z) = 0.27294 0.31473
#
# Static dielectric constant tensor:
#      x y z
#    x 2.023210 0.041180 0.060490 
#    y 0.041180 1.917190 -0.013430 
#    z 0.060490 -0.013430 1.870190 
# 
# From -- ./inp_files/26979.got.cif
#   From: 2010.05.17/outbox.cif.g08.bks.cpg/sg2_14_cif.got.tgz:26979.got - 2010.06.03 11:33:40.
