data_PCOD9011945
_publ_section_title
;
Structure prediction by ZEFSAII (Michael W. Deem and Ramdas Pophale) SiO2 
 PCOD9011945
Probable space group: P -1
;
_chemical_formula_sum "Si O2"
_cell_formula_units_Z 16
_cell_length_a 18.714179
_cell_length_b 9.674437
_cell_length_c 5.856094
_cell_angle_alpha 135.358222
_cell_angle_beta 76.876573
_cell_angle_gamma 107.283641
_cell_volume 711.167818
_symmetry_space_group_name_H-M "P -1"
_symmetry_group_IT_number 2
_symmetry_cell_setting 'triclinic'
loop_
_space_group_symop_operation_xyz
x,y,z
-x,-y,-z
loop_
_atom_site_type_symbol
_atom_site_label
_atom_site_fract_x
_atom_site_fract_y
_atom_site_fract_z
Si Si1 0.939551 0.040313 0.905106
Si Si2 0.725546 0.512245 0.855898
Si Si3 0.680943 0.768062 0.809487
Si Si4 0.832859 0.237769 0.538079
Si Si5 0.193388 0.106470 0.461233
Si Si6 0.542010 0.819534 0.225518
Si Si7 0.576942 0.528004 0.227697
Si Si8 0.026855 0.435694 0.149146
O O1 0.878059 0.136395 0.199330
O O2 0.992322 0.201191 0.899468
O O3 0.883434 0.881898 0.604121
O O4 0.000000 0.000000 0.000000
O O5 0.771084 0.687863 0.192809
O O6 0.639232 0.465462 0.941739
O O7 0.726664 0.628230 0.752428
O O8 0.758558 0.311582 0.601843
O O9 0.740630 0.916122 0.789349
O O10 0.624145 0.620095 0.516403
O O11 0.626982 0.867838 0.127605
O O12 0.887711 0.452628 0.790491
O O13 0.821460 0.082375 0.575601
O O14 0.545637 0.700777 0.319824
O O15 0.500000 0.000000 0.500000
O O16 0.489471 0.660112 0.911320
O O17 0.000000 0.500000 0.500000
O O18 0.000000 0.500000 0.000000
#
# Coordination Sequence:
#
# PCOD9011945 Si02
#       8
#     2   2   2   2   2   2   2   2
#     4  11  26  44  67  99 132 180 228 297 356 423
#     4  10  24  43  67  93 132 180 225 278 337 410
#     4  10  22  43  67  98 134 175 223 274 336 403
#     4  11  25  44  66  94 133 177 227 285 348 423
#     4  11  24  44  66  94 134 175 227 284 350 410
#     4  10  21  40  68 100 135 173 215 269 331 398
#     4   9  21  41  63  97 135 172 216 272 328 399
#     4  10  22  44  66  98 134 176 235 293 359 428
#
# _framework density 22.498207000000001
#
# number of rings (size 3 to 8) (size 9 to 14) (size 15 to 20)
#    0.000    1.750    1.250    1.125    3.500    9.000 
#    0.000    6.250    0.000    0.000    0.000    0.000 
#    0.000    0.000    0.000    0.000    0.000    0.000 
#
# Total GULP energy -89249.258847 kJ/mol
# GULP energy per Si atom -5578.078678 kJ/mol
# Density = 2.244700 g / cm^3
# Si number density = 22.498207 Si / 1000 Ang^3
#
#
#
# Elastic Constant Matrix: (Units=GPa)
#
#
# Indices 1 2 3 4 5 6 
#
# 1 125.2591 55.2939 48.5602 9.6867 1.8758 -8.1287
# 2 55.2939 115.3303 32.6780 -9.6067 -18.5784 11.4291
# 3 48.5602 32.6780 62.7051 3.1346 -1.0568 -7.8004
# 4 9.6867 -9.6067 3.1346 22.3465 -1.6181 0.3859
# 5 1.8758 -18.5784 -1.0568 -1.6181 55.1782 4.1747
# 6 -8.1287 11.4291 -7.8004 0.3859 4.1747 51.7822
#
#
#
# Elastic Compliance Matrix: (Units=1/GPa)
#
#
# Indices 1 2 3 4 5 6 
#
# 1 0.014466 -0.006425 -0.007128 -0.008320 -0.003258 0.002940
# 2 -0.006425 0.015315 -0.004121 0.010479 0.006025 -0.005573
# 3 -0.007128 -0.004121 0.024147 -0.002203 -0.001014 0.003526
# 4 -0.008320 0.010479 -0.002203 0.053666 0.005707 -0.004811
# 5 -0.003258 0.006025 -0.001014 0.005707 0.020691 -0.003705
# 6 0.002940 -0.005573 0.003526 -0.004811 -0.003705 0.021869
#
#
# Mechanical properties :
#
#
# Convention : Reuss Voigt Hill
#
# Bulk Modulus (GPa) = 53.82157 64.03987 58.93072
# Shear Modulus (GPa) = 26.08325 36.97889 31.53107
#
# Velocity S-wave (km/s) = 3.40861 4.05858 3.74771
# Velocity P-wave (km/s) = 6.28220 7.10556 6.70653
#
# Compressibility (1/GPa) = 0.01857991
#
# Stress axis : x y z
#
# Youngs Moduli (GPa) = 69.12796 65.29718 41.41356
#
# Poissons Ratio (x) = 0.41954 0.29518
# Poissons Ratio (y) = 0.44416 0.17066
# Poissons Ratio (z) = 0.49272 0.26908
#
# Static dielectric constant tensor:
#      x y z
#    x 1.869730 -0.012500 0.010160 
#    y -0.012500 1.810100 -0.025270 
#    z 0.010160 -0.025270 1.908700 
# 
# From -- ./inp_files/107780.got.cif
#   From: 2010.05.17/outbox.cif.g08.bks.cpg/sg2_54_cif.got.tgz:107780.got - 2010.06.03 11:33:40.
