data_PCOD9011807
_publ_section_title
;
Structure prediction by ZEFSAII (Michael W. Deem and Ramdas Pophale) SiO2 
 PCOD9011807
Probable space group: P -1
;
_chemical_formula_sum "Si O2"
_cell_formula_units_Z 12
_cell_length_a 9.870393
_cell_length_b 8.601403
_cell_length_c 10.697259
_cell_angle_alpha 51.434733
_cell_angle_beta 40.976731
_cell_angle_gamma 59.722075
_cell_volume 464.660214
_symmetry_space_group_name_H-M "P -1"
_symmetry_group_IT_number 2
_symmetry_cell_setting 'triclinic'
loop_
_space_group_symop_operation_xyz
x,y,z
-x,-y,-z
loop_
_atom_site_type_symbol
_atom_site_label
_atom_site_fract_x
_atom_site_fract_y
_atom_site_fract_z
Si Si1 0.920591 0.561013 0.160414
Si Si2 0.411112 0.133313 0.696364
Si Si3 0.715087 0.875088 0.486478
Si Si4 0.324596 0.610212 0.951163
Si Si5 0.066794 0.803051 0.474706
Si Si6 0.584808 0.237089 0.936190
O O1 0.927875 0.383403 0.343890
O O2 0.692332 0.668331 0.270521
O O3 0.106897 0.693963 0.007382
O O4 0.000000 0.500000 0.000000
O O5 0.269568 0.112318 0.679818
O O6 0.636124 0.086804 0.499647
O O7 0.416917 0.967260 0.883589
O O8 0.522352 0.733046 0.714048
O O9 0.910493 0.794503 0.470130
O O10 0.376832 0.379158 0.990915
O O11 0.305096 0.627268 0.105778
O O12 0.291414 0.803897 0.254956
O O13 0.000000 0.000000 0.500000
#
# Coordination Sequence:
#
# PCOD9011807 Si02
#       6
#     2   2   2   2   2   2
#     4  12  26  42  63  93 129 166 208 260 313 368
#     4  10  22  40  67  97 125 160 210 261 307 366
#     4  10  23  43  68  95 124 164 210 257 309 370
#     4  10  22  43  68  93 123 165 211 255 310 372
#     4  12  26  43  63  91 130 170 207 253 315 376
#     4  10  21  40  67  94 125 164 208 256 309 372
#
# _framework density 25.825323000000001
#
# number of rings (size 3 to 8) (size 9 to 14) (size 15 to 20)
#    0.000    1.333    0.000    6.000    0.000   16.000 
#    0.000    8.333    0.000    0.000    0.000    0.000 
#    0.000    0.000    0.000    0.000    0.000    0.000 
#
# Total GULP energy -67069.461623 kJ/mol
# GULP energy per Si atom -5589.121802 kJ/mol
# Density = 2.576654 g / cm^3
# Si number density = 25.825323 Si / 1000 Ang^3
#
#
#
# Elastic Constant Matrix: (Units=GPa)
#
#
# Indices 1 2 3 4 5 6 
#
# 1 90.2030 11.9201 34.3295 -3.4420 10.9251 -13.2317
# 2 11.9201 140.9384 52.1304 26.8994 5.6144 -24.1490
# 3 34.3295 52.1304 128.8788 17.4997 25.2800 0.8718
# 4 -3.4420 26.8994 17.4997 48.7231 6.7175 7.5405
# 5 10.9251 5.6144 25.2800 6.7175 30.2408 2.5923
# 6 -13.2317 -24.1490 0.8718 7.5405 2.5923 34.5095
#
#
#
# Elastic Compliance Matrix: (Units=1/GPa)
#
#
# Indices 1 2 3 4 5 6 
#
# 1 0.013635 0.001189 -0.003759 0.001091 -0.002772 0.006125
# 2 0.001189 0.011520 -0.004521 -0.006432 0.001791 0.009902
# 3 -0.003759 -0.004521 0.012148 -0.000441 -0.007496 -0.004253
# 4 0.001091 -0.006432 -0.000441 0.026318 -0.003861 -0.009532
# 5 -0.002772 0.001791 -0.007496 -0.003861 0.041020 -0.001858
# 6 0.006125 0.009902 -0.004253 -0.009532 -0.001858 0.040585
#
#
# Mechanical properties :
#
#
# Convention : Reuss Voigt Hill
#
# Bulk Modulus (GPa) = 43.25169 61.86447 52.55808
# Shear Modulus (GPa) = 29.91939 40.13736 35.02837
#
# Velocity S-wave (km/s) = 3.40741 3.94659 3.68687
# Velocity P-wave (km/s) = 5.68021 6.69137 6.20641
#
# Compressibility (1/GPa) = 0.02312048
#
# Stress axis : x y z
#
# Youngs Moduli (GPa) = 73.33899 86.80549 82.31651
#
# Poissons Ratio (x) = -0.10317 0.30940
# Poissons Ratio (y) = -0.08717 0.37219
# Poissons Ratio (z) = 0.27566 0.39248
#
# Static dielectric constant tensor:
#      x y z
#    x 2.087350 0.022400 -0.015790 
#    y 0.022400 2.128740 -0.074600 
#    z -0.015790 -0.074600 2.032260 
# 
# From -- ./inp_files/411547.got.cif
#   From: 2010.05.17/outbox.cif.g08.bks.cpg/sg2_206_cif.got.tgz:411547.got - 2010.06.03 11:33:40.
