data_PCOD9011565
_publ_section_title
;
Structure prediction by ZEFSAII (Michael W. Deem and Ramdas Pophale) SiO2 
 PCOD9011565
Probable space group: P -1
;
_chemical_formula_sum "Si O2"
_cell_formula_units_Z 16
_cell_length_a 10.081255
_cell_length_b 8.194966
_cell_length_c 9.212309
_cell_angle_alpha 118.289849
_cell_angle_beta 92.722462
_cell_angle_gamma 80.439278
_cell_volume 660.441601
_symmetry_space_group_name_H-M "P -1"
_symmetry_group_IT_number 2
_symmetry_cell_setting 'triclinic'
loop_
_space_group_symop_operation_xyz
x,y,z
-x,-y,-z
loop_
_atom_site_type_symbol
_atom_site_label
_atom_site_fract_x
_atom_site_fract_y
_atom_site_fract_z
Si Si1 0.989361 0.715381 0.260526
Si Si2 0.300677 0.304051 0.752366
Si Si3 0.987092 0.731439 0.922754
Si Si4 0.233647 0.924284 0.985851
Si Si5 0.647358 0.387312 0.925172
Si Si6 0.422384 0.934319 0.726083
Si Si7 0.246655 0.703965 0.422903
Si Si8 0.625455 0.608858 0.525910
O O1 0.835016 0.776672 0.320347
O O2 0.018152 0.488025 0.186120
O O3 0.098592 0.789169 0.397612
O O4 0.000271 0.765803 0.112234
O O5 0.350668 0.378531 0.637554
O O6 0.411934 0.145270 0.759500
O O7 0.263300 0.469193 0.937217
O O8 0.116914 0.800091 0.884787
O O9 0.853608 0.868209 0.917586
O O10 0.347732 0.927994 0.872262
O O11 0.307912 0.810699 0.076691
O O12 0.674023 0.366081 0.748910
O O13 0.500000 0.500000 0.000000
O O14 0.329603 0.840395 0.568973
O O15 0.570474 0.812810 0.675341
O O16 0.250567 0.520107 0.446108
O O17 0.500000 0.500000 0.500000
#
# Coordination Sequence:
#
# PCOD9011565 Si02
#       8
#     2   2   2   2   2   2   2   2
#     4  11  21  42  67  96 134 170 221 279 324 385
#     4  12  24  45  70  94 130 185 216 267 343 395
#     4  10  21  40  66  95 133 175 219 268 326 399
#     4  11  21  41  69  95 129 184 217 256 342 392
#     4  12  23  42  70  98 130 174 229 275 320 387
#     4  11  24  44  67  96 137 176 218 266 337 405
#     4  11  24  42  64 100 136 172 221 280 324 381
#     4  10  23  45  66  91 133 177 216 267 340 401
#
# _framework density 24.226213000000001
#
# number of rings (size 3 to 8) (size 9 to 14) (size 15 to 20)
#    0.000    1.000    3.750    4.875    0.000    1.000 
#    4.500    1.250    0.000    0.000    0.000    0.000 
#    0.000    0.000    0.000    0.000    0.000    0.000 
#
# Total GULP energy -89586.807409 kJ/mol
# GULP energy per Si atom -5599.175463 kJ/mol
# Density = 2.417107 g / cm^3
# Si number density = 24.226213 Si / 1000 Ang^3
#
#
#
# Elastic Constant Matrix: (Units=GPa)
#
#
# Indices 1 2 3 4 5 6 
#
# 1 76.9221 1.2495 1.6251 -4.2308 7.5285 -17.1924
# 2 1.2495 166.0110 36.6357 -3.2347 1.7238 -19.6942
# 3 1.6251 36.6357 33.1225 -13.4339 -8.7570 14.6345
# 4 -4.2308 -3.2347 -13.4339 38.0391 4.0185 -8.9521
# 5 7.5285 1.7238 -8.7570 4.0185 32.6585 -5.8590
# 6 -17.1924 -19.6942 14.6345 -8.9521 -5.8590 39.2036
#
#
#
# Elastic Compliance Matrix: (Units=1/GPa)
#
#
# Indices 1 2 3 4 5 6 
#
# 1 0.016884 0.004349 -0.012453 0.001655 -0.005181 0.013842
# 2 0.004349 0.013428 -0.024811 -0.002709 -0.005064 0.016540
# 3 -0.012453 -0.024811 0.089195 0.015507 0.018121 -0.044972
# 4 0.001655 -0.002709 0.015507 0.031911 0.000152 0.000885
# 5 -0.005181 -0.005064 0.018121 0.000152 0.035811 -0.006194
# 6 0.013842 0.016540 -0.044972 0.000885 -0.006194 0.055951
#
#
# Mechanical properties :
#
#
# Convention : Reuss Voigt Hill
#
# Bulk Modulus (GPa) = 18.62991 39.45289 29.04140
# Shear Modulus (GPa) = 15.29500 37.74993 26.52246
#
# Velocity S-wave (km/s) = 2.51538 3.95172 3.31234
# Velocity P-wave (km/s) = 4.01781 6.09443 5.16163
#
# Compressibility (1/GPa) = 0.05367713
#
# Stress axis : x y z
#
# Youngs Moduli (GPa) = 59.22626 74.46965 11.21135
#
# Poissons Ratio (x) = -0.32389 0.13962
# Poissons Ratio (y) = -0.25759 0.27817
# Poissons Ratio (z) = 0.73757 1.84769
#
# Static dielectric constant tensor:
#      x y z
#    x 1.993370 0.002620 0.050940 
#    y 0.002620 1.969310 0.051390 
#    z 0.050940 0.051390 1.883510 
# 
# From -- ./inp_files/245058.got.cif
#   From: 2010.05.17/outbox.cif.g08.bks.cpg/sg2_123_cif.got.tgz:245058.got - 2010.06.03 11:33:40.
