data_PCOD9011676
_publ_section_title
;
Structure prediction by ZEFSAII (Michael W. Deem and Ramdas Pophale) SiO2 
 PCOD9011676
Probable space group: P -1
;
_chemical_formula_sum "Si O2"
_cell_formula_units_Z 16
_cell_length_a 15.563578
_cell_length_b 9.800335
_cell_length_c 7.840167
_cell_angle_alpha 86.625813
_cell_angle_beta 74.523840
_cell_angle_gamma 37.701803
_cell_volume 680.878710
_symmetry_space_group_name_H-M "P -1"
_symmetry_group_IT_number 2
_symmetry_cell_setting 'triclinic'
loop_
_space_group_symop_operation_xyz
x,y,z
-x,-y,-z
loop_
_atom_site_type_symbol
_atom_site_label
_atom_site_fract_x
_atom_site_fract_y
_atom_site_fract_z
Si Si1 0.870275 0.257362 0.774909
Si Si2 0.698334 0.542971 0.310911
Si Si3 0.071351 0.367416 0.197403
Si Si4 0.363292 0.137228 0.938754
Si Si5 0.913540 0.810435 0.158673
Si Si6 0.020144 0.153851 0.350235
Si Si7 0.444491 0.335092 0.253794
Si Si8 0.610256 0.360173 0.287783
O O1 0.700648 0.509337 0.799753
O O2 0.954452 0.239608 0.876866
O O3 0.975368 0.162005 0.562403
O O4 0.876119 0.084970 0.784153
O O5 0.659859 0.719884 0.202771
O O6 0.603337 0.643555 0.528832
O O7 0.668970 0.441097 0.226117
O O8 0.866163 0.344952 0.310081
O O9 0.081432 0.231044 0.332112
O O10 0.936825 0.642483 0.269739
O O11 0.214981 0.286966 0.112956
O O12 0.066754 0.283893 0.030515
O O13 0.414799 0.933087 0.841164
O O14 0.500000 0.000000 0.000000
O O15 0.757643 0.082374 0.252374
O O16 0.503272 0.417613 0.204650
O O17 0.500000 0.500000 0.500000
#
# Coordination Sequence:
#
# PCOD9011676 Si02
#       8
#     2   2   2   2   2   2   2   2
#     4  10  22  42  68  98 131 167 227 279 309 379
#     4  10  21  42  69  93 123 176 224 267 326 383
#     4  11  25  42  63  96 133 177 215 263 333 397
#     4  12  25  45  61  95 139 171 218 269 327 397
#     4  11  21  43  66  95 132 173 220 265 318 396
#     4  10  22  41  67  98 130 168 224 272 324 382
#     4  10  22  42  66  96 132 173 215 274 328 378
#     4  10  21  40  67 100 126 172 223 270 323 382
#
# _framework density 23.499046
#
# number of rings (size 3 to 8) (size 9 to 14) (size 15 to 20)
#    0.000    1.500    2.500    2.625    1.750    2.000 
#    9.000    1.250    0.000    0.000    0.000    0.000 
#    0.000    0.000    0.000    0.000    0.000    0.000 
#
# Total GULP energy -89408.666197 kJ/mol
# GULP energy per Si atom -5588.041637 kJ/mol
# Density = 2.344556 g / cm^3
# Si number density = 23.499046 Si / 1000 Ang^3
#
#
#
# Elastic Constant Matrix: (Units=GPa)
#
#
# Indices 1 2 3 4 5 6 
#
# 1 98.7442 -22.7616 -2.4332 -2.5850 8.5371 -13.8109
# 2 -22.7616 41.1469 -1.4031 20.9917 5.1416 -2.8480
# 3 -2.4332 -1.4031 41.4009 1.3935 7.8275 -6.9598
# 4 -2.5850 20.9917 1.3935 34.8857 0.4566 1.4947
# 5 8.5371 5.1416 7.8275 0.4566 30.2056 -2.1456
# 6 -13.8109 -2.8480 -6.9598 1.4947 -2.1456 29.9531
#
#
#
# Elastic Compliance Matrix: (Units=1/GPa)
#
#
# Indices 1 2 3 4 5 6 
#
# 1 0.015191 0.014082 0.004534 -0.007834 -0.007088 0.009280
# 2 0.014082 0.050272 0.008363 -0.029957 -0.013274 0.013760
# 3 0.004534 0.008363 0.028188 -0.006089 -0.009273 0.009075
# 4 -0.007834 -0.029957 -0.006089 0.046669 0.007499 -0.009667
# 5 -0.007088 -0.013274 -0.009273 0.007499 0.039358 -0.004240
# 6 0.009280 0.013760 0.009075 -0.009667 -0.004240 0.041260
#
#
# Mechanical properties :
#
#
# Convention : Reuss Voigt Hill
#
# Bulk Modulus (GPa) = 6.77468 14.23291 10.50380
# Shear Modulus (GPa) = 23.12856 32.86820 27.99838
#
# Velocity S-wave (km/s) = 3.14065 3.74398 3.45551
# Velocity P-wave (km/s) = 4.00510 4.97592 4.51667
#
# Compressibility (1/GPa) = 0.14760840
#
# Stress axis : x y z
#
# Youngs Moduli (GPa) = 65.82983 19.89164 35.47655
#
# Poissons Ratio (x) = -0.28012 -0.16084
# Poissons Ratio (y) = -0.92704 -0.29668
# Poissons Ratio (z) = -0.29846 -0.16635
#
# Static dielectric constant tensor:
#      x y z
#    x 1.928920 0.058540 -0.009510 
#    y 0.058540 1.896340 -0.020280 
#    z -0.009510 -0.020280 1.978620 
# 
# From -- ./inp_files/298521.got.cif
#   From: 2010.05.17/outbox.cif.g08.bks.cpg/sg2_150_cif.got.tgz:298521.got - 2010.06.03 11:33:40.
