data_PCOD9011495
_publ_section_title
;
Structure prediction by ZEFSAII (Michael W. Deem and Ramdas Pophale) SiO2 
 PCOD9011495
Probable space group: P -1
;
_chemical_formula_sum "Si O2"
_cell_formula_units_Z 12
_cell_length_a 7.639647
_cell_length_b 5.382961
_cell_length_c 12.571058
_cell_angle_alpha 89.742238
_cell_angle_beta 112.517873
_cell_angle_gamma 104.790887
_cell_volume 459.208444
_symmetry_space_group_name_H-M "P -1"
_symmetry_group_IT_number 2
_symmetry_cell_setting 'triclinic'
loop_
_space_group_symop_operation_xyz
x,y,z
-x,-y,-z
loop_
_atom_site_type_symbol
_atom_site_label
_atom_site_fract_x
_atom_site_fract_y
_atom_site_fract_z
Si Si1 0.721243 0.850707 0.358027
Si Si2 0.087846 0.702921 0.181958
Si Si3 0.255477 0.967377 0.017269
Si Si4 0.146191 0.742504 0.769921
Si Si5 0.395659 0.521466 0.142412
Si Si6 0.847300 0.965492 0.607710
O O1 0.574944 0.614767 0.265379
O O2 0.695709 0.882660 0.477160
O O3 0.711251 0.108129 0.289957
O O4 0.948890 0.843792 0.394555
O O5 0.203605 0.499952 0.170751
O O6 0.881857 0.534069 0.181850
O O7 0.201431 0.894573 0.299397
O O8 0.906677 0.146676 0.927246
O O9 0.387925 0.764190 0.065251
O O10 0.371079 0.255950 0.076741
O O11 0.182395 0.933245 0.879543
O O12 0.935191 0.733326 0.666707
#
# Coordination Sequence:
#
# PCOD9011495 Si02
#       6
#     2   2   2   2   2   2
#     4   9  22  44  64  92 131 170 218 263 318 382
#     4  10  22  38  67  98 125 170 215 263 321 374
#     4  10  24  40  68  97 132 165 214 261 328 376
#     4  10  21  40  66  93 129 167 220 258 318 384
#     4  10  24  43  63 100 132 165 210 268 326 374
#     4   9  21  42  65  93 123 176 216 262 315 380
#
# _framework density 26.131923
#
# number of rings (size 3 to 8) (size 9 to 14) (size 15 to 20)
#    2.000    0.333    0.000    1.500    2.333    5.333 
#    3.000    1.667    0.000    0.000    0.000    0.000 
#    0.000    0.000    0.000    0.000    0.000    0.000 
#
# Total GULP energy -66950.486039 kJ/mol
# GULP energy per Si atom -5579.207170 kJ/mol
# Density = 2.607245 g / cm^3
# Si number density = 26.131923 Si / 1000 Ang^3
#
#
#
# Elastic Constant Matrix: (Units=GPa)
#
#
# Indices 1 2 3 4 5 6 
#
# 1 25.9665 12.8825 33.1671 -2.4739 -6.1908 11.5038
# 2 12.8825 144.2941 68.2545 5.0086 6.9977 11.4341
# 3 33.1671 68.2545 209.6993 -19.2822 1.3272 4.6730
# 4 -2.4739 5.0086 -19.2822 35.2202 5.7230 -5.4640
# 5 -6.1908 6.9977 1.3272 5.7230 40.9133 4.2633
# 6 11.5038 11.4341 4.6730 -5.4640 4.2633 21.1567
#
#
#
# Elastic Compliance Matrix: (Units=1/GPa)
#
#
# Indices 1 2 3 4 5 6 
#
# 1 0.079610 0.002795 -0.013725 -0.012987 0.018929 -0.048935
# 2 0.002795 0.009062 -0.003627 -0.004170 0.000277 -0.006749
# 3 -0.013725 -0.003627 0.008505 0.006340 -0.003653 0.009918
# 4 -0.012987 -0.004170 0.006340 0.035844 -0.008438 0.018872
# 5 0.018929 0.000277 -0.003653 -0.008438 0.030428 -0.017946
# 6 -0.048935 -0.006749 0.009918 0.018872 -0.017946 0.083822
#
#
# Mechanical properties :
#
#
# Convention : Reuss Voigt Hill
#
# Bulk Modulus (GPa) = 14.69182 67.61871 41.15526
# Shear Modulus (GPa) = 16.71838 37.16843 26.94341
#
# Velocity S-wave (km/s) = 2.53211 3.77548 3.21449
# Velocity P-wave (km/s) = 3.76605 6.70356 5.43695
#
# Compressibility (1/GPa) = 0.06806510
#
# Stress axis : x y z
#
# Youngs Moduli (GPa) = 12.56117 110.34713 117.57763
#
# Poissons Ratio (x) = -0.30843 1.61374
# Poissons Ratio (y) = -0.03511 0.42640
# Poissons Ratio (z) = 0.17240 0.40018
#
# Static dielectric constant tensor:
#      x y z
#    x 2.200620 -0.063550 0.008570 
#    y -0.063550 2.090540 -0.008950 
#    z 0.008570 -0.008950 1.980100 
# 
# From -- ./inp_files/92449.got.cif
#   From: 2010.05.17/outbox.cif.g08.bks.cpg/sg2_47_cif.got.tgz:92449.got - 2010.06.03 11:33:40.
