data_PCOD9011339
_publ_section_title
;
Structure prediction by ZEFSAII (Michael W. Deem and Ramdas Pophale) SiO2 
 PCOD9011339
Probable space group: P -1
;
_chemical_formula_sum "Si O2"
_cell_formula_units_Z 14
_cell_length_a 11.400830
_cell_length_b 5.822679
_cell_length_c 10.401863
_cell_angle_alpha 63.777646
_cell_angle_beta 109.328558
_cell_angle_gamma 77.844986
_cell_volume 530.072635
_symmetry_space_group_name_H-M "P -1"
_symmetry_group_IT_number 2
_symmetry_cell_setting 'triclinic'
loop_
_space_group_symop_operation_xyz
x,y,z
-x,-y,-z
loop_
_atom_site_type_symbol
_atom_site_label
_atom_site_fract_x
_atom_site_fract_y
_atom_site_fract_z
Si Si1 0.152709 0.183123 0.324422
Si Si2 0.738167 0.376654 0.794397
Si Si3 0.877513 0.792264 0.410655
Si Si4 0.312241 0.073259 0.011681
Si Si5 0.558832 0.228719 0.427403
Si Si6 0.860576 0.337183 0.122088
Si Si7 0.408275 0.950986 0.797054
O O1 0.188904 0.453129 0.292905
O O2 0.106324 0.121398 0.461153
O O3 0.018279 0.271266 0.168842
O O4 0.292762 0.904549 0.417412
O O5 0.578511 0.492655 0.667520
O O6 0.779245 0.046666 0.910916
O O7 0.767969 0.445552 0.934684
O O8 0.730391 0.775350 0.352441
O O9 0.000000 0.500000 0.500000
O O10 0.866173 0.044470 0.250115
O O11 0.446709 0.039574 0.146619
O O12 0.214798 0.402242 0.872064
O O13 0.378658 0.898867 0.947474
O O14 0.500000 0.000000 0.500000
O O15 0.585349 0.234357 0.281126
#
# Coordination Sequence:
#
# PCOD9011339 Si02
#       7
#     2   2   2   2   2   2   2
#     4  10  24  42  67  98 137 179 215 277 343 390
#     4  11  23  45  68  99 138 172 229 278 323 410
#     4  11  24  45  68  98 133 175 228 278 335 403
#     4  11  24  39  69 104 131 172 228 278 334 389
#     4   9  20  42  67  93 135 176 220 272 330 394
#     4  12  24  44  71  97 136 177 227 277 331 402
#     4  10  21  40  65  99 131 173 223 274 329 390
#
# _framework density 26.411477000000001
#
# number of rings (size 3 to 8) (size 9 to 14) (size 15 to 20)
#    0.000    1.429    2.857    1.714    0.000    7.429 
#    2.571    6.429    3.143    0.000    0.000    0.000 
#    0.000    0.000    0.000    0.000    0.000    0.000 
#
# Total GULP energy -78090.972961 kJ/mol
# GULP energy per Si atom -5577.926640 kJ/mol
# Density = 2.635136 g / cm^3
# Si number density = 26.411477 Si / 1000 Ang^3
#
#
#
# Elastic Constant Matrix: (Units=GPa)
#
#
# Indices 1 2 3 4 5 6 
#
# 1 135.9121 43.5036 46.7016 -17.7078 28.3781 3.5469
# 2 43.5036 49.7920 26.3087 -18.8910 4.8845 -10.4827
# 3 46.7016 26.3087 116.7454 -11.5978 2.0705 5.5769
# 4 -17.7078 -18.8910 -11.5978 49.1043 -3.7492 -4.2186
# 5 28.3781 4.8845 2.0705 -3.7492 53.9956 1.9779
# 6 3.5469 -10.4827 5.5769 -4.2186 1.9779 34.6544
#
#
#
# Elastic Compliance Matrix: (Units=1/GPa)
#
#
# Indices 1 2 3 4 5 6 
#
# 1 0.012679 -0.010247 -0.002557 -0.000720 -0.005551 -0.003757
# 2 -0.010247 0.038472 -0.004163 0.011557 0.002331 0.014630
# 3 -0.002557 -0.004163 0.010621 -0.000149 0.001405 -0.002805
# 4 -0.000720 0.011557 -0.000149 0.025148 0.000843 0.006607
# 5 -0.005551 0.002331 0.001405 0.000843 0.021234 -0.000062
# 6 -0.003757 0.014630 -0.002805 0.006607 -0.000062 0.034925
#
#
# Mechanical properties :
#
#
# Convention : Reuss Voigt Hill
#
# Bulk Modulus (GPa) = 35.92003 59.49748 47.70876
# Shear Modulus (GPa) = 26.83974 39.94656 33.39315
#
# Velocity S-wave (km/s) = 3.19127 3.89327 3.55962
# Velocity P-wave (km/s) = 5.21619 6.54111 5.91586
#
# Compressibility (1/GPa) = 0.02783962
#
# Stress axis : x y z
#
# Youngs Moduli (GPa) = 78.86854 25.99317 94.15518
#
# Poissons Ratio (x) = 0.26634 0.24072
# Poissons Ratio (y) = 0.80814 0.39194
# Poissons Ratio (z) = 0.20164 0.10820
#
# Static dielectric constant tensor:
#      x y z
#    x 2.064550 0.025430 -0.000790 
#    y 0.025430 2.150760 0.039340 
#    z -0.000790 0.039340 2.086340 
# 
# From -- ./inp_files/68373.got.cif
#   From: 2010.05.17/outbox.cif.g08.bks.cpg/sg2_35_cif.got.tgz:68373.got - 2010.06.03 11:33:40.
