data_PCOD9011502
_publ_section_title
;
Structure prediction by ZEFSAII (Michael W. Deem and Ramdas Pophale) SiO2 
 PCOD9011502
Probable space group: P -1
;
_chemical_formula_sum "Si O2"
_cell_formula_units_Z 14
_cell_length_a 9.619832
_cell_length_b 17.929815
_cell_length_c 25.024074
_cell_angle_alpha 161.747908
_cell_angle_beta 29.997546
_cell_angle_gamma 148.699421
_cell_volume 661.618184
_symmetry_space_group_name_H-M "P -1"
_symmetry_group_IT_number 2
_symmetry_cell_setting 'triclinic'
loop_
_space_group_symop_operation_xyz
x,y,z
-x,-y,-z
loop_
_atom_site_type_symbol
_atom_site_label
_atom_site_fract_x
_atom_site_fract_y
_atom_site_fract_z
Si Si1 0.770940 0.746690 0.402740
Si Si2 0.315718 0.287756 0.987197
Si Si3 0.471259 0.181190 0.356997
Si Si4 0.884931 0.658811 0.021622
Si Si5 0.968680 0.710512 0.812748
Si Si6 0.467030 0.697284 0.363005
Si Si7 0.052780 0.039622 0.692285
O O1 0.632616 0.698864 0.474388
O O2 0.542351 0.759403 0.441409
O O3 0.933142 0.538906 0.189023
O O4 0.000000 0.000000 0.500000
O O5 0.574972 0.514690 0.046196
O O6 0.441075 0.065950 0.818235
O O7 0.169400 0.212821 0.928217
O O8 0.101473 0.365401 0.154304
O O9 0.745330 0.334981 0.340436
O O10 0.216642 0.099198 0.344715
O O11 0.020116 0.827095 0.139542
O O12 0.696425 0.577567 0.779366
O O13 0.000000 0.000000 0.000000
O O14 0.252691 0.857820 0.520712
O O15 0.755820 0.767570 0.280441
#
# Coordination Sequence:
#
# PCOD9011502 Si02
#       7
#     2   2   2   2   2   2   2
#     4  12  24  40  66 102 134 171 223 281 329 386
#     4  10  21  40  66  93 131 172 220 269 331 383
#     4  11  24  44  67  96 136 176 217 271 336 398
#     4  11  23  37  69 100 132 167 222 281 329 379
#     4  10  24  43  69  95 137 181 219 265 340 400
#     4  11  24  42  69  97 139 170 227 275 329 394
#     4  11  24  40  70 104 127 173 228 278 330 386
#
# _framework density 21.160242
#
# number of rings (size 3 to 8) (size 9 to 14) (size 15 to 20)
#    0.000    1.143    4.286    0.857    8.000    2.286 
#    0.000    0.714    0.000    0.000    0.000    0.000 
#    0.000    0.000    0.000    0.000    0.000    0.000 
#
# Total GULP energy -78313.000207 kJ/mol
# GULP energy per Si atom -5593.785729 kJ/mol
# Density = 2.111208 g / cm^3
# Si number density = 21.160242 Si / 1000 Ang^3
#
#
#
# Elastic Constant Matrix: (Units=GPa)
#
#
# Indices 1 2 3 4 5 6 
#
# 1 164.7831 46.2800 38.7265 -11.2424 26.8850 3.8605
# 2 46.2800 108.1295 19.3697 -23.5768 19.7135 -0.6092
# 3 38.7265 19.3697 70.7452 -10.3984 22.3326 -11.5989
# 4 -11.2424 -23.5768 -10.3984 39.2095 -7.2076 16.3026
# 5 26.8850 19.7135 22.3326 -7.2076 44.3438 -3.8136
# 6 3.8605 -0.6092 -11.5989 16.3026 -3.8136 25.3262
#
#
#
# Elastic Compliance Matrix: (Units=1/GPa)
#
#
# Indices 1 2 3 4 5 6 
#
# 1 0.008073 -0.002112 -0.003602 0.001410 -0.002272 -0.004181
# 2 -0.002112 0.012743 -0.001101 0.008682 -0.002927 -0.005905
# 3 -0.003602 -0.001101 0.019892 -0.001703 -0.006787 0.009707
# 4 0.001410 0.008682 -0.001703 0.042439 0.000632 -0.028009
# 5 -0.002272 -0.002927 -0.006787 0.000632 0.028845 0.001104
# 6 -0.004181 -0.005905 0.009707 -0.028009 0.001104 0.062622
#
#
# Mechanical properties :
#
#
# Convention : Reuss Voigt Hill
#
# Bulk Modulus (GPa) = 36.93035 61.37890 49.15462
# Shear Modulus (GPa) = 25.34603 37.72801 31.53702
#
# Velocity S-wave (km/s) = 3.46470 4.22710 3.86475
# Velocity P-wave (km/s) = 5.78758 7.27284 6.57230
#
# Compressibility (1/GPa) = 0.02707800
#
# Stress axis : x y z
#
# Youngs Moduli (GPa) = 123.86798 78.47695 50.27119
#
# Poissons Ratio (x) = 0.16574 0.18108
# Poissons Ratio (y) = 0.26160 0.05535
# Poissons Ratio (z) = 0.44618 0.08640
#
# Static dielectric constant tensor:
#      x y z
#    x 1.756860 -0.023850 -0.019700 
#    y -0.023850 1.755060 -0.011480 
#    z -0.019700 -0.011480 1.795640 
# 
# From -- ./inp_files/158980.got.cif
#   From: 2010.05.17/outbox.cif.g08.bks.cpg/sg2_80_cif.got.tgz:158980.got - 2010.06.03 11:33:40.
