data_PCOD9011647
_publ_section_title
;
Structure prediction by ZEFSAII (Michael W. Deem and Ramdas Pophale) SiO2 
 PCOD9011647
Probable space group: P -1
;
_chemical_formula_sum "Si O2"
_cell_formula_units_Z 14
_cell_length_a 14.421076
_cell_length_b 11.583129
_cell_length_c 16.620484
_cell_angle_alpha 157.465529
_cell_angle_beta 148.967648
_cell_angle_gamma 31.909565
_cell_volume 524.824234
_symmetry_space_group_name_H-M "P -1"
_symmetry_group_IT_number 2
_symmetry_cell_setting 'triclinic'
loop_
_space_group_symop_operation_xyz
x,y,z
-x,-y,-z
loop_
_atom_site_type_symbol
_atom_site_label
_atom_site_fract_x
_atom_site_fract_y
_atom_site_fract_z
Si Si1 0.814754 0.399291 0.315585
Si Si2 0.581523 0.471515 0.851995
Si Si3 0.007771 0.217107 0.028897
Si Si4 0.184550 0.691260 0.388894
Si Si5 0.973799 0.710900 0.447436
Si Si6 0.487009 0.500703 0.619867
Si Si7 0.439667 0.202067 0.793575
O O1 0.603462 0.620365 0.313561
O O2 0.000000 0.500000 0.500000
O O3 0.870926 0.253293 0.352714
O O4 0.839964 0.111899 0.087557
O O5 0.542836 0.579173 0.800648
O O6 0.789681 0.229492 0.860888
O O7 0.579603 0.750554 0.093447
O O8 0.021282 0.365117 0.221326
O O9 0.056474 0.463708 0.162841
O O10 0.453780 0.153384 0.378113
O O11 0.305967 0.701880 0.566277
O O12 0.337707 0.542491 0.337781
O O13 0.069540 0.026255 0.484302
O O14 0.771197 0.760685 0.370550
O O15 0.500000 0.500000 0.000000
#
# Coordination Sequence:
#
# PCOD9011647 Si02
#       7
#     2   2   2   2   2   2   2
#     4  12  27  45  68 101 134 171 228 282 334 409
#     4  11  25  42  68 101 128 174 227 269 336 404
#     4  11  24  44  68  97 136 177 219 279 342 395
#     4  10  21  43  68  95 138 182 224 278 338 402
#     4  10  23  42  65  94 132 179 220 271 341 400
#     4  10  22  41  66  99 138 177 225 282 333 396
#     4  10  21  40  66  98 134 174 225 277 333 401
#
# _framework density 26.675598000000001
#
# number of rings (size 3 to 8) (size 9 to 14) (size 15 to 20)
#    0.000    1.429    0.000    4.714    0.000    7.429 
#    0.000   18.571    0.000    0.000    0.000    0.000 
#    0.000    0.000    0.000    0.000    0.000    0.000 
#
# Total GULP energy -78382.816310 kJ/mol
# GULP energy per Si atom -5598.772594 kJ/mol
# Density = 2.661488 g / cm^3
# Si number density = 26.675598 Si / 1000 Ang^3
#
#
#
# Elastic Constant Matrix: (Units=GPa)
#
#
# Indices 1 2 3 4 5 6 
#
# 1 112.9024 33.0090 31.8262 -24.1346 -2.5553 -9.4488
# 2 33.0090 111.7230 30.4318 -17.3522 6.6168 -11.5446
# 3 31.8262 30.4318 81.6015 -16.4469 3.9190 -5.4928
# 4 -24.1346 -17.3522 -16.4469 45.9834 5.3034 12.2117
# 5 -2.5553 6.6168 3.9190 5.3034 77.2578 -12.9906
# 6 -9.4488 -11.5446 -5.4928 12.2117 -12.9906 43.1250
#
#
#
# Elastic Compliance Matrix: (Units=1/GPa)
#
#
# Indices 1 2 3 4 5 6 
#
# 1 0.011095 -0.001870 -0.002830 0.003881 0.000509 0.000624
# 2 -0.001870 0.010725 -0.002782 0.001788 -0.000730 0.001381
# 3 -0.002830 -0.002782 0.015026 0.003110 -0.000934 -0.000613
# 4 0.003881 0.001788 0.003110 0.027851 -0.003297 -0.007155
# 5 0.000509 -0.000730 -0.000934 -0.003297 0.014136 0.004989
# 6 0.000624 0.001381 -0.000613 -0.007155 0.004989 0.027146
#
#
# Mechanical properties :
#
#
# Convention : Reuss Voigt Hill
#
# Bulk Modulus (GPa) = 45.69985 55.19565 50.44775
# Shear Modulus (GPa) = 38.99041 47.33724 43.16383
#
# Velocity S-wave (km/s) = 3.82730 4.21711 4.02693
# Velocity P-wave (km/s) = 6.05804 6.66696 6.36978
#
# Compressibility (1/GPa) = 0.02188191
#
# Stress axis : x y z
#
# Youngs Moduli (GPa) = 90.12968 93.24395 66.55000
#
# Poissons Ratio (x) = 0.17438 0.18835
# Poissons Ratio (y) = 0.16855 0.18513
# Poissons Ratio (z) = 0.25508 0.25938
#
# Static dielectric constant tensor:
#      x y z
#    x 2.235180 0.062230 -0.008820 
#    y 0.062230 2.081530 -0.028910 
#    z -0.008820 -0.028910 2.166670 
# 
# From -- ./inp_files/493316.got.cif
#   From: 2010.05.17/outbox.cif.g08.bks.cpg/sg2_247_cif.got.tgz:493316.got - 2010.06.03 11:33:40.
