data_PCOD9011380
_publ_section_title
;
Structure prediction by ZEFSAII (Michael W. Deem and Ramdas Pophale) SiO2 
 PCOD9011380
Probable space group: P -1
;
_chemical_formula_sum "Si O2"
_cell_formula_units_Z 16
_cell_length_a 11.920875
_cell_length_b 15.674692
_cell_length_c 15.438519
_cell_angle_alpha 151.197069
_cell_angle_beta 68.231978
_cell_angle_gamma 132.601971
_cell_volume 797.101241
_symmetry_space_group_name_H-M "P -1"
_symmetry_group_IT_number 2
_symmetry_cell_setting 'triclinic'
loop_
_space_group_symop_operation_xyz
x,y,z
-x,-y,-z
loop_
_atom_site_type_symbol
_atom_site_label
_atom_site_fract_x
_atom_site_fract_y
_atom_site_fract_z
Si Si1 0.047527 0.253768 0.798488
Si Si2 0.949926 0.691451 0.874003
Si Si3 0.970265 0.937928 0.686195
Si Si4 0.533270 0.445733 0.037936
Si Si5 0.783510 0.173100 0.692383
Si Si6 0.219247 0.875731 0.543371
Si Si7 0.425633 0.593705 0.354727
Si Si8 0.326543 0.335308 0.337637
O O1 0.934312 0.187505 0.685886
O O2 0.248435 0.373637 0.845336
O O3 0.106397 0.513461 0.051898
O O4 0.906587 0.970128 0.646816
O O5 0.911549 0.443355 0.680952
O O6 0.788442 0.570853 0.745821
O O7 0.907850 0.765493 0.036541
O O8 0.174215 0.999143 0.062404
O O9 0.814755 0.706886 0.599195
O O10 0.090568 0.903841 0.601277
O O11 0.390164 0.111900 0.772475
O O12 0.500000 0.500000 0.000000
O O13 0.468150 0.497322 0.181352
O O14 0.701262 0.063186 0.521555
O O15 0.600812 0.936559 0.598224
O O16 0.414318 0.504312 0.374194
O O17 0.500000 0.500000 0.500000
#
# Coordination Sequence:
#
# PCOD9011380 Si02
#       8
#     2   2   2   2   2   2   2   2
#     4  11  22  41  57  96 133 167 211 264 319 383
#     4  10  23  41  65  91 127 165 212 265 311 378
#     4  10  21  40  66  85 127 162 211 260 308 376
#     4  12  22  38  62  95 130 163 214 256 314 383
#     4  11  24  35  64  93 132 169 209 263 324 380
#     4  12  22  40  66  97 122 173 210 262 322 370
#     4  12  22  41  63  95 126 172 210 261 324 373
#     4  10  23  43  67  89 126 171 209 268 320 371
#
# _framework density 20.072731999999998
#
# number of rings (size 3 to 8) (size 9 to 14) (size 15 to 20)
#    0.750    0.250    5.000    1.875    0.000    4.000 
#    0.000    4.375    0.000    0.000    0.000    0.000 
#    0.000    0.000    0.000    0.000    0.000    0.000 
#
# Total GULP energy -89147.727709 kJ/mol
# GULP energy per Si atom -5571.732982 kJ/mol
# Density = 2.002705 g / cm^3
# Si number density = 20.072732 Si / 1000 Ang^3
#
#
#
# Elastic Constant Matrix: (Units=GPa)
#
#
# Indices 1 2 3 4 5 6 
#
# 1 101.2238 30.5089 30.8657 4.3249 2.3896 -9.7476
# 2 30.5089 110.6596 22.3360 11.0291 -4.9226 -13.6010
# 3 30.8657 22.3360 58.2403 6.8265 -7.3713 1.8519
# 4 4.3249 11.0291 6.8265 27.3328 3.0148 4.2054
# 5 2.3896 -4.9226 -7.3713 3.0148 32.8263 1.2757
# 6 -9.7476 -13.6010 1.8519 4.2054 1.2757 23.6647
#
#
#
# Elastic Compliance Matrix: (Units=1/GPa)
#
#
# Indices 1 2 3 4 5 6 
#
# 1 0.013021 -0.001716 -0.006756 -0.000143 -0.002907 0.005088
# 2 -0.001716 0.011507 -0.002985 -0.004841 0.001356 0.006927
# 3 -0.006756 -0.002985 0.023198 -0.003228 0.005785 -0.006052
# 4 -0.000143 -0.004841 -0.003228 0.041395 -0.004866 -0.009683
# 5 -0.002907 0.001356 0.005785 -0.004866 0.032693 -0.001769
# 6 0.005088 0.006927 -0.006052 -0.009683 -0.001769 0.050624
#
#
# Mechanical properties :
#
#
# Convention : Reuss Voigt Hill
#
# Bulk Modulus (GPa) = 40.30141 48.61611 44.45876
# Shear Modulus (GPa) = 24.55548 29.19230 26.87389
#
# Velocity S-wave (km/s) = 3.50140 3.81770 3.66297
# Velocity P-wave (km/s) = 6.03885 6.61103 6.33140
#
# Compressibility (1/GPa) = 0.02481303
#
# Stress axis : x y z
#
# Youngs Moduli (GPa) = 76.79948 86.90727 43.10696
#
# Poissons Ratio (x) = 0.14914 0.29121
# Poissons Ratio (y) = 0.13179 0.12866
# Poissons Ratio (z) = 0.51882 0.25939
#
# Static dielectric constant tensor:
#      x y z
#    x 1.769580 0.045860 0.052320 
#    y 0.045860 1.833200 0.067000 
#    z 0.052320 0.067000 1.770450 
# 
# From -- ./inp_files/522638.got.cif
#   From: 2010.05.17/outbox.cif.g08.bks.cpg/sg2_262_cif.got.tgz:522638.got - 2010.06.03 11:33:40.
