data_PCOD9011545
_publ_section_title
;
Structure prediction by ZEFSAII (Michael W. Deem and Ramdas Pophale) SiO2 
 PCOD9011545
Probable space group: P -1
;
_chemical_formula_sum "Si O2"
_cell_formula_units_Z 16
_cell_length_a 7.289532
_cell_length_b 9.896485
_cell_length_c 16.647069
_cell_angle_alpha 120.007491
_cell_angle_beta 42.311366
_cell_angle_gamma 98.675705
_cell_volume 648.780294
_symmetry_space_group_name_H-M "P -1"
_symmetry_group_IT_number 2
_symmetry_cell_setting 'triclinic'
loop_
_space_group_symop_operation_xyz
x,y,z
-x,-y,-z
loop_
_atom_site_type_symbol
_atom_site_label
_atom_site_fract_x
_atom_site_fract_y
_atom_site_fract_z
Si Si1 0.380900 0.949513 0.439539
Si Si2 0.505366 0.626716 0.379855
Si Si3 0.866745 0.284741 0.110160
Si Si4 0.991265 0.327086 0.670856
Si Si5 0.990814 0.416496 0.393776
Si Si6 0.474678 0.218600 0.824137
Si Si7 0.695738 0.967180 0.816753
Si Si8 0.071233 0.046028 0.106179
O O1 0.295222 0.795930 0.454280
O O2 0.562149 0.854715 0.273309
O O3 0.500000 0.000000 0.500000
O O4 0.158566 0.129809 0.534064
O O5 0.808099 0.644567 0.314273
O O6 0.322823 0.604887 0.508357
O O7 0.604475 0.462986 0.242709
O O8 0.846272 0.210410 0.184005
O O9 0.166477 0.308818 0.995894
O O10 0.902849 0.124540 0.996039
O O11 0.986053 0.465019 0.648747
O O12 0.664175 0.335809 0.796226
O O13 0.000000 0.500000 0.500000
O O14 0.238967 0.230055 0.261329
O O15 0.664824 0.057070 0.769013
O O16 0.941101 0.977171 0.801996
O O17 0.378233 0.064326 0.989032
#
# Coordination Sequence:
#
# PCOD9011545 Si02
#       8
#     2   2   2   2   2   2   2   2
#     4  10  23  43  64  90 127 167 209 258 319 382
#     4  11  24  42  63  91 125 167 216 264 315 379
#     4  10  22  40  64  95 129 167 214 262 318 376
#     4  11  24  41  63  92 128 165 209 265 323 379
#     4  12  23  38  65  94 126 164 213 270 318 377
#     4  11  23  41  64  92 129 169 208 260 319 385
#     4  10  21  40  66  95 127 169 215 259 321 381
#     4   9  20  39  64  94 130 168 212 265 314 382
#
# _framework density 24.661662
#
# number of rings (size 3 to 8) (size 9 to 14) (size 15 to 20)
#    0.000    1.500    0.000    4.500    0.000    7.000 
#    0.000    0.000    0.000    0.000    0.000    0.000 
#    0.000    0.000    0.000    0.000    0.000    0.000 
#
# Total GULP energy -89316.363059 kJ/mol
# GULP energy per Si atom -5582.272691 kJ/mol
# Density = 2.460553 g / cm^3
# Si number density = 24.661662 Si / 1000 Ang^3
#
#
#
# Elastic Constant Matrix: (Units=GPa)
#
#
# Indices 1 2 3 4 5 6 
#
# 1 79.1786 27.4784 9.6741 -11.3512 13.2676 -6.0044
# 2 27.4784 161.5128 38.1400 1.8691 -0.2837 -20.7336
# 3 9.6741 38.1400 72.2023 5.7336 -7.4201 -7.5427
# 4 -11.3512 1.8691 5.7336 39.1933 0.9921 -3.6539
# 5 13.2676 -0.2837 -7.4201 0.9921 28.0864 -7.1968
# 6 -6.0044 -20.7336 -7.5427 -3.6539 -7.1968 42.4751
#
#
#
# Elastic Compliance Matrix: (Units=1/GPa)
#
#
# Indices 1 2 3 4 5 6 
#
# 1 0.015810 -0.002272 -0.002210 0.005200 -0.008317 -0.000228
# 2 -0.002272 0.007763 -0.003349 -0.000283 0.001053 0.003027
# 3 -0.002210 -0.003349 0.016965 -0.002944 0.006067 0.001840
# 4 0.005200 -0.000283 -0.002944 0.027730 -0.003749 0.001825
# 5 -0.008317 0.001053 0.006067 -0.003749 0.043178 0.007409
# 6 -0.000228 0.003027 0.001840 0.001825 0.007409 0.026728
#
#
# Mechanical properties :
#
#
# Convention : Reuss Voigt Hill
#
# Bulk Modulus (GPa) = 40.20023 51.49762 45.84892
# Shear Modulus (GPa) = 30.84017 37.79104 34.31561
#
# Velocity S-wave (km/s) = 3.54012 3.91881 3.73427
# Velocity P-wave (km/s) = 5.74857 6.43452 6.10119
#
# Compressibility (1/GPa) = 0.02487548
#
# Stress axis : x y z
#
# Youngs Moduli (GPa) = 63.25120 128.82207 58.94574
#
# Poissons Ratio (x) = 0.29270 0.13025
# Poissons Ratio (y) = 0.14371 0.19742
# Poissons Ratio (z) = 0.13976 0.43145
#
# Static dielectric constant tensor:
#      x y z
#    x 2.101800 0.035280 -0.013980 
#    y 0.035280 1.986730 -0.033690 
#    z -0.013980 -0.033690 1.936550 
# 
# From -- ./inp_files/557419.got.cif
#   From: 2010.05.17/outbox.cif.g08.bks.cpg/sg2_279_cif.got.tgz:557419.got - 2010.06.03 11:33:40.
