data_PCOD9011687
_publ_section_title
;
Structure prediction by ZEFSAII (Michael W. Deem and Ramdas Pophale) SiO2 
 PCOD9011687
Probable space group: P -1
;
_chemical_formula_sum "Si O2"
_cell_formula_units_Z 11
_cell_length_a 4.859655
_cell_length_b 14.675249
_cell_length_c 5.747260
_cell_angle_alpha 65.006085
_cell_angle_beta 96.345126
_cell_angle_gamma 97.268838
_cell_volume 367.763221
_symmetry_space_group_name_H-M "P -1"
_symmetry_group_IT_number 2
_symmetry_cell_setting 'triclinic'
loop_
_space_group_symop_operation_xyz
x,y,z
-x,-y,-z
loop_
_atom_site_type_symbol
_atom_site_label
_atom_site_fract_x
_atom_site_fract_y
_atom_site_fract_z
Si Si1 0.784313 0.445866 0.125803
Si Si2 0.556425 0.865958 0.391977
Si Si3 0.438983 0.338628 0.621353
Si Si4 0.000000 0.500000 0.500000
Si Si5 0.846528 0.060619 0.110679
Si Si6 0.801303 0.239016 0.145791
O O1 0.686500 0.417328 0.443883
O O2 0.876997 0.334043 0.210234
O O3 0.060540 0.514141 0.182468
O O4 0.500000 0.500000 0.000000
O O5 0.653813 0.755470 0.456980
O O6 0.350326 0.843116 0.609229
O O7 0.748324 0.966256 0.366672
O O8 0.402940 0.897467 0.108219
O O9 0.194968 0.400303 0.623329
O O10 0.590727 0.289405 0.901030
O O11 0.996095 0.166721 0.104401
O O12 0.000000 0.000000 0.000000
#
# Coordination Sequence:
#
# PCOD9011687 Si02
#       6
#     2   2   2   1   2   2
#     4  11  25  44  67  95 132 180 229 282 341 403
#     4   9  21  41  65  96 134 174 219 273 335 406
#     4  10  24  45  67  98 136 178 231 284 338 402
#     4  12  26  44  68  96 134 178 230 290 338 396
#     4  10  21  40  67 100 135 172 218 274 335 404
#     4  10  22  44  69  98 136 178 225 277 338 407
#
# _framework density 29.910547999999999
#
# number of rings (size 3 to 8) (size 9 to 14) (size 15 to 20)
#    0.000    1.818    0.000    2.182    0.000   10.909 
#    0.000    9.091    0.000    0.000    0.000    0.000 
#    0.000    0.000    0.000    0.000    0.000    0.000 
#
# Total GULP energy -61457.687784 kJ/mol
# GULP energy per Si atom -5587.062526 kJ/mol
# Density = 2.984247 g / cm^3
# Si number density = 29.910548 Si / 1000 Ang^3
#
#
#
# Elastic Constant Matrix: (Units=GPa)
#
#
# Indices 1 2 3 4 5 6 
#
# 1 174.3762 95.7611 41.8680 -28.1017 -4.8802 -37.0574
# 2 95.7611 364.2233 37.4877 -19.0717 12.2755 -42.0857
# 3 41.8680 37.4877 157.3381 -17.1339 7.0351 7.3511
# 4 -28.1017 -19.0717 -17.1339 61.8820 3.5541 -1.3752
# 5 -4.8802 12.2755 7.0351 3.5541 69.1933 -11.7944
# 6 -37.0574 -42.0857 7.3511 -1.3752 -11.7944 61.1411
#
#
#
# Elastic Compliance Matrix: (Units=1/GPa)
#
#
# Indices 1 2 3 4 5 6 
#
# 1 0.008497 -0.001385 -0.001916 0.002910 0.001712 0.004823
# 2 -0.001385 0.003355 -0.000443 0.000339 -0.000418 0.001450
# 3 -0.001916 -0.000443 0.007259 0.001020 -0.001284 -0.002564
# 4 0.002910 0.000339 0.001020 0.017946 -0.000509 0.002180
# 5 0.001712 -0.000418 -0.001284 -0.000509 0.015465 0.003876
# 6 0.004823 0.001450 -0.002564 0.002180 0.003876 0.021382
#
#
# Mechanical properties :
#
#
# Convention : Reuss Voigt Hill
#
# Bulk Modulus (GPa) = 86.03380 116.24123 101.13751
# Shear Modulus (GPa) = 58.63992 73.16465 65.90228
#
# Velocity S-wave (km/s) = 4.43257 4.95119 4.69904
# Velocity P-wave (km/s) = 7.41775 8.46363 7.95789
#
# Compressibility (1/GPa) = 0.01162334
#
# Stress axis : x y z
#
# Youngs Moduli (GPa) = 117.68567 298.09529 137.75127
#
# Poissons Ratio (x) = 0.41283 0.26395
# Poissons Ratio (y) = 0.16298 0.06102
# Poissons Ratio (z) = 0.22550 0.13204
#
# Static dielectric constant tensor:
#      x y z
#    x 2.517220 0.213330 -0.090240 
#    y 0.213330 2.672050 0.373430 
#    z -0.090240 0.373430 2.785170 
# 
# From -- ./inp_files/3433.got.cif
#   From: 2010.05.17/outbox.cif.g08.bks.cpg/sg2_2_cif.got.tgz:3433.got - 2010.06.03 11:33:40.
