data_PCOD9011855
_publ_section_title
;
Structure prediction by ZEFSAII (Michael W. Deem and Ramdas Pophale) SiO2 
 PCOD9011855
Probable space group: P -1
;
_chemical_formula_sum "Si O2"
_cell_formula_units_Z 12
_cell_length_a 7.638521
_cell_length_b 14.678620
_cell_length_c 7.104791
_cell_angle_alpha 75.199941
_cell_angle_beta 90.703829
_cell_angle_gamma 37.478468
_cell_volume 436.207339
_symmetry_space_group_name_H-M "P -1"
_symmetry_group_IT_number 2
_symmetry_cell_setting 'triclinic'
loop_
_space_group_symop_operation_xyz
x,y,z
-x,-y,-z
loop_
_atom_site_type_symbol
_atom_site_label
_atom_site_fract_x
_atom_site_fract_y
_atom_site_fract_z
Si Si1 0.970563 0.836603 0.137005
Si Si2 0.415450 0.534593 0.761981
Si Si3 0.634106 0.133810 0.188272
Si Si4 0.545048 0.681472 0.579855
Si Si5 0.784450 0.568442 0.227614
Si Si6 0.577004 0.966718 0.738856
O O1 0.290665 0.641930 0.243020
O O2 0.926454 0.954709 0.186690
O O3 0.730841 0.876080 0.227088
O O4 0.848109 0.900621 0.885712
O O5 0.374900 0.658083 0.624477
O O6 0.157536 0.569892 0.703883
O O7 0.500000 0.500000 0.000000
O O8 0.643819 0.156110 0.394876
O O9 0.381070 0.162847 0.147028
O O10 0.489764 0.285156 0.997022
O O11 0.642271 0.659227 0.379839
O O12 0.891811 0.524415 0.758404
O O13 0.500000 0.000000 0.500000
#
# Coordination Sequence:
#
# PCOD9011855 Si02
#       6
#     2   2   2   2   2   2
#     4   9  23  40  63  98 136 171 227 273 335 398
#     4  12  25  46  68  99 141 184 217 280 342 399
#     4  10  21  40  67  96 128 174 222 276 334 388
#     4  11  25  44  71 100 132 180 231 271 333 406
#     4  11  25  43  72  96 141 174 226 279 334 399
#     4   9  20  38  68  98 133 176 219 275 341 394
#
# _framework density 27.509855999999999
#
# number of rings (size 3 to 8) (size 9 to 14) (size 15 to 20)
#    1.000    0.667    1.667    2.000    4.667    2.000 
#    3.000    0.833    0.000    0.000    0.000    0.000 
#    0.000    0.000    0.000    0.000    0.000    0.000 
#
# Total GULP energy -67156.091938 kJ/mol
# GULP energy per Si atom -5596.340995 kJ/mol
# Density = 2.744724 g / cm^3
# Si number density = 27.509856 Si / 1000 Ang^3
#
#
#
# Elastic Constant Matrix: (Units=GPa)
#
#
# Indices 1 2 3 4 5 6 
#
# 1 72.6295 32.7318 7.4589 0.9548 3.4535 21.4732
# 2 32.7318 142.8783 36.5529 33.5018 7.2145 4.2843
# 3 7.4589 36.5529 129.3558 41.0224 6.8885 4.3349
# 4 0.9548 33.5018 41.0224 55.2162 6.4356 8.2041
# 5 3.4535 7.2145 6.8885 6.4356 30.9850 2.4635
# 6 21.4732 4.2843 4.3349 8.2041 2.4635 46.5495
#
#
#
# Elastic Compliance Matrix: (Units=1/GPa)
#
#
# Indices 1 2 3 4 5 6 
#
# 1 0.018633 -0.004831 -0.000837 0.004665 -0.001032 -0.008840
# 2 -0.004831 0.009527 -0.000739 -0.005439 -0.000578 0.002410
# 3 -0.000837 -0.000739 0.010284 -0.007229 -0.000583 0.000802
# 4 0.004665 -0.005439 -0.007229 0.027901 -0.002985 -0.005738
# 5 -0.001032 -0.000578 -0.000583 -0.002985 0.033325 -0.000654
# 6 -0.008840 0.002410 0.000802 -0.005738 -0.000654 0.026310
#
#
# Mechanical properties :
#
#
# Convention : Reuss Voigt Hill
#
# Bulk Modulus (GPa) = 39.01690 55.37230 47.19460
# Shear Modulus (GPa) = 33.93558 44.42482 39.18020
#
# Velocity S-wave (km/s) = 3.51604 4.02290 3.77798
# Velocity P-wave (km/s) = 5.54050 6.46144 6.01861
#
# Compressibility (1/GPa) = 0.02562992
#
# Stress axis : x y z
#
# Youngs Moduli (GPa) = 53.66782 104.96664 97.23453
#
# Poissons Ratio (x) = 0.50710 0.08143
# Poissons Ratio (y) = 0.25927 0.07183
# Poissons Ratio (z) = 0.04494 0.07754
#
# Static dielectric constant tensor:
#      x y z
#    x 2.240340 -0.041770 0.032630 
#    y -0.041770 2.079290 0.018770 
#    z 0.032630 0.018770 2.187620 
# 
# From -- ./inp_files/193081.got.cif
#   From: 2010.05.17/outbox.cif.g08.bks.cpg/sg2_97_cif.got.tgz:193081.got - 2010.06.03 11:33:40.
