data_PCOD9011000
_publ_section_title
;
Structure prediction by ZEFSAII (Michael W. Deem and Ramdas Pophale) SiO2 
 PCOD9011000
Probable space group: P -1
;
_chemical_formula_sum "Si O2"
_cell_formula_units_Z 16
_cell_length_a 12.444409
_cell_length_b 12.459491
_cell_length_c 8.692816
_cell_angle_alpha 133.183448
_cell_angle_beta 117.699383
_cell_angle_gamma 49.701177
_cell_volume 748.958896
_symmetry_space_group_name_H-M "P -1"
_symmetry_group_IT_number 2
_symmetry_cell_setting 'triclinic'
loop_
_space_group_symop_operation_xyz
x,y,z
-x,-y,-z
loop_
_atom_site_type_symbol
_atom_site_label
_atom_site_fract_x
_atom_site_fract_y
_atom_site_fract_z
Si Si1 0.034466 0.322702 0.917471
Si Si2 0.951823 0.931032 0.547572
Si Si3 0.929924 0.313619 0.340285
Si Si4 0.492504 0.951550 0.772726
Si Si5 0.645166 0.218783 0.681991
Si Si6 0.560720 0.811910 0.280622
Si Si7 0.181227 0.290243 0.290227
Si Si8 0.762171 0.430210 0.039614
O O1 0.086556 0.195871 0.686335
O O2 0.888734 0.358965 0.932500
O O3 0.000000 0.500000 0.000000
O O4 0.143451 0.252718 0.060092
O O5 0.054993 0.817597 0.644075
O O6 0.810183 0.083378 0.671693
O O7 0.000000 0.000000 0.500000
O O8 0.868023 0.508649 0.547958
O O9 0.829047 0.332771 0.149348
O O10 0.083403 0.262694 0.320365
O O11 0.415248 0.847176 0.562179
O O12 0.652710 0.830401 0.698874
O O13 0.423505 0.136811 0.828659
O O14 0.500000 0.000000 0.000000
O O15 0.561802 0.222050 0.781230
O O16 0.644397 0.396360 0.853755
O O17 0.700812 0.631089 0.230868
O O18 0.500000 0.000000 0.500000
#
# Coordination Sequence:
#
# PCOD9011000 Si02
#       8
#     2   2   2   2   2   2   2   2
#     4  11  23  40  71  97 132 172 217 280 334 396
#     4  12  24  43  64 101 135 171 212 277 348 389
#     4  10  22  40  69  95 130 165 227 275 319 400
#     4  11  24  42  67  99 129 175 221 271 323 400
#     4  11  24  44  65  92 139 173 218 271 332 398
#     4  10  23  41  68  91 129 177 223 268 319 394
#     4  10  21  40  65 101 124 169 227 270 322 385
#     4  11  24  44  66  99 129 180 221 272 343 387
#
# _framework density 21.362987
#
# number of rings (size 3 to 8) (size 9 to 14) (size 15 to 20)
#    0.000    1.250    2.500    3.375    5.250    0.500 
#    4.500    0.625    0.000    0.000    0.000    0.000 
#    0.000    0.000    0.000    0.000    0.000    0.000 
#
# Total GULP energy -89164.934290 kJ/mol
# GULP energy per Si atom -5572.808393 kJ/mol
# Density = 2.131436 g / cm^3
# Si number density = 21.362987 Si / 1000 Ang^3
#
#
#
# Elastic Constant Matrix: (Units=GPa)
#
#
# Indices 1 2 3 4 5 6 
#
# 1 48.0521 34.6264 15.6321 -13.7305 6.8710 -3.9829
# 2 34.6264 123.3963 33.8587 -10.0322 -4.5622 3.8140
# 3 15.6321 33.8587 113.6085 -4.7153 -0.1399 3.3896
# 4 -13.7305 -10.0322 -4.7153 32.2270 -2.3206 -14.3712
# 5 6.8710 -4.5622 -0.1399 -2.3206 33.8813 -0.0771
# 6 -3.9829 3.8140 3.3896 -14.3712 -0.0771 36.0404
#
#
#
# Elastic Compliance Matrix: (Units=1/GPa)
#
#
# Indices 1 2 3 4 5 6 
#
# 1 0.033903 -0.008293 -0.001868 0.016090 -0.006872 0.011201
# 2 -0.008293 0.011107 -0.002146 -0.001226 0.003079 -0.002372
# 3 -0.001868 -0.002146 0.009710 -0.000529 0.000091 -0.001103
# 4 0.016090 -0.001226 -0.000529 0.046565 -0.000194 0.020525
# 5 -0.006872 0.003079 0.000091 -0.000194 0.031308 -0.001104
# 6 0.011201 -0.002372 -0.001103 0.020525 -0.001104 0.037521
#
#
# Mechanical properties :
#
#
# Convention : Reuss Voigt Hill
#
# Bulk Modulus (GPa) = 33.21544 50.36571 41.79058
# Shear Modulus (GPa) = 24.41840 33.82572 29.12206
#
# Velocity S-wave (km/s) = 3.38453 3.98349 3.69616
# Velocity P-wave (km/s) = 5.55475 6.69215 6.14980
#
# Compressibility (1/GPa) = 0.03010648
#
# Stress axis : x y z
#
# Youngs Moduli (GPa) = 29.49574 90.03042 102.98950
#
# Poissons Ratio (x) = 0.74664 0.19241
# Poissons Ratio (y) = 0.24461 0.22096
# Poissons Ratio (z) = 0.05510 0.19316
#
# Static dielectric constant tensor:
#      x y z
#    x 1.806810 0.013090 -0.016520 
#    y 0.013090 1.588520 -0.108210 
#    z -0.016520 -0.108210 1.851010 
# 
# From -- ./inp_files/263566.got.cif
#   From: 2010.05.17/outbox.cif.g08.bks.cpg/sg2_132_cif.got.tgz:263566.got - 2010.06.03 11:33:40.
