data_PCOD9011290
_publ_section_title
;
Structure prediction by ZEFSAII (Michael W. Deem and Ramdas Pophale) SiO2 
 PCOD9011290
Probable space group: P -1
;
_chemical_formula_sum "Si O2"
_cell_formula_units_Z 16
_cell_length_a 8.971049
_cell_length_b 15.570143
_cell_length_c 5.072215
_cell_angle_alpha 76.111914
_cell_angle_beta 74.788733
_cell_angle_gamma 99.933657
_cell_volume 642.369002
_symmetry_space_group_name_H-M "P -1"
_symmetry_group_IT_number 2
_symmetry_cell_setting 'triclinic'
loop_
_space_group_symop_operation_xyz
x,y,z
-x,-y,-z
loop_
_atom_site_type_symbol
_atom_site_label
_atom_site_fract_x
_atom_site_fract_y
_atom_site_fract_z
Si Si1 0.622908 0.097567 0.824038
Si Si2 0.111999 0.002749 0.197773
Si Si3 0.082676 0.326552 0.948026
Si Si4 0.269267 0.193559 0.803869
Si Si5 0.749660 0.566835 0.699160
Si Si6 0.163590 0.579063 0.903840
Si Si7 0.483930 0.809325 0.700781
Si Si8 0.471876 0.637449 0.553342
O O1 0.590089 0.138121 0.529553
O O2 0.795820 0.077057 0.778441
O O3 0.580400 0.161626 0.021424
O O4 0.500000 0.000000 0.000000
O O5 0.242279 0.100118 0.041742
O O6 0.000000 0.000000 0.500000
O O7 0.000000 0.000000 0.000000
O O8 0.115238 0.231913 0.901032
O O9 0.132297 0.392342 0.623728
O O10 0.904905 0.332070 0.096442
O O11 0.192576 0.365515 0.124102
O O12 0.328549 0.172223 0.498706
O O13 0.412077 0.284605 0.735963
O O14 0.757353 0.468993 0.870528
O O15 0.578744 0.573772 0.661399
O O16 0.292229 0.588400 0.601406
O O17 0.000000 0.500000 0.000000
O O18 0.433477 0.701319 0.759257
#
# Coordination Sequence:
#
# PCOD9011290 Si02
#       8
#     2   2   2   2   2   2   2   2
#     4  12  23  44  72 100 133 182 226 281 335 406
#     4  12  28  44  69 101 140 173 221 284 350 399
#     4  10  22  40  67  95 134 178 220 287 343 398
#     4   9  23  45  68  94 138 180 234 268 346 404
#     4  10  21  40  65  96 133 181 228 276 339 406
#     4  10  21  41  67 102 140 174 229 288 344 400
#     4  10  24  39  72  96 133 175 241 274 323 400
#     4   9  21  42  69  95 135 182 235 272 339 403
#
# _framework density 24.907800000000002
#
# number of rings (size 3 to 8) (size 9 to 14) (size 15 to 20)
#    0.750    1.000    1.250    1.875    3.500    4.000 
#    0.000   28.125    0.000    0.000    0.000    0.000 
#    0.000    0.000    0.000    0.000    0.000    0.000 
#
# Total GULP energy -89283.088508 kJ/mol
# GULP energy per Si atom -5580.193032 kJ/mol
# Density = 2.485111 g / cm^3
# Si number density = 24.907800 Si / 1000 Ang^3
#
#
#
# Elastic Constant Matrix: (Units=GPa)
#
#
# Indices 1 2 3 4 5 6 
#
# 1 144.3712 43.5251 42.0086 12.0573 -20.0395 -47.4549
# 2 43.5251 83.4268 18.4623 3.6770 7.3273 -36.2417
# 3 42.0086 18.4623 96.0310 11.3215 -2.7410 7.6391
# 4 12.0573 3.6770 11.3215 50.4020 -3.3725 -4.9970
# 5 -20.0395 7.3273 -2.7410 -3.3725 36.7528 1.9760
# 6 -47.4549 -36.2417 7.6391 -4.9970 1.9760 53.4999
#
#
#
# Elastic Compliance Matrix: (Units=1/GPa)
#
#
# Indices 1 2 3 4 5 6 
#
# 1 0.014429 -0.001014 -0.006932 -0.000089 0.006854 0.012840
# 2 -0.001014 0.019879 -0.004708 0.000821 -0.005519 0.013520
# 3 -0.006932 -0.004708 0.015574 -0.002751 -0.001299 -0.011771
# 4 -0.000089 0.000821 -0.002751 0.020783 0.001341 0.002762
# 5 0.006854 -0.005519 -0.001299 0.001341 0.031993 0.001470
# 6 0.012840 0.013520 -0.011771 0.002762 0.001470 0.041124
#
#
# Mechanical properties :
#
#
# Convention : Reuss Voigt Hill
#
# Bulk Modulus (GPa) = 40.69325 59.09122 49.89223
# Shear Modulus (GPa) = 28.20366 42.78649 35.49507
#
# Velocity S-wave (km/s) = 3.36865 4.14913 3.77909
# Velocity P-wave (km/s) = 5.61279 6.83587 6.25430
#
# Compressibility (1/GPa) = 0.02457410
#
# Stress axis : x y z
#
# Youngs Moduli (GPa) = 69.30705 50.30389 64.20768
#
# Poissons Ratio (x) = 0.05100 0.44509
# Poissons Ratio (y) = 0.07026 0.30230
# Poissons Ratio (z) = 0.48044 0.23684
#
# Static dielectric constant tensor:
#      x y z
#    x 2.215320 0.142200 -0.004860 
#    y 0.142200 2.072350 0.031470 
#    z -0.004860 0.031470 1.975210 
# 
# From -- ./inp_files/47010.got.cif
#   From: 2010.05.17/outbox.cif.g08.bks.cpg/sg2_24_cif.got.tgz:47010.got - 2010.06.03 11:33:40.
