data_PCOD9011126
_publ_section_title
;
Structure prediction by ZEFSAII (Michael W. Deem and Ramdas Pophale) SiO2 
 PCOD9011126
Probable space group: P -1
;
_chemical_formula_sum "Si O2"
_cell_formula_units_Z 16
_cell_length_a 16.754676
_cell_length_b 8.223707
_cell_length_c 10.761935
_cell_angle_alpha 74.438877
_cell_angle_beta 115.766742
_cell_angle_gamma 149.255607
_cell_volume 664.556661
_symmetry_space_group_name_H-M "P -1"
_symmetry_group_IT_number 2
_symmetry_cell_setting 'triclinic'
loop_
_space_group_symop_operation_xyz
x,y,z
-x,-y,-z
loop_
_atom_site_type_symbol
_atom_site_label
_atom_site_fract_x
_atom_site_fract_y
_atom_site_fract_z
Si Si1 0.720364 0.402685 0.790427
Si Si2 0.127912 0.577771 0.926542
Si Si3 0.939762 0.149318 0.198209
Si Si4 0.784553 0.823473 0.929403
Si Si5 0.915214 0.521235 0.369629
Si Si6 0.394695 0.057616 0.561687
Si Si7 0.515640 0.602012 0.671785
Si Si8 0.856138 0.902038 0.453710
O O1 0.754364 0.614015 0.864626
O O2 0.554407 0.191964 0.647773
O O3 0.871304 0.611236 0.751740
O O4 0.722102 0.246149 0.917973
O O5 0.082854 0.697629 0.895815
O O6 0.153172 0.602357 0.790546
O O7 0.962717 0.195041 0.927007
O O8 0.887139 0.071462 0.320713
O O9 0.814810 0.832096 0.092890
O O10 0.632501 0.711379 0.834350
O O11 0.000000 0.500000 0.500000
O O12 0.072262 0.908398 0.407088
O O13 0.756448 0.289677 0.402260
O O14 0.440992 0.307779 0.616610
O O15 0.363677 0.087232 0.399273
O O16 0.348199 0.444164 0.612378
O O17 0.000000 0.000000 0.500000
#
# Coordination Sequence:
#
# PCOD9011126 Si02
#       8
#     2   2   2   2   2   2   2   2
#     4  10  22  39  65  94 125 163 211 254 308 371
#     4  11  22  39  65  91 128 166 205 257 310 373
#     4  11  22  41  62  91 131 162 208 256 312 370
#     4  10  22  38  67  93 122 170 207 253 310 371
#     4  12  23  43  66  91 125 166 214 247 322 370
#     4  10  21  40  66  94 122 166 207 262 300 378
#     4  10  21  40  65  92 127 161 212 251 316 367
#     4  12  27  42  63  96 126 166 206 267 308 373
#
# _framework density 24.076201000000001
#
# number of rings (size 3 to 8) (size 9 to 14) (size 15 to 20)
#    0.000    1.250    2.500    4.500    7.000    1.000 
#    4.500    1.250    0.000    0.000    0.000    0.000 
#    0.000    0.000    0.000    0.000    0.000    0.000 
#
# Total GULP energy -89332.245287 kJ/mol
# GULP energy per Si atom -5583.265330 kJ/mol
# Density = 2.402140 g / cm^3
# Si number density = 24.076201 Si / 1000 Ang^3
#
#
#
# Elastic Constant Matrix: (Units=GPa)
#
#
# Indices 1 2 3 4 5 6 
#
# 1 81.3919 11.4656 18.0682 6.1484 19.1459 13.5751
# 2 11.4656 36.4453 9.2065 -4.2754 1.7423 10.1163
# 3 18.0682 9.2065 85.9399 -5.9666 9.6388 20.4111
# 4 6.1484 -4.2754 -5.9666 31.2437 6.5952 5.6590
# 5 19.1459 1.7423 9.6388 6.5952 50.5276 3.0056
# 6 13.5751 10.1163 20.4111 5.6590 3.0056 35.6817
#
#
#
# Elastic Compliance Matrix: (Units=1/GPa)
#
#
# Indices 1 2 3 4 5 6 
#
# 1 0.014930 -0.003473 -0.001675 -0.002188 -0.004754 -0.002989
# 2 -0.003473 0.031740 -0.000154 0.006580 -0.000095 -0.008625
# 3 -0.001675 -0.000154 0.014581 0.005079 -0.002312 -0.008270
# 4 -0.002188 0.006580 0.005079 0.036991 -0.004635 -0.009415
# 5 -0.004754 -0.000095 -0.002312 -0.004635 0.022523 0.001996
# 6 -0.002989 -0.008625 -0.008270 -0.009415 0.001996 0.037664
#
#
# Mechanical properties :
#
#
# Convention : Reuss Voigt Hill
#
# Bulk Modulus (GPa) = 19.74513 31.25084 25.49798
# Shear Modulus (GPa) = 26.89371 34.49306 30.69338
#
# Velocity S-wave (km/s) = 3.34582 3.78916 3.57437
# Velocity P-wave (km/s) = 4.81091 5.67025 5.25817
#
# Compressibility (1/GPa) = 0.05064541
#
# Stress axis : x y z
#
# Youngs Moduli (GPa) = 66.98067 31.50555 68.58206
#
# Poissons Ratio (x) = 0.10943 0.11491
# Poissons Ratio (y) = 0.23264 0.01057
# Poissons Ratio (z) = 0.11223 0.00486
#
# Static dielectric constant tensor:
#      x y z
#    x 2.005230 0.016180 0.017820 
#    y 0.016180 2.066240 0.081750 
#    z 0.017820 0.081750 2.094420 
# 
# From -- ./inp_files/461168.got.cif
#   From: 2010.05.17/outbox.cif.g08.bks.cpg/sg2_231_cif.got.tgz:461168.got - 2010.06.03 11:33:40.
