data_PCOD9011018
_publ_section_title
;
Structure prediction by ZEFSAII (Michael W. Deem and Ramdas Pophale) SiO2 
 PCOD9011018
Probable space group: P -1
;
_chemical_formula_sum "Si O2"
_cell_formula_units_Z 15
_cell_length_a 19.620090
_cell_length_b 10.727237
_cell_length_c 9.071305
_cell_angle_alpha 111.102862
_cell_angle_beta 36.578818
_cell_angle_gamma 137.712611
_cell_volume 621.624765
_symmetry_space_group_name_H-M "P -1"
_symmetry_group_IT_number 2
_symmetry_cell_setting 'triclinic'
loop_
_space_group_symop_operation_xyz
x,y,z
-x,-y,-z
loop_
_atom_site_type_symbol
_atom_site_label
_atom_site_fract_x
_atom_site_fract_y
_atom_site_fract_z
Si Si1 0.907682 0.267840 0.586728
Si Si2 0.712197 0.218824 0.156620
Si Si3 0.000000 0.000000 0.500000
Si Si4 0.081996 0.147932 0.770028
Si Si5 0.776003 0.081054 0.203071
Si Si6 0.615797 0.427650 0.394156
Si Si7 0.722236 0.565572 0.937934
Si Si8 0.402196 0.046293 0.234970
O O1 0.000000 0.500000 0.500000
O O2 0.076303 0.331220 0.377314
O O3 0.798057 0.112773 0.568559
O O4 0.737266 0.145561 0.943533
O O5 0.733504 0.395997 0.168296
O O6 0.500000 0.000000 0.500000
O O7 0.848810 0.272756 0.059159
O O8 0.055518 0.056697 0.615167
O O9 0.219054 0.254848 0.186227
O O10 0.297648 0.399571 0.553508
O O11 0.000000 0.000000 0.000000
O O12 0.952455 0.158122 0.979471
O O13 0.610661 0.829405 0.307133
O O14 0.654348 0.020253 0.525569
O O15 0.661448 0.535281 0.200173
O O16 0.552416 0.308877 0.065098
O O17 0.500000 0.000000 0.000000
#
# Coordination Sequence:
#
# PCOD9011018 Si02
#       8
#     2   2   1   2   2   2   2   2
#     4  12  21  38  68  99 137 183 225 285 363 427
#     4  10  21  40  65 103 146 174 227 293 361 448
#     4  12  28  48  70 102 136 190 258 298 342 432
#     4  12  26  47  72  94 139 189 243 302 347 412
#     4  10  24  42  68 106 139 183 236 284 369 444
#     4  10  21  44  69  96 140 186 221 301 368 417
#     4  11  23  43  65 100 142 181 242 294 345 434
#     4  11  22  40  70 106 142 181 225 292 368 430
#
# _framework density 24.130313000000001
#
# number of rings (size 3 to 8) (size 9 to 14) (size 15 to 20)
#    0.000    1.067    4.000    3.200    0.000    4.267 
#    0.000    1.333    0.000    0.000    0.000    0.000 
#    0.000    0.000    0.000    0.000    0.000    0.000 
#
# Total GULP energy -83543.649930 kJ/mol
# GULP energy per Si atom -5569.576662 kJ/mol
# Density = 2.407539 g / cm^3
# Si number density = 24.130313 Si / 1000 Ang^3
#
#
#
# Elastic Constant Matrix: (Units=GPa)
#
#
# Indices 1 2 3 4 5 6 
#
# 1 84.1335 14.5737 17.3464 2.8364 15.1803 9.4802
# 2 14.5737 95.4685 17.8202 -1.1631 12.5381 42.2584
# 3 17.3464 17.8202 54.5914 4.8202 7.4159 2.3737
# 4 2.8364 -1.1631 4.8202 32.3051 0.8783 -14.5169
# 5 15.1803 12.5381 7.4159 0.8783 45.7483 -5.1833
# 6 9.4802 42.2584 2.3737 -14.5169 -5.1833 42.6990
#
#
#
# Elastic Compliance Matrix: (Units=1/GPa)
#
#
# Indices 1 2 3 4 5 6 
#
# 1 0.014214 0.002493 -0.003932 -0.003719 -0.005522 -0.007339
# 2 0.002493 0.026586 -0.005520 -0.012586 -0.010617 -0.032126
# 3 -0.003932 -0.005520 0.021239 -0.000835 -0.000058 0.004864
# 4 -0.003719 -0.012586 -0.000835 0.043839 0.007276 0.029116
# 5 -0.005522 -0.010617 -0.000058 0.007276 0.028472 0.017666
# 6 -0.007339 -0.032126 0.004864 0.029116 0.017666 0.068616
#
#
# Mechanical properties :
#
#
# Convention : Reuss Voigt Hill
#
# Bulk Modulus (GPa) = 20.78168 37.07487 28.92828
# Shear Modulus (GPa) = 21.46616 36.44738 28.95677
#
# Velocity S-wave (km/s) = 2.98584 3.89065 3.46788
# Velocity P-wave (km/s) = 4.52968 5.96496 5.29616
#
# Compressibility (1/GPa) = 0.04811930
#
# Stress axis : x y z
#
# Youngs Moduli (GPa) = 70.35526 37.61429 47.08226
#
# Poissons Ratio (x) = -0.09376 0.18515
# Poissons Ratio (y) = -0.17538 0.25989
# Poissons Ratio (z) = 0.27667 0.20763
#
# Static dielectric constant tensor:
#      x y z
#    x 2.212150 -0.037510 0.058440 
#    y -0.037510 1.964110 0.010220 
#    z 0.058440 0.010220 1.970660 
# 
# From -- ./inp_files/346220.got.cif
#   From: 2010.05.17/outbox.cif.g08.bks.cpg/sg2_174_cif.got.tgz:346220.got - 2010.06.03 11:33:40.
