data_PCOD9011716
_publ_section_title
;
Structure prediction by ZEFSAII (Michael W. Deem and Ramdas Pophale) SiO2 
 PCOD9011716
Probable space group: P -1
;
_chemical_formula_sum "Si O2"
_cell_formula_units_Z 13
_cell_length_a 26.945629
_cell_length_b 6.851568
_cell_length_c 5.037225
_cell_angle_alpha 70.773626
_cell_angle_beta 116.937863
_cell_angle_gamma 135.608650
_cell_volume 579.955888
_symmetry_space_group_name_H-M "P -1"
_symmetry_group_IT_number 2
_symmetry_cell_setting 'triclinic'
loop_
_space_group_symop_operation_xyz
x,y,z
-x,-y,-z
loop_
_atom_site_type_symbol
_atom_site_label
_atom_site_fract_x
_atom_site_fract_y
_atom_site_fract_z
Si Si1 0.000000 0.500000 0.500000
Si Si2 0.824230 0.897412 0.962548
Si Si3 0.590075 0.620115 0.861849
Si Si4 0.507778 0.255280 0.325318
Si Si5 0.115643 0.567460 0.393862
Si Si6 0.079852 0.093592 0.196772
Si Si7 0.752982 0.876242 0.302899
O O1 0.960065 0.577070 0.564392
O O2 0.938798 0.175814 0.604527
O O3 0.757850 0.773624 0.642788
O O4 0.877450 0.237841 0.910086
O O5 0.873700 0.837656 0.988774
O O6 0.786126 0.805437 0.194259
O O7 0.568105 0.510232 0.557387
O O8 0.568062 0.802520 0.784560
O O9 0.535732 0.357524 0.047739
O O10 0.674070 0.767869 0.071262
O O11 0.500000 0.000000 0.500000
O O12 0.186469 0.790350 0.653665
O O13 0.120604 0.360035 0.361160
O O14 0.000000 0.000000 0.000000
#
# Coordination Sequence:
#
# PCOD9011716 Si02
#       7
#     1   2   2   2   2   2   2
#     4  10  22  40  60  88 124 162 220 274 324 392
#     4   9  23  41  61  91 130 163 220 269 329 397
#     4  10  21  40  69  92 138 172 210 266 321 375
#     4  10  21  40  67 105 128 172 218 258 308 392
#     4   9  23  38  63  91 123 167 220 271 331 390
#     4  11  24  39  67  91 122 174 222 282 335 388
#     4  10  21  44  63  91 137 172 208 277 332 384
#
# _framework density 22.415499000000001
#
# number of rings (size 3 to 8) (size 9 to 14) (size 15 to 20)
#    0.923    1.231    0.000    1.846    4.308    2.462 
#    2.769    1.538    0.000    0.000    0.000    0.000 
#    0.000    0.000    0.000    0.000    0.000    0.000 
#
# Total GULP energy -72431.659567 kJ/mol
# GULP energy per Si atom -5571.666121 kJ/mol
# Density = 2.236448 g / cm^3
# Si number density = 22.415499 Si / 1000 Ang^3
#
#
#
# Elastic Constant Matrix: (Units=GPa)
#
#
# Indices 1 2 3 4 5 6 
#
# 1 120.7513 44.9030 27.2637 13.2232 19.8367 -29.4560
# 2 44.9030 55.0707 9.3576 -5.2596 2.0898 -35.8959
# 3 27.2637 9.3576 72.9394 5.5147 10.9701 -6.2018
# 4 13.2232 -5.2596 5.5147 36.0623 2.4348 2.9710
# 5 19.8367 2.0898 10.9701 2.4348 52.5507 3.5093
# 6 -29.4560 -35.8959 -6.2018 2.9710 3.5093 33.3378
#
#
#
# Elastic Compliance Matrix: (Units=1/GPa)
#
#
# Indices 1 2 3 4 5 6 
#
# 1 0.014850 -0.010687 -0.002845 -0.006445 -0.004430 0.002125
# 2 -0.010687 0.071923 0.000418 0.009029 -0.003851 0.067678
# 3 -0.002845 0.000418 0.015223 -0.001170 -0.002140 0.001098
# 4 -0.006445 0.009029 -0.001170 0.031459 0.000799 0.000922
# 5 -0.004430 -0.003851 -0.002140 0.000799 0.021988 -0.010845
# 6 0.002125 0.067678 0.001098 0.000922 -0.010845 0.106009
#
#
# Mechanical properties :
#
#
# Convention : Reuss Voigt Hill
#
# Bulk Modulus (GPa) = 13.19801 45.75666 29.47734
# Shear Modulus (GPa) = 15.97769 35.53929 25.75849
#
# Velocity S-wave (km/s) = 2.67272 3.98613 3.39357
# Velocity P-wave (km/s) = 3.92750 6.45313 5.34173
#
# Compressibility (1/GPa) = 0.07576900
#
# Stress axis : x y z
#
# Youngs Moduli (GPa) = 67.34088 13.90374 65.68796
#
# Poissons Ratio (x) = 0.14858 0.18691
# Poissons Ratio (y) = 0.71965 -0.02748
# Poissons Ratio (z) = 0.19161 -0.00582
#
# Static dielectric constant tensor:
#      x y z
#    x 1.794560 -0.004150 0.005710 
#    y -0.004150 1.840920 0.012880 
#    z 0.005710 0.012880 1.976550 
# 
# From -- ./inp_files/120954.got.cif
#   From: 2010.05.17/outbox.cif.g08.bks.cpg/sg2_61_cif.got.tgz:120954.got - 2010.06.03 11:33:40.
