data_PCOD9011479
_publ_section_title
;
Structure prediction by ZEFSAII (Michael W. Deem and Ramdas Pophale) SiO2 
 PCOD9011479
Probable space group: P -1
;
_chemical_formula_sum "Si O2"
_cell_formula_units_Z 16
_cell_length_a 12.709441
_cell_length_b 10.984342
_cell_length_c 12.626591
_cell_angle_alpha 85.471045
_cell_angle_beta 49.935760
_cell_angle_gamma 124.706732
_cell_volume 783.215721
_symmetry_space_group_name_H-M "P -1"
_symmetry_group_IT_number 2
_symmetry_cell_setting 'triclinic'
loop_
_space_group_symop_operation_xyz
x,y,z
-x,-y,-z
loop_
_atom_site_type_symbol
_atom_site_label
_atom_site_fract_x
_atom_site_fract_y
_atom_site_fract_z
Si Si1 0.803693 0.316146 0.555677
Si Si2 0.870584 0.512354 0.849402
Si Si3 0.459108 0.333843 0.004398
Si Si4 0.000758 0.351295 0.013370
Si Si5 0.973060 0.113153 0.747165
Si Si6 0.397329 0.570119 0.338957
Si Si7 0.688154 0.114168 0.045739
Si Si8 0.726936 0.671358 0.266247
O O1 0.685818 0.354001 0.581505
O O2 0.000000 0.500000 0.500000
O O3 0.934764 0.336748 0.378146
O O4 0.593195 0.089311 0.762419
O O5 0.619909 0.374806 0.977832
O O6 0.959169 0.643209 0.888926
O O7 0.822534 0.335112 0.915283
O O8 0.557763 0.390437 0.817665
O O9 0.500000 0.500000 0.000000
O O10 0.185715 0.098445 0.196344
O O11 0.194227 0.405332 0.823804
O O12 0.000000 0.500000 0.000000
O O13 0.765737 0.144312 0.115523
O O14 0.186146 0.326041 0.527114
O O15 0.075783 0.141153 0.791482
O O16 0.791152 0.087557 0.902294
O O17 0.636400 0.695138 0.231248
O O18 0.500000 0.500000 0.500000
#
# Coordination Sequence:
#
# PCOD9011479 Si02
#       8
#     2   2   2   2   2   2   2   2
#     4  12  23  38  63  98 122 159 214 261 308 372
#     4  11  23  40  65  89 131 163 202 265 315 373
#     4  12  26  41  59  92 126 167 206 256 319 377
#     4   9  20  40  63  92 126 163 207 260 316 370
#     4  10  21  41  65  90 122 163 206 260 309 373
#     4  11  22  40  64  92 126 157 211 262 307 378
#     4  10  21  40  66  93 119 162 213 254 317 369
#     4   9  20  39  66  94 121 167 211 255 313 377
#
# _framework density 20.428599999999999
#
# number of rings (size 3 to 8) (size 9 to 14) (size 15 to 20)
#    0.000    1.500    3.750    0.750    3.500    2.500 
#    2.250    5.000    0.000    0.000    0.000    0.000 
#    0.000    0.000    0.000    0.000    0.000    0.000 
#
# Total GULP energy -89234.194790 kJ/mol
# GULP energy per Si atom -5577.137174 kJ/mol
# Density = 2.038210 g / cm^3
# Si number density = 20.428600 Si / 1000 Ang^3
#
#
#
# Elastic Constant Matrix: (Units=GPa)
#
#
# Indices 1 2 3 4 5 6 
#
# 1 68.7848 2.9044 -16.3883 3.9540 -12.6757 4.0914
# 2 2.9044 19.4668 -22.8401 2.7643 -3.0664 -11.3900
# 3 -16.3883 -22.8401 60.0481 -7.3780 -3.7375 -3.3995
# 4 3.9540 2.7643 -7.3780 30.8039 -2.2492 4.6695
# 5 -12.6757 -3.0664 -3.7375 -2.2492 26.8191 7.4378
# 6 4.0914 -11.3900 -3.3995 4.6695 7.4378 25.6670
#
#
#
# Elastic Compliance Matrix: (Units=1/GPa)
#
#
# Indices 1 2 3 4 5 6 
#
# 1 0.018497 0.009553 0.009338 -0.000053 0.011339 -0.000749
# 2 0.009553 0.237405 0.098288 -0.015758 0.011782 0.116299
# 3 0.009338 0.098288 0.059670 -0.002123 0.010664 0.047327
# 4 -0.000053 -0.015758 -0.002123 0.036075 0.005152 -0.015321
# 5 0.011339 0.011782 0.010664 0.005152 0.048749 -0.010230
# 6 -0.000749 0.116299 0.047327 -0.015321 -0.010230 0.102709
#
#
# Mechanical properties :
#
#
# Convention : Reuss Voigt Hill
#
# Bulk Modulus (GPa) = 1.81841 8.40575 5.11208
# Shear Modulus (GPa) = 11.06061 28.96626 20.01343
#
# Velocity S-wave (km/s) = 2.32938 3.76962 3.13338
# Velocity P-wave (km/s) = 2.85075 4.80316 3.94950
#
# Compressibility (1/GPa) = 0.54992974
#
# Stress axis : x y z
#
# Youngs Moduli (GPa) = 54.06324 4.21222 16.75897
#
# Poissons Ratio (x) = -0.04024 -0.15650
# Poissons Ratio (y) = -0.51645 -1.64721
# Poissons Ratio (z) = -0.50487 -0.41401
#
# Static dielectric constant tensor:
#      x y z
#    x 1.686490 0.096180 -0.002520 
#    y 0.096180 1.726310 0.065410 
#    z -0.002520 0.065410 1.778550 
# 
# From -- ./inp_files/428119.got.cif
#   From: 2010.05.17/outbox.cif.g08.bks.cpg/sg2_215_cif.got.tgz:428119.got - 2010.06.03 11:33:40.
