data_PCOD9011540
_publ_section_title
;
Structure prediction by ZEFSAII (Michael W. Deem and Ramdas Pophale) SiO2 
 PCOD9011540
Probable space group: P -1
;
_chemical_formula_sum "Si O2"
_cell_formula_units_Z 16
_cell_length_a 14.049652
_cell_length_b 14.671608
_cell_length_c 19.957303
_cell_angle_alpha 161.081662
_cell_angle_beta 140.295212
_cell_angle_gamma 48.775819
_cell_volume 803.711016
_symmetry_space_group_name_H-M "P -1"
_symmetry_group_IT_number 2
_symmetry_cell_setting 'triclinic'
loop_
_space_group_symop_operation_xyz
x,y,z
-x,-y,-z
loop_
_atom_site_type_symbol
_atom_site_label
_atom_site_fract_x
_atom_site_fract_y
_atom_site_fract_z
Si Si1 0.427047 0.586344 0.304668
Si Si2 0.647420 0.809088 0.289910
Si Si3 0.633582 0.758364 0.102030
Si Si4 0.252000 0.512200 0.610577
Si Si5 0.265956 0.468467 0.736593
Si Si6 0.615162 0.780231 0.843878
Si Si7 0.009133 0.335447 0.239767
Si Si8 0.718562 0.400589 0.528755
O O1 0.613975 0.631729 0.436064
O O2 0.356513 0.325776 0.140409
O O3 0.397582 0.889847 0.521146
O O4 0.361381 0.468862 0.112895
O O5 0.718915 0.779278 0.234817
O O6 0.741807 0.794020 0.398348
O O7 0.500000 0.500000 0.000000
O O8 0.685614 0.085035 0.326652
O O9 0.447875 0.660986 0.953871
O O10 0.198548 0.392124 0.572476
O O11 0.106578 0.455889 0.443514
O O12 0.337976 0.869724 0.901167
O O13 0.164355 0.646040 0.839531
O O14 0.705623 0.640421 0.742722
O O15 0.427744 0.638574 0.628527
O O16 0.117425 0.504700 0.355195
O O17 0.000000 0.000000 0.000000
#
# Coordination Sequence:
#
# PCOD9011540 Si02
#       8
#     2   2   2   2   2   2   2   2
#     4  11  20  36  65 100 122 156 217 267 320 355
#     4  10  23  39  63  90 130 168 212 269 302 368
#     4  10  21  40  66  95 120 166 219 267 301 369
#     4  11  22  38  65  94 127 164 211 262 320 383
#     4  10  23  42  58  89 132 164 209 249 323 372
#     4  11  20  36  67  97 125 157 213 277 311 365
#     4  12  26  38  59  95 133 168 198 259 333 389
#     4  11  21  36  65  94 127 165 209 262 322 371
#
# _framework density 19.907653
#
# number of rings (size 3 to 8) (size 9 to 14) (size 15 to 20)
#    0.000    1.250    5.000    2.250    5.250    4.500 
#    0.000    0.625    0.000    1.500    0.000    0.000 
#    0.000    0.000    0.000    0.000    0.000    0.000 
#
# Total GULP energy -89252.836968 kJ/mol
# GULP energy per Si atom -5578.302311 kJ/mol
# Density = 1.986234 g / cm^3
# Si number density = 19.907653 Si / 1000 Ang^3
#
#
#
# Elastic Constant Matrix: (Units=GPa)
#
#
# Indices 1 2 3 4 5 6 
#
# 1 71.4300 42.2723 15.8346 -14.0280 -18.2231 39.2646
# 2 42.2723 63.0110 17.1565 26.2103 -5.2028 26.2834
# 3 15.8346 17.1565 44.7184 2.8704 -17.3396 12.0366
# 4 -14.0280 26.2103 2.8704 10.5512 -6.8016 6.5038
# 5 -18.2231 -5.2028 -17.3396 -6.8016 19.0510 8.1104
# 6 39.2646 26.2834 12.0366 6.5038 8.1104 33.5043
#
#
#
# Elastic Compliance Matrix: (Units=1/GPa)
#
#
# Indices 1 2 3 4 5 6 
#
# 1 0.002714 0.011550 -0.006054 -0.026926 -0.008153 -0.002866
# 2 0.011550 0.050498 0.020407 -0.034902 0.060000 -0.068231
# 3 -0.006054 0.020407 0.037496 -0.033990 0.031770 -0.023477
# 4 -0.026926 -0.034902 -0.033990 0.052216 -0.082007 0.080861
# 5 -0.008153 0.060000 0.031770 -0.082007 0.083359 -0.053187
# 6 -0.002866 -0.068231 -0.023477 0.080861 -0.053187 0.092344
#
#
# Mechanical properties :
#
#
# Convention : Reuss Voigt Hill
#
# Bulk Modulus (GPa) = 7.01682 36.63180 21.82431
# Shear Modulus (GPa) = 15.90712 19.54771 17.72741
#
# Velocity S-wave (km/s) = 2.82981 3.13696 2.98733
# Velocity P-wave (km/s) = 3.76954 5.61796 4.78387
#
# Compressibility (1/GPa) = 0.14251460
#
# Stress axis : x y z
#
# Youngs Moduli (GPa) = 368.48122 19.80281 26.66929
#
# Poissons Ratio (x) = -0.22873 0.16145
# Poissons Ratio (y) = -4.25612 -0.54423
# Poissons Ratio (z) = 2.23069 -0.40411
#
# Static dielectric constant tensor:
#      x y z
#    x 1.735010 0.036960 -0.013210 
#    y 0.036960 1.736980 -0.055160 
#    z -0.013210 -0.055160 1.690010 
# 
# From -- ./inp_files/598202.got.cif
#   From: 2010.05.17/outbox.cif.g08.bks.cpg/sg2_300_cif.got.tgz:598202.got - 2010.06.03 11:33:40.
