data_PCOD9011640
_publ_section_title
;
Structure prediction by ZEFSAII (Michael W. Deem and Ramdas Pophale) SiO2 
 PCOD9011640
Probable space group: P -1
;
_chemical_formula_sum "Si O2"
_cell_formula_units_Z 14
_cell_length_a 9.189844
_cell_length_b 20.832959
_cell_length_c 5.623575
_cell_angle_alpha 52.981176
_cell_angle_beta 44.827525
_cell_angle_gamma 55.599906
_cell_volume 587.535853
_symmetry_space_group_name_H-M "P -1"
_symmetry_group_IT_number 2
_symmetry_cell_setting 'triclinic'
loop_
_space_group_symop_operation_xyz
x,y,z
-x,-y,-z
loop_
_atom_site_type_symbol
_atom_site_label
_atom_site_fract_x
_atom_site_fract_y
_atom_site_fract_z
Si Si1 0.620354 0.980812 0.650906
Si Si2 0.235555 0.761698 0.611774
Si Si3 0.678989 0.469117 0.560662
Si Si4 0.113026 0.179558 0.487475
Si Si5 0.381734 0.379447 0.405128
Si Si6 0.063269 0.326694 0.521866
Si Si7 0.901769 0.080917 0.283799
O O1 0.741617 0.883151 0.724722
O O2 0.500000 0.000000 0.500000
O O3 0.770220 0.045003 0.323111
O O4 0.500000 0.000000 0.000000
O O5 0.468908 0.701738 0.467288
O O6 0.236606 0.846961 0.553455
O O7 0.115968 0.782785 0.453325
O O8 0.081252 0.717890 0.043924
O O9 0.500000 0.500000 0.500000
O O10 0.731224 0.550222 0.435812
O O11 0.898647 0.401332 0.410012
O O12 0.553269 0.422043 0.988797
O O13 0.179878 0.256752 0.356248
O O14 0.077692 0.119160 0.873220
O O15 0.223062 0.358432 0.439894
O O16 0.000000 0.000000 0.500000
#
# Coordination Sequence:
#
# PCOD9011640 Si02
#       7
#     2   2   2   2   2   2   2
#     4  12  28  43  68 104 137 179 244 304 357 427
#     4  10  23  40  64  93 134 177 231 279 352 414
#     4  10  21  40  66  98 132 173 225 272 348 419
#     4  11  24  44  67  93 135 185 235 288 357 428
#     4  10  22  40  65  95 136 174 221 284 342 416
#     4  10  23  41  63  99 134 177 224 287 343 418
#     4  11  23  45  68  91 134 187 234 293 360 419
#
# _framework density 23.828333000000001
#
# number of rings (size 3 to 8) (size 9 to 14) (size 15 to 20)
#    0.000    1.429    1.429    2.571    6.000    1.714 
#    0.000    0.000    0.000    0.000    0.000    0.000 
#    0.000    0.000    0.000    0.000    0.000    0.000 
#
# Total GULP energy -78300.719926 kJ/mol
# GULP energy per Si atom -5592.908566 kJ/mol
# Density = 2.377410 g / cm^3
# Si number density = 23.828333 Si / 1000 Ang^3
#
#
#
# Elastic Constant Matrix: (Units=GPa)
#
#
# Indices 1 2 3 4 5 6 
#
# 1 171.0954 79.1888 11.8276 -20.6994 -4.0154 20.3190
# 2 79.1888 202.1447 56.2504 -24.5532 -6.0282 23.2590
# 3 11.8276 56.2504 72.0614 6.8455 3.6005 -6.3463
# 4 -20.6994 -24.5532 6.8455 23.1716 -1.8808 6.0206
# 5 -4.0154 -6.0282 3.6005 -1.8808 35.7601 -13.3566
# 6 20.3190 23.2590 -6.3463 6.0206 -13.3566 50.0026
#
#
#
# Elastic Compliance Matrix: (Units=1/GPa)
#
#
# Indices 1 2 3 4 5 6 
#
# 1 0.007839 -0.001696 -0.000843 0.006300 -0.000231 -0.003324
# 2 -0.001696 0.011531 -0.010971 0.016032 0.000793 -0.007785
# 3 -0.000843 -0.010971 0.025820 -0.023011 -0.001623 0.011060
# 4 0.006300 0.016032 -0.023011 0.078404 0.001657 -0.021935
# 5 -0.000231 0.000793 -0.001623 0.001657 0.031179 0.007648
# 6 -0.003324 -0.007785 0.011060 -0.021935 0.007648 0.031059
#
#
# Mechanical properties :
#
#
# Convention : Reuss Voigt Hill
#
# Bulk Modulus (GPa) = 55.03009 82.20391 68.61700
# Shear Modulus (GPa) = 22.84073 41.65582 32.24828
#
# Velocity S-wave (km/s) = 3.09941 4.18564 3.68279
# Velocity P-wave (km/s) = 5.99608 7.61136 6.85149
#
# Compressibility (1/GPa) = 0.01817188
#
# Stress axis : x y z
#
# Youngs Moduli (GPa) = 127.56258 86.72477 38.72965
#
# Poissons Ratio (x) = 0.14706 0.03264
# Poissons Ratio (y) = 0.21631 0.42489
# Poissons Ratio (z) = 0.10750 0.95143
#
# Static dielectric constant tensor:
#      x y z
#    x 1.731720 -0.036950 0.069890 
#    y -0.036950 1.948410 0.036330 
#    z 0.069890 0.036330 1.932450 
# 
# From -- ./inp_files/52148.got.cif
#   From: 2010.05.17/outbox.cif.g08.bks.cpg/sg2_27_cif.got.tgz:52148.got - 2010.06.03 11:33:40.
