data_PCOD9011598
_publ_section_title
;
Structure prediction by ZEFSAII (Michael W. Deem and Ramdas Pophale) SiO2 
 PCOD9011598
Probable space group: P -1
;
_chemical_formula_sum "Si O2"
_cell_formula_units_Z 14
_cell_length_a 19.724722
_cell_length_b 7.354429
_cell_length_c 5.111130
_cell_angle_alpha 138.115615
_cell_angle_beta 84.363318
_cell_angle_gamma 101.177832
_cell_volume 484.413448
_symmetry_space_group_name_H-M "P -1"
_symmetry_group_IT_number 2
_symmetry_cell_setting 'triclinic'
loop_
_space_group_symop_operation_xyz
x,y,z
-x,-y,-z
loop_
_atom_site_type_symbol
_atom_site_label
_atom_site_fract_x
_atom_site_fract_y
_atom_site_fract_z
Si Si1 0.385723 0.504929 0.628743
Si Si2 0.699269 0.769009 0.239070
Si Si3 0.009118 0.193501 0.957192
Si Si4 0.715778 0.144474 0.163952
Si Si5 0.843250 0.631963 0.105458
Si Si6 0.503303 0.765479 0.470230
Si Si7 0.859721 0.186148 0.000217
O O1 0.354782 0.501438 0.934623
O O2 0.318027 0.587627 0.596356
O O3 0.444343 0.707100 0.655022
O O4 0.427575 0.250615 0.399731
O O5 0.773352 0.689878 0.069404
O O6 0.679492 0.950775 0.204155
O O7 0.707813 0.953853 0.700513
O O8 0.940847 0.332160 0.143797
O O9 0.087822 0.345136 0.066593
O O10 0.000000 0.000000 0.500000
O O11 0.000000 0.000000 0.000000
O O12 0.799094 0.202364 0.246894
O O13 0.858755 0.868296 0.581546
O O14 0.832262 0.339495 0.933262
O O15 0.500000 0.000000 0.500000
O O16 0.500000 0.500000 0.000000
#
# Coordination Sequence:
#
# PCOD9011598 Si02
#       7
#     2   2   2   2   2   2   2
#     4  11  26  44  74 105 144 186 236 291 354 430
#     4  11  25  44  70 105 146 189 240 295 357 423
#     4  10  21  40  66  96 136 188 238 295 355 415
#     4  11  25  44  70 105 146 189 240 295 357 423
#     4  10  21  43  65 101 139 187 239 296 353 420
#     4  11  28  49  76 106 145 184 237 289 354 428
#     4  10  21  43  65 101 139 187 239 296 353 420
#
# _framework density 28.900929999999999
#
# number of rings (size 3 to 8) (size 9 to 14) (size 15 to 20)
#    0.000    1.429    1.429    2.143    8.000    1.143 
#    0.000   20.000    0.000    0.000    0.000    0.000 
#    0.000    0.000    0.000    0.000    0.000    0.000 
#
# Total GULP energy -78245.495156 kJ/mol
# GULP energy per Si atom -5588.963940 kJ/mol
# Density = 2.883515 g / cm^3
# Si number density = 28.900930 Si / 1000 Ang^3
#
#
#
# Elastic Constant Matrix: (Units=GPa)
#
#
# Indices 1 2 3 4 5 6 
#
# 1 232.7688 72.0329 40.0609 -1.0258 -45.7012 3.4608
# 2 72.0329 292.0773 68.9505 -23.1795 -18.7544 -19.8522
# 3 40.0609 68.9505 150.3829 -1.4476 -16.9811 -7.1830
# 4 -1.0258 -23.1795 -1.4476 45.1466 -5.6086 -10.7739
# 5 -45.7012 -18.7544 -16.9811 -5.6086 38.6919 -8.8877
# 6 3.4608 -19.8522 -7.1830 -10.7739 -8.8877 64.1912
#
#
#
# Elastic Compliance Matrix: (Units=1/GPa)
#
#
# Indices 1 2 3 4 5 6 
#
# 1 0.005922 -0.000870 -0.000414 0.000578 0.006559 0.000370
# 2 -0.000870 0.004438 -0.001539 0.002824 0.001293 0.001900
# 3 -0.000414 -0.001539 0.007762 -0.000090 0.002324 0.000722
# 4 0.000578 0.002824 -0.000090 0.025982 0.007199 0.006190
# 5 0.006559 0.001293 0.002324 0.007199 0.037835 0.006753
# 6 0.000370 0.001900 0.000722 0.006190 0.006753 0.018201
#
#
# Mechanical properties :
#
#
# Convention : Reuss Voigt Hill
#
# Bulk Modulus (GPa) = 80.16825 115.25751 97.71288
# Shear Modulus (GPa) = 45.47772 62.55160 54.01466
#
# Velocity S-wave (km/s) = 3.97113 4.65730 4.32784
# Velocity P-wave (km/s) = 6.98754 8.29984 7.67180
#
# Compressibility (1/GPa) = 0.01247377
#
# Stress axis : x y z
#
# Youngs Moduli (GPa) = 168.87052 225.32640 128.83759
#
# Poissons Ratio (x) = 0.19612 0.05340
# Poissons Ratio (y) = 0.14698 0.19828
# Poissons Ratio (z) = 0.06999 0.34677
#
# Static dielectric constant tensor:
#      x y z
#    x 2.787950 0.178340 0.179000 
#    y 0.178340 2.176970 0.070260 
#    z 0.179000 0.070260 2.367290 
# 
# From -- ./inp_files/10324.got.cif
#   From: 2010.05.17/outbox.cif.g08.bks.cpg/sg2_6_cif.got.tgz:10324.got - 2010.06.03 11:33:40.
