data_PCOD9011738
_publ_section_title
;
Structure prediction by ZEFSAII (Michael W. Deem and Ramdas Pophale) SiO2 
 PCOD9011738
Probable space group: P -1
;
_chemical_formula_sum "Si O2"
_cell_formula_units_Z 14
_cell_length_a 13.562429
_cell_length_b 14.980098
_cell_length_c 7.515695
_cell_angle_alpha 88.621073
_cell_angle_beta 122.493126
_cell_angle_gamma 138.805544
_cell_volume 618.494254
_symmetry_space_group_name_H-M "P -1"
_symmetry_group_IT_number 2
_symmetry_cell_setting 'triclinic'
loop_
_space_group_symop_operation_xyz
x,y,z
-x,-y,-z
loop_
_atom_site_type_symbol
_atom_site_label
_atom_site_fract_x
_atom_site_fract_y
_atom_site_fract_z
Si Si1 0.697277 0.795893 0.854325
Si Si2 0.082100 0.709760 0.570229
Si Si3 0.358250 0.681976 0.351585
Si Si4 0.658319 0.546355 0.281939
Si Si5 0.025466 0.522674 0.747772
Si Si6 0.686663 0.063274 0.569937
Si Si7 0.061236 0.196191 0.122366
O O1 0.508219 0.692672 0.518221
O O2 0.521644 0.657256 0.851877
O O3 0.836844 0.799269 0.936131
O O4 0.865164 0.995480 0.029485
O O5 0.910918 0.677844 0.445896
O O6 0.935176 0.525814 0.362322
O O7 0.159356 0.707429 0.825109
O O8 0.255017 0.854807 0.569503
O O9 0.247423 0.637344 0.438280
O O10 0.545394 0.875324 0.434394
O O11 0.130137 0.533978 0.011234
O O12 0.738397 0.644349 0.543043
O O13 0.500000 0.500000 0.000000
O O14 0.500000 0.000000 0.500000
O O15 0.927254 0.193468 0.909683
#
# Coordination Sequence:
#
# PCOD9011738 Si02
#       7
#     2   2   2   2   2   2   2
#     4  10  22  46  69  92 132 177 222 270 322 397
#     4  11  24  40  60  99 135 161 222 277 321 400
#     4  10  21  40  67  90 122 182 215 261 340 385
#     4  12  26  42  67  99 134 175 213 276 345 382
#     4  10  22  39  63  94 129 172 219 266 326 403
#     4  11  23  41  66  92 130 171 218 273 328 388
#     4  10  25  43  69  99 127 174 232 264 321 413
#
# _framework density 22.635621
#
# number of rings (size 3 to 8) (size 9 to 14) (size 15 to 20)
#    0.000    1.429    2.857    1.286    6.000    1.143 
#    2.571    0.000    0.000    0.000    0.000    0.000 
#    0.000    0.000    0.000    0.000    0.000    0.000 
#
# Total GULP energy -77937.296451 kJ/mol
# GULP energy per Si atom -5566.949747 kJ/mol
# Density = 2.258410 g / cm^3
# Si number density = 22.635621 Si / 1000 Ang^3
#
#
#
# Elastic Constant Matrix: (Units=GPa)
#
#
# Indices 1 2 3 4 5 6 
#
# 1 64.0992 22.4795 3.7614 -8.4778 16.0926 -6.2139
# 2 22.4795 150.1339 13.8286 -6.8313 17.0282 7.8051
# 3 3.7614 13.8286 64.4857 -12.0107 17.9257 -16.8656
# 4 -8.4778 -6.8313 -12.0107 32.8031 -9.7014 13.5608
# 5 16.0926 17.0282 17.9257 -9.7014 28.6426 -4.6133
# 6 -6.2139 7.8051 -16.8656 13.5608 -4.6133 32.7286
#
#
#
# Elastic Compliance Matrix: (Units=1/GPa)
#
#
# Indices 1 2 3 4 5 6 
#
# 1 0.019414 -0.002177 0.003623 0.000959 -0.010889 0.004140
# 2 -0.002177 0.007691 -0.001613 0.001353 -0.002525 -0.003996
# 3 0.003623 -0.001613 0.022086 0.000532 -0.013044 0.010395
# 4 0.000959 0.001353 0.000532 0.040324 0.009529 -0.015231
# 5 -0.010889 -0.002525 -0.013044 0.009529 0.053175 -0.004640
# 6 0.004140 -0.003996 0.010395 -0.015231 -0.004640 0.043307
#
#
# Mechanical properties :
#
#
# Convention : Reuss Voigt Hill
#
# Bulk Modulus (GPa) = 20.46898 39.87310 30.17104
# Shear Modulus (GPa) = 24.67713 34.74479 29.71096
#
# Velocity S-wave (km/s) = 3.30538 3.92211 3.62688
# Velocity P-wave (km/s) = 4.86106 6.17770 5.55850
#
# Compressibility (1/GPa) = 0.04885442
#
# Stress axis : x y z
#
# Youngs Moduli (GPa) = 51.51036 130.02325 45.27830
#
# Poissons Ratio (x) = 0.28307 -0.16403
# Poissons Ratio (y) = 0.11214 0.07305
# Poissons Ratio (z) = -0.18660 0.20978
#
# Static dielectric constant tensor:
#      x y z
#    x 2.007350 0.214570 -0.128510 
#    y 0.214570 2.181760 -0.208480 
#    z -0.128510 -0.208480 2.071290 
# 
# From -- ./inp_files/315141.got.cif
#   From: 2010.05.17/outbox.cif.g08.bks.cpg/sg2_158_cif.got.tgz:315141.got - 2010.06.03 11:33:40.
