data_PCOD9011139
_publ_section_title
;
Structure prediction by ZEFSAII (Michael W. Deem and Ramdas Pophale) SiO2 
 PCOD9011139
Probable space group: P -1
;
_chemical_formula_sum "Si O2"
_cell_formula_units_Z 16
_cell_length_a 9.347529
_cell_length_b 15.584678
_cell_length_c 11.968693
_cell_angle_alpha 133.501397
_cell_angle_beta 38.952383
_cell_angle_gamma 111.847453
_cell_volume 742.440549
_symmetry_space_group_name_H-M "P -1"
_symmetry_group_IT_number 2
_symmetry_cell_setting 'triclinic'
loop_
_space_group_symop_operation_xyz
x,y,z
-x,-y,-z
loop_
_atom_site_type_symbol
_atom_site_label
_atom_site_fract_x
_atom_site_fract_y
_atom_site_fract_z
Si Si1 0.048223 0.387228 0.189097
Si Si2 0.296239 0.086773 0.116675
Si Si3 0.367080 0.340148 0.330015
Si Si4 0.748267 0.153844 0.498378
Si Si5 0.623345 0.298797 0.371365
Si Si6 0.458252 0.409120 0.798849
Si Si7 0.708036 0.040162 0.205533
Si Si8 0.496196 0.325624 0.000133
O O1 0.841156 0.524602 0.437364
O O2 0.901322 0.292429 0.190378
O O3 0.210752 0.363237 0.179714
O O4 0.235094 0.382138 0.969998
O O5 0.257606 0.229753 0.299242
O O6 0.031491 0.075540 0.277283
O O7 0.500000 0.000000 0.000000
O O8 0.358599 0.057875 0.920707
O O9 0.506886 0.336873 0.356212
O O10 0.541538 0.308539 0.087933
O O11 0.696036 0.289400 0.586950
O O12 0.634243 0.079322 0.414224
O O13 0.626932 0.204426 0.735673
O O14 0.474806 0.397726 0.644914
O O15 0.613142 0.166847 0.301886
O O16 0.447180 0.549832 0.960306
O O17 0.000000 0.000000 0.000000
#
# Coordination Sequence:
#
# PCOD9011139 Si02
#       8
#     2   2   2   2   2   2   2   2
#     4  11  23  39  66  95 125 170 205 254 319 372
#     4  11  21  40  65  89 118 168 213 252 319 367
#     4  12  24  38  61  95 129 164 209 255 317 376
#     4   9  20  39  63  90 118 158 210 259 305 364
#     4  11  23  41  60  97 130 160 208 260 314 377
#     4  10  21  40  65  92 131 162 209 254 312 376
#     4   9  20  39  68  83 119 165 211 260 300 365
#     4  11  22  39  62  94 127 165 205 260 310 375
#
# _framework density 21.550547999999999
#
# number of rings (size 3 to 8) (size 9 to 14) (size 15 to 20)
#    0.000    1.500    2.500    3.750    5.250    0.500 
#    2.250    1.250    8.250    0.000    0.000    0.000 
#    0.000    0.000    0.000    0.000    0.000    0.000 
#
# Total GULP energy -89273.111956 kJ/mol
# GULP energy per Si atom -5579.569497 kJ/mol
# Density = 2.150150 g / cm^3
# Si number density = 21.550548 Si / 1000 Ang^3
#
#
#
# Elastic Constant Matrix: (Units=GPa)
#
#
# Indices 1 2 3 4 5 6 
#
# 1 124.8424 21.0900 45.8890 -18.7211 34.6114 -19.9659
# 2 21.0900 33.6623 3.0355 -14.4045 -0.2197 -3.6212
# 3 45.8890 3.0355 82.2916 -8.5135 17.6989 -15.9525
# 4 -18.7211 -14.4045 -8.5135 28.4815 -5.6299 3.0453
# 5 34.6114 -0.2197 17.6989 -5.6299 26.1376 -4.5946
# 6 -19.9659 -3.6212 -15.9525 3.0453 -4.5946 33.4056
#
#
#
# Elastic Compliance Matrix: (Units=1/GPa)
#
#
# Indices 1 2 3 4 5 6 
#
# 1 0.017447 -0.009772 -0.004223 0.000954 -0.019310 0.004609
# 2 -0.009772 0.044239 0.002543 0.019804 0.015954 0.000558
# 3 -0.004223 0.002543 0.016481 0.002079 -0.004246 0.004848
# 4 0.000954 0.019804 0.002079 0.047888 0.007886 0.000429
# 5 -0.019310 0.015954 -0.004246 0.007886 0.067973 -0.003209
# 6 0.004609 0.000558 0.004848 0.000429 -0.003209 0.034585
#
#
# Mechanical properties :
#
#
# Convention : Reuss Voigt Hill
#
# Bulk Modulus (GPa) = 18.09547 42.31392 30.20469
# Shear Modulus (GPa) = 18.52271 28.99037 23.75654
#
# Velocity S-wave (km/s) = 2.93491 3.67171 3.32379
# Velocity P-wave (km/s) = 4.46093 6.13618 5.36435
#
# Compressibility (1/GPa) = 0.05526246
#
# Stress axis : x y z
#
# Youngs Moduli (GPa) = 57.31642 22.60466 60.67422
#
# Poissons Ratio (x) = 0.22090 0.25626
# Poissons Ratio (y) = 0.56011 -0.15431
# Poissons Ratio (z) = 0.24207 -0.05749
#
# Static dielectric constant tensor:
#      x y z
#    x 1.784400 0.006730 0.049210 
#    y 0.006730 1.832570 -0.008720 
#    z 0.049210 -0.008720 1.828530 
# 
# From -- ./inp_files/278741.got.cif
#   From: 2010.05.17/outbox.cif.g08.bks.cpg/sg2_140_cif.got.tgz:278741.got - 2010.06.03 11:33:40.
