data_PCOD9011226
_publ_section_title
;
Structure prediction by ZEFSAII (Michael W. Deem and Ramdas Pophale) SiO2 
 PCOD9011226
Probable space group: P -1
;
_chemical_formula_sum "Si O2"
_cell_formula_units_Z 14
_cell_length_a 13.868626
_cell_length_b 12.031587
_cell_length_c 9.295583
_cell_angle_alpha 147.677932
_cell_angle_beta 55.220673
_cell_angle_gamma 126.945728
_cell_volume 655.676185
_symmetry_space_group_name_H-M "P -1"
_symmetry_group_IT_number 2
_symmetry_cell_setting 'triclinic'
loop_
_space_group_symop_operation_xyz
x,y,z
-x,-y,-z
loop_
_atom_site_type_symbol
_atom_site_label
_atom_site_fract_x
_atom_site_fract_y
_atom_site_fract_z
Si Si1 0.473721 0.087512 0.962498
Si Si2 0.267369 0.330279 0.410686
Si Si3 0.379953 0.653547 0.437180
Si Si4 0.800685 0.242890 0.523801
Si Si5 0.694842 0.485571 0.116905
Si Si6 0.710990 0.732178 0.096508
Si Si7 0.935318 0.755066 0.753116
O O1 0.653789 0.844377 0.851711
O O2 0.471741 0.889888 0.638388
O O3 0.573549 0.306172 0.072102
O O4 0.500000 0.000000 0.000000
O O5 0.655064 0.446457 0.485201
O O6 0.243691 0.387863 0.656485
O O7 0.149163 0.263460 0.336513
O O8 0.271345 0.714834 0.509787
O O9 0.385926 0.435898 0.107095
O O10 0.945642 0.324378 0.463393
O O11 0.741613 0.985323 0.318295
O O12 0.769491 0.356475 0.817883
O O13 0.673330 0.658914 0.209698
O O14 0.840520 0.688213 0.892390
O O15 0.000000 0.000000 0.000000
#
# Coordination Sequence:
#
# PCOD9011226 Si02
#       7
#     2   2   2   2   2   2   2
#     4  12  25  42  66  90 129 174 215 260 318 379
#     4  11  24  42  65  96 127 169 217 258 318 376
#     4  10  21  40  65  95 121 171 212 253 313 380
#     4  10  22  43  66  98 130 165 211 258 320 378
#     4  11  25  39  63  98 130 166 211 267 314 372
#     4   9  21  39  64  92 132 160 208 264 307 372
#     4   9  19  43  69  92 126 170 208 258 317 380
#
# _framework density 21.352001999999999
#
# number of rings (size 3 to 8) (size 9 to 14) (size 15 to 20)
#    0.000    1.714    1.429    3.000    2.000    8.000 
#    0.000   12.143    0.000    0.000    0.000    0.000 
#    0.000    0.000    0.000    0.000    0.000    0.000 
#
# Total GULP energy -78016.527680 kJ/mol
# GULP energy per Si atom -5572.609120 kJ/mol
# Density = 2.130340 g / cm^3
# Si number density = 21.352002 Si / 1000 Ang^3
#
#
#
# Elastic Constant Matrix: (Units=GPa)
#
#
# Indices 1 2 3 4 5 6 
#
# 1 75.9383 48.2106 42.0479 -2.8711 3.9436 -5.3812
# 2 48.2106 110.5505 22.3679 6.1916 -0.5228 -13.6776
# 3 42.0479 22.3679 108.3675 4.1255 -2.8216 -4.0466
# 4 -2.8711 6.1916 4.1255 47.6992 -2.1080 1.6193
# 5 3.9436 -0.5228 -2.8216 -2.1080 39.0573 -0.6563
# 6 -5.3812 -13.6776 -4.0466 1.6193 -0.6563 44.7234
#
#
#
# Elastic Compliance Matrix: (Units=1/GPa)
#
#
# Indices 1 2 3 4 5 6 
#
# 1 0.023061 -0.008850 -0.007340 0.003072 -0.002824 -0.000748
# 2 -0.008850 0.013247 0.000937 -0.002394 0.001063 0.003174
# 3 -0.007340 0.000937 0.012003 -0.001552 0.001546 0.000568
# 4 0.003072 -0.002394 -0.001552 0.021669 0.000694 -0.001277
# 5 -0.002824 0.001063 0.001546 0.000694 0.026060 0.000482
# 6 -0.000748 0.003174 0.000568 -0.001277 0.000482 0.023345
#
#
# Mechanical properties :
#
#
# Convention : Reuss Voigt Hill
#
# Bulk Modulus (GPa) = 56.16152 57.78988 56.97570
# Shear Modulus (GPa) = 32.08732 38.44463 35.26597
#
# Velocity S-wave (km/s) = 3.88077 4.24785 4.06846
# Velocity P-wave (km/s) = 6.81471 7.15424 6.98654
#
# Compressibility (1/GPa) = 0.01780578
#
# Stress axis : x y z
#
# Youngs Moduli (GPa) = 43.36377 75.48794 83.31285
#
# Poissons Ratio (x) = 0.66804 0.61149
# Poissons Ratio (y) = 0.38375 -0.07805
# Poissons Ratio (z) = 0.31827 -0.07072
#
# Static dielectric constant tensor:
#      x y z
#    x 1.648150 0.058380 0.019310 
#    y 0.058380 1.797820 -0.003210 
#    z 0.019310 -0.003210 1.790140 
# 
# From -- ./inp_files/260907.got.cif
#   From: 2010.05.17/outbox.cif.g08.bks.cpg/sg2_131_cif.got.tgz:260907.got - 2010.06.03 11:33:40.
