data_PCOD9011613
_publ_section_title
;
Structure prediction by ZEFSAII (Michael W. Deem and Ramdas Pophale) SiO2 
 PCOD9011613
Probable space group: P -1
;
_chemical_formula_sum "Si O2"
_cell_formula_units_Z 16
_cell_length_a 12.690488
_cell_length_b 9.255025
_cell_length_c 8.519518
_cell_angle_alpha 91.855077
_cell_angle_beta 96.806272
_cell_angle_gamma 45.957932
_cell_volume 712.453373
_symmetry_space_group_name_H-M "P -1"
_symmetry_group_IT_number 2
_symmetry_cell_setting 'triclinic'
loop_
_space_group_symop_operation_xyz
x,y,z
-x,-y,-z
loop_
_atom_site_type_symbol
_atom_site_label
_atom_site_fract_x
_atom_site_fract_y
_atom_site_fract_z
Si Si1 0.078352 0.196180 0.548515
Si Si2 0.829242 0.137394 0.952153
Si Si3 0.121925 0.196233 0.920104
Si Si4 0.781130 0.653128 0.562493
Si Si5 0.563690 0.645078 0.409767
Si Si6 0.260808 0.782493 0.414969
Si Si7 0.392002 0.469292 0.937798
Si Si8 0.786779 0.596187 0.928931
O O1 0.115514 0.152565 0.737911
O O2 0.173660 0.233812 0.488348
O O3 0.911065 0.417895 0.520591
O O4 0.122817 0.003524 0.467591
O O5 0.774339 0.229708 0.771517
O O6 0.759681 0.298121 0.083344
O O7 0.795505 0.001600 0.969892
O O8 0.000000 0.000000 0.000000
O O9 0.952108 0.369650 0.957592
O O10 0.199789 0.276887 0.953466
O O11 0.627661 0.736692 0.476773
O O12 0.776149 0.656252 0.749703
O O13 0.401098 0.757599 0.442428
O O14 0.676888 0.415362 0.488780
O O15 0.563323 0.636415 0.222645
O O16 0.500000 0.500000 0.000000
O O17 0.346762 0.383540 0.045977
#
# Coordination Sequence:
#
# PCOD9011613 Si02
#       8
#     2   2   2   2   2   2   2   2
#     4  10  22  41  66  99 129 164 221 270 324 388
#     4  12  24  41  68  98 130 169 219 273 327 382
#     4  10  21  40  66  97 129 165 215 271 323 382
#     4  10  22  40  68  96 129 170 212 270 330 387
#     4  11  25  42  65  90 132 177 214 262 323 389
#     4  11  25  43  63  94 132 171 217 266 323 387
#     4  12  24  43  65  95 134 174 216 263 324 394
#     4  10  21  40  67  95 130 170 213 265 326 384
#
# _framework density 22.457609000000001
#
# number of rings (size 3 to 8) (size 9 to 14) (size 15 to 20)
#    0.000    1.250    2.500    3.000    5.250    3.000 
#    0.000    0.625    0.000    0.000    0.000    0.000 
#    0.000    0.000    0.000    0.000    0.000    0.000 
#
# Total GULP energy -89416.317627 kJ/mol
# GULP energy per Si atom -5588.519852 kJ/mol
# Density = 2.240649 g / cm^3
# Si number density = 22.457609 Si / 1000 Ang^3
#
#
#
# Elastic Constant Matrix: (Units=GPa)
#
#
# Indices 1 2 3 4 5 6 
#
# 1 133.0364 -8.9024 11.0273 -6.0761 -6.1792 1.2998
# 2 -8.9024 51.6804 6.5833 5.6536 -10.5554 5.0796
# 3 11.0273 6.5833 51.4059 -4.3058 -7.3191 8.2544
# 4 -6.0761 5.6536 -4.3058 23.6809 1.2862 3.7496
# 5 -6.1792 -10.5554 -7.3191 1.2862 36.2209 -2.1316
# 6 1.2998 5.0796 8.2544 3.7496 -2.1316 14.5692
#
#
#
# Elastic Compliance Matrix: (Units=1/GPa)
#
#
# Indices 1 2 3 4 5 6 
#
# 1 0.007895 0.001764 -0.001500 0.001347 0.001475 -0.000600
# 2 0.001764 0.022164 -0.001990 -0.004812 0.006258 -0.004604
# 3 -0.001500 -0.001990 0.023120 0.006274 0.002820 -0.013474
# 4 0.001347 -0.004812 0.006274 0.047296 -0.002439 -0.014526
# 5 0.001475 0.006258 0.002820 -0.002439 0.030409 0.001165
# 6 -0.000600 -0.004604 -0.013474 -0.014526 0.001165 0.081839
#
#
# Mechanical properties :
#
#
# Convention : Reuss Voigt Hill
#
# Bulk Modulus (GPa) = 20.10976 28.17100 24.14038
# Shear Modulus (GPa) = 21.48223 30.05518 25.76871
#
# Velocity S-wave (km/s) = 3.09620 3.66226 3.39106
# Velocity P-wave (km/s) = 4.66432 5.51853 5.10931
#
# Compressibility (1/GPa) = 0.04972711
#
# Stress axis : x y z
#
# Youngs Moduli (GPa) = 126.66236 45.11828 43.25216
#
# Poissons Ratio (x) = -0.07959 0.06489
# Poissons Ratio (y) = -0.22343 0.08606
# Poissons Ratio (z) = 0.19004 0.08977
#
# Static dielectric constant tensor:
#      x y z
#    x 1.965570 -0.038760 -0.061680 
#    y -0.038760 1.882290 0.002780 
#    z -0.061680 0.002780 1.802530 
# 
# From -- ./inp_files/187522.got.cif
#   From: 2010.05.17/outbox.cif.g08.bks.cpg/sg2_94_cif.got.tgz:187522.got - 2010.06.03 11:33:40.
