data_PCOD9011377
_publ_section_title
;
Structure prediction by ZEFSAII (Michael W. Deem and Ramdas Pophale) SiO2 
 PCOD9011377
Probable space group: P -1
;
_chemical_formula_sum "Si O2"
_cell_formula_units_Z 12
_cell_length_a 5.193828
_cell_length_b 9.842562
_cell_length_c 17.603788
_cell_angle_alpha 140.798764
_cell_angle_beta 61.050880
_cell_angle_gamma 111.436194
_cell_volume 497.642614
_symmetry_space_group_name_H-M "P -1"
_symmetry_group_IT_number 2
_symmetry_cell_setting 'triclinic'
loop_
_space_group_symop_operation_xyz
x,y,z
-x,-y,-z
loop_
_atom_site_type_symbol
_atom_site_label
_atom_site_fract_x
_atom_site_fract_y
_atom_site_fract_z
Si Si1 0.770167 0.171878 0.143155
Si Si2 0.890963 0.668678 0.025993
Si Si3 0.742205 0.297445 0.798025
Si Si4 0.815553 0.601278 0.703201
Si Si5 0.736992 0.148343 0.569286
Si Si6 0.802154 0.980844 0.775435
O O1 0.513729 0.300415 0.188053
O O2 0.548696 0.040118 0.172081
O O3 0.953989 0.334850 0.237793
O O4 0.000000 0.000000 0.000000
O O5 0.553727 0.697042 0.108899
O O6 0.901594 0.525500 0.885896
O O7 0.080776 0.875377 0.108446
O O8 0.000000 0.500000 0.000000
O O9 0.645583 0.262084 0.710812
O O10 0.899126 0.095602 0.733019
O O11 0.810599 0.345676 0.589133
O O12 0.904085 0.736667 0.673995
O O13 0.500000 0.000000 0.500000
O O14 0.000000 0.000000 0.500000
#
# Coordination Sequence:
#
# PCOD9011377 Si02
#       6
#     2   2   2   2   2   2
#     4  10  21  40  66 106 142 180 216 280 352 427
#     4   9  19  38  67 106 140 180 215 282 356 423
#     4  10  22  43  68 101 142 179 232 280 348 419
#     4  10  23  43  66  95 138 176 235 284 341 410
#     4  12  29  51  71  95 137 189 246 293 344 396
#     4   9  21  38  69 100 145 172 229 275 351 422
#
# _framework density 24.113689999999998
#
# number of rings (size 3 to 8) (size 9 to 14) (size 15 to 20)
#    1.000    1.000    0.000    2.500    4.667    5.333 
#    3.000    1.667    0.000    0.000    0.000    0.000 
#    0.000    0.000    0.000    0.000    0.000    0.000 
#
# Total GULP energy -66890.505731 kJ/mol
# GULP energy per Si atom -5574.208811 kJ/mol
# Density = 2.405881 g / cm^3
# Si number density = 24.113690 Si / 1000 Ang^3
#
#
#
# Elastic Constant Matrix: (Units=GPa)
#
#
# Indices 1 2 3 4 5 6 
#
# 1 144.0073 31.3079 39.2733 23.8145 23.7247 16.5658
# 2 31.3079 93.1387 35.8543 34.0536 7.3956 -11.0936
# 3 39.2733 35.8543 80.9228 34.0641 24.6991 4.4008
# 4 23.8145 34.0536 34.0641 47.4767 -2.6822 7.0427
# 5 23.7247 7.3956 24.6991 -2.6822 52.3412 11.9388
# 6 16.5658 -11.0936 4.4008 7.0427 11.9388 43.9223
#
#
#
# Elastic Compliance Matrix: (Units=1/GPa)
#
#
# Indices 1 2 3 4 5 6 
#
# 1 0.008809 -0.001831 -0.002094 -0.001315 -0.002181 -0.002771
# 2 -0.001831 0.017523 -0.000995 -0.012361 -0.003680 0.008198
# 3 -0.002094 -0.000995 0.024601 -0.017207 -0.012357 0.004192
# 4 -0.001315 -0.012361 -0.017207 0.045670 0.015649 -0.012478
# 5 -0.002181 -0.003680 -0.012357 0.015649 0.029383 -0.009365
# 6 -0.002771 0.008198 0.004192 -0.012478 -0.009365 0.030010
#
#
# Mechanical properties :
#
#
# Convention : Reuss Voigt Hill
#
# Bulk Modulus (GPa) = 24.33428 58.99332 41.66380
# Shear Modulus (GPa) = 27.84993 42.85693 35.35343
#
# Velocity S-wave (km/s) = 3.40213 4.22036 3.83314
# Velocity P-wave (km/s) = 5.05431 6.94740 6.07505
#
# Compressibility (1/GPa) = 0.04109429
#
# Stress axis : x y z
#
# Youngs Moduli (GPa) = 113.52281 57.06734 40.64798
#
# Poissons Ratio (x) = 0.10449 0.08510
# Poissons Ratio (y) = 0.20787 0.04044
# Poissons Ratio (z) = 0.23768 0.05677
#
# Static dielectric constant tensor:
#      x y z
#    x 2.280250 -0.211580 -0.111820 
#    y -0.211580 2.027000 0.065450 
#    z -0.111820 0.065450 2.014210 
# 
# From -- ./inp_files/582906.got.cif
#   From: 2010.05.17/outbox.cif.g08.bks.cpg/sg2_292_cif.got.tgz:582906.got - 2010.06.03 11:33:40.
