data_PCOD9011910
_publ_section_title
;
Structure prediction by ZEFSAII (Michael W. Deem and Ramdas Pophale) SiO2 
 PCOD9011910
Probable space group: P -1
;
_chemical_formula_sum "Si O2"
_cell_formula_units_Z 16
_cell_length_a 7.290578
_cell_length_b 19.266940
_cell_length_c 21.592541
_cell_angle_alpha 155.618104
_cell_angle_beta 39.249619
_cell_angle_gamma 142.095074
_cell_volume 750.419951
_symmetry_space_group_name_H-M "P -1"
_symmetry_group_IT_number 2
_symmetry_cell_setting 'triclinic'
loop_
_space_group_symop_operation_xyz
x,y,z
-x,-y,-z
loop_
_atom_site_type_symbol
_atom_site_label
_atom_site_fract_x
_atom_site_fract_y
_atom_site_fract_z
Si Si1 0.335146 0.470450 0.781488
Si Si2 0.647560 0.195690 0.353177
Si Si3 0.626008 0.702452 0.613121
Si Si4 0.242291 0.262981 0.198105
Si Si5 0.212093 0.870775 0.346098
Si Si6 0.448119 0.196661 0.920503
Si Si7 0.654674 0.205564 0.502819
Si Si8 0.179284 0.873527 0.924663
O O1 0.488958 0.567341 0.756826
O O2 0.541555 0.370399 0.683776
O O3 0.014911 0.319287 0.728090
O O4 0.349820 0.635100 0.956456
O O5 0.476833 0.269148 0.406220
O O6 0.553775 0.193677 0.446864
O O7 0.010545 0.297030 0.336102
O O8 0.590687 0.988237 0.183779
O O9 0.500000 0.500000 0.500000
O O10 0.461942 0.800426 0.783243
O O11 0.989257 0.762364 0.566025
O O12 0.028941 0.205791 0.146016
O O13 0.310874 0.086213 0.057095
O O14 0.378131 0.819183 0.200730
O O15 0.492554 0.017915 0.426389
O O16 0.000000 0.000000 0.500000
O O17 0.088223 0.187395 0.002455
#
# Coordination Sequence:
#
# PCOD9011910 Si02
#       8
#     2   2   2   2   2   2   2   2
#     4  10  17  29  54  79 103 142 186 221 259 312
#     4   9  19  35  53  78 111 143 174 217 275 320
#     4  11  20  31  53  82 113 144 175 215 269 325
#     4   8  14  27  49  73 101 137 174 214 261 314
#     4   9  19  33  50  76 108 140 179 226 268 309
#     4   9  16  32  56  77 103 143 182 218 266 322
#     4  10  21  35  53  80 113 143 177 221 265 317
#     4   8  15  28  47  75 105 133 171 215 264 317
#
# _framework density 21.321396
#
# number of rings (size 3 to 8) (size 9 to 14) (size 15 to 20)
#    0.000    2.750    0.000    4.875    0.000    2.000 
#    0.000    5.625    0.000   32.250    0.000    7.000 
#    0.000    0.000    0.000    0.000    0.000    0.000 
#
# Total GULP energy -89084.412157 kJ/mol
# GULP energy per Si atom -5567.775760 kJ/mol
# Density = 2.127287 g / cm^3
# Si number density = 21.321396 Si / 1000 Ang^3
#
#
#
# Elastic Constant Matrix: (Units=GPa)
#
#
# Indices 1 2 3 4 5 6 
#
# 1 42.3706 10.6197 13.9377 5.2890 -9.7107 6.8398
# 2 10.6197 185.5556 37.6988 20.2704 -12.3244 16.8023
# 3 13.9377 37.6988 84.7958 13.7506 -10.1800 7.9346
# 4 5.2890 20.2704 13.7506 47.5636 -0.8569 1.0599
# 5 -9.7107 -12.3244 -10.1800 -0.8569 21.9460 -7.0293
# 6 6.8398 16.8023 7.9346 1.0599 -7.0293 23.3650
#
#
#
# Elastic Compliance Matrix: (Units=1/GPa)
#
#
# Indices 1 2 3 4 5 6 
#
# 1 0.027609 0.000238 -0.002743 -0.002109 0.009607 -0.004336
# 2 0.000238 0.006435 -0.002053 -0.002070 0.001588 -0.003428
# 3 -0.002743 -0.002053 0.014178 -0.002824 0.003684 -0.001299
# 4 -0.002109 -0.002070 -0.002824 0.022889 -0.002061 0.001407
# 5 0.009607 0.001588 0.003684 -0.002061 0.056106 0.011768
# 6 -0.004336 -0.003428 -0.001299 0.001407 0.011768 0.050451
#
#
# Mechanical properties :
#
#
# Convention : Reuss Voigt Hill
#
# Bulk Modulus (GPa) = 25.57093 48.58161 37.07627
# Shear Modulus (GPa) = 25.02263 35.27265 30.14764
#
# Velocity S-wave (km/s) = 3.42949 4.07176 3.76435
# Velocity P-wave (km/s) = 5.26317 6.70377 6.02667
#
# Compressibility (1/GPa) = 0.03910690
#
# Stress axis : x y z
#
# Youngs Moduli (GPa) = 36.22043 155.40700 70.53059
#
# Poissons Ratio (x) = -0.03703 0.19346
# Poissons Ratio (y) = -0.00863 0.14478
# Poissons Ratio (z) = 0.09935 0.31901
#
# Static dielectric constant tensor:
#      x y z
#    x 1.803460 0.014450 0.014770 
#    y 0.014450 1.844550 -0.037450 
#    z 0.014770 -0.037450 1.870280 
# 
# From -- ./inp_files/313036.got.cif
#   From: 2010.05.17/outbox.cif.g08.bks.cpg/sg2_157_cif.got.tgz:313036.got - 2010.06.03 11:33:40.
