data_PCOD9011374
_publ_section_title
;
Structure prediction by ZEFSAII (Michael W. Deem and Ramdas Pophale) SiO2 
 PCOD9011374
Probable space group: P -1
;
_chemical_formula_sum "Si O2"
_cell_formula_units_Z 16
_cell_length_a 14.803726
_cell_length_b 12.210263
_cell_length_c 5.646764
_cell_angle_alpha 92.695854
_cell_angle_beta 64.847067
_cell_angle_gamma 128.810908
_cell_volume 684.225452
_symmetry_space_group_name_H-M "P -1"
_symmetry_group_IT_number 2
_symmetry_cell_setting 'triclinic'
loop_
_space_group_symop_operation_xyz
x,y,z
-x,-y,-z
loop_
_atom_site_type_symbol
_atom_site_label
_atom_site_fract_x
_atom_site_fract_y
_atom_site_fract_z
Si Si1 0.160886 0.585108 0.069820
Si Si2 0.711792 0.139296 0.325089
Si Si3 0.911352 0.292093 0.472722
Si Si4 0.387259 0.628248 0.023351
Si Si5 0.512842 0.850759 0.277771
Si Si6 0.430996 0.331324 0.525867
Si Si7 0.869298 0.692796 0.562089
Si Si8 0.127280 0.173295 0.919491
O O1 0.146001 0.637726 0.343320
O O2 0.290748 0.604239 0.923647
O O3 0.032198 0.415062 0.174702
O O4 0.180800 0.698348 0.884231
O O5 0.787072 0.142637 0.466224
O O6 0.591955 0.134409 0.518915
O O7 0.656440 0.011022 0.188081
O O8 0.997623 0.284901 0.560552
O O9 0.458337 0.785657 0.073197
O O10 0.273620 0.478408 0.281492
O O11 0.514076 0.653705 0.796253
O O12 0.516958 0.733325 0.382146
O O13 0.500000 0.500000 0.500000
O O14 0.272795 0.222695 0.737736
O O15 0.874311 0.750501 0.304238
O O16 0.875353 0.771792 0.807829
O O17 0.000000 0.000000 0.000000
#
# Coordination Sequence:
#
# PCOD9011374 Si02
#       8
#     2   2   2   2   2   2   2   2
#     4  10  21  40  66 103 141 190 244 301 375 460
#     4  11  23  43  66 105 152 191 241 308 386 465
#     4  10  23  40  69 103 140 195 239 304 380 459
#     4  11  23  45  73 109 145 195 260 317 377 463
#     4  11  26  41  70 105 146 193 247 311 385 457
#     4  12  26  48  76 103 145 204 259 315 388 446
#     4  11  27  48  78 108 151 202 257 322 382 460
#     4  12  29  52  74 111 152 198 264 326 385 457
#
# _framework density 23.384108000000001
#
# number of rings (size 3 to 8) (size 9 to 14) (size 15 to 20)
#    0.000    1.000    3.750    1.500    5.250    2.500 
#    0.000    0.000    0.000    0.000    0.000    0.000 
#    0.000    0.000    0.000    0.000    0.000    0.000 
#
# Total GULP energy -89201.076612 kJ/mol
# GULP energy per Si atom -5575.067288 kJ/mol
# Density = 2.333088 g / cm^3
# Si number density = 23.384108 Si / 1000 Ang^3
#
#
#
# Elastic Constant Matrix: (Units=GPa)
#
#
# Indices 1 2 3 4 5 6 
#
# 1 100.2151 41.4087 29.9233 -10.6313 -18.4040 18.4547
# 2 41.4087 26.9921 -11.9997 41.2500 -7.5579 15.5772
# 3 29.9233 -11.9997 44.6151 13.5598 -10.9047 -1.6916
# 4 -10.6313 41.2500 13.5598 0.8667 4.8525 -5.7098
# 5 -18.4040 -7.5579 -10.9047 4.8525 32.7277 1.5762
# 6 18.4547 15.5772 -1.6916 -5.7098 1.5762 34.1398
#
#
#
# Elastic Compliance Matrix: (Units=1/GPa)
#
#
# Indices 1 2 3 4 5 6 
#
# 1 0.012367 0.002109 -0.003187 -0.009515 0.008261 -0.009778
# 2 0.002109 0.002800 -0.006756 0.017641 -0.003050 0.000339
# 3 -0.003187 -0.006756 0.020054 0.010851 0.001357 0.007551
# 4 -0.009515 0.017641 0.010851 0.002332 0.002093 -0.002074
# 5 0.008261 -0.003050 0.001357 0.002093 0.034844 -0.004266
# 6 -0.009778 0.000339 0.007551 -0.002074 -0.004266 0.034647
#
#
# Mechanical properties :
#
#
# Convention : Reuss Voigt Hill
#
# Bulk Modulus (GPa) = 51.13982 32.27633 41.70808
# Shear Modulus (GPa) = 38.69138 21.04617 29.86877
#
# Velocity S-wave (km/s) = 4.07209 3.00329 3.57783
# Velocity P-wave (km/s) = 6.63522 5.08517 5.91123
#
# Compressibility (1/GPa) = 0.01955423
#
# Stress axis : x y z
#
# Youngs Moduli (GPa) = 80.86136 357.19582 49.86462
#
# Poissons Ratio (x) = -0.75346 0.15890
# Poissons Ratio (y) = -0.17057 0.33689
# Poissons Ratio (z) = 0.25767 2.41322
#
# Static dielectric constant tensor:
#      x y z
#    x 1.913460 -0.006040 0.063200 
#    y -0.006040 1.906940 0.049890 
#    z 0.063200 0.049890 2.032140 
# 
# From -- ./inp_files/94953.got.cif
#   From: 2010.05.17/outbox.cif.g08.bks.cpg/sg2_48_cif.got.tgz:94953.got - 2010.06.03 11:33:40.
