data_PCOD9011334
_publ_section_title
;
Structure prediction by ZEFSAII (Michael W. Deem and Ramdas Pophale) SiO2 
 PCOD9011334
Probable space group: P -1
;
_chemical_formula_sum "Si O2"
_cell_formula_units_Z 16
_cell_length_a 19.863599
_cell_length_b 16.677177
_cell_length_c 11.186002
_cell_angle_alpha 25.270920
_cell_angle_beta 141.919660
_cell_angle_gamma 155.445088
_cell_volume 644.185865
_symmetry_space_group_name_H-M "P -1"
_symmetry_group_IT_number 2
_symmetry_cell_setting 'triclinic'
loop_
_space_group_symop_operation_xyz
x,y,z
-x,-y,-z
loop_
_atom_site_type_symbol
_atom_site_label
_atom_site_fract_x
_atom_site_fract_y
_atom_site_fract_z
Si Si1 0.214585 0.581166 0.509648
Si Si2 0.912689 0.074526 0.611181
Si Si3 0.676143 0.748383 0.163504
Si Si4 0.041286 0.275099 0.927888
Si Si5 0.417979 0.700713 0.253232
Si Si6 0.733747 0.984792 0.162120
Si Si7 0.412464 0.521999 0.938730
Si Si8 0.102605 0.500561 0.974548
O O1 0.135114 0.480503 0.667440
O O2 0.381780 0.684083 0.623239
O O3 0.253587 0.822016 0.170970
O O4 0.080749 0.302724 0.614948
O O5 0.873067 0.245846 0.303452
O O6 0.928192 0.912000 0.763795
O O7 0.761757 0.800575 0.846432
O O8 0.627337 0.469045 0.459401
O O9 0.703672 0.779509 0.303178
O O10 0.522485 0.671018 0.010486
O O11 0.844786 0.031122 0.959813
O O12 0.084225 0.439333 0.888652
O O13 0.575182 0.802918 0.268993
O O14 0.249614 0.556971 0.148103
O O15 0.500000 0.000000 0.000000
O O16 0.921742 0.214109 0.163226
O O17 0.500000 0.500000 0.000000
#
# Coordination Sequence:
#
# PCOD9011334 Si02
#       8
#     2   2   2   2   2   2   2   2
#     4  10  22  41  68 103 140 179 223 284 351 421
#     4  10  21  40  65  98 139 179 227 277 342 418
#     4  11  25  45  68 103 136 182 229 289 344 409
#     4  10  22  43  70 101 141 180 226 285 349 423
#     4  12  28  48  71  99 138 183 241 291 340 416
#     4  10  26  47  70 103 140 177 235 289 343 419
#     4  11  22  35  66 100 137 180 220 282 351 409
#     4  10  25  46  71 100 136 190 228 288 352 406
#
# _framework density 24.837551000000001
#
# number of rings (size 3 to 8) (size 9 to 14) (size 15 to 20)
#    0.000    1.500    0.000    4.125   10.500    8.500 
#    6.750    0.000    0.000    0.000    0.000    0.000 
#    0.000    0.000    0.000    0.000    0.000    0.000 
#
# Total GULP energy -89387.758398 kJ/mol
# GULP energy per Si atom -5586.734900 kJ/mol
# Density = 2.478102 g / cm^3
# Si number density = 24.837551 Si / 1000 Ang^3
#
#
#
# Elastic Constant Matrix: (Units=GPa)
#
#
# Indices 1 2 3 4 5 6 
#
# 1 103.5270 12.7467 16.0731 -3.4142 4.8826 7.9323
# 2 12.7467 100.5094 37.7806 20.6461 -6.9975 19.7755
# 3 16.0731 37.7806 96.0983 9.1838 -4.7791 7.1153
# 4 -3.4142 20.6461 9.1838 32.9342 4.8632 1.7323
# 5 4.8826 -6.9975 -4.7791 4.8632 30.2108 -2.4067
# 6 7.9323 19.7755 7.1153 1.7323 -2.4067 39.3433
#
#
#
# Elastic Compliance Matrix: (Units=1/GPa)
#
#
# Indices 1 2 3 4 5 6 
#
# 1 0.010384 -0.001192 -0.001556 0.002745 -0.002762 -0.001503
# 2 -0.001192 0.014852 -0.004198 -0.008528 0.003875 -0.005853
# 3 -0.001556 -0.004198 0.012487 -0.001246 0.001480 0.000311
# 4 0.002745 -0.008528 -0.001246 0.037504 -0.008511 0.001786
# 5 -0.002762 0.003875 0.001480 -0.008511 0.036123 0.000926
# 6 -0.001503 -0.005853 0.000311 0.001786 0.000926 0.028584
#
#
# Mechanical properties :
#
#
# Convention : Reuss Voigt Hill
#
# Bulk Modulus (GPa) = 41.96810 48.14839 45.05825
# Shear Modulus (GPa) = 30.90816 36.06661 33.48739
#
# Velocity S-wave (km/s) = 3.53145 3.81478 3.67584
# Velocity P-wave (km/s) = 5.79326 6.23143 6.01634
#
# Compressibility (1/GPa) = 0.02382762
#
# Stress axis : x y z
#
# Youngs Moduli (GPa) = 96.30496 67.33221 80.08600
#
# Poissons Ratio (x) = 0.08028 0.12465
# Poissons Ratio (y) = 0.11483 0.33624
# Poissons Ratio (z) = 0.14989 0.28269
#
# Static dielectric constant tensor:
#      x y z
#    x 2.063470 -0.073870 0.133920 
#    y -0.073870 2.103470 0.000970 
#    z 0.133920 0.000970 2.093110 
# 
# From -- ./inp_files/543211.got.cif
#   From: 2010.05.17/outbox.cif.g08.bks.cpg/sg2_272_cif.got.tgz:543211.got - 2010.06.03 11:33:40.
