data_PCOD9011821
_publ_section_title
;
Structure prediction by ZEFSAII (Michael W. Deem and Ramdas Pophale) SiO2 
 PCOD9011821
Probable space group: P -1
;
_chemical_formula_sum "Si O2"
_cell_formula_units_Z 14
_cell_length_a 23.125794
_cell_length_b 12.079097
_cell_length_c 11.149190
_cell_angle_alpha 155.477608
_cell_angle_beta 150.776409
_cell_angle_gamma 24.935255
_cell_volume 524.299318
_symmetry_space_group_name_H-M "P -1"
_symmetry_group_IT_number 2
_symmetry_cell_setting 'triclinic'
loop_
_space_group_symop_operation_xyz
x,y,z
-x,-y,-z
loop_
_atom_site_type_symbol
_atom_site_label
_atom_site_fract_x
_atom_site_fract_y
_atom_site_fract_z
Si Si1 0.142667 0.412023 0.397292
Si Si2 0.855065 0.691471 0.249115
Si Si3 0.383722 0.875757 0.157471
Si Si4 0.392420 0.161794 0.220557
Si Si5 0.834084 0.210471 0.873294
Si Si6 0.109242 0.988411 0.773238
Si Si7 0.459407 0.517481 0.303789
O O1 0.300136 0.094855 0.341142
O O2 0.137480 0.731937 0.675425
O O3 0.029449 0.479597 0.361552
O O4 0.062307 0.335518 0.075672
O O5 0.817310 0.040379 0.559323
O O6 0.800234 0.556198 0.117439
O O7 0.766764 0.698639 0.980790
O O8 0.409140 0.083312 0.315263
O O9 0.500000 0.500000 0.000000
O O10 0.256111 0.865891 0.854096
O O11 0.455642 0.365302 0.498996
O O12 0.489068 0.826699 0.994519
O O13 0.713328 0.262154 0.797242
O O14 0.000000 0.000000 0.000000
O O15 0.000000 0.000000 0.500000
O O16 0.500000 0.500000 0.500000
#
# Coordination Sequence:
#
# PCOD9011821 Si02
#       7
#     2   2   2   2   2   2   2
#     4  10  24  41  70  98 146 178 240 290 346 426
#     4  12  23  44  74 107 137 191 242 288 373 439
#     4  10  27  47  68 107 151 189 241 296 354 427
#     4  12  25  42  80 103 141 199 241 290 371 426
#     4  12  27  47  72 105 145 180 236 311 369 426
#     4  10  21  40  67  94 139 180 228 287 346 404
#     4  12  24  49  73 105 143 181 249 307 351 436
#
# _framework density 26.702306
#
# number of rings (size 3 to 8) (size 9 to 14) (size 15 to 20)
#    0.857    0.000    2.857    3.857    4.000    1.714 
#    2.571    0.000    0.000    0.000    0.000    0.000 
#    0.000    0.000    0.000    0.000    0.000    0.000 
#
# Total GULP energy -78229.258990 kJ/mol
# GULP energy per Si atom -5587.804214 kJ/mol
# Density = 2.664153 g / cm^3
# Si number density = 26.702306 Si / 1000 Ang^3
#
#
#
# Elastic Constant Matrix: (Units=GPa)
#
#
# Indices 1 2 3 4 5 6 
#
# 1 101.8467 30.7908 26.6794 -6.1898 25.3262 -5.5071
# 2 30.7908 128.8141 21.9674 -27.9166 18.7811 -25.4151
# 3 26.6794 21.9674 91.9529 6.4659 30.4687 0.1170
# 4 -6.1898 -27.9166 6.4659 40.7724 -4.7383 9.3263
# 5 25.3262 18.7811 30.4687 -4.7383 55.2801 -8.1305
# 6 -5.5071 -25.4151 0.1170 9.3263 -8.1305 46.6040
#
#
#
# Elastic Compliance Matrix: (Units=1/GPa)
#
#
# Indices 1 2 3 4 5 6 
#
# 1 0.011817 -0.001979 -0.001712 0.000362 -0.003828 -0.000419
# 2 -0.001979 0.010980 -0.002424 0.006564 -0.000278 0.004398
# 3 -0.001712 -0.002424 0.014645 -0.004642 -0.007138 -0.001877
# 4 0.000362 0.006564 -0.004642 0.030569 0.002482 -0.002051
# 5 -0.003828 -0.000278 -0.007138 0.002482 0.024556 0.003201
# 6 -0.000419 0.004398 -0.001877 -0.002051 0.003201 0.024780
#
#
# Mechanical properties :
#
#
# Convention : Reuss Voigt Hill
#
# Bulk Modulus (GPa) = 39.66298 53.49877 46.58088
# Shear Modulus (GPa) = 36.23694 44.74305 40.48999
#
# Velocity S-wave (km/s) = 3.68784 4.09788 3.89826
# Velocity P-wave (km/s) = 5.74627 6.51682 6.14364
#
# Compressibility (1/GPa) = 0.02521243
#
# Stress axis : x y z
#
# Youngs Moduli (GPa) = 84.62577 91.07194 68.28290
#
# Poissons Ratio (x) = 0.18020 0.11691
# Poissons Ratio (y) = 0.16745 0.16551
# Poissons Ratio (z) = 0.14489 0.22075
#
# Static dielectric constant tensor:
#      x y z
#    x 1.775820 0.307190 0.099900 
#    y 0.307190 1.888400 -0.203350 
#    z 0.099900 -0.203350 2.045910 
# 
# From -- ./inp_files/544241.got.cif
#   From: 2010.05.17/outbox.cif.g08.bks.cpg/sg2_273_cif.got.tgz:544241.got - 2010.06.03 11:33:40.
