data_PCOD9011448
_publ_section_title
;
Structure prediction by ZEFSAII (Michael W. Deem and Ramdas Pophale) SiO2 
 PCOD9011448
Probable space group: P -1
;
_chemical_formula_sum "Si O2"
_cell_formula_units_Z 16
_cell_length_a 13.073552
_cell_length_b 10.779659
_cell_length_c 11.459056
_cell_angle_alpha 58.715549
_cell_angle_beta 70.475524
_cell_angle_gamma 120.422134
_cell_volume 697.364252
_symmetry_space_group_name_H-M "P -1"
_symmetry_group_IT_number 2
_symmetry_cell_setting 'triclinic'
loop_
_space_group_symop_operation_xyz
x,y,z
-x,-y,-z
loop_
_atom_site_type_symbol
_atom_site_label
_atom_site_fract_x
_atom_site_fract_y
_atom_site_fract_z
Si Si1 0.412697 0.644059 0.958783
Si Si2 0.562745 0.822432 0.394677
Si Si3 0.747515 0.412355 0.182548
Si Si4 0.027403 0.602435 0.144952
Si Si5 0.825719 0.584759 0.410780
Si Si6 0.847096 0.521285 0.684152
Si Si7 0.136197 0.057004 0.683820
Si Si8 0.795664 0.893864 0.643830
O O1 0.336100 0.667037 0.877212
O O2 0.637511 0.844253 0.753217
O O3 0.366314 0.670044 0.085518
O O4 0.289791 0.351774 0.148462
O O5 0.437001 0.744105 0.589587
O O6 0.398955 0.642918 0.441858
O O7 0.661491 0.780586 0.413166
O O8 0.760562 0.133035 0.128616
O O9 0.849704 0.388991 0.219327
O O10 0.940133 0.739317 0.945058
O O11 0.061201 0.509160 0.265583
O O12 0.959168 0.662463 0.220936
O O13 0.828755 0.485158 0.571271
O O14 0.900794 0.825218 0.309352
O O15 0.999806 0.823961 0.511361
O O16 0.175966 0.090623 0.513467
#
# Coordination Sequence:
#
# PCOD9011448 Si02
#       8
#     2   2   2   2   2   2   2   2
#     4  11  22  39  66 100 125 160 201 259 326 376
#     4  10  23  42  62  93 129 166 213 259 304 374
#     4  10  21  40  66  91 130 163 206 257 316 371
#     4  10  26  44  61  91 127 175 218 250 301 370
#     4  11  24  41  67  93 126 167 211 260 314 370
#     4  12  24  43  66  93 129 170 206 259 315 371
#     4  11  20  40  68  97 127 159 206 264 323 371
#     4  11  23  40  66 101 129 154 205 266 322 378
#
# _framework density 22.943532999999999
#
# number of rings (size 3 to 8) (size 9 to 14) (size 15 to 20)
#    0.000    1.250    3.750    1.875    0.000    9.500 
#    0.000    1.250    0.000    0.000    0.000    0.000 
#    0.000    0.000    0.000    0.000    0.000    0.000 
#
# Total GULP energy -89466.075758 kJ/mol
# GULP energy per Si atom -5591.629735 kJ/mol
# Density = 2.289131 g / cm^3
# Si number density = 22.943533 Si / 1000 Ang^3
#
#
#
# Elastic Constant Matrix: (Units=GPa)
#
#
# Indices 1 2 3 4 5 6 
#
# 1 137.8509 32.0551 47.1236 13.3965 -9.5758 11.5838
# 2 32.0551 66.9521 33.8005 28.3752 -7.4391 12.8941
# 3 47.1236 33.8005 112.3740 25.6508 -22.3555 6.5160
# 4 13.3965 28.3752 25.6508 31.8469 5.6986 2.2574
# 5 -9.5758 -7.4391 -22.3555 5.6986 43.0014 12.5488
# 6 11.5838 12.8941 6.5160 2.2574 12.5488 34.9724
#
#
#
# Elastic Compliance Matrix: (Units=1/GPa)
#
#
# Indices 1 2 3 4 5 6 
#
# 1 0.009013 -0.003180 -0.003120 0.001648 0.000008 -0.001341
# 2 -0.003180 0.033277 0.002433 -0.031878 0.014904 -0.014959
# 3 -0.003120 0.002433 0.015538 -0.015012 0.011522 -0.005924
# 4 0.001648 -0.031878 -0.015012 0.074933 -0.028547 0.019411
# 5 0.000008 0.014904 0.011522 -0.028547 0.041664 -0.020751
# 6 -0.001341 -0.014959 -0.005924 0.019411 -0.020751 0.041850
#
#
# Mechanical properties :
#
#
# Convention : Reuss Voigt Hill
#
# Bulk Modulus (GPa) = 19.96220 60.34838 40.15529
# Shear Modulus (GPa) = 20.77211 35.57733 28.17472
#
# Velocity S-wave (km/s) = 3.01218 3.94210 3.50809
# Velocity P-wave (km/s) = 4.56258 6.86151 5.82655
#
# Compressibility (1/GPa) = 0.05009469
#
# Stress axis : x y z
#
# Youngs Moduli (GPa) = 110.94774 30.05039 64.35936
#
# Poissons Ratio (x) = 0.09555 0.20082
# Poissons Ratio (y) = 0.35276 -0.15658
# Poissons Ratio (z) = 0.34618 -0.07311
#
# Static dielectric constant tensor:
#      x y z
#    x 1.907900 -0.013710 0.033220 
#    y -0.013710 1.830370 0.001390 
#    z 0.033220 0.001390 1.840780 
# 
# From -- ./inp_files/427578.got.cif
#   From: 2010.05.17/outbox.cif.g08.bks.cpg/sg2_214_cif.got.tgz:427578.got - 2010.06.03 11:33:40.
