data_PCOD9011024
_publ_section_title
;
Structure prediction by ZEFSAII (Michael W. Deem and Ramdas Pophale) SiO2 
 PCOD9011024
Probable space group: P -1
;
_chemical_formula_sum "Si O2"
_cell_formula_units_Z 15
_cell_length_a 13.669111
_cell_length_b 5.487199
_cell_length_c 12.107561
_cell_angle_alpha 100.631708
_cell_angle_beta 117.888557
_cell_angle_gamma 118.002279
_cell_volume 606.271698
_symmetry_space_group_name_H-M "P -1"
_symmetry_group_IT_number 2
_symmetry_cell_setting 'triclinic'
loop_
_space_group_symop_operation_xyz
x,y,z
-x,-y,-z
loop_
_atom_site_type_symbol
_atom_site_label
_atom_site_fract_x
_atom_site_fract_y
_atom_site_fract_z
Si Si1 0.565676 0.655028 0.721455
Si Si2 0.000000 0.500000 0.000000
Si Si3 0.790582 0.617055 0.949510
Si Si4 0.175191 0.652363 0.495443
Si Si5 0.660190 0.250657 0.062350
Si Si6 0.707711 0.637029 0.318436
Si Si7 0.625871 0.984658 0.568377
Si Si8 0.091767 0.758068 0.819927
O O1 0.691336 0.650428 0.823976
O O2 0.464099 0.600251 0.762317
O O3 0.647549 0.953922 0.705167
O O4 0.440354 0.349310 0.555689
O O5 0.897365 0.595285 0.937698
O O6 0.037972 0.545024 0.886939
O O7 0.676708 0.331161 0.949010
O O8 0.887382 0.932319 0.104057
O O9 0.227734 0.994630 0.598889
O O10 0.249821 0.739249 0.420991
O O11 0.223157 0.481577 0.577569
O O12 0.990734 0.581115 0.645943
O O13 0.726860 0.564772 0.199087
O O14 0.754455 0.140818 0.119592
O O15 0.500000 0.000000 0.000000
O O16 0.500000 0.000000 0.500000
#
# Coordination Sequence:
#
# PCOD9011024 Si02
#       8
#     2   1   2   2   2   2   2   2
#     4  10  23  40  71 107 146 195 252 310 384 445
#     4  10  26  46  70 110 152 196 246 312 390 456
#     4  11  26  48  76 109 152 199 258 317 389 465
#     4  11  27  45  77 107 159 199 261 313 385 463
#     4  11  28  49  78 109 151 197 266 320 382 455
#     4  11  26  48  75 112 152 205 256 325 380 449
#     4  10  21  40  65 107 143 195 247 312 375 456
#     4  11  27  47  75 111 147 207 250 316 389 462
#
# _framework density 24.741385000000001
#
# number of rings (size 3 to 8) (size 9 to 14) (size 15 to 20)
#    0.000    1.333    1.333    1.200   13.067    3.200 
#    0.000    0.000    0.000    0.000    0.000    0.000 
#    0.000    0.000    0.000    0.000    0.000    0.000 
#
# Total GULP energy -83686.619387 kJ/mol
# GULP energy per Si atom -5579.107959 kJ/mol
# Density = 2.468507 g / cm^3
# Si number density = 24.741385 Si / 1000 Ang^3
#
#
#
# Elastic Constant Matrix: (Units=GPa)
#
#
# Indices 1 2 3 4 5 6 
#
# 1 182.2513 48.0940 61.5163 -15.7584 1.4239 -16.1308
# 2 48.0940 81.4092 33.0741 -8.1764 15.7206 -5.8567
# 3 61.5163 33.0741 100.4389 -17.0057 6.5150 -4.7028
# 4 -15.7584 -8.1764 -17.0057 52.4126 -8.1708 -5.0372
# 5 1.4239 15.7206 6.5150 -8.1708 41.6505 -11.8400
# 6 -16.1308 -5.8567 -4.7028 -5.0372 -11.8400 28.8114
#
#
#
# Elastic Compliance Matrix: (Units=1/GPa)
#
#
# Indices 1 2 3 4 5 6 
#
# 1 0.008172 -0.003504 -0.003538 0.001764 0.003356 0.004973
# 2 -0.003504 0.016646 -0.003115 -0.000622 -0.006306 -0.001787
# 3 -0.003538 -0.003115 0.013647 0.002833 -0.000284 -0.000008
# 4 0.001764 -0.000622 0.002833 0.022161 0.006291 0.007783
# 5 0.003356 -0.006306 -0.000284 0.006291 0.031729 0.014690
# 6 0.004973 -0.001787 -0.000008 0.007783 0.014690 0.044526
#
#
# Mechanical properties :
#
#
# Convention : Reuss Voigt Hill
#
# Bulk Modulus (GPa) = 55.09343 72.16313 63.62828
# Shear Modulus (GPa) = 30.62892 39.33589 34.98240
#
# Velocity S-wave (km/s) = 3.52229 3.99166 3.76430
# Velocity P-wave (km/s) = 6.23362 7.10456 6.68329
#
# Compressibility (1/GPa) = 0.01815099
#
# Stress axis : x y z
#
# Youngs Moduli (GPa) = 122.36812 60.07499 73.27804
#
# Poissons Ratio (x) = 0.21049 0.25923
# Poissons Ratio (y) = 0.42875 0.22829
# Poissons Ratio (z) = 0.43289 0.18716
#
# Static dielectric constant tensor:
#      x y z
#    x 1.917320 -0.007570 -0.083390 
#    y -0.007570 2.164850 0.228580 
#    z -0.083390 0.228580 2.372710 
# 
# From -- ./inp_files/63522.got.cif
#   From: 2010.05.17/outbox.cif.g08.bks.cpg/sg2_32_cif.got.tgz:63522.got - 2010.06.03 11:33:40.
