data_PCOD9011011
_publ_section_title
;
Structure prediction by ZEFSAII (Michael W. Deem and Ramdas Pophale) SiO2 
 PCOD9011011
Probable space group: P -1
;
_chemical_formula_sum "Si O2"
_cell_formula_units_Z 16
_cell_length_a 5.445845
_cell_length_b 13.043695
_cell_length_c 10.913379
_cell_angle_alpha 85.426502
_cell_angle_beta 74.690697
_cell_angle_gamma 124.052309
_cell_volume 593.845736
_symmetry_space_group_name_H-M "P -1"
_symmetry_group_IT_number 2
_symmetry_cell_setting 'triclinic'
loop_
_space_group_symop_operation_xyz
x,y,z
-x,-y,-z
loop_
_atom_site_type_symbol
_atom_site_label
_atom_site_fract_x
_atom_site_fract_y
_atom_site_fract_z
Si Si1 0.934943 0.505513 0.172807
Si Si2 0.240438 0.839441 0.513010
Si Si3 0.378827 0.038610 0.281074
Si Si4 0.636727 0.926701 0.095105
Si Si5 0.202837 0.751956 0.953027
Si Si6 0.800767 0.661842 0.806273
Si Si7 0.197061 0.376661 0.612659
Si Si8 0.315645 0.189894 0.680278
O O1 0.558283 0.417151 0.189339
O O2 0.949447 0.569718 0.292822
O O3 0.088056 0.431135 0.186811
O O4 0.117877 0.622044 0.038080
O O5 0.335184 0.975606 0.427863
O O6 0.508926 0.816142 0.460743
O O7 0.045818 0.782432 0.670658
O O8 0.995623 0.732257 0.454883
O O9 0.603094 0.014224 0.181764
O O10 0.035888 0.943043 0.274300
O O11 0.533113 0.182399 0.199637
O O12 0.541473 0.816000 0.213161
O O13 0.376145 0.858336 0.028223
O O14 0.000000 0.000000 0.000000
O O15 0.882328 0.715640 0.930998
O O16 0.500000 0.500000 0.500000
O O17 0.304616 0.307920 0.687175
#
# Coordination Sequence:
#
# PCOD9011011 Si02
#       8
#     2   2   2   2   2   2   2   2
#     4  12  28  48  72 105 144 191 245 296 350 422
#     4  10  23  43  71 102 141 179 239 299 350 425
#     4  10  23  43  68 109 133 178 234 296 360 419
#     4  11  23  39  71 104 137 176 230 299 354 429
#     4  12  26  46  71 101 146 192 231 291 369 428
#     4  12  29  50  70 103 147 194 243 292 345 436
#     4  11  22  39  71 101 134 181 234 299 357 406
#     4  10  21  40  65 102 138 170 229 302 352 415
#
# _framework density 26.943027000000001
#
# number of rings (size 3 to 8) (size 9 to 14) (size 15 to 20)
#    0.000    1.000    2.500    4.125    7.000    2.500 
#    0.000    0.625    0.000    0.000    0.000    0.000 
#    0.000    0.000    0.000    0.000    0.000    0.000 
#
# Total GULP energy -89461.133715 kJ/mol
# GULP energy per Si atom -5591.320857 kJ/mol
# Density = 2.688170 g / cm^3
# Si number density = 26.943027 Si / 1000 Ang^3
#
#
#
# Elastic Constant Matrix: (Units=GPa)
#
#
# Indices 1 2 3 4 5 6 
#
# 1 84.6160 26.1900 22.4361 1.2039 -6.1888 3.1219
# 2 26.1900 84.7125 34.6615 -28.1668 -6.4579 -13.9450
# 3 22.4361 34.6615 144.8510 -11.0130 13.1398 8.8100
# 4 1.2039 -28.1668 -11.0130 66.8825 7.8336 -1.3126
# 5 -6.1888 -6.4579 13.1398 7.8336 51.7750 -2.5261
# 6 3.1219 -13.9450 8.8100 -1.3126 -2.5261 35.1507
#
#
#
# Elastic Compliance Matrix: (Units=1/GPa)
#
#
# Indices 1 2 3 4 5 6 
#
# 1 0.013990 -0.005207 -0.001099 -0.002871 0.001589 -0.003026
# 2 -0.005207 0.019282 -0.004012 0.007491 0.002133 0.009551
# 3 -0.001099 -0.004012 0.008540 0.000011 -0.002989 -0.003849
# 4 -0.002871 0.007491 0.000011 0.018471 -0.002022 0.003768
# 5 0.001589 0.002133 -0.002989 -0.002022 0.020976 0.002886
# 6 -0.003026 0.009551 -0.003849 0.003768 0.002886 0.033819
#
#
# Mechanical properties :
#
#
# Convention : Reuss Voigt Hill
#
# Bulk Modulus (GPa) = 47.22675 53.41718 50.32197
# Shear Modulus (GPa) = 35.02076 46.15440 40.58758
#
# Velocity S-wave (km/s) = 3.60920 4.14338 3.88548
# Velocity P-wave (km/s) = 5.91057 6.53904 6.23273
#
# Compressibility (1/GPa) = 0.02117444
#
# Stress axis : x y z
#
# Youngs Moduli (GPa) = 71.48010 51.86281 117.09549
#
# Poissons Ratio (x) = 0.27005 0.12872
# Poissons Ratio (y) = 0.37220 0.46982
# Poissons Ratio (z) = 0.07858 0.20809
#
# Static dielectric constant tensor:
#      x y z
#    x 2.159130 0.023670 0.004000 
#    y 0.023670 2.202480 0.011210 
#    z 0.004000 0.011210 2.143330 
# 
# From -- ./inp_files/367735.got.cif
#   From: 2010.05.17/outbox.cif.g08.bks.cpg/sg2_184_cif.got.tgz:367735.got - 2010.06.03 11:33:40.
