data_PCOD9011370
_publ_section_title
;
Structure prediction by ZEFSAII (Michael W. Deem and Ramdas Pophale) SiO2 
 PCOD9011370
Probable space group: P -1
;
_chemical_formula_sum "Si O2"
_cell_formula_units_Z 14
_cell_length_a 13.487984
_cell_length_b 11.134372
_cell_length_c 5.438685
_cell_angle_alpha 58.765150
_cell_angle_beta 80.245496
_cell_angle_gamma 54.367221
_cell_volume 557.188518
_symmetry_space_group_name_H-M "P -1"
_symmetry_group_IT_number 2
_symmetry_cell_setting 'triclinic'
loop_
_space_group_symop_operation_xyz
x,y,z
-x,-y,-z
loop_
_atom_site_type_symbol
_atom_site_label
_atom_site_fract_x
_atom_site_fract_y
_atom_site_fract_z
Si Si1 0.850910 0.607764 0.964439
Si Si2 0.796274 0.814441 0.273857
Si Si3 0.456124 0.876078 0.123431
Si Si4 0.814957 0.257655 0.914202
Si Si5 0.688766 0.194501 0.406026
Si Si6 0.310691 0.498455 0.687458
Si Si7 0.927845 0.943709 0.850843
O O1 0.802453 0.726231 0.617005
O O2 0.807413 0.710816 0.133013
O O3 0.790280 0.503299 0.109313
O O4 0.000000 0.500000 0.000000
O O5 0.907084 0.835346 0.169839
O O6 0.668994 0.005298 0.107023
O O7 0.413973 0.832414 0.439530
O O8 0.563740 0.693333 0.158254
O O9 0.500000 0.000000 0.000000
O O10 0.746777 0.444333 0.623984
O O11 0.888025 0.120751 0.808176
O O12 0.710713 0.239426 0.081425
O O13 0.927914 0.178159 0.145203
O O14 0.666621 0.359462 0.388989
O O15 0.821653 0.014124 0.615360
#
# Coordination Sequence:
#
# PCOD9011370 Si02
#       7
#     2   2   2   2   2   2   2
#     4  12  27  46  75 109 148 187 239 298 367 429
#     4  11  26  46  73 106 144 193 239 296 358 427
#     4  11  24  49  68  99 144 190 250 295 357 429
#     4  10  21  40  66 102 138 184 234 293 364 429
#     4  10  23  40  70  96 136 185 240 300 360 425
#     4  11  25  43  66 104 140 188 238 298 355 428
#     4   9  21  39  66 100 143 180 235 294 362 434
#
# _framework density 25.126145999999999
#
# number of rings (size 3 to 8) (size 9 to 14) (size 15 to 20)
#    0.000    1.429    1.429    2.143    8.000    1.143 
#    2.571    0.000    0.000    0.000    0.000    0.000 
#    0.000    0.000    0.000    0.000    0.000    0.000 
#
# Total GULP energy -78297.880920 kJ/mol
# GULP energy per Si atom -5592.705780 kJ/mol
# Density = 2.506896 g / cm^3
# Si number density = 25.126146 Si / 1000 Ang^3
#
#
#
# Elastic Constant Matrix: (Units=GPa)
#
#
# Indices 1 2 3 4 5 6 
#
# 1 90.7321 46.0891 44.0152 -1.8956 -46.0395 -13.2062
# 2 46.0891 144.4147 50.0990 -13.3644 8.6637 -9.0974
# 3 44.0152 50.0990 179.2095 0.7242 -31.1496 -12.1521
# 4 -1.8956 -13.3644 0.7242 31.0903 -0.4970 -1.9227
# 5 -46.0395 8.6637 -31.1496 -0.4970 52.2558 -0.5488
# 6 -13.2062 -9.0974 -12.1521 -1.9227 -0.5488 35.5181
#
#
#
# Elastic Compliance Matrix: (Units=1/GPa)
#
#
# Indices 1 2 3 4 5 6 
#
# 1 0.037800 -0.014497 0.001984 -0.002674 0.036985 0.011447
# 2 -0.014497 0.014087 -0.003598 0.004793 -0.017239 -0.003020
# 3 0.001984 -0.003598 0.007448 -0.001342 0.006797 0.002397
# 4 -0.002674 0.004793 -0.001342 0.034132 -0.003610 0.001566
# 5 0.036985 -0.017239 0.006797 -0.003610 0.058727 0.012373
# 6 0.011447 -0.003020 0.002397 0.001566 0.012373 0.032733
#
#
# Mechanical properties :
#
#
# Convention : Reuss Voigt Hill
#
# Bulk Modulus (GPa) = 36.88251 77.19586 57.03919
# Shear Modulus (GPa) = 22.10564 42.04970 32.07767
#
# Velocity S-wave (km/s) = 2.96934 4.09533 3.57692
# Velocity P-wave (km/s) = 5.14458 7.29057 6.30948
#
# Compressibility (1/GPa) = 0.02711312
#
# Stress axis : x y z
#
# Youngs Moduli (GPa) = 26.45501 70.98799 134.26575
#
# Poissons Ratio (x) = 1.02913 -0.26643
# Poissons Ratio (y) = 0.38352 0.48310
# Poissons Ratio (z) = -0.05250 0.25542
#
# Static dielectric constant tensor:
#      x y z
#    x 2.132630 0.087160 0.044600 
#    y 0.087160 2.003520 0.036020 
#    z 0.044600 0.036020 2.002190 
# 
# From -- ./inp_files/94285.got.cif
#   From: 2010.05.17/outbox.cif.g08.bks.cpg/sg2_48_cif.got.tgz:94285.got - 2010.06.03 11:33:40.
