data_PCOD9011418
_publ_section_title
;
Structure prediction by ZEFSAII (Michael W. Deem and Ramdas Pophale) SiO2 
 PCOD9011418
Probable space group: P -1
;
_chemical_formula_sum "Si O2"
_cell_formula_units_Z 16
_cell_length_a 8.828499
_cell_length_b 14.463353
_cell_length_c 13.384937
_cell_angle_alpha 129.641683
_cell_angle_beta 130.192351
_cell_angle_gamma 39.774715
_cell_volume 799.233299
_symmetry_space_group_name_H-M "P -1"
_symmetry_group_IT_number 2
_symmetry_cell_setting 'triclinic'
loop_
_space_group_symop_operation_xyz
x,y,z
-x,-y,-z
loop_
_atom_site_type_symbol
_atom_site_label
_atom_site_fract_x
_atom_site_fract_y
_atom_site_fract_z
Si Si1 0.609973 0.997802 0.652648
Si Si2 0.851445 0.886809 0.321036
Si Si3 0.730534 0.426846 0.184489
Si Si4 0.054997 0.417204 0.862900
Si Si5 0.569703 0.289268 0.879862
Si Si6 0.176900 0.443998 0.348253
Si Si7 0.864678 0.303619 0.362598
Si Si8 0.261186 0.830650 0.613664
O O1 0.402681 0.036805 0.671608
O O2 0.650251 0.127206 0.767453
O O3 0.500000 0.000000 0.500000
O O4 0.866594 0.832455 0.659819
O O5 0.930108 0.728681 0.208285
O O6 0.066126 0.849983 0.463557
O O7 0.801125 0.005812 0.298997
O O8 0.513781 0.593795 0.165908
O O9 0.691107 0.399441 0.261673
O O10 0.978846 0.416115 0.276497
O O11 0.747701 0.304493 0.035471
O O12 0.319606 0.360653 0.888926
O O13 0.863155 0.513996 0.757535
O O14 0.000000 0.500000 0.000000
O O15 0.118649 0.587258 0.482722
O O16 0.456575 0.298967 0.388242
O O17 0.778067 0.224327 0.337952
#
# Coordination Sequence:
#
# PCOD9011418 Si02
#       8
#     2   2   2   2   2   2   2   2
#     4  11  20  41  67  91 126 160 209 259 311 373
#     4  10  22  42  62  92 127 163 204 260 314 369
#     4  10  22  41  63  91 125 163 210 255 318 365
#     4  10  21  40  66  90 123 171 206 255 317 372
#     4   9  22  42  63  93 126 161 211 258 308 383
#     4  11  23  42  61  96 130 158 214 265 307 375
#     4  12  23  39  65  97 123 167 210 260 318 367
#     4  11  23  40  61  93 129 160 205 263 310 369
#
# _framework density 20.019186000000001
#
# number of rings (size 3 to 8) (size 9 to 14) (size 15 to 20)
#    0.000    1.500    2.500    3.000    1.750    1.500 
#    6.750    0.625    0.000    0.000    0.000    0.000 
#    0.000    0.000    0.000    0.000    0.000    0.000 
#
# Total GULP energy -89411.835864 kJ/mol
# GULP energy per Si atom -5588.239742 kJ/mol
# Density = 1.997362 g / cm^3
# Si number density = 20.019186 Si / 1000 Ang^3
#
#
#
# Elastic Constant Matrix: (Units=GPa)
#
#
# Indices 1 2 3 4 5 6 
#
# 1 66.4698 40.6618 39.1901 -5.9430 5.4582 36.7606
# 2 40.6618 89.8330 36.1389 5.1367 -8.0110 31.4414
# 3 39.1901 36.1389 82.2368 6.8994 -19.9059 41.8651
# 4 -5.9430 5.1367 6.8994 21.5644 3.4405 6.3649
# 5 5.4582 -8.0110 -19.9059 3.4405 26.0133 2.0418
# 6 36.7606 31.4414 41.8651 6.3649 2.0418 40.8879
#
#
#
# Elastic Compliance Matrix: (Units=1/GPa)
#
#
# Indices 1 2 3 4 5 6 
#
# 1 0.051457 -0.013458 -0.019303 0.034662 -0.032734 -0.019910
# 2 -0.013458 0.019897 0.008606 -0.010733 0.017838 -0.011232
# 3 -0.019303 0.008606 0.057415 -0.020784 0.057126 -0.047667
# 4 0.034662 -0.010733 -0.020784 0.074144 -0.035394 -0.011403
# 5 -0.032734 0.017838 0.057126 -0.035394 0.102526 -0.042388
# 6 -0.019910 -0.011232 -0.047667 -0.011403 -0.042388 0.103693
#
#
# Mechanical properties :
#
#
# Convention : Reuss Voigt Hill
#
# Bulk Modulus (GPa) = 12.42890 52.28013 32.35451
# Shear Modulus (GPa) = 10.32501 25.86305 18.09403
#
# Velocity S-wave (km/s) = 2.27349 3.59822 3.00965
# Velocity P-wave (km/s) = 3.62128 6.59049 5.31734
#
# Compressibility (1/GPa) = 0.08045764
#
# Stress axis : x y z
#
# Youngs Moduli (GPa) = 19.43386 50.25864 17.41716
#
# Poissons Ratio (x) = 0.67640 0.33621
# Poissons Ratio (y) = 0.26155 -0.14990
# Poissons Ratio (z) = 0.37513 -0.43254
#
# Static dielectric constant tensor:
#      x y z
#    x 1.729550 -0.001100 0.018120 
#    y -0.001100 1.716340 -0.007600 
#    z 0.018120 -0.007600 1.688200 
# 
# From -- ./inp_files/239566.got.cif
#   From: 2010.05.17/outbox.cif.g08.bks.cpg/sg2_120_cif.got.tgz:239566.got - 2010.06.03 11:33:40.
