data_PCOD9011870
_publ_section_title
;
Structure prediction by ZEFSAII (Michael W. Deem and Ramdas Pophale) SiO2 
 PCOD9011870
Probable space group: P -1
;
_chemical_formula_sum "Si O2"
_cell_formula_units_Z 14
_cell_length_a 12.785479
_cell_length_b 8.208136
_cell_length_c 10.938638
_cell_angle_alpha 119.419994
_cell_angle_beta 146.167004
_cell_angle_gamma 54.612149
_cell_volume 520.938007
_symmetry_space_group_name_H-M "P -1"
_symmetry_group_IT_number 2
_symmetry_cell_setting 'triclinic'
loop_
_space_group_symop_operation_xyz
x,y,z
-x,-y,-z
loop_
_atom_site_type_symbol
_atom_site_label
_atom_site_fract_x
_atom_site_fract_y
_atom_site_fract_z
Si Si1 0.008463 0.183970 0.650362
Si Si2 0.661079 0.389420 0.792149
Si Si3 0.839333 0.605920 0.521871
Si Si4 0.106236 0.311165 0.131075
Si Si5 0.750695 0.378956 0.147664
Si Si6 0.358961 0.999215 0.069419
Si Si7 0.638582 0.200781 0.462608
O O1 0.949641 0.375158 0.580547
O O2 0.846066 0.206559 0.610325
O O3 0.000000 0.000000 0.500000
O O4 0.233377 0.146056 0.896662
O O5 0.623638 0.231016 0.604665
O O6 0.535924 0.602620 0.688063
O O7 0.629992 0.419256 0.917091
O O8 0.900846 0.311208 0.987351
O O9 0.768441 0.678171 0.618974
O O10 0.714250 0.568642 0.271548
O O11 0.009944 0.689872 0.673939
O O12 0.238714 0.114833 0.115198
O O13 0.000000 0.500000 0.000000
O O14 0.693978 0.196736 0.078143
O O15 0.578787 0.010862 0.298835
#
# Coordination Sequence:
#
# PCOD9011870 Si02
#       7
#     2   2   2   2   2   2   2
#     4  12  24  45  73  99 132 180 232 281 337 401
#     4  10  21  41  67  99 136 179 232 273 340 409
#     4  10  21  40  67  96 135 183 226 267 339 410
#     4  11  18  37  71 102 129 180 231 279 328 397
#     4  10  23  42  65  98 145 182 217 281 349 404
#     4  12  23  41  70 106 137 173 231 283 338 400
#     4  11  24  42  72 101 131 177 233 288 329 404
#
# _framework density 26.874600999999998
#
# number of rings (size 3 to 8) (size 9 to 14) (size 15 to 20)
#    0.000    1.143    5.714    0.857    2.000    3.429 
#    0.000    2.143    0.000    0.000    0.000    0.000 
#    0.000    0.000    0.000    0.000    0.000    0.000 
#
# Total GULP energy -78157.772372 kJ/mol
# GULP energy per Si atom -5582.698027 kJ/mol
# Density = 2.681343 g / cm^3
# Si number density = 26.874601 Si / 1000 Ang^3
#
#
#
# Elastic Constant Matrix: (Units=GPa)
#
#
# Indices 1 2 3 4 5 6 
#
# 1 86.2151 -15.3616 45.4721 -12.7803 2.8830 4.5855
# 2 -15.3616 47.7615 24.4086 16.3275 9.5148 5.5945
# 3 45.4721 24.4086 163.5383 17.6755 -23.9899 3.2808
# 4 -12.7803 16.3275 17.6755 34.8476 3.5264 6.0863
# 5 2.8830 9.5148 -23.9899 3.5264 57.7182 6.0038
# 6 4.5855 5.5945 3.2808 6.0863 6.0038 27.8501
#
#
#
# Elastic Compliance Matrix: (Units=1/GPa)
#
#
# Indices 1 2 3 4 5 6 
#
# 1 0.019534 0.009538 -0.008581 0.008482 -0.006149 -0.004649
# 2 0.009538 0.032261 -0.007953 -0.006043 -0.008315 -0.004001
# 3 -0.008581 -0.007953 0.011289 -0.006094 0.006640 0.001581
# 4 0.008482 -0.006043 -0.006094 0.039368 -0.003607 -0.007290
# 5 -0.006149 -0.008315 0.006640 -0.003607 0.022202 -0.002097
# 6 -0.004649 -0.004001 0.001581 -0.007290 -0.002097 0.039335
#
#
# Mechanical properties :
#
#
# Convention : Reuss Voigt Hill
#
# Bulk Modulus (GPa) = 20.37014 45.17257 32.77136
# Shear Modulus (GPa) = 25.72767 40.28290 33.00529
#
# Velocity S-wave (km/s) = 3.09742 3.87579 3.50826
# Velocity P-wave (km/s) = 4.51533 6.07241 5.35081
#
# Compressibility (1/GPa) = 0.04909145
#
# Stress axis : x y z
#
# Youngs Moduli (GPa) = 51.19242 30.99756 88.58484
#
# Poissons Ratio (x) = -0.29565 0.76011
# Poissons Ratio (y) = -0.48827 0.70455
# Poissons Ratio (z) = 0.43926 0.24654
#
# Static dielectric constant tensor:
#      x y z
#    x 2.125260 0.018490 -0.048860 
#    y 0.018490 2.130890 -0.017070 
#    z -0.048860 -0.017070 2.212270 
# 
# From -- ./inp_files/269853.got.cif
#   From: 2010.05.17/outbox.cif.g08.bks.cpg/sg2_135_cif.got.tgz:269853.got - 2010.06.03 11:33:40.
