data_PCOD9011749
_publ_section_title
;
Structure prediction by ZEFSAII (Michael W. Deem and Ramdas Pophale) SiO2 
 PCOD9011749
Probable space group: P -1
;
_chemical_formula_sum "Si O2"
_cell_formula_units_Z 16
_cell_length_a 7.182696
_cell_length_b 18.612586
_cell_length_c 21.486363
_cell_angle_alpha 157.534546
_cell_angle_beta 144.300364
_cell_angle_gamma 48.321334
_cell_volume 591.555655
_symmetry_space_group_name_H-M "P -1"
_symmetry_group_IT_number 2
_symmetry_cell_setting 'triclinic'
loop_
_space_group_symop_operation_xyz
x,y,z
-x,-y,-z
loop_
_atom_site_type_symbol
_atom_site_label
_atom_site_fract_x
_atom_site_fract_y
_atom_site_fract_z
Si Si1 0.626820 0.547284 0.472207
Si Si2 0.031839 0.300142 0.717676
Si Si3 0.256263 0.736802 0.617591
Si Si4 0.577693 0.103131 0.750618
Si Si5 0.182115 0.240252 0.580990
Si Si6 0.380863 0.785215 0.881337
Si Si7 0.888054 0.295763 0.869440
Si Si8 0.531297 0.812633 0.083824
O O1 0.432591 0.675189 0.555564
O O2 0.693881 0.404503 0.428895
O O3 0.486927 0.384352 0.247313
O O4 0.001808 0.717476 0.693788
O O5 0.297486 0.195949 0.726450
O O6 0.138582 0.371190 0.732533
O O7 0.649011 0.133049 0.488570
O O8 0.072263 0.490196 0.921581
O O9 0.882576 0.695438 0.453537
O O10 0.411783 0.971079 0.871680
O O11 0.840713 0.157135 0.808151
O O12 0.699289 0.187124 0.919843
O O13 0.542266 0.215368 0.670270
O O14 0.849079 0.032347 0.338977
O O15 0.338108 0.758228 0.922835
O O16 0.234964 0.317707 0.946072
#
# Coordination Sequence:
#
# PCOD9011749 Si02
#       8
#     2   2   2   2   2   2   2   2
#     4  10  22  40  67  91 116 164 203 257 324 373
#     4   9  19  34  56  82 115 160 202 248 286 351
#     4  10  21  40  67  91 121 161 207 252 319 376
#     4   9  19  39  54  80 123 158 204 249 295 357
#     4   9  19  36  59  85 125 158 196 253 300 361
#     4  10  22  42  61  92 130 152 202 270 305 370
#     4  11  21  37  62  87 122 171 200 247 303 356
#     4  10  22  38  61  90 125 163 203 251 305 366
#
# _framework density 27.047329000000001
#
# number of rings (size 3 to 8) (size 9 to 14) (size 15 to 20)
#    0.000    2.250    0.000    3.375    1.750    2.500 
#    2.250    5.000   11.000    0.000    0.000    0.000 
#    0.000    0.000    0.000    0.000    0.000    0.000 
#
# Total GULP energy -89554.659158 kJ/mol
# GULP energy per Si atom -5597.166197 kJ/mol
# Density = 2.698577 g / cm^3
# Si number density = 27.047329 Si / 1000 Ang^3
#
#
#
# Elastic Constant Matrix: (Units=GPa)
#
#
# Indices 1 2 3 4 5 6 
#
# 1 117.7366 7.7233 41.0679 -4.2459 -22.6643 0.1914
# 2 7.7233 67.0830 44.0172 -1.8800 -4.7555 3.2412
# 3 41.0679 44.0172 169.2034 10.5554 -20.0831 1.4892
# 4 -4.2459 -1.8800 10.5554 40.7480 5.3430 -6.5789
# 5 -22.6643 -4.7555 -20.0831 5.3430 45.5839 1.8769
# 6 0.1914 3.2412 1.4892 -6.5789 1.8769 40.4246
#
#
#
# Elastic Compliance Matrix: (Units=1/GPa)
#
#
# Indices 1 2 3 4 5 6 
#
# 1 0.010018 0.000593 -0.002187 0.001117 0.003949 -0.000016
# 2 0.000593 0.018230 -0.005036 0.002087 -0.000228 -0.000929
# 3 -0.002187 -0.005036 0.008223 -0.002981 0.002380 -0.000484
# 4 0.001117 0.002087 -0.002981 0.026754 -0.003860 0.004470
# 5 0.003949 -0.000228 0.002380 -0.003860 0.025456 -0.001898
# 6 -0.000016 -0.000929 -0.000484 0.004470 -0.001898 0.025645
#
#
# Mechanical properties :
#
#
# Convention : Reuss Voigt Hill
#
# Bulk Modulus (GPa) = 43.07808 59.95999 51.51903
# Shear Modulus (GPa) = 36.94886 42.76560 39.85723
#
# Velocity S-wave (km/s) = 3.70006 3.98067 3.84293
# Velocity P-wave (km/s) = 5.84940 6.58364 6.22735
#
# Compressibility (1/GPa) = 0.02321366
#
# Stress axis : x y z
#
# Youngs Moduli (GPa) = 99.82169 54.85495 121.60397
#
# Poissons Ratio (x) = -0.03256 0.26591
# Poissons Ratio (y) = -0.05924 0.61234
# Poissons Ratio (z) = 0.21828 0.27622
#
# Static dielectric constant tensor:
#      x y z
#    x 2.155620 0.025850 -0.004570 
#    y 0.025850 2.127080 0.044130 
#    z -0.004570 0.044130 2.144130 
# 
# From -- ./inp_files/608682.got.cif
#   From: 2010.05.17/outbox.cif.g08.bks.cpg/sg2_305_cif.got.tgz:608682.got - 2010.06.03 11:33:40.
