data_PCOD9011578
_publ_section_title
;
Structure prediction by ZEFSAII (Michael W. Deem and Ramdas Pophale) SiO2 
 PCOD9011578
Probable space group: P -1
;
_chemical_formula_sum "Si O2"
_cell_formula_units_Z 14
_cell_length_a 21.687021
_cell_length_b 4.951957
_cell_length_c 12.796218
_cell_angle_alpha 71.850150
_cell_angle_beta 154.585167
_cell_angle_gamma 113.142077
_cell_volume 539.017154
_symmetry_space_group_name_H-M "P -1"
_symmetry_group_IT_number 2
_symmetry_cell_setting 'triclinic'
loop_
_space_group_symop_operation_xyz
x,y,z
-x,-y,-z
loop_
_atom_site_type_symbol
_atom_site_label
_atom_site_fract_x
_atom_site_fract_y
_atom_site_fract_z
Si Si1 0.982492 0.982750 0.648577
Si Si2 0.553267 0.387918 0.484716
Si Si3 0.480358 0.496127 0.133446
Si Si4 0.277214 0.825587 0.085452
Si Si5 0.088954 0.059947 0.233523
Si Si6 0.231634 0.564193 0.517940
Si Si7 0.720814 0.165584 0.134107
O O1 0.867450 0.653052 0.521510
O O2 0.009925 0.075351 0.800260
O O3 0.886343 0.172939 0.423032
O O4 0.136188 0.954614 0.843049
O O5 0.500000 0.500000 0.500000
O O6 0.556442 0.554775 0.359518
O O7 0.713527 0.351826 0.772527
O O8 0.429860 0.084919 0.302184
O O9 0.608596 0.492924 0.246887
O O10 0.377392 0.720062 0.944961
O O11 0.367853 0.169338 0.989736
O O12 0.276976 0.663270 0.993486
O O13 0.220268 0.894742 0.463139
O O14 0.146000 0.406427 0.302082
O O15 0.000000 0.000000 0.000000
#
# Coordination Sequence:
#
# PCOD9011578 Si02
#       7
#     2   2   2   2   2   2   2
#     4  10  26  41  67  94 134 172 213 263 327 385
#     4  10  21  40  66  96 126 168 218 266 332 366
#     4  11  24  42  68  92 134 168 222 269 311 388
#     4  10  22  43  64  98 129 168 216 271 318 390
#     4  10  23  42  61  95 131 167 217 256 325 378
#     4  10  24  42  63  98 124 175 213 265 321 374
#     4  11  24  44  65  96 129 176 215 265 320 380
#
# _framework density 25.973199999999999
#
# number of rings (size 3 to 8) (size 9 to 14) (size 15 to 20)
#    0.857    0.857    1.429    1.714    4.000    3.429 
#    0.000    2.143    0.000    0.000    0.000    0.000 
#    0.000    0.000    0.000    0.000    0.000    0.000 
#
# Total GULP energy -78158.061227 kJ/mol
# GULP energy per Si atom -5582.718659 kJ/mol
# Density = 2.591408 g / cm^3
# Si number density = 25.973200 Si / 1000 Ang^3
#
#
#
# Elastic Constant Matrix: (Units=GPa)
#
#
# Indices 1 2 3 4 5 6 
#
# 1 70.5715 11.5705 22.8332 -0.2017 8.3362 -9.8388
# 2 11.5705 68.9190 4.1916 -11.6925 4.4066 -11.5424
# 3 22.8332 4.1916 101.2440 -14.7446 11.9607 8.8694
# 4 -0.2017 -11.6925 -14.7446 36.5460 -14.3298 4.4250
# 5 8.3362 4.4066 11.9607 -14.3298 46.2993 -8.3939
# 6 -9.8388 -11.5424 8.8694 4.4250 -8.3939 32.6347
#
#
#
# Elastic Compliance Matrix: (Units=1/GPa)
#
#
# Indices 1 2 3 4 5 6 
#
# 1 0.017003 -0.002165 -0.004585 -0.003854 -0.001838 0.005656
# 2 -0.002165 0.016476 -0.000015 0.005181 0.001301 0.004811
# 3 -0.004585 -0.000015 0.012373 0.004926 -0.001917 -0.005911
# 4 -0.003854 0.005181 0.004926 0.034961 0.009197 -0.003043
# 5 -0.001838 0.001301 -0.001917 0.009197 0.026221 0.005924
# 6 0.005656 0.004811 -0.005911 -0.003043 0.005924 0.037592
#
#
# Mechanical properties :
#
#
# Convention : Reuss Voigt Hill
#
# Bulk Modulus (GPa) = 30.93653 35.32500 33.13076
# Shear Modulus (GPa) = 29.59818 36.57193 33.08506
#
# Velocity S-wave (km/s) = 3.37941 3.75649 3.57293
# Velocity P-wave (km/s) = 5.21191 5.69605 5.45935
#
# Compressibility (1/GPa) = 0.03232424
#
# Stress axis : x y z
#
# Youngs Moduli (GPa) = 58.81314 60.69582 80.81861
#
# Poissons Ratio (x) = 0.13139 0.37052
# Poissons Ratio (y) = 0.12732 0.00117
# Poissons Ratio (z) = 0.26964 0.00088
#
# Static dielectric constant tensor:
#      x y z
#    x 2.234520 0.072780 -0.061770 
#    y 0.072780 2.060960 -0.063600 
#    z -0.061770 -0.063600 2.090900 
# 
# From -- ./inp_files/542040.got.cif
#   From: 2010.05.17/outbox.cif.g08.bks.cpg/sg2_272_cif.got.tgz:542040.got - 2010.06.03 11:33:40.
