data_PCOD9011645
_publ_section_title
;
Structure prediction by ZEFSAII (Michael W. Deem and Ramdas Pophale) SiO2 
 PCOD9011645
Probable space group: P -1
;
_chemical_formula_sum "Si O2"
_cell_formula_units_Z 14
_cell_length_a 15.185546
_cell_length_b 7.683711
_cell_length_c 5.747847
_cell_angle_alpha 116.990738
_cell_angle_beta 74.199242
_cell_angle_gamma 118.889970
_cell_volume 522.033490
_symmetry_space_group_name_H-M "P -1"
_symmetry_group_IT_number 2
_symmetry_cell_setting 'triclinic'
loop_
_space_group_symop_operation_xyz
x,y,z
-x,-y,-z
loop_
_atom_site_type_symbol
_atom_site_label
_atom_site_fract_x
_atom_site_fract_y
_atom_site_fract_z
Si Si1 0.612147 0.507921 0.908045
Si Si2 0.880100 0.059302 0.750590
Si Si3 0.108839 0.555647 0.339511
Si Si4 0.215356 0.724636 0.791850
Si Si5 0.620201 0.660588 0.494942
Si Si6 0.608386 0.098777 0.862891
Si Si7 0.110093 0.255062 0.794994
O O1 0.658760 0.612108 0.189248
O O2 0.370214 0.097650 0.365045
O O3 0.604187 0.268086 0.782918
O O4 0.500000 0.500000 0.000000
O O5 0.890565 0.280980 0.760218
O O6 0.990935 0.101026 0.779356
O O7 0.843798 0.881235 0.468496
O O8 0.815131 0.074582 0.022975
O O9 0.205326 0.693278 0.506339
O O10 0.000000 0.500000 0.500000
O O11 0.123901 0.351685 0.103740
O O12 0.312612 0.783334 0.915627
O O13 0.140870 0.474953 0.758494
O O14 0.500000 0.500000 0.500000
O O15 0.657767 0.613352 0.691167
O O16 0.500000 0.000000 0.000000
#
# Coordination Sequence:
#
# PCOD9011645 Si02
#       7
#     2   2   2   2   2   2   2
#     4  10  22  44  71 101 130 181 243 300 360 433
#     4  10  21  40  67  96 134 178 219 280 354 419
#     4  11  19  39  66  96 137 174 221 283 342 416
#     4  11  24  43  63  99 136 176 231 288 344 426
#     4  10  22  44  71 100 133 179 244 299 363 425
#     4  12  25  46  72  99 140 192 238 299 368 421
#     4  10  21  40  66  98 133 177 222 280 350 419
#
# _framework density 26.818200000000001
#
# number of rings (size 3 to 8) (size 9 to 14) (size 15 to 20)
#    0.000    1.429    5.714    0.857    0.000    6.286 
#   12.857    0.000    0.000    0.000    0.000    0.000 
#    0.000    0.000    0.000    0.000    0.000    0.000 
#
# Total GULP energy -78265.323874 kJ/mol
# GULP energy per Si atom -5590.380277 kJ/mol
# Density = 2.675716 g / cm^3
# Si number density = 26.818200 Si / 1000 Ang^3
#
#
#
# Elastic Constant Matrix: (Units=GPa)
#
#
# Indices 1 2 3 4 5 6 
#
# 1 97.7281 31.4947 45.3389 12.4936 -15.2112 4.6308
# 2 31.4947 118.1343 54.1048 16.6963 -16.2109 -26.2024
# 3 45.3389 54.1048 191.8302 35.6657 -13.2896 -15.7479
# 4 12.4936 16.6963 35.6657 49.7848 -1.1076 -5.3301
# 5 -15.2112 -16.2109 -13.2896 -1.1076 48.6811 11.4967
# 6 4.6308 -26.2024 -15.7479 -5.3301 11.4967 46.3790
#
#
#
# Elastic Compliance Matrix: (Units=1/GPa)
#
#
# Indices 1 2 3 4 5 6 
#
# 1 0.013120 -0.002868 -0.002210 -0.001172 0.003628 -0.004715
# 2 -0.002868 0.011693 -0.001834 -0.001236 0.001085 0.005858
# 3 -0.002210 -0.001834 0.007061 -0.003767 0.000286 0.001078
# 4 -0.001172 -0.001236 -0.003767 0.023592 -0.001562 0.001238
# 5 0.003628 0.001085 0.000286 -0.001562 0.023410 -0.005635
# 6 -0.004715 0.005858 0.001078 0.001238 -0.005635 0.027247
#
#
# Mechanical properties :
#
#
# Convention : Reuss Voigt Hill
#
# Bulk Modulus (GPa) = 55.40155 74.39660 64.89908
# Shear Modulus (GPa) = 39.69433 47.41926 43.55679
#
# Velocity S-wave (km/s) = 3.85141 4.20953 4.03445
# Velocity P-wave (km/s) = 6.36246 7.17134 6.77898
#
# Compressibility (1/GPa) = 0.01805004
#
# Stress axis : x y z
#
# Youngs Moduli (GPa) = 76.22093 85.52461 141.61761
#
# Poissons Ratio (x) = 0.24528 0.31295
# Poissons Ratio (y) = 0.21859 0.25973
# Poissons Ratio (z) = 0.16844 0.15685
#
# Static dielectric constant tensor:
#      x y z
#    x 1.498400 -0.184210 1.035970 
#    y -0.184210 1.993710 0.310920 
#    z 1.035970 0.310920 0.417660 
# 
# From -- ./inp_files/107575.got.cif
#   From: 2010.05.17/outbox.cif.g08.bks.cpg/sg2_54_cif.got.tgz:107575.got - 2010.06.03 11:33:40.
