data_PCOD9011741
_publ_section_title
;
Structure prediction by ZEFSAII (Michael W. Deem and Ramdas Pophale) SiO2 
 PCOD9011741
Probable space group: P -1
;
_chemical_formula_sum "Si O2"
_cell_formula_units_Z 16
_cell_length_a 12.356932
_cell_length_b 9.321720
_cell_length_c 11.164987
_cell_angle_alpha 75.050033
_cell_angle_beta 68.698106
_cell_angle_gamma 131.778807
_cell_volume 620.383058
_symmetry_space_group_name_H-M "P -1"
_symmetry_group_IT_number 2
_symmetry_cell_setting 'triclinic'
loop_
_space_group_symop_operation_xyz
x,y,z
-x,-y,-z
loop_
_atom_site_type_symbol
_atom_site_label
_atom_site_fract_x
_atom_site_fract_y
_atom_site_fract_z
Si Si1 0.695645 0.986664 0.045056
Si Si2 0.105046 0.239388 0.185004
Si Si3 0.230149 0.673622 0.906362
Si Si4 0.816406 0.097817 0.496726
Si Si5 0.415630 0.707131 0.608410
Si Si6 0.091629 0.462670 0.624963
Si Si7 0.289361 0.262889 0.720361
Si Si8 0.705443 0.866586 0.824077
O O1 0.597990 0.834132 0.987951
O O2 0.943552 0.285884 0.841317
O O3 0.632030 0.068457 0.118773
O O4 0.689392 0.846167 0.170509
O O5 0.999460 0.179724 0.365649
O O6 0.919829 0.977389 0.227009
O O7 0.269092 0.279846 0.129698
O O8 0.189769 0.480370 0.038308
O O9 0.354214 0.765475 0.715960
O O10 0.000000 0.500000 0.000000
O O11 0.671121 0.960191 0.464362
O O12 0.893172 0.346194 0.447869
O O13 0.650930 0.851973 0.714322
O O14 0.320928 0.644035 0.530700
O O15 0.291371 0.421475 0.753564
O O16 0.953066 0.206801 0.649651
O O17 0.500000 0.500000 0.500000
#
# Coordination Sequence:
#
# PCOD9011741 Si02
#       8
#     2   2   2   2   2   2   2   2
#     4  10  22  41  65  93 126 168 220 257 321 381
#     4  12  21  40  67  94 127 174 222 259 316 388
#     4  12  21  39  67  97 126 166 217 272 313 386
#     4  12  24  41  64  99 136 165 215 268 323 375
#     4  12  24  39  63 101 129 166 210 277 326 368
#     4  10  21  40  67  90 126 168 217 260 316 373
#     4  12  23  39  63  97 133 164 207 279 327 373
#     4  10  23  42  67  92 129 178 216 254 318 396
#
# _framework density 25.790517999999999
#
# number of rings (size 3 to 8) (size 9 to 14) (size 15 to 20)
#    0.750    0.000    6.250    1.875    0.000    2.500 
#    0.000    3.125    0.000    0.000    0.000    0.000 
#    0.000    0.000    0.000    0.000    0.000    0.000 
#
# Total GULP energy -89553.687036 kJ/mol
# GULP energy per Si atom -5597.105440 kJ/mol
# Density = 2.573182 g / cm^3
# Si number density = 25.790518 Si / 1000 Ang^3
#
#
#
# Elastic Constant Matrix: (Units=GPa)
#
#
# Indices 1 2 3 4 5 6 
#
# 1 89.4503 29.5195 32.7563 -4.6590 14.3751 -23.0184
# 2 29.5195 133.9672 4.4433 1.6940 8.6472 -24.8822
# 3 32.7563 4.4433 106.5260 1.8276 21.9733 -9.9263
# 4 -4.6590 1.6940 1.8276 37.8270 -15.3231 7.7608
# 5 14.3751 8.6472 21.9733 -15.3231 48.4595 -6.8476
# 6 -23.0184 -24.8822 -9.9263 7.7608 -6.8476 44.7723
#
#
#
# Elastic Compliance Matrix: (Units=1/GPa)
#
#
# Indices 1 2 3 4 5 6 
#
# 1 0.014850 -0.002060 -0.003680 0.000394 -0.001484 0.005378
# 2 -0.002060 0.008789 0.001005 -0.002166 -0.001505 0.004193
# 3 -0.003680 0.001005 0.011738 -0.003449 -0.005353 0.001048
# 4 0.000394 -0.002166 -0.003449 0.032491 0.011306 -0.005668
# 5 -0.001484 -0.001505 -0.005353 0.011306 0.027265 -0.000576
# 6 0.005378 0.004193 0.001048 -0.005668 -0.000576 0.028558
#
#
# Mechanical properties :
#
#
# Convention : Reuss Voigt Hill
#
# Bulk Modulus (GPa) = 38.59996 51.48686 45.04341
# Shear Modulus (GPa) = 35.26198 43.76005 39.51102
#
# Velocity S-wave (km/s) = 3.70164 4.12363 3.91832
# Velocity P-wave (km/s) = 5.76791 6.53294 6.16230
#
# Compressibility (1/GPa) = 0.02590677
#
# Stress axis : x y z
#
# Youngs Moduli (GPa) = 67.34021 113.78501 85.19396
#
# Poissons Ratio (x) = 0.23444 0.31350
# Poissons Ratio (y) = 0.13874 -0.08565
# Poissons Ratio (z) = 0.24780 -0.11439
#
# Static dielectric constant tensor:
#      x y z
#    x 2.054690 0.023390 -0.042020 
#    y 0.023390 2.080730 -0.014160 
#    z -0.042020 -0.014160 2.006260 
# 
# From -- ./inp_files/416860.got.cif
#   From: 2010.05.17/outbox.cif.g08.bks.cpg/sg2_209_cif.got.tgz:416860.got - 2010.06.03 11:33:40.
