data_PCOD9011549
_publ_section_title
;
Structure prediction by ZEFSAII (Michael W. Deem and Ramdas Pophale) SiO2 
 PCOD9011549
Probable space group: P -1
;
_chemical_formula_sum "Si O2"
_cell_formula_units_Z 16
_cell_length_a 13.999504
_cell_length_b 14.558839
_cell_length_c 24.649939
_cell_angle_alpha 151.579451
_cell_angle_beta 160.954433
_cell_angle_gamma 30.409593
_cell_volume 764.482503
_symmetry_space_group_name_H-M "P -1"
_symmetry_group_IT_number 2
_symmetry_cell_setting 'triclinic'
loop_
_space_group_symop_operation_xyz
x,y,z
-x,-y,-z
loop_
_atom_site_type_symbol
_atom_site_label
_atom_site_fract_x
_atom_site_fract_y
_atom_site_fract_z
Si Si1 0.184337 0.272142 0.977736
Si Si2 0.808127 0.871718 0.297589
Si Si3 0.970132 0.768236 0.734954
Si Si4 0.538577 0.462517 0.192801
Si Si5 0.573882 0.178616 0.598017
Si Si6 0.789711 0.208571 0.010203
Si Si7 0.659469 0.890436 0.905292
Si Si8 0.064240 0.556446 0.890165
O O1 0.925278 0.155293 0.763692
O O2 0.438570 0.278776 0.073776
O O3 0.324535 0.197417 0.071657
O O4 0.000000 0.500000 0.000000
O O5 0.986026 0.658401 0.263943
O O6 0.649942 0.986864 0.219846
O O7 0.531091 0.829364 0.163203
O O8 0.000000 0.000000 0.500000
O O9 0.151804 0.608684 0.708367
O O10 0.062483 0.710991 0.816047
O O11 0.624522 0.799845 0.551278
O O12 0.098746 0.967249 0.896501
O O13 0.528588 0.631058 0.319503
O O14 0.289949 0.534588 0.050932
O O15 0.500000 0.000000 0.500000
O O16 0.786287 0.351886 0.032225
O O17 0.000000 0.000000 0.000000
O O18 0.770855 0.708950 0.830062
#
# Coordination Sequence:
#
# PCOD9011549 Si02
#       8
#     2   2   2   2   2   2   2   2
#     4  10  21  40  66  95 129 177 218 257 344 399
#     4  11  26  46  66 102 133 170 234 284 327 397
#     4  11  22  42  64  98 134 167 225 278 320 398
#     4  11  23  41  67  94 134 177 216 270 337 398
#     4  11  21  40  65  98 131 169 223 274 319 399
#     4  11  23  45  73  94 132 184 221 270 347 401
#     4  11  21  44  70  91 138 177 219 271 345 393
#     4  12  21  45  74  92 132 183 223 273 339 406
#
# _framework density 20.929190999999999
#
# number of rings (size 3 to 8) (size 9 to 14) (size 15 to 20)
#    0.000    1.000    8.750    0.750    0.000    1.000 
#    6.750    1.250    0.000    0.000    0.000    0.000 
#    0.000    0.000    0.000    0.000    0.000    0.000 
#
# Total GULP energy -89459.993175 kJ/mol
# GULP energy per Si atom -5591.249573 kJ/mol
# Density = 2.088156 g / cm^3
# Si number density = 20.929191 Si / 1000 Ang^3
#
#
#
# Elastic Constant Matrix: (Units=GPa)
#
#
# Indices 1 2 3 4 5 6 
#
# 1 95.2524 19.6063 29.8753 -13.0885 -17.3805 28.2317
# 2 19.6063 89.3766 22.6116 14.6020 -9.3880 7.7954
# 3 29.8753 22.6116 124.1106 5.5986 -19.4975 14.9734
# 4 -13.0885 14.6020 5.5986 19.8010 0.7752 -10.8678
# 5 -17.3805 -9.3880 -19.4975 0.7752 23.9774 -4.8310
# 6 28.2317 7.7954 14.9734 -10.8678 -4.8310 46.9265
#
#
#
# Elastic Compliance Matrix: (Units=1/GPa)
#
#
# Indices 1 2 3 4 5 6 
#
# 1 0.016238 -0.003585 -0.001940 0.010721 0.007372 -0.005312
# 2 -0.003585 0.015216 -0.000322 -0.015576 0.002879 -0.003579
# 3 -0.001940 -0.000322 0.010161 -0.005632 0.006374 -0.002669
# 4 0.010721 -0.015576 -0.005632 0.079616 -0.002229 0.016144
# 5 0.007372 0.002879 0.006374 -0.002229 0.053028 -0.002004
# 6 -0.005312 -0.003579 -0.002669 0.016144 -0.002004 0.029485
#
#
# Mechanical properties :
#
#
# Convention : Reuss Voigt Hill
#
# Bulk Modulus (GPa) = 33.42357 50.32511 41.87434
# Shear Modulus (GPa) = 22.18168 33.91740 28.04954
#
# Velocity S-wave (km/s) = 3.25906 4.03001 3.66486
# Velocity P-wave (km/s) = 5.49240 6.76404 6.16112
#
# Compressibility (1/GPa) = 0.02991901
#
# Stress axis : x y z
#
# Youngs Moduli (GPa) = 61.58507 65.72013 98.42004
#
# Poissons Ratio (x) = 0.23561 0.19094
# Poissons Ratio (y) = 0.22079 0.03174
# Poissons Ratio (z) = 0.11948 0.02119
#
# Static dielectric constant tensor:
#      x y z
#    x 1.770140 -0.031150 -0.004900 
#    y -0.031150 1.801950 0.012190 
#    z -0.004900 0.012190 1.738520 
# 
# From -- ./inp_files/612126.got.cif
#   From: 2010.05.17/outbox.cif.g08.bks.cpg/sg2_307_cif.got.tgz:612126.got - 2010.06.03 11:33:40.
