data_PCOD9011966
_publ_section_title
;
Structure prediction by ZEFSAII (Michael W. Deem and Ramdas Pophale) SiO2 
 PCOD9011966
Probable space group: P -1
;
_chemical_formula_sum "Si O2"
_cell_formula_units_Z 16
_cell_length_a 8.031875
_cell_length_b 6.396615
_cell_length_c 27.950027
_cell_angle_alpha 109.123040
_cell_angle_beta 136.823052
_cell_angle_gamma 47.872597
_cell_volume 690.815217
_symmetry_space_group_name_H-M "P -1"
_symmetry_group_IT_number 2
_symmetry_cell_setting 'triclinic'
loop_
_space_group_symop_operation_xyz
x,y,z
-x,-y,-z
loop_
_atom_site_type_symbol
_atom_site_label
_atom_site_fract_x
_atom_site_fract_y
_atom_site_fract_z
Si Si1 0.128393 0.744380 0.799580
Si Si2 0.439534 0.954017 0.167644
Si Si3 0.480879 0.152858 0.285365
Si Si4 0.239923 0.138097 0.583786
Si Si5 0.520909 0.453232 0.444748
Si Si6 0.790049 0.157344 0.019916
Si Si7 0.629792 0.798290 0.933460
Si Si8 0.287366 0.755826 0.324393
O O1 0.318319 0.400027 0.806361
O O2 0.366639 0.762683 0.880700
O O3 0.793447 0.865797 0.762017
O O4 0.009210 0.939512 0.741022
O O5 0.544031 0.067600 0.237317
O O6 0.417836 0.092298 0.122914
O O7 0.086328 0.053960 0.107433
O O8 0.345182 0.480103 0.292050
O O9 0.764334 0.927387 0.365963
O O10 0.397297 0.281023 0.622045
O O11 0.888567 0.317378 0.500170
O O12 0.480304 0.807475 0.586583
O O13 0.500000 0.500000 0.500000
O O14 0.282878 0.719864 0.377818
O O15 0.500000 0.500000 0.000000
O O16 0.606944 0.035167 0.976822
O O17 0.000000 0.000000 0.000000
O O18 0.000000 0.500000 0.000000
#
# Coordination Sequence:
#
# PCOD9011966 Si02
#       8
#     2   2   2   2   2   2   2   2
#     4  11  24  44  67  95 140 176 235 288 361 418
#     4  11  25  43  69  94 138 179 228 294 357 427
#     4  10  24  43  66  97 134 186 225 290 345 419
#     4   9  21  41  63  97 141 173 225 280 342 414
#     4  10  21  40  68 101 135 178 218 283 342 408
#     4  10  24  45  70 101 141 185 236 309 374 435
#     4  11  24  46  69 102 134 183 237 299 365 437
#     4  10  22  43  68  97 137 180 229 280 346 422
#
# _framework density 23.16104
#
# number of rings (size 3 to 8) (size 9 to 14) (size 15 to 20)
#    0.000    1.750    1.250    1.125    5.250    6.500 
#    2.250    9.375    0.000    0.000    0.000    0.000 
#    0.000    0.000    0.000    0.000    0.000    0.000 
#
# Total GULP energy -89288.269088 kJ/mol
# GULP energy per Si atom -5580.516818 kJ/mol
# Density = 2.310832 g / cm^3
# Si number density = 23.161040 Si / 1000 Ang^3
#
#
#
# Elastic Constant Matrix: (Units=GPa)
#
#
# Indices 1 2 3 4 5 6 
#
# 1 87.1551 41.7603 37.1816 1.7499 -7.7212 20.2609
# 2 41.7603 116.2950 62.3653 3.3034 -16.5118 18.1083
# 3 37.1816 62.3653 141.3722 -7.8068 -1.9473 15.4636
# 4 1.7499 3.3034 -7.8068 56.0532 8.4785 6.4933
# 5 -7.7212 -16.5118 -1.9473 8.4785 47.9107 0.4369
# 6 20.2609 18.1083 15.4636 6.4933 0.4369 25.5745
#
#
#
# Elastic Compliance Matrix: (Units=1/GPa)
#
#
# Indices 1 2 3 4 5 6 
#
# 1 0.016074 -0.003143 -0.001758 0.000323 0.001466 -0.009553
# 2 -0.003143 0.013528 -0.004742 -0.001554 0.004274 -0.003901
# 3 -0.001758 -0.004742 0.009918 0.002207 -0.001889 -0.001774
# 4 0.000323 -0.001554 0.002207 0.019422 -0.003782 -0.005357
# 5 0.001466 0.004274 -0.001889 -0.003782 0.023196 -0.002481
# 6 -0.009553 -0.003901 -0.001774 -0.005357 -0.002481 0.051907
#
#
# Mechanical properties :
#
#
# Convention : Reuss Voigt Hill
#
# Bulk Modulus (GPa) = 49.41971 69.71518 59.56745
# Shear Modulus (GPa) = 31.23535 39.47534 35.35535
#
# Velocity S-wave (km/s) = 3.67634 4.13290 3.91128
# Velocity P-wave (km/s) = 6.27729 7.27599 6.79501
#
# Compressibility (1/GPa) = 0.02023484
#
# Stress axis : x y z
#
# Youngs Moduli (GPa) = 62.21294 73.91811 100.83030
#
# Poissons Ratio (x) = 0.23230 0.17727
# Poissons Ratio (y) = 0.19551 0.47811
# Poissons Ratio (z) = 0.10938 0.35050
#
# Static dielectric constant tensor:
#      x y z
#    x 1.943380 -0.029100 0.008360 
#    y -0.029100 1.848720 -0.013000 
#    z 0.008360 -0.013000 1.870200 
# 
# From -- ./inp_files/622236.got.cif
#   From: 2010.05.17/outbox.cif.g08.bks.cpg/sg2_312_cif.got.tgz:622236.got - 2010.06.03 11:33:40.
