data_PCOD9011436
_publ_section_title
;
Structure prediction by ZEFSAII (Michael W. Deem and Ramdas Pophale) SiO2 
 PCOD9011436
Probable space group: P -1
;
_chemical_formula_sum "Si O2"
_cell_formula_units_Z 16
_cell_length_a 23.236888
_cell_length_b 16.774485
_cell_length_c 11.648092
_cell_angle_alpha 37.894746
_cell_angle_beta 150.944305
_cell_angle_gamma 159.660058
_cell_volume 753.828855
_symmetry_space_group_name_H-M "P -1"
_symmetry_group_IT_number 2
_symmetry_cell_setting 'triclinic'
loop_
_space_group_symop_operation_xyz
x,y,z
-x,-y,-z
loop_
_atom_site_type_symbol
_atom_site_label
_atom_site_fract_x
_atom_site_fract_y
_atom_site_fract_z
Si Si1 0.985453 0.651097 0.408121
Si Si2 0.805304 0.891309 0.721600
Si Si3 0.364890 0.100768 0.918632
Si Si4 0.614303 0.241533 0.397841
Si Si5 0.684285 0.521939 0.850152
Si Si6 0.084798 0.425897 0.247854
Si Si7 0.582098 0.068049 0.195601
Si Si8 0.606765 0.374994 0.623029
O O1 0.818072 0.431093 0.451279
O O2 0.165813 0.714779 0.613859
O O3 0.863447 0.609139 0.137692
O O4 0.116360 0.892434 0.420245
O O5 0.743956 0.726898 0.708650
O O6 0.597116 0.715961 0.639269
O O7 0.000000 0.000000 0.000000
O O8 0.439041 0.164861 0.108124
O O9 0.485849 0.091013 0.079270
O O10 0.473568 0.316942 0.794765
O O11 0.119374 0.844600 0.764821
O O12 0.723844 0.394521 0.530310
O O13 0.500000 0.000000 0.500000
O O14 0.654269 0.428531 0.780927
O O15 0.177616 0.434119 0.289729
O O16 0.000000 0.500000 0.000000
O O17 0.491916 0.851488 0.329218
O O18 0.500000 0.000000 0.000000
#
# Coordination Sequence:
#
# PCOD9011436 Si02
#       8
#     2   2   2   2   2   2   2   2
#     4   9  22  36  64  93 118 167 208 265 319 359
#     4   9  20  43  65  92 120 157 213 278 313 353
#     4  11  23  40  60  91 128 172 205 252 315 378
#     4  11  22  39  58  85 128 174 204 240 309 388
#     4  10  21  40  66  91 122 155 220 271 307 371
#     4  12  24  40  59  89 138 173 197 252 316 377
#     4  11  19  34  57  91 127 154 207 262 310 371
#     4  11  22  37  63  95 120 166 210 259 318 373
#
# _framework density 21.224976999999999
#
# number of rings (size 3 to 8) (size 9 to 14) (size 15 to 20)
#    0.000    1.500    3.750    1.125    1.750    3.000 
#    6.750    0.625    0.000    2.250    0.000    0.000 
#    0.000    0.000    0.000    0.000    0.000    0.000 
#
# Total GULP energy -89195.451653 kJ/mol
# GULP energy per Si atom -5574.715728 kJ/mol
# Density = 2.117667 g / cm^3
# Si number density = 21.224977 Si / 1000 Ang^3
#
#
#
# Elastic Constant Matrix: (Units=GPa)
#
#
# Indices 1 2 3 4 5 6 
#
# 1 78.7899 39.3742 38.1997 6.2149 -5.9249 8.5762
# 2 39.3742 132.9612 32.5551 24.5638 -0.1150 -0.3708
# 3 38.1997 32.5551 103.1069 11.2685 -8.7233 5.6734
# 4 6.2149 24.5638 11.2685 25.7027 -4.2907 1.1829
# 5 -5.9249 -0.1150 -8.7233 -4.2907 42.8521 6.6374
# 6 8.5762 -0.3708 5.6734 1.1829 6.6374 37.9318
#
#
#
# Elastic Compliance Matrix: (Units=1/GPa)
#
#
# Indices 1 2 3 4 5 6 
#
# 1 0.017784 -0.004560 -0.005056 0.002832 0.002289 -0.003798
# 2 -0.004560 0.010825 -0.000997 -0.009233 -0.002028 0.001929
# 3 -0.005056 -0.000997 0.012400 -0.002940 0.001671 -0.000922
# 4 0.002832 -0.009233 -0.002940 0.049316 0.005128 -0.002726
# 5 0.002289 -0.002028 0.001671 0.005128 0.025334 -0.005380
# 6 -0.003798 0.001929 -0.000922 -0.002726 -0.005380 0.028405
#
#
# Mechanical properties :
#
#
# Convention : Reuss Voigt Hill
#
# Bulk Modulus (GPa) = 50.54833 59.45733 55.00283
# Shear Modulus (GPa) = 29.08924 34.94592 32.01758
#
# Velocity S-wave (km/s) = 3.70607 4.06205 3.88814
# Velocity P-wave (km/s) = 6.49465 7.07630 6.79171
#
# Compressibility (1/GPa) = 0.01978305
#
# Stress axis : x y z
#
# Youngs Moduli (GPa) = 56.22900 92.37969 80.64562
#
# Poissons Ratio (x) = 0.42129 0.40773
# Poissons Ratio (y) = 0.25643 0.08040
# Poissons Ratio (z) = 0.28428 0.09210
#
# Static dielectric constant tensor:
#      x y z
#    x 1.806320 0.006120 -0.022200 
#    y 0.006120 1.862010 -0.000220 
#    z -0.022200 -0.000220 1.829480 
# 
# From -- ./inp_files/312538.got.cif
#   From: 2010.05.17/outbox.cif.g08.bks.cpg/sg2_157_cif.got.tgz:312538.got - 2010.06.03 11:33:40.
