data_PCOD9011527
_publ_section_title
;
Structure prediction by ZEFSAII (Michael W. Deem and Ramdas Pophale) SiO2 
 PCOD9011527
Probable space group: P -1
;
_chemical_formula_sum "Si O2"
_cell_formula_units_Z 12
_cell_length_a 14.457928
_cell_length_b 9.006996
_cell_length_c 8.040351
_cell_angle_alpha 133.246938
_cell_angle_beta 135.456650
_cell_angle_gamma 39.619228
_cell_volume 446.122254
_symmetry_space_group_name_H-M "P -1"
_symmetry_group_IT_number 2
_symmetry_cell_setting 'triclinic'
loop_
_space_group_symop_operation_xyz
x,y,z
-x,-y,-z
loop_
_atom_site_type_symbol
_atom_site_label
_atom_site_fract_x
_atom_site_fract_y
_atom_site_fract_z
Si Si1 0.861383 0.670775 0.581272
Si Si2 0.331939 0.923426 0.886626
Si Si3 0.336536 0.398640 0.290150
Si Si4 0.755524 0.154059 0.637477
Si Si5 0.554718 0.722614 0.316726
Si Si6 0.003659 0.199335 0.848276
O O1 0.731901 0.603783 0.382237
O O2 0.000000 0.500000 0.500000
O O3 0.769100 0.956320 0.626837
O O4 0.943215 0.673935 0.857144
O O5 0.150906 0.035362 0.794266
O O6 0.337233 0.846815 0.645039
O O7 0.360614 0.142442 0.086695
O O8 0.438995 0.748139 0.041276
O O9 0.322080 0.553683 0.226854
O O10 0.440042 0.373849 0.563827
O O11 0.157929 0.583698 0.272509
O O12 0.938226 0.056876 0.752449
O O13 0.500000 0.000000 0.500000
#
# Coordination Sequence:
#
# PCOD9011527 Si02
#       6
#     2   2   2   2   2   2
#     4  12  24  41  68  99 134 170 218 274 331 384
#     4  11  20  42  70  92 133 173 222 264 323 397
#     4   9  21  38  66  95 124 174 221 257 321 385
#     4  10  25  37  65 104 129 166 222 275 326 378
#     4  10  22  42  69  93 130 182 213 264 331 389
#     4  10  21  40  66  94 131 170 220 262 318 394
#
# _framework density 26.898458000000002
#
# number of rings (size 3 to 8) (size 9 to 14) (size 15 to 20)
#    1.000    0.667    3.333    2.500    2.333    1.333 
#    0.000    3.333    3.667    0.000    0.000    0.000 
#    0.000    0.000    0.000    0.000    0.000    0.000 
#
# Total GULP energy -67080.097583 kJ/mol
# GULP energy per Si atom -5590.008132 kJ/mol
# Density = 2.683724 g / cm^3
# Si number density = 26.898458 Si / 1000 Ang^3
#
#
#
# Elastic Constant Matrix: (Units=GPa)
#
#
# Indices 1 2 3 4 5 6 
#
# 1 91.9607 12.6992 -28.5273 4.2767 31.2428 0.4066
# 2 12.6992 99.5630 -5.7141 -18.8161 8.3412 11.3545
# 3 -28.5273 -5.7141 65.3210 -2.6899 3.2569 -3.0781
# 4 4.2767 -18.8161 -2.6899 31.7538 -2.3309 10.2705
# 5 31.2428 8.3412 3.2569 -2.3309 36.1388 -0.3738
# 6 0.4066 11.3545 -3.0781 10.2705 -0.3738 57.6128
#
#
#
# Elastic Compliance Matrix: (Units=1/GPa)
#
#
# Indices 1 2 3 4 5 6 
#
# 1 0.020639 -0.001564 0.009678 -0.004708 -0.018644 0.001398
# 2 -0.001564 0.012508 0.000641 0.008897 -0.001060 -0.004013
# 3 0.009678 0.000641 0.020137 -0.000255 -0.010338 0.000860
# 4 -0.004708 0.008897 -0.000255 0.040604 0.004566 -0.008943
# 5 -0.018644 -0.001060 -0.010338 0.004566 0.045252 -0.000732
# 6 0.001398 -0.004013 0.000860 -0.008943 -0.000732 0.019774
#
#
# Mechanical properties :
#
#
# Convention : Reuss Voigt Hill
#
# Bulk Modulus (GPa) = 14.12517 23.75112 18.93814
# Shear Modulus (GPa) = 30.30258 43.66021 36.98140
#
# Velocity S-wave (km/s) = 3.36006 4.03320 3.71192
# Velocity P-wave (km/s) = 4.50733 5.52613 5.04252
#
# Compressibility (1/GPa) = 0.07079559
#
# Stress axis : x y z
#
# Youngs Moduli (GPa) = 48.45117 79.94857 49.65884
#
# Poissons Ratio (x) = 0.12506 -0.48062
# Poissons Ratio (y) = 0.07579 -0.03184
# Poissons Ratio (z) = -0.46893 -0.05126
#
# Static dielectric constant tensor:
#      x y z
#    x 2.272840 -0.031060 0.056350 
#    y -0.031060 2.117420 0.020760 
#    z 0.056350 0.020760 2.045400 
# 
# From -- ./inp_files/230911.got.cif
#   From: 2010.05.17/outbox.cif.g08.bks.cpg/sg2_116_cif.got.tgz:230911.got - 2010.06.03 11:33:40.
