data_PCOD9011818
_publ_section_title
;
Structure prediction by ZEFSAII (Michael W. Deem and Ramdas Pophale) SiO2 
 PCOD9011818
Probable space group: P -1
;
_chemical_formula_sum "Si O2"
_cell_formula_units_Z 12
_cell_length_a 16.633299
_cell_length_b 7.980255
_cell_length_c 12.129645
_cell_angle_alpha 50.446163
_cell_angle_beta 28.132801
_cell_angle_gamma 52.447003
_cell_volume 580.233722
_symmetry_space_group_name_H-M "P -1"
_symmetry_group_IT_number 2
_symmetry_cell_setting 'triclinic'
loop_
_space_group_symop_operation_xyz
x,y,z
-x,-y,-z
loop_
_atom_site_type_symbol
_atom_site_label
_atom_site_fract_x
_atom_site_fract_y
_atom_site_fract_z
Si Si1 0.904220 0.319459 0.625525
Si Si2 0.653503 0.429140 0.071174
Si Si3 0.305109 0.381413 0.406146
Si Si4 0.511093 0.961543 0.821416
Si Si5 0.754696 0.916615 0.743092
Si Si6 0.371659 0.932135 0.589738
O O1 0.837807 0.435950 0.543173
O O2 0.000000 0.500000 0.500000
O O3 0.045666 0.112407 0.516728
O O4 0.751514 0.295761 0.906185
O O5 0.449806 0.455240 0.279704
O O6 0.695529 0.279811 0.190855
O O7 0.710578 0.667136 0.913730
O O8 0.408151 0.280299 0.214833
O O9 0.245932 0.158538 0.621851
O O10 0.639877 0.020082 0.736723
O O11 0.526311 0.104540 0.633860
O O12 0.324911 0.970191 0.097250
O O13 0.500000 0.000000 0.500000
#
# Coordination Sequence:
#
# PCOD9011818 Si02
#       6
#     2   2   2   2   2   2
#     4  10  17  30  48  75  96 125 162 197 236 279
#     4  10  17  29  54  74  90 128 169 190 231 291
#     4   9  17  32  52  70  93 127 167 192 231 284
#     4   9  18  34  50  69 100 128 156 196 252 268
#     4  10  20  32  50  72 104 123 154 205 240 284
#     4   8  16  30  51  73  92 124 165 199 226 285
#
# _framework density 20.681319999999999
#
# number of rings (size 3 to 8) (size 9 to 14) (size 15 to 20)
#    1.000    1.667    3.333    0.500    0.000    0.667 
#    0.000    8.333    0.000    4.000    0.000    0.000 
#    0.000    0.000    0.000    0.000    0.000    0.000 
#
# Total GULP energy -66816.187751 kJ/mol
# GULP energy per Si atom -5568.015646 kJ/mol
# Density = 2.063425 g / cm^3
# Si number density = 20.681320 Si / 1000 Ang^3
#
#
#
# Elastic Constant Matrix: (Units=GPa)
#
#
# Indices 1 2 3 4 5 6 
#
# 1 98.9694 21.2046 40.1450 0.0121 24.7052 -25.9999
# 2 21.2046 50.0332 11.4884 3.3372 9.4706 -7.7269
# 3 40.1450 11.4884 44.0601 8.6723 5.2781 -18.5549
# 4 0.0121 3.3372 8.6723 39.0390 -5.2036 1.9382
# 5 24.7052 9.4706 5.2781 -5.2036 35.2167 -0.1885
# 6 -25.9999 -7.7269 -18.5549 1.9382 -0.1885 30.1853
#
#
#
# Elastic Compliance Matrix: (Units=1/GPa)
#
#
# Indices 1 2 3 4 5 6 
#
# 1 0.021907 -0.002316 -0.014139 0.001211 -0.012397 0.009431
# 2 -0.002316 0.022822 -0.001550 -0.002371 -0.004614 0.003018
# 3 -0.014139 -0.001550 0.044091 -0.010103 0.002316 0.015191
# 4 0.001211 -0.002371 -0.010103 0.029183 0.005573 -0.007613
# 5 -0.012397 -0.004614 0.002316 0.005573 0.038753 -0.010552
# 6 0.009431 0.003018 0.015191 -0.007613 -0.010552 0.051785
#
#
# Mechanical properties :
#
#
# Convention : Reuss Voigt Hill
#
# Bulk Modulus (GPa) = 18.93555 37.63761 28.28658
# Shear Modulus (GPa) = 19.07267 28.90319 23.98793
#
# Velocity S-wave (km/s) = 3.04010 3.74244 3.40940
# Velocity P-wave (km/s) = 4.63667 6.07559 5.40423
#
# Compressibility (1/GPa) = 0.05281071
#
# Stress axis : x y z
#
# Youngs Moduli (GPa) = 45.64674 43.81774 22.68019
#
# Poissons Ratio (x) = 0.10148 0.32067
# Poissons Ratio (y) = 0.10571 0.03516
# Poissons Ratio (z) = 0.64538 0.06793
#
# Static dielectric constant tensor:
#      x y z
#    x 1.780310 0.026220 -0.012920 
#    y 0.026220 1.806100 -0.007570 
#    z -0.012920 -0.007570 1.792550 
# 
# From -- ./inp_files/540006.got.cif
#   From: 2010.05.17/outbox.cif.g08.bks.cpg/sg2_271_cif.got.tgz:540006.got - 2010.06.03 11:33:40.
