data_PCOD9011618
_publ_section_title
;
Structure prediction by ZEFSAII (Michael W. Deem and Ramdas Pophale) SiO2 
 PCOD9011618
Probable space group: P -1
;
_chemical_formula_sum "Si O2"
_cell_formula_units_Z 16
_cell_length_a 10.545890
_cell_length_b 8.710627
_cell_length_c 15.641253
_cell_angle_alpha 69.329897
_cell_angle_beta 145.280829
_cell_angle_gamma 97.242438
_cell_volume 728.478025
_symmetry_space_group_name_H-M "P -1"
_symmetry_group_IT_number 2
_symmetry_cell_setting 'triclinic'
loop_
_space_group_symop_operation_xyz
x,y,z
-x,-y,-z
loop_
_atom_site_type_symbol
_atom_site_label
_atom_site_fract_x
_atom_site_fract_y
_atom_site_fract_z
Si Si1 0.732847 0.548812 0.368775
Si Si2 0.533022 0.343150 0.162731
Si Si3 0.699539 0.940285 0.883913
Si Si4 0.273759 0.171788 0.333582
Si Si5 0.426570 0.879744 0.049815
Si Si6 0.411722 0.604638 0.517019
Si Si7 0.834334 0.325155 0.170461
Si Si8 0.852237 0.085077 0.799498
O O1 0.606737 0.439082 0.263151
O O2 0.627240 0.745389 0.241638
O O3 0.687556 0.502351 0.449400
O O4 0.000000 0.500000 0.500000
O O5 0.465740 0.176771 0.186733
O O6 0.747381 0.300774 0.222290
O O7 0.297397 0.472567 0.962861
O O8 0.716500 0.003638 0.977301
O O9 0.642927 0.083535 0.750924
O O10 0.980163 0.853495 0.052664
O O11 0.385008 0.324404 0.344216
O O12 0.103499 0.245073 0.306334
O O13 0.500000 0.000000 0.500000
O O14 0.122738 0.102836 0.194067
O O15 0.297280 0.773431 0.944169
O O16 0.500000 0.000000 0.000000
O O17 0.500000 0.500000 0.500000
O O18 0.215207 0.776421 0.340717
#
# Coordination Sequence:
#
# PCOD9011618 Si02
#       8
#     2   2   2   2   2   2   2   2
#     4  11  27  45  66  97 136 172 226 275 338 405
#     4  10  23  40  66  97 133 171 223 275 334 391
#     4  11  21  40  65 101 128 165 229 270 325 395
#     4  10  22  41  65  93 133 176 223 264 338 397
#     4  11  22  41  69  97 129 170 217 275 332 389
#     4  11  25  43  66  93 134 178 223 271 335 397
#     4  10  21  40  66  97 130 177 216 274 333 398
#     4  10  23  39  66  93 133 174 215 273 327 394
#
# _framework density 21.963601000000001
#
# number of rings (size 3 to 8) (size 9 to 14) (size 15 to 20)
#    0.000    1.500    2.500    1.500    5.250    0.000 
#    0.000    2.500    0.000    0.000    0.000    0.000 
#    0.000    0.000    0.000    0.000    0.000    0.000 
#
# Total GULP energy -89095.240675 kJ/mol
# GULP energy per Si atom -5568.452542 kJ/mol
# Density = 2.191361 g / cm^3
# Si number density = 21.963601 Si / 1000 Ang^3
#
#
#
# Elastic Constant Matrix: (Units=GPa)
#
#
# Indices 1 2 3 4 5 6 
#
# 1 145.4061 19.8284 22.3814 -14.9289 -15.2187 15.5514
# 2 19.8284 57.1540 9.4776 2.4136 -6.3090 11.2967
# 3 22.3814 9.4776 60.7671 -0.0212 -1.6288 14.8508
# 4 -14.9289 2.4136 -0.0212 25.3110 0.3042 -6.1902
# 5 -15.2187 -6.3090 -1.6288 0.3042 35.8380 -0.2589
# 6 15.5514 11.2967 14.8508 -6.1902 -0.2589 43.9428
#
#
#
# Elastic Compliance Matrix: (Units=1/GPa)
#
#
# Indices 1 2 3 4 5 6 
#
# 1 0.008486 -0.002233 -0.002480 0.004966 0.003049 -0.000873
# 2 -0.002233 0.019807 -0.001095 -0.004344 0.002493 -0.004529
# 3 -0.002480 -0.001095 0.018900 -0.002711 -0.000404 -0.005613
# 4 0.004966 -0.004344 -0.002711 0.044438 0.000891 0.006541
# 5 0.003049 0.002493 -0.000404 0.000891 0.029602 -0.001283
# 6 -0.000873 -0.004529 -0.005613 0.006541 -0.001283 0.027041
#
#
# Mechanical properties :
#
#
# Convention : Reuss Voigt Hill
#
# Bulk Modulus (GPa) = 28.10811 40.74467 34.42639
# Shear Modulus (GPa) = 29.11223 35.12768 32.11995
#
# Velocity S-wave (km/s) = 3.64466 4.00354 3.82831
# Velocity P-wave (km/s) = 5.52601 6.32158 5.93713
#
# Compressibility (1/GPa) = 0.03557693
#
# Stress axis : x y z
#
# Youngs Moduli (GPa) = 117.84111 50.48809 52.90894
#
# Poissons Ratio (x) = 0.11275 0.13123
# Poissons Ratio (y) = 0.26317 0.05791
# Poissons Ratio (z) = 0.29228 0.05526
#
# Static dielectric constant tensor:
#      x y z
#    x 1.737800 0.008650 -0.226840 
#    y 0.008650 1.816110 0.050130 
#    z -0.226840 0.050130 1.411050 
# 
# From -- ./inp_files/494764.got.cif
#   From: 2010.05.17/outbox.cif.g08.bks.cpg/sg2_248_cif.got.tgz:494764.got - 2010.06.03 11:33:40.
