data_PCOD9011214
_publ_section_title
;
Structure prediction by ZEFSAII (Michael W. Deem and Ramdas Pophale) SiO2 
 PCOD9011214
Probable space group: P -1
;
_chemical_formula_sum "Si O2"
_cell_formula_units_Z 13
_cell_length_a 9.866753
_cell_length_b 8.491226
_cell_length_c 11.449066
_cell_angle_alpha 35.314179
_cell_angle_beta 75.180454
_cell_angle_gamma 86.139707
_cell_volume 518.597510
_symmetry_space_group_name_H-M "P -1"
_symmetry_group_IT_number 2
_symmetry_cell_setting 'triclinic'
loop_
_space_group_symop_operation_xyz
x,y,z
-x,-y,-z
loop_
_atom_site_type_symbol
_atom_site_label
_atom_site_fract_x
_atom_site_fract_y
_atom_site_fract_z
Si Si1 0.643103 0.786439 0.056186
Si Si2 0.080194 0.253611 0.112956
Si Si3 0.214356 0.553154 0.345082
Si Si4 0.276428 0.313609 0.239473
Si Si5 0.500000 0.500000 0.500000
Si Si6 0.946857 0.786760 0.247004
Si Si7 0.476299 0.869401 0.812609
O O1 0.561099 0.630658 0.278313
O O2 0.782328 0.680177 0.047193
O O3 0.543133 0.770069 0.975813
O O4 0.698022 0.121644 0.868139
O O5 0.141262 0.172000 0.272481
O O6 0.976703 0.987479 0.232171
O O7 0.000000 0.500000 0.000000
O O8 0.252588 0.369373 0.345250
O O9 0.210180 0.421542 0.557378
O O10 0.053445 0.583843 0.334165
O O11 0.403733 0.156954 0.292275
O O12 0.329134 0.627152 0.979195
O O13 0.535257 0.821407 0.352558
O O14 0.000000 0.000000 0.000000
#
# Coordination Sequence:
#
# PCOD9011214 Si02
#       7
#     2   2   2   2   1   2   2
#     4  10  23  42  67 102 137 182 228 285 345 407
#     4  10  22  42  66  98 139 175 231 285 341 413
#     4  10  21  40  65  94 132 176 221 277 339 402
#     4  10  21  43  68  95 144 180 219 289 353 399
#     4  12  22  40  72 100 136 182 236 282 334 418
#     4  10  22  40  64  96 130 176 229 273 332 409
#     4  10  23  43  66 100 139 178 230 282 343 407
#
# _framework density 25.067606999999999
#
# number of rings (size 3 to 8) (size 9 to 14) (size 15 to 20)
#    0.000    1.846    1.538    1.385    0.000    4.308 
#    2.769   10.000    0.000    0.000    0.000    0.000 
#    0.000    0.000    0.000    0.000    0.000    0.000 
#
# Total GULP energy -72474.839101 kJ/mol
# GULP energy per Si atom -5574.987623 kJ/mol
# Density = 2.501055 g / cm^3
# Si number density = 25.067607 Si / 1000 Ang^3
#
#
#
# Elastic Constant Matrix: (Units=GPa)
#
#
# Indices 1 2 3 4 5 6 
#
# 1 44.2928 28.0823 15.4693 7.4492 11.6390 -18.6105
# 2 28.0823 170.0204 39.5805 5.2981 1.8411 -25.2094
# 3 15.4693 39.5805 153.7526 16.8315 -9.6272 -14.5215
# 4 7.4492 5.2981 16.8315 53.7524 -4.8808 -1.7156
# 5 11.6390 1.8411 -9.6272 -4.8808 22.1103 -4.4051
# 6 -18.6105 -25.2094 -14.5215 -1.7156 -4.4051 52.5416
#
#
#
# Elastic Compliance Matrix: (Units=1/GPa)
#
#
# Indices 1 2 3 4 5 6 
#
# 1 0.034945 -0.003627 -0.002406 -0.005161 -0.018638 0.008241
# 2 -0.003627 0.007017 -0.001229 0.000368 0.001242 0.001859
# 3 -0.002406 -0.001229 0.007603 -0.001481 0.004550 0.000993
# 4 -0.005161 0.000368 -0.001481 0.020296 0.006349 -0.000866
# 5 -0.018638 0.001242 0.004550 0.006349 0.058389 0.000354
# 6 0.008241 0.001859 0.000993 -0.000866 0.000354 0.023119
#
#
# Mechanical properties :
#
#
# Convention : Reuss Voigt Hill
#
# Bulk Modulus (GPa) = 28.53642 59.37001 43.95321
# Shear Modulus (GPa) = 28.15727 44.67644 36.41686
#
# Velocity S-wave (km/s) = 3.35513 4.22624 3.81563
# Velocity P-wave (km/s) = 5.13982 6.89566 6.08144
#
# Compressibility (1/GPa) = 0.03504294
#
# Stress axis : x y z
#
# Youngs Moduli (GPa) = 28.61602 142.50189 131.52522
#
# Poissons Ratio (x) = 0.51689 0.31642
# Poissons Ratio (y) = 0.10380 0.16158
# Poissons Ratio (z) = 0.06884 0.17507
#
# Static dielectric constant tensor:
#      x y z
#    x 2.383180 0.061720 -0.161110 
#    y 0.061720 1.933500 0.098480 
#    z -0.161110 0.098480 1.678550 
# 
# From -- ./inp_files/416005.got.cif
#   From: 2010.05.17/outbox.cif.g08.bks.cpg/sg2_209_cif.got.tgz:416005.got - 2010.06.03 11:33:40.
