data_PCOD9011343
_publ_section_title
;
Structure prediction by ZEFSAII (Michael W. Deem and Ramdas Pophale) SiO2 
 PCOD9011343
Probable space group: P -1
;
_chemical_formula_sum "Si O2"
_cell_formula_units_Z 13
_cell_length_a 25.666326
_cell_length_b 12.635272
_cell_length_c 6.866939
_cell_angle_alpha 41.493711
_cell_angle_beta 37.333469
_cell_angle_gamma 22.344252
_cell_volume 512.541709
_symmetry_space_group_name_H-M "P -1"
_symmetry_group_IT_number 2
_symmetry_cell_setting 'triclinic'
loop_
_space_group_symop_operation_xyz
x,y,z
-x,-y,-z
loop_
_atom_site_type_symbol
_atom_site_label
_atom_site_fract_x
_atom_site_fract_y
_atom_site_fract_z
Si Si1 0.869704 0.511712 0.267519
Si Si2 0.386412 0.573718 0.103129
Si Si3 0.174349 0.151308 0.748378
Si Si4 0.000000 0.500000 0.500000
Si Si5 0.429444 0.229485 0.174522
Si Si6 0.351493 0.371521 0.781241
Si Si7 0.970861 0.225134 0.721470
O O1 0.821674 0.735506 0.235034
O O2 0.989285 0.232187 0.428494
O O3 0.731681 0.605332 0.508360
O O4 0.988076 0.401715 0.908008
O O5 0.303561 0.592513 0.486401
O O6 0.500000 0.500000 0.000000
O O7 0.463795 0.324596 0.079361
O O8 0.281677 0.843928 0.906956
O O9 0.184699 0.221051 0.416396
O O10 0.037707 0.265262 0.589969
O O11 0.425305 0.303599 0.862586
O O12 0.539151 0.911899 0.270376
O O13 0.207973 0.495813 0.105682
O O14 0.000000 0.000000 0.000000
#
# Coordination Sequence:
#
# PCOD9011343 Si02
#       7
#     2   2   2   1   2   2   2
#     4   9  20  41  65  92 132 174 227 287 343 410
#     4  12  26  43  67 103 140 182 236 287 347 431
#     4  10  22  41  65 101 133 175 230 291 348 414
#     4  10  24  40  66 102 138 176 224 298 348 410
#     4  10  23  44  69  96 135 186 233 284 352 418
#     4  10  23  44  67  98 135 185 232 288 348 420
#     4  10  21  40  65  99 133 175 231 285 354 419
#
# _framework density 25.363790999999999
#
# number of rings (size 3 to 8) (size 9 to 14) (size 15 to 20)
#    0.000    1.846    0.000    2.308    6.462    2.462 
#    8.308    0.000    0.000    0.000    0.000    0.000 
#    0.000    0.000    0.000    0.000    0.000    0.000 
#
# Total GULP energy -72423.318864 kJ/mol
# GULP energy per Si atom -5571.024528 kJ/mol
# Density = 2.530606 g / cm^3
# Si number density = 25.363791 Si / 1000 Ang^3
#
#
#
# Elastic Constant Matrix: (Units=GPa)
#
#
# Indices 1 2 3 4 5 6 
#
# 1 169.3154 44.8475 49.2449 -17.6736 -9.9375 0.0382
# 2 44.8475 78.9860 40.4226 -22.1242 2.7986 -4.6923
# 3 49.2449 40.4226 108.1562 -38.8863 11.0576 5.5645
# 4 -17.6736 -22.1242 -38.8863 52.8370 -15.1192 12.4246
# 5 -9.9375 2.7986 11.0576 -15.1192 36.4473 -10.9329
# 6 0.0382 -4.6923 5.5645 12.4246 -10.9329 23.0596
#
#
#
# Elastic Compliance Matrix: (Units=1/GPa)
#
#
# Indices 1 2 3 4 5 6 
#
# 1 0.007756 -0.002947 -0.003012 -0.000260 0.003758 0.002036
# 2 -0.002947 0.017629 -0.004787 0.002316 0.001522 0.004221
# 3 -0.003012 -0.004787 0.018044 0.012153 -0.005185 -0.014330
# 4 -0.000260 0.002316 0.012153 0.034536 0.004745 -0.018820
# 5 0.003758 0.001522 -0.005185 0.004745 0.036822 0.016456
# 6 0.002036 0.004221 -0.014330 -0.018820 0.016456 0.065621
#
#
# Mechanical properties :
#
#
# Convention : Reuss Voigt Hill
#
# Bulk Modulus (GPa) = 45.58869 69.49863 57.54366
# Shear Modulus (GPa) = 23.89903 37.26494 30.58199
#
# Velocity S-wave (km/s) = 3.07294 3.83720 3.47614
# Velocity P-wave (km/s) = 5.53205 6.86238 6.23281
#
# Compressibility (1/GPa) = 0.02193527
#
# Stress axis : x y z
#
# Youngs Moduli (GPa) = 128.93555 56.72402 55.42158
#
# Poissons Ratio (x) = 0.16717 0.16695
# Poissons Ratio (y) = 0.37999 0.26531
# Poissons Ratio (z) = 0.38841 0.27154
#
# Static dielectric constant tensor:
#      x y z
#    x 2.146550 -0.074490 0.198500 
#    y -0.074490 2.049290 0.046340 
#    z 0.198500 0.046340 2.280840 
# 
# From -- ./inp_files/358668.got.cif
#   From: 2010.05.17/outbox.cif.g08.bks.cpg/sg2_180_cif.got.tgz:358668.got - 2010.06.03 11:33:40.
