data_PCOD9011263
_publ_section_title
;
Structure prediction by ZEFSAII (Michael W. Deem and Ramdas Pophale) SiO2 
 PCOD9011263
Probable space group: P -1
;
_chemical_formula_sum "Si O2"
_cell_formula_units_Z 16
_cell_length_a 8.030499
_cell_length_b 10.860721
_cell_length_c 17.964701
_cell_angle_alpha 127.356660
_cell_angle_beta 135.411467
_cell_angle_gamma 41.091885
_cell_volume 714.569946
_symmetry_space_group_name_H-M "P -1"
_symmetry_group_IT_number 2
_symmetry_cell_setting 'triclinic'
loop_
_space_group_symop_operation_xyz
x,y,z
-x,-y,-z
loop_
_atom_site_type_symbol
_atom_site_label
_atom_site_fract_x
_atom_site_fract_y
_atom_site_fract_z
Si Si1 0.954935 0.056479 0.592260
Si Si2 0.710555 0.444474 0.617299
Si Si3 0.462993 0.696144 0.036330
Si Si4 0.633221 0.920282 0.094234
Si Si5 0.381124 0.283758 0.743792
Si Si6 0.135417 0.704247 0.799518
Si Si7 0.900541 0.993409 0.706199
Si Si8 0.409500 0.179588 0.244994
O O1 0.721719 0.280264 0.604772
O O2 0.884887 0.964320 0.602633
O O3 0.000000 0.000000 0.500000
O O4 0.277233 0.988557 0.690043
O O5 0.500000 0.500000 0.500000
O O6 0.605209 0.630104 0.699685
O O7 0.048789 0.347975 0.666784
O O8 0.680087 0.727653 0.069642
O O9 0.464144 0.774918 0.147002
O O10 0.500000 0.500000 0.000000
O O11 0.216965 0.778381 0.924514
O O12 0.930077 0.906277 0.192217
O O13 0.382549 0.092867 0.129847
O O14 0.500000 0.000000 0.000000
O O15 0.346836 0.477667 0.781697
O O16 0.588096 0.120463 0.691927
O O17 0.820181 0.761927 0.742831
O O18 0.103150 0.803008 0.748264
#
# Coordination Sequence:
#
# PCOD9011263 Si02
#       8
#     2   2   2   2   2   2   2   2
#     4  11  23  43  68  95 128 174 230 286 355 413
#     4  11  22  45  73  93 128 183 235 288 353 416
#     4  10  21  41  64  96 140 187 228 271 344 423
#     4  11  22  38  65 102 138 185 231 276 344 413
#     4  10  23  41  65  99 135 177 231 287 338 421
#     4  10  21  40  65  95 136 183 223 274 350 409
#     4  11  23  40  66  97 138 171 223 296 336 408
#     4  10  23  41  70  95 133 184 226 281 345 425
#
# _framework density 22.391089999999998
#
# number of rings (size 3 to 8) (size 9 to 14) (size 15 to 20)
#    0.000    1.500    2.500    3.000    1.750    3.000 
#    0.000    5.625    0.000    0.000    0.000    0.000 
#    0.000    0.000    0.000    0.000    0.000    0.000 
#
# Total GULP energy -89132.636675 kJ/mol
# GULP energy per Si atom -5570.789792 kJ/mol
# Density = 2.234013 g / cm^3
# Si number density = 22.391090 Si / 1000 Ang^3
#
#
#
# Elastic Constant Matrix: (Units=GPa)
#
#
# Indices 1 2 3 4 5 6 
#
# 1 72.8812 28.5073 31.2298 -6.5846 -32.3479 19.5254
# 2 28.5073 98.1684 30.0415 -12.6408 -18.8648 23.9594
# 3 31.2298 30.0415 89.8673 -10.0791 -40.7234 12.3225
# 4 -6.5846 -12.6408 -10.0791 29.8181 8.1742 -2.3036
# 5 -32.3479 -18.8648 -40.7234 8.1742 39.9852 -10.0690
# 6 19.5254 23.9594 12.3225 -2.3036 -10.0690 36.7587
#
#
#
# Elastic Compliance Matrix: (Units=1/GPa)
#
#
# Indices 1 2 3 4 5 6 
#
# 1 0.023764 -0.002356 0.001629 -0.000716 0.018236 -0.006683
# 2 -0.002356 0.013729 -0.002721 0.004059 -0.000724 -0.006729
# 3 0.001629 -0.002721 0.021361 0.000478 0.021616 -0.000302
# 4 -0.000716 0.004059 0.000478 0.036809 -0.006157 -0.001805
# 5 0.018236 -0.000724 0.021616 -0.006157 0.062783 0.000351
# 6 -0.006683 -0.006729 -0.000302 -0.001805 0.000351 0.035224
#
#
# Mechanical properties :
#
#
# Convention : Reuss Voigt Hill
#
# Bulk Modulus (GPa) = 19.24605 48.94158 34.09381
# Shear Modulus (GPa) = 22.94765 32.72162 27.83464
#
# Velocity S-wave (km/s) = 3.20481 3.82693 3.52960
# Velocity P-wave (km/s) = 4.72319 6.43679 5.64539
#
# Compressibility (1/GPa) = 0.05195872
#
# Stress axis : x y z
#
# Youngs Moduli (GPa) = 42.08003 72.83710 46.81353
#
# Poissons Ratio (x) = 0.17162 -0.07627
# Poissons Ratio (y) = 0.09915 0.12738
# Poissons Ratio (z) = -0.06855 0.19819
#
# Static dielectric constant tensor:
#      x y z
#    x 1.930350 0.069470 0.033870 
#    y 0.069470 1.880850 0.035890 
#    z 0.033870 0.035890 1.935640 
# 
# From -- ./inp_files/558587.got.cif
#   From: 2010.05.17/outbox.cif.g08.bks.cpg/sg2_280_cif.got.tgz:558587.got - 2010.06.03 11:33:40.
