data_PCOD9011563
_publ_section_title
;
Structure prediction by ZEFSAII (Michael W. Deem and Ramdas Pophale) SiO2 
 PCOD9011563
Probable space group: P -1
;
_chemical_formula_sum "Si O2"
_cell_formula_units_Z 10
_cell_length_a 8.239535
_cell_length_b 9.212215
_cell_length_c 11.264272
_cell_angle_alpha 111.536021
_cell_angle_beta 137.540676
_cell_angle_gamma 45.684021
_cell_volume 393.022781
_symmetry_space_group_name_H-M "P -1"
_symmetry_group_IT_number 2
_symmetry_cell_setting 'triclinic'
loop_
_space_group_symop_operation_xyz
x,y,z
-x,-y,-z
loop_
_atom_site_type_symbol
_atom_site_label
_atom_site_fract_x
_atom_site_fract_y
_atom_site_fract_z
Si Si1 0.128343 0.835993 0.623953
Si Si2 0.593962 0.782615 0.018304
Si Si3 0.312071 0.886954 0.305462
Si Si4 0.770311 0.490092 0.574601
Si Si5 0.247321 0.732535 0.996703
O O1 0.087851 0.681986 0.505416
O O2 0.489543 0.719928 0.832518
O O3 0.000000 0.000000 0.500000
O O4 0.910213 0.983716 0.660823
O O5 0.380400 0.829121 0.031715
O O6 0.960778 0.597312 0.206368
O O7 0.500000 0.000000 0.000000
O O8 0.646345 0.697458 0.499224
O O9 0.285953 0.748516 0.161599
O O10 0.140742 0.098666 0.195305
O O11 0.500000 0.500000 0.500000
O O12 0.500000 0.500000 0.000000
#
# Coordination Sequence:
#
# PCOD9011563 Si02
#       5
#     2   2   2   2   2
#     4  11  21  42  65  96 141 176 222 284 334 402
#     4  11  23  42  71 100 134 183 230 277 346 405
#     4  10  21  40  66  95 132 180 224 276 340 398
#     4  12  23  41  67 100 139 179 231 285 333 402
#     4  10  22  45  70  97 139 182 224 285 342 410
#
# _framework density 25.443819000000001
#
# number of rings (size 3 to 8) (size 9 to 14) (size 15 to 20)
#    0.000    1.200    4.000    3.600    0.000    1.600 
#    0.000   14.000    0.000    0.000    0.000    0.000 
#    0.000    0.000    0.000    0.000    0.000    0.000 
#
# Total GULP energy -55690.833674 kJ/mol
# GULP energy per Si atom -5569.083367 kJ/mol
# Density = 2.538591 g / cm^3
# Si number density = 25.443819 Si / 1000 Ang^3
#
#
#
# Elastic Constant Matrix: (Units=GPa)
#
#
# Indices 1 2 3 4 5 6 
#
# 1 61.6982 12.1205 2.4897 19.3006 -26.4281 -12.1250
# 2 12.1205 169.0391 61.3130 -9.1006 -14.3429 -22.1906
# 3 2.4897 61.3130 215.9436 -20.4247 -29.2146 -5.3937
# 4 19.3006 -9.1006 -20.4247 54.3854 -4.9817 -14.3792
# 5 -26.4281 -14.3429 -29.2146 -4.9817 37.5707 10.9342
# 6 -12.1250 -22.1906 -5.3937 -14.3792 10.9342 38.3484
#
#
#
# Elastic Compliance Matrix: (Units=1/GPa)
#
#
# Indices 1 2 3 4 5 6 
#
# 1 0.026750 -0.001453 0.001959 -0.007335 0.018883 -0.000242
# 2 -0.001453 0.007345 -0.001840 0.002194 -0.000682 0.004549
# 3 0.001959 -0.001840 0.006051 0.001632 0.005781 -0.000630
# 4 -0.007335 0.002194 0.001632 0.024104 -0.002451 0.008917
# 5 0.018883 -0.000682 0.005781 -0.002451 0.046037 -0.007657
# 6 -0.000242 0.004549 -0.000630 0.008917 -0.007657 0.034071
#
#
# Mechanical properties :
#
#
# Convention : Reuss Voigt Hill
#
# Bulk Modulus (GPa) = 26.68221 66.50302 46.59262
# Shear Modulus (GPa) = 31.34457 50.77808 41.06133
#
# Velocity S-wave (km/s) = 3.51367 4.47217 4.02158
# Velocity P-wave (km/s) = 5.19333 7.27055 6.31790
#
# Compressibility (1/GPa) = 0.03747815
#
# Stress axis : x y z
#
# Youngs Moduli (GPa) = 37.38384 136.15236 165.25176
#
# Poissons Ratio (x) = 0.19783 -0.32372
# Poissons Ratio (y) = 0.05432 0.30402
# Poissons Ratio (z) = -0.07323 0.25048
#
# Static dielectric constant tensor:
#      x y z
#    x 2.123360 -0.016500 0.390360 
#    y -0.016500 2.066700 -0.125090 
#    z 0.390360 -0.125090 3.695170 
# 
# From -- ./inp_files/154372.got.cif
#   From: 2010.05.17/outbox.cif.g08.bks.cpg/sg2_78_cif.got.tgz:154372.got - 2010.06.03 11:33:40.
