data_PCOD9011369
_publ_section_title
;
Structure prediction by ZEFSAII (Michael W. Deem and Ramdas Pophale) SiO2 
 PCOD9011369
Probable space group: P -1
;
_chemical_formula_sum "Si O2"
_cell_formula_units_Z 16
_cell_length_a 8.954653
_cell_length_b 16.187965
_cell_length_c 18.542878
_cell_angle_alpha 158.024209
_cell_angle_beta 144.589148
_cell_angle_gamma 36.636323
_cell_volume 569.191432
_symmetry_space_group_name_H-M "P -1"
_symmetry_group_IT_number 2
_symmetry_cell_setting 'triclinic'
loop_
_space_group_symop_operation_xyz
x,y,z
-x,-y,-z
loop_
_atom_site_type_symbol
_atom_site_label
_atom_site_fract_x
_atom_site_fract_y
_atom_site_fract_z
Si Si1 0.921859 0.075168 0.825771
Si Si2 0.340521 0.700625 0.955173
Si Si3 0.585184 0.963117 0.853266
Si Si4 0.987995 0.035168 0.437325
Si Si5 0.232427 0.448306 0.890089
Si Si6 0.469787 0.210223 0.570581
Si Si7 0.713138 0.602187 0.499674
Si Si8 0.564397 0.298124 0.302024
O O1 0.852771 0.142615 0.937455
O O2 0.655640 0.002318 0.634484
O O3 0.958516 0.305750 0.990226
O O4 0.140422 0.853789 0.713618
O O5 0.638472 0.663460 0.075471
O O6 0.340715 0.814028 0.969006
O O7 0.311758 0.442863 0.730618
O O8 0.757857 0.759201 0.710762
O O9 0.591239 0.885272 0.875487
O O10 0.289258 0.964438 0.708661
O O11 0.081350 0.270772 0.652239
O O12 0.219479 0.844392 0.339830
O O13 0.000000 0.000000 0.500000
O O14 0.500000 0.500000 0.000000
O O15 0.436852 0.250492 0.504327
O O16 0.540980 0.432830 0.326778
O O17 0.000000 0.500000 0.500000
O O18 0.500000 0.500000 0.500000
#
# Coordination Sequence:
#
# PCOD9011369 Si02
#       8
#     2   2   2   2   2   2   2   2
#     4  11  22  47  65  99 143 181 229 297 334 414
#     4  11  23  42  68 105 140 184 240 272 358 431
#     4  11  23  43  69 104 143 181 230 296 353 423
#     4  12  21  42  71 105 150 186 223 287 377 420
#     4  10  21  40  66 101 147 185 221 286 344 427
#     4  12  24  39  77 102 134 193 232 284 360 419
#     4  11  20  46  73  92 136 187 239 293 347 408
#     4  10  24  41  73  96 130 187 233 289 355 401
#
# _framework density 28.110052
#
# number of rings (size 3 to 8) (size 9 to 14) (size 15 to 20)
#    0.000    1.000    7.500    0.000    1.750    4.000 
#    0.000    3.125    2.750    0.000    0.000    0.000 
#    0.000    0.000    0.000    0.000    0.000    0.000 
#
# Total GULP energy -89635.560697 kJ/mol
# GULP energy per Si atom -5602.222544 kJ/mol
# Density = 2.804607 g / cm^3
# Si number density = 28.110052 Si / 1000 Ang^3
#
#
#
# Elastic Constant Matrix: (Units=GPa)
#
#
# Indices 1 2 3 4 5 6 
#
# 1 172.8898 48.4205 63.4208 13.2504 -8.0110 14.7087
# 2 48.4205 102.4252 36.4427 18.4309 2.3094 -21.6905
# 3 63.4208 36.4427 147.7964 16.3617 12.6744 -10.6873
# 4 13.2504 18.4309 16.3617 50.7283 0.4997 -0.1685
# 5 -8.0110 2.3094 12.6744 0.4997 62.1028 10.9056
# 6 14.7087 -21.6905 -10.6873 -0.1685 10.9056 68.0028
#
#
#
# Elastic Compliance Matrix: (Units=1/GPa)
#
#
# Indices 1 2 3 4 5 6 
#
# 1 0.008472 -0.003783 -0.003229 0.000164 0.002587 -0.003961
# 2 -0.003783 0.013667 -0.000805 -0.003683 -0.001737 0.005320
# 3 -0.003229 -0.000805 0.008925 -0.001710 -0.002590 0.002255
# 4 0.000164 -0.003683 -0.001710 0.021548 0.000601 -0.001522
# 5 0.002587 -0.001737 -0.002590 0.000601 0.017792 -0.004372
# 6 -0.003961 0.005320 0.002255 -0.001522 -0.004372 0.018311
#
#
# Mechanical properties :
#
#
# Convention : Reuss Voigt Hill
#
# Bulk Modulus (GPa) = 64.81348 79.96436 72.38892
# Shear Modulus (GPa) = 45.66496 54.48860 50.07678
#
# Velocity S-wave (km/s) = 4.03489 4.40751 4.22531
# Velocity P-wave (km/s) = 6.69434 7.37632 7.04359
#
# Compressibility (1/GPa) = 0.01542889
#
# Stress axis : x y z
#
# Youngs Moduli (GPa) = 118.03076 73.17107 112.04751
#
# Poissons Ratio (x) = 0.27681 0.36183
# Poissons Ratio (y) = 0.44651 0.09022
# Poissons Ratio (z) = 0.38115 0.05892
#
# Static dielectric constant tensor:
#      x y z
#    x 2.206420 0.033520 -0.024800 
#    y 0.033520 2.251460 -0.031220 
#    z -0.024800 -0.031220 2.178200 
# 
# From -- ./inp_files/591274.got.cif
#   From: 2010.05.17/outbox.cif.g08.bks.cpg/sg2_296_cif.got.tgz:591274.got - 2010.06.03 11:33:40.
