data_PCOD9011036
_publ_section_title
;
Structure prediction by ZEFSAII (Michael W. Deem and Ramdas Pophale) SiO2 
 PCOD9011036
Probable space group: P -1
;
_chemical_formula_sum "Si O2"
_cell_formula_units_Z 14
_cell_length_a 11.681900
_cell_length_b 9.231429
_cell_length_c 13.700694
_cell_angle_alpha 54.739558
_cell_angle_beta 100.914313
_cell_angle_gamma 57.630401
_cell_volume 704.272157
_symmetry_space_group_name_H-M "P -1"
_symmetry_group_IT_number 2
_symmetry_cell_setting 'triclinic'
loop_
_space_group_symop_operation_xyz
x,y,z
-x,-y,-z
loop_
_atom_site_type_symbol
_atom_site_label
_atom_site_fract_x
_atom_site_fract_y
_atom_site_fract_z
Si Si1 0.710897 0.159500 0.171104
Si Si2 0.209733 0.306280 0.656398
Si Si3 0.081839 0.700347 0.652079
Si Si4 0.109970 0.703225 0.872665
Si Si5 0.650283 0.206692 0.572171
Si Si6 0.439200 0.089864 0.284754
Si Si7 0.679834 0.086276 0.420004
O O1 0.860758 0.122940 0.173163
O O2 0.722529 0.103845 0.310500
O O3 0.720077 0.969256 0.184598
O O4 0.500000 0.500000 0.000000
O O5 0.192049 0.484554 0.661622
O O6 0.000000 0.500000 0.500000
O O7 0.374866 0.153853 0.663753
O O8 0.182280 0.585598 0.818076
O O9 0.000000 0.000000 0.500000
O O10 0.903475 0.776626 0.608422
O O11 0.251741 0.413946 0.076966
O O12 0.876748 0.956980 0.737656
O O13 0.500000 0.500000 0.500000
O O14 0.617667 0.291146 0.418707
O O15 0.612272 0.042841 0.637470
O O16 0.525096 0.119261 0.368248
#
# Coordination Sequence:
#
# PCOD9011036 Si02
#       7
#     2   2   2   2   2   2   2
#     4  11  20  40  66  97 125 157 199 263 324 361
#     4  11  21  36  66  96 121 160 210 253 306 382
#     4  11  21  35  61  97 128 156 199 262 316 364
#     4  11  23  41  63  90 130 161 198 268 318 356
#     4  11  27  41  63  89 121 172 215 255 295 371
#     4  11  23  43  62  87 127 167 207 246 315 371
#     4  10  21  40  65  87 121 164 206 247 311 366
#
# _framework density 19.878679000000002
#
# number of rings (size 3 to 8) (size 9 to 14) (size 15 to 20)
#    0.000    1.143    7.143    0.857    6.000    0.571 
#    2.571    0.714    0.000    0.000    0.000    0.000 
#    0.000    0.000    0.000    0.000    0.000    0.000 
#
# Total GULP energy -77942.250246 kJ/mol
# GULP energy per Si atom -5567.303589 kJ/mol
# Density = 1.983343 g / cm^3
# Si number density = 19.878679 Si / 1000 Ang^3
#
#
#
# Elastic Constant Matrix: (Units=GPa)
#
#
# Indices 1 2 3 4 5 6 
#
# 1 121.3659 13.5498 33.5629 -8.4317 11.6866 13.8990
# 2 13.5498 127.3793 30.4466 -17.3734 2.2628 6.3011
# 3 33.5629 30.4466 69.3379 -8.5588 0.3162 9.1155
# 4 -8.4317 -17.3734 -8.5588 24.7546 -1.1008 1.6673
# 5 11.6866 2.2628 0.3162 -1.1008 32.5528 -5.8157
# 6 13.8990 6.3011 9.1155 1.6673 -5.8157 30.0432
#
#
#
# Elastic Compliance Matrix: (Units=1/GPa)
#
#
# Indices 1 2 3 4 5 6 
#
# 1 0.010547 0.000600 -0.004410 0.002603 -0.004535 -0.004689
# 2 0.000600 0.009514 -0.003532 0.005733 -0.000953 -0.001704
# 3 -0.004410 -0.003532 0.018818 0.002772 0.001232 -0.002844
# 4 0.002603 0.005733 0.002772 0.046631 -0.000855 -0.006001
# 5 -0.004535 -0.000953 0.001232 -0.000855 0.033897 0.008533
# 6 -0.004689 -0.001704 -0.002844 -0.006001 0.008533 0.038660
#
#
# Mechanical properties :
#
#
# Convention : Reuss Voigt Hill
#
# Bulk Modulus (GPa) = 41.33217 52.57795 46.95506
# Shear Modulus (GPa) = 27.65235 33.50502 30.57869
#
# Velocity S-wave (km/s) = 3.73373 4.10991 3.92633
# Velocity P-wave (km/s) = 6.27894 7.00204 6.65033
#
# Compressibility (1/GPa) = 0.02419423
#
# Stress axis : x y z
#
# Youngs Moduli (GPa) = 94.81673 105.10709 53.14030
#
# Poissons Ratio (x) = -0.06303 0.23435
# Poissons Ratio (y) = -0.05686 0.18769
# Poissons Ratio (z) = 0.41814 0.37124
#
# Static dielectric constant tensor:
#      x y z
#    x 1.780170 0.006360 0.000170 
#    y 0.006360 1.768950 0.035530 
#    z 0.000170 0.035530 1.738320 
# 
# From -- ./inp_files/172679.got.cif
#   From: 2010.05.17/outbox.cif.g08.bks.cpg/sg2_87_cif.got.tgz:172679.got - 2010.06.03 11:33:40.
