data_PCOD9011089
_publ_section_title
;
Structure prediction by ZEFSAII (Michael W. Deem and Ramdas Pophale) SiO2 
 PCOD9011089
Probable space group: P -1
;
_chemical_formula_sum "Si O2"
_cell_formula_units_Z 12
_cell_length_a 14.237165
_cell_length_b 22.087770
_cell_length_c 18.643333
_cell_angle_alpha 20.878644
_cell_angle_beta 19.319605
_cell_angle_gamma 16.414745
_cell_volume 520.857189
_symmetry_space_group_name_H-M "P -1"
_symmetry_group_IT_number 2
_symmetry_cell_setting 'triclinic'
loop_
_space_group_symop_operation_xyz
x,y,z
-x,-y,-z
loop_
_atom_site_type_symbol
_atom_site_label
_atom_site_fract_x
_atom_site_fract_y
_atom_site_fract_z
Si Si1 0.575694 0.326312 0.053961
Si Si2 0.527423 0.252106 0.328519
Si Si3 0.572364 0.073045 0.214457
Si Si4 0.324379 0.905825 0.193276
Si Si5 0.161936 0.548353 0.592342
Si Si6 0.442217 0.283602 0.923526
O O1 0.681981 0.203330 0.189410
O O2 0.722091 0.160457 0.064506
O O3 0.118421 0.478325 0.212694
O O4 0.664896 0.489788 0.806999
O O5 0.299583 0.167924 0.593184
O O6 0.875380 0.100425 0.300247
O O7 0.129114 0.250161 0.365275
O O8 0.544800 0.130954 0.087258
O O9 0.498399 0.677619 0.362470
O O10 0.460729 0.837635 0.088486
O O11 0.500000 0.000000 0.000000
O O12 0.325947 0.630937 0.333185
O O13 0.000000 0.500000 0.000000
#
# Coordination Sequence:
#
# PCOD9011089 Si02
#       6
#     2   2   2   2   2   2
#     4   9  21  41  64  92 121 170 207 258 313 372
#     4  11  20  39  68  88 127 167 209 253 318 372
#     4  10  21  40  65  91 122 165 210 255 313 370
#     4  12  21  39  62  94 123 166 207 255 312 375
#     4  10  21  41  63  88 130 160 207 260 311 371
#     4  12  22  38  64  96 126 165 207 260 317 370
#
# _framework density 23.038944000000001
#
# number of rings (size 3 to 8) (size 9 to 14) (size 15 to 20)
#    1.000    0.333    5.000    2.000    0.000    0.000 
#    3.000    5.000    0.000    4.000    0.000    0.000 
#    0.000    0.000    0.000    0.000    0.000    0.000 
#
# Total GULP energy -67077.312543 kJ/mol
# GULP energy per Si atom -5589.776045 kJ/mol
# Density = 2.298651 g / cm^3
# Si number density = 23.038944 Si / 1000 Ang^3
#
#
#
# Elastic Constant Matrix: (Units=GPa)
#
#
# Indices 1 2 3 4 5 6 
#
# 1 102.7875 30.8196 47.7752 -27.4727 -11.4816 4.4164
# 2 30.8196 43.7545 25.3827 -11.6668 12.3303 -0.4216
# 3 47.7752 25.3827 157.1064 -45.4058 -1.5370 21.2659
# 4 -27.4727 -11.6668 -45.4058 38.8659 -2.1564 -1.1069
# 5 -11.4816 12.3303 -1.5370 -2.1564 37.7462 -7.0011
# 6 4.4164 -0.4216 21.2659 -1.1069 -7.0011 43.9722
#
#
#
# Elastic Compliance Matrix: (Units=1/GPa)
#
#
# Indices 1 2 3 4 5 6 
#
# 1 0.016867 -0.011954 -0.000884 0.007838 0.009509 0.000330
# 2 -0.011954 0.037071 -0.003097 -0.001808 -0.015887 0.000479
# 3 -0.000884 -0.003097 0.011062 0.011282 0.000937 -0.004857
# 4 0.007838 -0.001808 0.011282 0.044070 0.005148 -0.004332
# 5 0.009509 -0.015887 0.000937 0.005148 0.035696 0.004253
# 6 0.000330 0.000479 -0.004857 -0.004332 0.004253 0.025630
#
#
# Mechanical properties :
#
#
# Convention : Reuss Voigt Hill
#
# Bulk Modulus (GPa) = 30.18454 56.84481 43.51468
# Shear Modulus (GPa) = 23.44016 37.42825 30.43420
#
# Velocity S-wave (km/s) = 3.19315 4.03496 3.63848
# Velocity P-wave (km/s) = 5.16962 6.81431 6.04813
#
# Compressibility (1/GPa) = 0.03312954
#
# Stress axis : x y z
#
# Youngs Moduli (GPa) = 59.28742 26.97520 90.40279
#
# Poissons Ratio (x) = 0.32247 0.07993
# Poissons Ratio (y) = 0.70873 0.27996
# Poissons Ratio (z) = 0.05242 0.08354
#
# Static dielectric constant tensor:
#      x y z
#    x 1.846050 -0.010180 -0.061070 
#    y -0.010180 1.931710 0.070590 
#    z -0.061070 0.070590 1.893950 
# 
# From -- ./inp_files/60696.got.cif
#   From: 2010.05.17/outbox.cif.g08.bks.cpg/sg2_31_cif.got.tgz:60696.got - 2010.06.03 11:33:40.
