data_PCOD9011060
_publ_section_title
;
Structure prediction by ZEFSAII (Michael W. Deem and Ramdas Pophale) SiO2 
 PCOD9011060
Probable space group: P -1
;
_chemical_formula_sum "Si O2"
_cell_formula_units_Z 16
_cell_length_a 9.662760
_cell_length_b 21.748985
_cell_length_c 15.043551
_cell_angle_alpha 16.975699
_cell_angle_beta 47.961993
_cell_angle_gamma 50.594510
_cell_volume 685.314241
_symmetry_space_group_name_H-M "P -1"
_symmetry_group_IT_number 2
_symmetry_cell_setting 'triclinic'
loop_
_space_group_symop_operation_xyz
x,y,z
-x,-y,-z
loop_
_atom_site_type_symbol
_atom_site_label
_atom_site_fract_x
_atom_site_fract_y
_atom_site_fract_z
Si Si1 0.687303 0.006470 0.128263
Si Si2 0.588985 0.233636 0.528789
Si Si3 0.021486 0.724971 0.095737
Si Si4 0.015825 0.344274 0.482888
Si Si5 0.128151 0.011034 0.344187
Si Si6 0.598546 0.735811 0.024041
Si Si7 0.679189 0.497935 0.635348
Si Si8 0.873179 0.467668 0.185034
O O1 0.537245 0.066647 0.185365
O O2 0.562591 0.951729 0.169808
O O3 0.832442 0.199460 0.784148
O O4 0.808475 0.806355 0.376741
O O5 0.456596 0.431993 0.323976
O O6 0.727097 0.272425 0.498949
O O7 0.741561 0.188389 0.449531
O O8 0.035137 0.534841 0.281074
O O9 0.837119 0.674279 0.303028
O O10 0.202586 0.702717 0.109349
O O11 0.992119 0.937096 0.761743
O O12 0.986347 0.426456 0.282470
O O13 0.269523 0.213471 0.018839
O O14 0.000000 0.000000 0.500000
O O15 0.447493 0.547581 0.333985
O O16 0.748322 0.673850 0.970792
O O17 0.000000 0.500000 0.000000
#
# Coordination Sequence:
#
# PCOD9011060 Si02
#       8
#     2   2   2   2   2   2   2   2
#     4  10  22  40  64  97 122 155 205 251 319 356
#     4  10  23  40  59  95 129 151 206 267 294 358
#     4  11  22  40  67  89 128 163 195 253 312 372
#     4  11  22  40  67  89 128 163 195 253 312 372
#     4  11  24  42  63  90 123 168 209 246 303 363
#     4  10  21  40  65  89 127 157 204 257 298 370
#     4  10  22  40  64  97 122 155 205 251 319 356
#     4  11  24  42  63  90 123 168 209 246 303 363
#
# _framework density 23.346954
#
# number of rings (size 3 to 8) (size 9 to 14) (size 15 to 20)
#    0.000    1.500    3.750    0.750    0.000    8.000 
#    0.000    7.500    0.000    0.000    0.000    0.000 
#    0.000    0.000    0.000    0.000    0.000    0.000 
#
# Total GULP energy -89091.282374 kJ/mol
# GULP energy per Si atom -5568.205148 kJ/mol
# Density = 2.329382 g / cm^3
# Si number density = 23.346954 Si / 1000 Ang^3
#
#
#
# Elastic Constant Matrix: (Units=GPa)
#
#
# Indices 1 2 3 4 5 6 
#
# 1 45.6305 40.4050 51.8823 21.9752 1.7205 20.2949
# 2 40.4050 184.0701 33.4531 -18.1563 23.6640 -30.3118
# 3 51.8823 33.4531 47.2461 -3.5070 -1.0856 -12.8473
# 4 21.9752 -18.1563 -3.5070 21.6732 10.9285 -3.5806
# 5 1.7205 23.6640 -1.0856 10.9285 29.1828 -15.5877
# 6 20.2949 -30.3118 -12.8473 -3.5806 -15.5877 29.1367
#
#
#
# Elastic Compliance Matrix: (Units=1/GPa)
#
#
# Indices 1 2 3 4 5 6 
#
# 1 -0.007226 0.003417 0.010866 0.013910 0.001274 0.015770
# 2 0.003417 0.008138 -0.010359 0.007051 -0.011974 -0.004021
# 3 0.010866 -0.010359 0.012507 -0.025742 0.013051 -0.009013
# 4 0.013910 0.007051 -0.025742 0.050181 -0.042441 -0.030243
# 5 0.001274 -0.011974 0.013051 -0.042441 0.074821 0.027223
# 6 0.015770 -0.004021 -0.009013 -0.030243 0.027223 0.026027
#
#
# Mechanical properties :
#
#
# Convention : Reuss Voigt Hill
#
# Bulk Modulus (GPa) = 47.02417 58.71415 52.86916
# Shear Modulus (GPa) = 30.54563 26.07894 28.31228
#
# Velocity S-wave (km/s) = 3.62101 3.34581 3.48613
# Velocity P-wave (km/s) = 6.13739 6.33475 6.23685
#
# Compressibility (1/GPa) = 0.02126566
#
# Stress axis : x y z
#
# Youngs Moduli (GPa) = -138.38530 122.87792 79.95755
#
# Poissons Ratio (x) = -0.41983 -0.86883
# Poissons Ratio (y) = 0.47281 0.82830
# Poissons Ratio (z) = 1.50372 1.27292
#
# Static dielectric constant tensor:
#      x y z
#    x 1.901250 -0.004510 -0.060840 
#    y -0.004510 1.894620 -0.028510 
#    z -0.060840 -0.028510 1.902500 
# 
# From -- ./inp_files/297803.got.cif
#   From: 2010.05.17/outbox.cif.g08.bks.cpg/sg2_149_cif.got.tgz:297803.got - 2010.06.03 11:33:40.
