data_PCOD9011594
_publ_section_title
;
Structure prediction by ZEFSAII (Michael W. Deem and Ramdas Pophale) SiO2 
 PCOD9011594
Probable space group: P -1
;
_chemical_formula_sum "Si O2"
_cell_formula_units_Z 16
_cell_length_a 11.377360
_cell_length_b 11.695962
_cell_length_c 6.983826
_cell_angle_alpha 117.380060
_cell_angle_beta 93.470153
_cell_angle_gamma 106.680318
_cell_volume 769.983765
_symmetry_space_group_name_H-M "P -1"
_symmetry_group_IT_number 2
_symmetry_cell_setting 'triclinic'
loop_
_space_group_symop_operation_xyz
x,y,z
-x,-y,-z
loop_
_atom_site_type_symbol
_atom_site_label
_atom_site_fract_x
_atom_site_fract_y
_atom_site_fract_z
Si Si1 0.747032 0.351179 0.553994
Si Si2 0.207273 0.807810 0.908102
Si Si3 0.872209 0.803322 0.322548
Si Si4 0.395456 0.858972 0.305250
Si Si5 0.445929 0.495883 0.285247
Si Si6 0.049392 0.947556 0.776208
Si Si7 0.595780 0.710411 0.175816
Si Si8 0.039774 0.402896 0.071036
O O1 0.741580 0.285036 0.295456
O O2 0.708437 0.227715 0.613697
O O3 0.647494 0.422561 0.643650
O O4 0.875622 0.482020 0.685593
O O5 0.163441 0.904287 0.833730
O O6 0.080019 0.711709 0.930225
O O7 0.314396 0.877529 0.130571
O O8 0.731050 0.800545 0.339868
O O9 0.949236 0.825426 0.546912
O O10 0.922238 0.928965 0.276097
O O11 0.885106 0.673757 0.108208
O O12 0.484967 0.771352 0.197891
O O13 0.500000 0.000000 0.500000
O O14 0.500000 0.500000 0.500000
O O15 0.554449 0.581995 0.217736
O O16 0.385326 0.345321 0.073335
O O17 0.000000 0.000000 0.000000
O O18 0.000000 0.500000 0.000000
#
# Coordination Sequence:
#
# PCOD9011594 Si02
#       8
#     2   2   2   2   2   2   2   2
#     4  11  24  44  66 104 135 177 229 288 354 407
#     4  12  26  45  71 103 140 181 240 283 348 424
#     4  11  25  45  70 101 143 177 228 286 349 409
#     4  11  27  46  68  97 140 187 232 286 347 408
#     4  10  21  40  66  96 134 170 222 274 339 414
#     4  11  26  45  69 101 138 186 230 283 341 415
#     4  10  23  42  67  96 131 181 218 279 344 403
#     4  12  23  43  73 103 140 180 220 294 357 405
#
# _framework density 20.77966
#
# number of rings (size 3 to 8) (size 9 to 14) (size 15 to 20)
#    0.000    1.000    3.750    1.875    3.500    3.500 
#    2.250    0.000    0.000    0.000    0.000    0.000 
#    0.000    0.000    0.000    0.000    0.000    0.000 
#
# Total GULP energy -89206.055079 kJ/mol
# GULP energy per Si atom -5575.378442 kJ/mol
# Density = 2.073236 g / cm^3
# Si number density = 20.779660 Si / 1000 Ang^3
#
#
#
# Elastic Constant Matrix: (Units=GPa)
#
#
# Indices 1 2 3 4 5 6 
#
# 1 71.5772 17.2827 45.4800 -1.8088 14.3256 0.3076
# 2 17.2827 54.2416 32.2179 2.1551 15.0945 -13.1552
# 3 45.4800 32.2179 140.7879 2.4733 23.8210 1.6719
# 4 -1.8088 2.1551 2.4733 28.3655 -2.9403 3.5826
# 5 14.3256 15.0945 23.8210 -2.9403 44.2624 -2.2249
# 6 0.3076 -13.1552 1.6719 3.5826 -2.2249 26.5385
#
#
#
# Elastic Compliance Matrix: (Units=1/GPa)
#
#
# Indices 1 2 3 4 5 6 
#
# 1 0.018255 -0.002755 -0.004887 0.001776 -0.002306 -0.001703
# 2 -0.002755 0.026998 -0.004448 -0.004152 -0.005504 0.013794
# 3 -0.004887 -0.004448 0.010184 -0.000762 -0.002579 -0.002903
# 4 0.001776 -0.004152 -0.000762 0.036949 0.003367 -0.006736
# 5 -0.002306 -0.005504 -0.002579 0.003367 0.026790 -0.000748
# 6 -0.001703 0.013794 -0.002903 -0.006736 -0.000748 0.045568
#
#
# Mechanical properties :
#
#
# Convention : Reuss Voigt Hill
#
# Bulk Modulus (GPa) = 31.99398 50.72977 41.36187
# Shear Modulus (GPa) = 25.08231 31.27502 28.17866
#
# Velocity S-wave (km/s) = 3.47805 3.88374 3.68648
# Velocity P-wave (km/s) = 5.61776 6.67664 6.16996
#
# Compressibility (1/GPa) = 0.03125588
#
# Stress axis : x y z
#
# Youngs Moduli (GPa) = 54.77823 37.03997 98.19610
#
# Poissons Ratio (x) = 0.10206 0.47993
# Poissons Ratio (y) = 0.15093 0.43675
# Poissons Ratio (z) = 0.26773 0.16474
#
# Static dielectric constant tensor:
#      x y z
#    x 1.798650 0.090680 0.077010 
#    y 0.090680 1.877180 0.130660 
#    z 0.077010 0.130660 1.866660 
# 
# From -- ./inp_files/71863.got.cif
#   From: 2010.05.17/outbox.cif.g08.bks.cpg/sg2_36_cif.got.tgz:71863.got - 2010.06.03 11:33:40.
