data_PCOD9011546
_publ_section_title
;
Structure prediction by ZEFSAII (Michael W. Deem and Ramdas Pophale) SiO2 
 PCOD9011546
Probable space group: P -1
;
_chemical_formula_sum "Si O2"
_cell_formula_units_Z 16
_cell_length_a 9.377640
_cell_length_b 16.647853
_cell_length_c 9.811935
_cell_angle_alpha 36.196572
_cell_angle_beta 130.554934
_cell_angle_gamma 130.124886
_cell_volume 662.381706
_symmetry_space_group_name_H-M "P -1"
_symmetry_group_IT_number 2
_symmetry_cell_setting 'triclinic'
loop_
_space_group_symop_operation_xyz
x,y,z
-x,-y,-z
loop_
_atom_site_type_symbol
_atom_site_label
_atom_site_fract_x
_atom_site_fract_y
_atom_site_fract_z
Si Si1 0.493466 0.816881 0.941157
Si Si2 0.936025 0.841789 0.228251
Si Si3 0.781327 0.462915 0.748413
Si Si4 0.057032 0.118986 0.515813
Si Si5 0.467375 0.322084 0.125760
Si Si6 0.657252 0.926840 0.417688
Si Si7 0.802340 0.571515 0.901735
Si Si8 0.874434 0.597894 0.347895
O O1 0.469399 0.967798 0.763595
O O2 0.702485 0.800414 0.134966
O O3 0.327272 0.699247 0.074169
O O4 0.478517 0.776252 0.826839
O O5 0.991081 0.835560 0.426928
O O6 0.005018 0.737342 0.313163
O O7 0.000000 0.000000 0.000000
O O8 0.730683 0.543435 0.738504
O O9 0.744471 0.514348 0.506140
O O10 0.012647 0.487267 0.872319
O O11 0.258533 0.072900 0.684354
O O12 0.107991 0.260462 0.261725
O O13 0.866342 0.996029 0.527047
O O14 0.628404 0.471619 0.015939
O O15 0.262384 0.350167 0.914658
O O16 0.444620 0.228005 0.375732
O O17 0.000000 0.500000 0.500000
#
# Coordination Sequence:
#
# PCOD9011546 Si02
#       8
#     2   2   2   2   2   2   2   2
#     4  10  22  41  69  93 129 176 216 274 332 397
#     4  11  25  45  67  99 133 175 227 274 335 400
#     4  10  21  40  67  95 125 173 223 264 335 394
#     4  11  23  41  68  93 135 174 216 273 329 391
#     4  10  24  41  66  98 132 176 216 278 333 391
#     4  11  24  43  66  99 136 174 222 268 336 398
#     4  10  21  40  66  95 127 170 222 271 320 395
#     4  11  25  43  67  95 137 176 217 278 341 392
#
# _framework density 24.155255
#
# number of rings (size 3 to 8) (size 9 to 14) (size 15 to 20)
#    0.000    1.500    2.500    1.875    3.500    4.500 
#    2.250    0.000    0.000    0.000    0.000    0.000 
#    0.000    0.000    0.000    0.000    0.000    0.000 
#
# Total GULP energy -89440.022528 kJ/mol
# GULP energy per Si atom -5590.001408 kJ/mol
# Density = 2.410028 g / cm^3
# Si number density = 24.155255 Si / 1000 Ang^3
#
#
#
# Elastic Constant Matrix: (Units=GPa)
#
#
# Indices 1 2 3 4 5 6 
#
# 1 98.8269 29.6622 39.7081 -16.1593 11.9440 -1.7247
# 2 29.6622 76.1911 18.3865 -26.6717 -4.2202 -0.7542
# 3 39.7081 18.3865 94.5185 -36.2918 4.8533 -0.6516
# 4 -16.1593 -26.6717 -36.2918 39.5955 3.1982 -0.2537
# 5 11.9440 -4.2202 4.8533 3.1982 45.2628 -10.0767
# 6 -1.7247 -0.7542 -0.6516 -0.2537 -10.0767 40.6540
#
#
#
# Elastic Compliance Matrix: (Units=1/GPa)
#
#
# Indices 1 2 3 4 5 6 
#
# 1 0.013946 -0.005226 -0.005753 -0.002826 -0.003456 -0.000472
# 2 -0.005226 0.019337 0.003802 0.014225 0.001940 0.000768
# 3 -0.005753 0.003802 0.019227 0.017954 -0.001485 -0.000121
# 4 -0.002826 0.014225 0.017954 0.050418 -0.003439 -0.000106
# 5 -0.003456 0.001940 -0.001485 -0.003439 0.024929 0.006023
# 6 -0.000472 0.000768 -0.000121 -0.000106 0.006023 0.026082
#
#
# Mechanical properties :
#
#
# Convention : Reuss Voigt Hill
#
# Bulk Modulus (GPa) = 26.20943 49.45000 37.82971
# Shear Modulus (GPa) = 27.62230 37.22110 32.42170
#
# Velocity S-wave (km/s) = 3.38528 3.92970 3.66761
# Velocity P-wave (km/s) = 5.11411 6.41142 5.79916
#
# Compressibility (1/GPa) = 0.03815421
#
# Stress axis : x y z
#
# Youngs Moduli (GPa) = 71.70333 51.71436 52.01121
#
# Poissons Ratio (x) = 0.27028 0.29923
# Poissons Ratio (y) = 0.37476 -0.19773
# Poissons Ratio (z) = 0.41252 -0.19661
#
# Static dielectric constant tensor:
#      x y z
#    x 2.067920 0.068070 0.043740 
#    y 0.068070 2.282160 -0.015000 
#    z 0.043740 -0.015000 1.920420 
# 
# From -- ./inp_files/402739.got.cif
#   From: 2010.05.17/outbox.cif.g08.bks.cpg/sg2_202_cif.got.tgz:402739.got - 2010.06.03 11:33:40.
