data_PCOD9011786
_publ_section_title
;
Structure prediction by ZEFSAII (Michael W. Deem and Ramdas Pophale) SiO2 
 PCOD9011786
Probable space group: P -1
;
_chemical_formula_sum "Si O2"
_cell_formula_units_Z 16
_cell_length_a 9.838712
_cell_length_b 25.895940
_cell_length_c 9.726915
_cell_angle_alpha 26.638921
_cell_angle_beta 58.638085
_cell_angle_gamma 47.150334
_cell_volume 785.286045
_symmetry_space_group_name_H-M "P -1"
_symmetry_group_IT_number 2
_symmetry_cell_setting 'triclinic'
loop_
_space_group_symop_operation_xyz
x,y,z
-x,-y,-z
loop_
_atom_site_type_symbol
_atom_site_label
_atom_site_fract_x
_atom_site_fract_y
_atom_site_fract_z
Si Si1 0.209157 0.926434 0.632056
Si Si2 0.900429 0.929424 0.154626
Si Si3 0.270934 0.634002 0.683932
Si Si4 0.722470 0.918163 0.543773
Si Si5 0.789094 0.637563 0.262382
Si Si6 0.582514 0.659905 0.597693
Si Si7 0.594602 0.084795 0.721129
Si Si8 0.467508 0.616869 0.342955
O O1 0.354659 0.912575 0.470010
O O2 0.194073 0.020930 0.541494
O O3 0.303028 0.770760 0.009810
O O4 0.000000 0.000000 0.500000
O O5 0.749812 0.946743 0.305734
O O6 0.062046 0.766487 0.444616
O O7 0.793957 0.002973 0.895968
O O8 0.000000 0.000000 0.000000
O O9 0.380950 0.677991 0.623193
O O10 0.398667 0.588520 0.588635
O O11 0.277975 0.502699 0.050933
O O12 0.500000 0.000000 0.500000
O O13 0.810081 0.757697 0.908221
O O14 0.670364 0.685442 0.355590
O O15 0.657434 0.614629 0.283664
O O16 0.000000 0.500000 0.500000
O O17 0.539341 0.764142 0.496445
O O18 0.500000 0.000000 0.000000
O O19 0.500000 0.500000 0.500000
#
# Coordination Sequence:
#
# PCOD9011786 Si02
#       8
#     2   2   2   2   2   2   2   2
#     4  12  26  42  67 100 133 172 219 273 328 388
#     4  12  23  42  70  97 124 173 229 265 313 397
#     4  10  21  40  67  93 122 167 222 265 309 383
#     4  12  24  44  69  96 134 175 221 272 331 389
#     4  11  24  42  67  95 129 175 222 267 325 397
#     4  10  21  41  65  92 127 168 214 265 319 381
#     4  12  25  42  64  96 136 168 209 270 337 379
#     4  11  24  43  65  94 135 172 216 273 331 386
#
# _framework density 20.374739999999999
#
# number of rings (size 3 to 8) (size 9 to 14) (size 15 to 20)
#    0.000    0.750    2.500    6.000    1.750    0.000 
#    2.250    0.625    0.000    0.000    0.000    0.000 
#    0.000    0.000    0.000    0.000    0.000    0.000 
#
# Total GULP energy -89521.551363 kJ/mol
# GULP energy per Si atom -5595.096960 kJ/mol
# Density = 2.032837 g / cm^3
# Si number density = 20.374740 Si / 1000 Ang^3
#
#
#
# Elastic Constant Matrix: (Units=GPa)
#
#
# Indices 1 2 3 4 5 6 
#
# 1 73.5411 4.2096 4.8346 -22.4985 2.4729 4.8260
# 2 4.2096 63.9988 3.0594 -4.0382 -11.9259 10.7810
# 3 4.8346 3.0594 86.4529 -5.4204 -2.5288 6.5424
# 4 -22.4985 -4.0382 -5.4204 45.0243 -4.8291 4.6651
# 5 2.4729 -11.9259 -2.5288 -4.8291 34.5275 -8.3485
# 6 4.8260 10.7810 6.5424 4.6651 -8.3485 36.8770
#
#
#
# Elastic Compliance Matrix: (Units=1/GPa)
#
#
# Indices 1 2 3 4 5 6 
#
# 1 0.016447 -0.000139 -0.000158 0.008441 -0.000866 -0.003348
# 2 -0.000139 0.017505 0.000022 0.002517 0.005394 -0.004200
# 3 -0.000158 0.000022 0.011859 0.001639 0.000594 -0.002163
# 4 0.008441 0.002517 0.001639 0.027692 0.003063 -0.004941
# 5 -0.000866 0.005394 0.000594 0.003063 0.032675 0.005441
# 6 -0.003348 -0.004200 -0.002163 -0.004941 0.005441 0.031024
#
#
# Mechanical properties :
#
#
# Convention : Reuss Voigt Hill
#
# Bulk Modulus (GPa) = 22.09399 27.57777 24.83588
# Shear Modulus (GPa) = 32.71418 37.41170 35.06294
#
# Velocity S-wave (km/s) = 4.01137 4.28972 4.15288
# Velocity P-wave (km/s) = 5.68526 6.17254 5.93390
#
# Compressibility (1/GPa) = 0.04526118
#
# Stress axis : x y z
#
# Youngs Moduli (GPa) = 60.79981 57.12650 84.32567
#
# Poissons Ratio (x) = 0.00795 0.01329
# Poissons Ratio (y) = 0.00846 -0.00184
# Poissons Ratio (z) = 0.00958 -0.00124
#
# Static dielectric constant tensor:
#      x y z
#    x 1.709410 -0.018450 0.005310 
#    y -0.018450 1.694160 0.000410 
#    z 0.005310 0.000410 1.702750 
# 
# From -- ./inp_files/225835.got.cif
#   From: 2010.05.17/outbox.cif.g08.bks.cpg/sg2_113_cif.got.tgz:225835.got - 2010.06.03 11:33:40.
