data_PCOD9011030
_publ_section_title
;
Structure prediction by ZEFSAII (Michael W. Deem and Ramdas Pophale) SiO2 
 PCOD9011030
Probable space group: P -1
;
_chemical_formula_sum "Si O2"
_cell_formula_units_Z 16
_cell_length_a 11.625194
_cell_length_b 17.640618
_cell_length_c 12.593478
_cell_angle_alpha 150.879136
_cell_angle_beta 52.719412
_cell_angle_gamma 138.436372
_cell_volume 824.615461
_symmetry_space_group_name_H-M "P -1"
_symmetry_group_IT_number 2
_symmetry_cell_setting 'triclinic'
loop_
_space_group_symop_operation_xyz
x,y,z
-x,-y,-z
loop_
_atom_site_type_symbol
_atom_site_label
_atom_site_fract_x
_atom_site_fract_y
_atom_site_fract_z
Si Si1 0.677256 0.448879 0.900589
Si Si2 0.567964 0.845421 0.665163
Si Si3 0.728803 0.091997 0.061586
Si Si4 0.706492 0.855725 0.188059
Si Si5 0.298406 0.493728 0.280805
Si Si6 0.982033 0.494031 0.662569
Si Si7 0.911350 0.113062 0.203224
Si Si8 0.814318 0.875795 0.391617
O O1 0.505891 0.275665 0.841789
O O2 0.611485 0.441559 0.807336
O O3 0.850390 0.449472 0.781020
O O4 0.748028 0.654961 0.160027
O O5 0.448616 0.926074 0.831030
O O6 0.429816 0.621411 0.455146
O O7 0.688186 0.905778 0.569362
O O8 0.682380 0.923170 0.801939
O O9 0.855133 0.289012 0.168212
O O10 0.816002 0.090234 0.118242
O O11 0.798431 0.918317 0.329185
O O12 0.777622 0.019568 0.262912
O O13 0.759698 0.718412 0.943524
O O14 0.143957 0.524206 0.386843
O O15 0.024879 0.338159 0.438973
O O16 0.000000 0.000000 0.000000
O O17 0.000000 0.000000 0.500000
#
# Coordination Sequence:
#
# PCOD9011030 Si02
#       8
#     2   2   2   2   2   2   2   2
#     4   9  18  36  64  91 116 154 213 248 308 354
#     4  11  21  37  68  91 120 158 223 248 300 352
#     4  11  24  42  62  92 124 169 213 249 297 379
#     4  11  21  39  62  96 124 153 203 266 309 367
#     4   9  17  37  63  91 112 154 214 248 294 358
#     4  10  21  40  65  86 119 164 216 255 291 366
#     4  12  27  38  61  94 128 165 206 251 318 365
#     4  11  20  35  67  96 121 157 210 261 302 358
#
# _framework density 19.402982999999999
#
# number of rings (size 3 to 8) (size 9 to 14) (size 15 to 20)
#    0.750    0.750    3.750    2.625    3.500    0.500 
#    0.000    0.625    5.500    1.500    0.000    0.000 
#    0.000    0.000    0.000    0.000    0.000    0.000 
#
# Total GULP energy -89135.694366 kJ/mol
# GULP energy per Si atom -5570.980898 kJ/mol
# Density = 1.935882 g / cm^3
# Si number density = 19.402983 Si / 1000 Ang^3
#
#
#
# Elastic Constant Matrix: (Units=GPa)
#
#
# Indices 1 2 3 4 5 6 
#
# 1 51.5294 32.4390 43.5521 -1.4205 8.3068 9.6268
# 2 32.4390 121.5909 42.4372 -0.0557 5.2586 2.5268
# 3 43.5521 42.4372 122.3825 -9.5673 15.8880 5.9801
# 4 -1.4205 -0.0557 -9.5673 22.6324 7.8078 -0.7313
# 5 8.3068 5.2586 15.8880 7.8078 40.3772 -1.0939
# 6 9.6268 2.5268 5.9801 -0.7313 -1.0939 27.7145
#
#
#
# Elastic Compliance Matrix: (Units=1/GPa)
#
#
# Indices 1 2 3 4 5 6 
#
# 1 0.032353 -0.005177 -0.009068 -0.001273 -0.002409 -0.008938
# 2 -0.005177 0.010235 -0.001983 -0.001377 0.000814 0.001289
# 3 -0.009068 -0.001983 0.013122 0.006464 -0.004276 0.000501
# 4 -0.001273 -0.001377 0.006464 0.050959 -0.011955 0.000046
# 5 -0.002409 0.000814 -0.004276 -0.011955 0.029219 0.002523
# 6 -0.008938 0.001289 0.000501 0.000046 0.002523 0.039062
#
#
# Mechanical properties :
#
#
# Convention : Reuss Voigt Hill
#
# Bulk Modulus (GPa) = 43.00477 59.15102 51.07789
# Shear Modulus (GPa) = 23.23883 29.94981 26.59432
#
# Velocity S-wave (km/s) = 3.46453 3.93309 3.70622
# Velocity P-wave (km/s) = 6.18191 7.15383 6.68556
#
# Compressibility (1/GPa) = 0.02325323
#
# Stress axis : x y z
#
# Youngs Moduli (GPa) = 30.90914 97.70430 76.20950
#
# Poissons Ratio (x) = 0.50582 0.69108
# Poissons Ratio (y) = 0.16002 0.15112
# Poissons Ratio (z) = 0.28029 0.19374
#
# Static dielectric constant tensor:
#      x y z
#    x 1.667590 0.051510 -0.005540 
#    y 0.051510 1.760880 -0.022090 
#    z -0.005540 -0.022090 1.729810 
# 
# From -- ./inp_files/437062.got.cif
#   From: 2010.05.17/outbox.cif.g08.bks.cpg/sg2_219_cif.got.tgz:437062.got - 2010.06.03 11:33:40.
