data_PCOD9011333
_publ_section_title
;
Structure prediction by ZEFSAII (Michael W. Deem and Ramdas Pophale) SiO2 
 PCOD9011333
Probable space group: P -1
;
_chemical_formula_sum "Si O2"
_cell_formula_units_Z 16
_cell_length_a 8.972279
_cell_length_b 16.719799
_cell_length_c 12.792367
_cell_angle_alpha 144.955768
_cell_angle_beta 118.758768
_cell_angle_gamma 77.961848
_cell_volume 898.152272
_symmetry_space_group_name_H-M "P -1"
_symmetry_group_IT_number 2
_symmetry_cell_setting 'triclinic'
loop_
_space_group_symop_operation_xyz
x,y,z
-x,-y,-z
loop_
_atom_site_type_symbol
_atom_site_label
_atom_site_fract_x
_atom_site_fract_y
_atom_site_fract_z
Si Si1 0.133699 0.680047 0.349846
Si Si2 0.967727 0.658472 0.038970
Si Si3 0.246749 0.831224 0.154315
Si Si4 0.527626 0.023893 0.157988
Si Si5 0.164770 0.008806 0.141271
Si Si6 0.193533 0.090306 0.785402
Si Si7 0.880049 0.809710 0.491093
Si Si8 0.350117 0.114229 0.647471
O O1 0.318740 0.816911 0.586322
O O2 0.062072 0.695661 0.225297
O O3 0.981313 0.693700 0.393461
O O4 0.146181 0.518193 0.188146
O O5 0.852193 0.761057 0.080965
O O6 0.122943 0.700035 0.046351
O O7 0.439819 0.820992 0.178086
O O8 0.140876 0.869254 0.062279
O O9 0.310869 0.979979 0.408090
O O10 0.343202 0.018809 0.146635
O O11 0.615729 0.902721 0.092909
O O12 0.500000 0.000000 0.000000
O O13 0.182657 0.146684 0.373158
O O14 0.000000 0.000000 0.000000
O O15 0.217854 0.048054 0.629276
O O16 0.034737 0.962681 0.658997
O O17 0.713190 0.767420 0.308205
#
# Coordination Sequence:
#
# PCOD9011333 Si02
#       8
#     2   2   2   2   2   2   2   2
#     4  10  23  38  57  87 124 157 186 235 286 355
#     4  11  21  37  58  88 125 155 185 228 304 347
#     4  10  20  31  54  84 113 149 186 250 280 338
#     4  11  24  39  62  85 113 151 201 244 280 337
#     4  11  21  35  58  86 111 141 198 248 286 322
#     4  11  18  33  58  83 113 149 193 235 279 345
#     4  10  19  32  57  83 110 152 189 237 282 332
#     4  10  17  29  52  86 110 141 194 233 285 329
#
# _framework density 17.814350000000001
#
# number of rings (size 3 to 8) (size 9 to 14) (size 15 to 20)
#    0.000    1.500    5.000    3.375    3.500    0.000 
#    0.000    2.500    0.000    1.500    0.000    0.000 
#    0.000    0.000    0.000    0.000    0.000    0.000 
#
# Total GULP energy -89123.518373 kJ/mol
# GULP energy per Si atom -5570.219898 kJ/mol
# Density = 1.777380 g / cm^3
# Si number density = 17.814350 Si / 1000 Ang^3
#
#
#
# Elastic Constant Matrix: (Units=GPa)
#
#
# Indices 1 2 3 4 5 6 
#
# 1 126.9169 45.7111 26.9934 -7.0317 -1.5854 -6.5935
# 2 45.7111 99.3922 48.0697 -11.0130 -0.4457 -15.9413
# 3 26.9934 48.0697 59.9347 -1.2085 -4.3053 -6.3329
# 4 -7.0317 -11.0130 -1.2085 32.2886 -2.0071 -5.4774
# 5 -1.5854 -0.4457 -4.3053 -2.0071 21.9875 -7.1520
# 6 -6.5935 -15.9413 -6.3329 -5.4774 -7.1520 35.4002
#
#
#
# Elastic Compliance Matrix: (Units=1/GPa)
#
#
# Indices 1 2 3 4 5 6 
#
# 1 0.009525 -0.003629 -0.001315 0.000839 0.000475 0.000131
# 2 -0.003629 0.020256 -0.013689 0.006843 0.000415 0.007140
# 3 -0.001315 -0.013689 0.028399 -0.003782 0.004517 -0.001002
# 4 0.000839 0.006843 -0.003782 0.035251 0.005656 0.009158
# 5 0.000475 0.000415 0.004517 0.005656 0.050906 0.012243
# 6 0.000131 0.007140 -0.001002 0.009158 0.012243 0.035199
#
#
# Mechanical properties :
#
#
# Convention : Reuss Voigt Hill
#
# Bulk Modulus (GPa) = 47.81489 58.64359 53.22924
# Shear Modulus (GPa) = 22.34402 28.96655 25.65529
#
# Velocity S-wave (km/s) = 3.54541 4.03677 3.79904
# Velocity P-wave (km/s) = 6.60748 7.39717 7.01345
#
# Compressibility (1/GPa) = 0.02091399
#
# Stress axis : x y z
#
# Youngs Moduli (GPa) = 104.98769 49.36815 35.21276
#
# Poissons Ratio (x) = 0.17914 0.04629
# Poissons Ratio (y) = 0.38097 0.48204
# Poissons Ratio (z) = 0.13802 0.67582
#
# Static dielectric constant tensor:
#      x y z
#    x 1.664250 -0.020290 -0.009310 
#    y -0.020290 1.647480 -0.009470 
#    z -0.009310 -0.009470 1.596840 
# 
# From -- ./inp_files/240513.got.cif
#   From: 2010.05.17/outbox.cif.g08.bks.cpg/sg2_121_cif.got.tgz:240513.got - 2010.06.03 11:33:40.
