data_PCOD9011045
_publ_section_title
;
Structure prediction by ZEFSAII (Michael W. Deem and Ramdas Pophale) SiO2 
 PCOD9011045
Probable space group: P -1
;
_chemical_formula_sum "Si O2"
_cell_formula_units_Z 14
_cell_length_a 10.610534
_cell_length_b 5.016454
_cell_length_c 19.912255
_cell_angle_alpha 71.952342
_cell_angle_beta 137.351680
_cell_angle_gamma 111.866020
_cell_volume 665.316769
_symmetry_space_group_name_H-M "P -1"
_symmetry_group_IT_number 2
_symmetry_cell_setting 'triclinic'
loop_
_space_group_symop_operation_xyz
x,y,z
-x,-y,-z
loop_
_atom_site_type_symbol
_atom_site_label
_atom_site_fract_x
_atom_site_fract_y
_atom_site_fract_z
Si Si1 0.588842 0.437541 0.434733
Si Si2 0.786031 0.552113 0.648260
Si Si3 0.118037 0.564943 0.108609
Si Si4 0.059295 0.740332 0.448569
Si Si5 0.889027 0.255189 0.323143
Si Si6 0.516737 0.902344 0.266311
Si Si7 0.812716 0.013202 0.786317
O O1 0.688442 0.535547 0.537771
O O2 0.364806 0.335255 0.372399
O O3 0.602524 0.688097 0.364919
O O4 0.714420 0.216692 0.477307
O O5 0.797258 0.239865 0.704811
O O6 0.003927 0.722669 0.708586
O O7 0.342357 0.704681 0.172058
O O8 0.064506 0.794030 0.121112
O O9 0.108373 0.269343 0.168054
O O10 0.000000 0.500000 0.000000
O O11 0.947769 0.573215 0.353441
O O12 0.000000 0.500000 0.500000
O O13 0.993407 0.026769 0.417313
O O14 0.670357 0.110310 0.264423
O O15 0.399932 0.069368 0.257429
#
# Coordination Sequence:
#
# PCOD9011045 Si02
#       7
#     2   2   2   2   2   2   2
#     4   9  18  38  52  84 117 166 193 231 270 338
#     4   9  20  37  56  85 122 160 190 231 287 345
#     4  10  21  40  65  88 107 143 194 250 296 339
#     4  11  22  34  53  77 117 162 201 235 270 321
#     4  11  23  36  55  82 119 157 198 237 284 331
#     4   9  21  35  59  86 114 152 196 239 279 335
#     4   9  21  37  61  86 113 146 188 239 289 349
#
# _framework density 21.04261
#
# number of rings (size 3 to 8) (size 9 to 14) (size 15 to 20)
#    0.857    1.429    1.429    0.857    4.000    2.857 
#    7.714    0.000    0.000    1.714    0.000    0.000 
#    0.000    0.000    0.000    0.000    0.000    0.000 
#
# Total GULP energy -77998.896978 kJ/mol
# GULP energy per Si atom -5571.349784 kJ/mol
# Density = 2.099472 g / cm^3
# Si number density = 21.042610 Si / 1000 Ang^3
#
#
#
# Elastic Constant Matrix: (Units=GPa)
#
#
# Indices 1 2 3 4 5 6 
#
# 1 86.9021 29.7930 3.7916 2.2174 7.1332 40.4151
# 2 29.7930 85.2781 20.5788 6.5072 -0.2624 15.0292
# 3 3.7916 20.5788 87.9270 18.8281 -8.1267 11.6860
# 4 2.2174 6.5072 18.8281 25.9363 -3.0223 -0.0311
# 5 7.1332 -0.2624 -8.1267 -3.0223 11.5458 -0.8008
# 6 40.4151 15.0292 11.6860 -0.0311 -0.8008 43.9254
#
#
#
# Elastic Compliance Matrix: (Units=1/GPa)
#
#
# Indices 1 2 3 4 5 6 
#
# 1 0.024930 -0.005112 0.002537 -0.004638 -0.016484 -0.022167
# 2 -0.005112 0.014163 -0.002874 -0.000881 0.001271 0.000644
# 3 0.002537 -0.002874 0.015341 -0.009916 0.006200 -0.005326
# 4 -0.004638 -0.000881 -0.009916 0.047405 0.008788 0.007401
# 5 -0.016484 0.001271 0.006200 0.008788 0.104529 0.014994
# 6 -0.022167 0.000644 -0.005326 0.007401 0.014994 0.044637
#
#
# Mechanical properties :
#
#
# Convention : Reuss Voigt Hill
#
# Bulk Modulus (GPa) = 22.96936 40.93713 31.95324
# Shear Modulus (GPa) = 18.08890 30.01110 24.05000
#
# Velocity S-wave (km/s) = 2.93513 3.78061 3.38438
# Velocity P-wave (km/s) = 4.73561 6.20919 5.52177
#
# Compressibility (1/GPa) = 0.04353626
#
# Stress axis : x y z
#
# Youngs Moduli (GPa) = 40.11306 70.60492 65.18671
#
# Poissons Ratio (x) = 0.36092 -0.16539
# Poissons Ratio (y) = 0.20505 0.18734
# Poissons Ratio (z) = -0.10177 0.20291
#
# Static dielectric constant tensor:
#      x y z
#    x 1.839190 -0.010170 -0.020320 
#    y -0.010170 1.815380 0.047990 
#    z -0.020320 0.047990 1.770990 
# 
# From -- ./inp_files/592451.got.cif
#   From: 2010.05.17/outbox.cif.g08.bks.cpg/sg2_297_cif.got.tgz:592451.got - 2010.06.03 11:33:40.
