data_PCOD9011971
_publ_section_title
;
Structure prediction by ZEFSAII (Michael W. Deem and Ramdas Pophale) SiO2 
 PCOD9011971
Probable space group: P -1
;
_chemical_formula_sum "Si O2"
_cell_formula_units_Z 16
_cell_length_a 15.650292
_cell_length_b 11.161122
_cell_length_c 9.268634
_cell_angle_alpha 67.035854
_cell_angle_beta 27.830432
_cell_angle_gamma 66.018477
_cell_volume 688.798643
_symmetry_space_group_name_H-M "P -1"
_symmetry_group_IT_number 2
_symmetry_cell_setting 'triclinic'
loop_
_space_group_symop_operation_xyz
x,y,z
-x,-y,-z
loop_
_atom_site_type_symbol
_atom_site_label
_atom_site_fract_x
_atom_site_fract_y
_atom_site_fract_z
Si Si1 0.897731 0.917332 0.568541
Si Si2 0.734020 0.852579 0.323511
Si Si3 0.129318 0.843094 0.696752
Si Si4 0.740486 0.583576 0.272222
Si Si5 0.617509 0.292547 0.377355
Si Si6 0.891618 0.374209 0.691701
Si Si7 0.430644 0.047481 0.757275
Si Si8 0.146059 0.612101 0.572627
O O1 0.992569 0.770815 0.450816
O O2 0.856798 0.011920 0.446853
O O3 0.699783 0.904479 0.939651
O O4 0.000000 0.000000 0.500000
O O5 0.727994 0.709333 0.336794
O O6 0.703546 0.947137 0.183127
O O7 0.561347 0.910565 0.651398
O O8 0.941127 0.852133 0.066862
O O9 0.288243 0.757611 0.590549
O O10 0.109114 0.759270 0.620655
O O11 0.578203 0.613123 0.385210
O O12 0.729108 0.468516 0.455966
O O13 0.942881 0.563964 0.906443
O O14 0.562441 0.154251 0.470889
O O15 0.759956 0.350488 0.032432
O O16 0.000000 0.500000 0.500000
O O17 0.784078 0.403536 0.686424
#
# Coordination Sequence:
#
# PCOD9011971 Si02
#       8
#     2   2   2   2   2   2   2   2
#     4  12  23  46  77 104 144 191 246 295 354 437
#     4   9  18  35  65 100 135 185 235 292 354 425
#     4  11  23  42  73 106 141 193 238 293 366 431
#     4   9  21  41  73  98 142 186 245 293 356 431
#     4  11  26  44  67 108 146 184 239 305 359 423
#     4  12  28  46  71 112 148 186 238 304 364 424
#     4  10  21  40  68 101 137 187 242 298 352 417
#     4  10  22  46  73 101 137 200 242 283 367 434
#
# _framework density 23.228849
#
# number of rings (size 3 to 8) (size 9 to 14) (size 15 to 20)
#    0.000    1.500    2.500    2.250    8.750    3.500 
#    2.250    1.250    0.000    0.000    0.000    0.000 
#    0.000    0.000    0.000    0.000    0.000    0.000 
#
# Total GULP energy -89250.157151 kJ/mol
# GULP energy per Si atom -5578.134822 kJ/mol
# Density = 2.317598 g / cm^3
# Si number density = 23.228849 Si / 1000 Ang^3
#
#
#
# Elastic Constant Matrix: (Units=GPa)
#
#
# Indices 1 2 3 4 5 6 
#
# 1 98.1520 41.1954 11.7088 -4.2632 -9.0973 -27.1221
# 2 41.1954 122.3403 31.5839 -4.9190 -1.8626 -9.1684
# 3 11.7088 31.5839 57.3978 -7.6829 -6.4261 0.3983
# 4 -4.2632 -4.9190 -7.6829 32.2146 -7.4452 1.0915
# 5 -9.0973 -1.8626 -6.4261 -7.4452 24.3915 4.6877
# 6 -27.1221 -9.1684 0.3983 1.0915 4.6877 36.4365
#
#
#
# Elastic Compliance Matrix: (Units=1/GPa)
#
#
# Indices 1 2 3 4 5 6 
#
# 1 0.015064 -0.004181 -0.000132 0.001925 0.004009 0.009589
# 2 -0.004181 0.010949 -0.005546 -0.000766 -0.002426 0.000038
# 3 -0.000132 -0.005546 0.022259 0.006370 0.007902 -0.002945
# 4 0.001925 -0.000766 0.006370 0.035902 0.013615 -0.001656
# 5 0.004009 -0.002426 0.007902 0.013615 0.049406 -0.004477
# 6 0.009589 0.000038 -0.002945 -0.001656 -0.004477 0.035250
#
#
# Mechanical properties :
#
#
# Convention : Reuss Voigt Hill
#
# Bulk Modulus (GPa) = 35.02338 49.65181 42.33760
# Shear Modulus (GPa) = 25.24418 31.50198 28.37308
#
# Velocity S-wave (km/s) = 3.30018 3.68660 3.49873
# Velocity P-wave (km/s) = 5.44351 6.28831 5.88110
#
# Compressibility (1/GPa) = 0.02855235
#
# Stress axis : x y z
#
# Youngs Moduli (GPa) = 66.38412 91.33401 44.92591
#
# Poissons Ratio (x) = 0.38189 0.00594
# Poissons Ratio (y) = 0.27757 0.24917
# Poissons Ratio (z) = 0.00877 0.50656
#
# Static dielectric constant tensor:
#      x y z
#    x 1.947990 0.031320 -0.034550 
#    y 0.031320 1.919230 -0.008830 
#    z -0.034550 -0.008830 1.897020 
# 
# From -- ./inp_files/306872.got.cif
#   From: 2010.05.17/outbox.cif.g08.bks.cpg/sg2_154_cif.got.tgz:306872.got - 2010.06.03 11:33:40.
