data_PCOD9011736
_publ_section_title
;
Structure prediction by ZEFSAII (Michael W. Deem and Ramdas Pophale) SiO2 
 PCOD9011736
Probable space group: P -1
;
_chemical_formula_sum "Si O2"
_cell_formula_units_Z 14
_cell_length_a 7.601310
_cell_length_b 13.749678
_cell_length_c 10.044676
_cell_angle_alpha 55.817732
_cell_angle_beta 65.814952
_cell_angle_gamma 107.637256
_cell_volume 560.675224
_symmetry_space_group_name_H-M "P -1"
_symmetry_group_IT_number 2
_symmetry_cell_setting 'triclinic'
loop_
_space_group_symop_operation_xyz
x,y,z
-x,-y,-z
loop_
_atom_site_type_symbol
_atom_site_label
_atom_site_fract_x
_atom_site_fract_y
_atom_site_fract_z
Si Si1 0.999877 0.342645 0.454277
Si Si2 0.584785 0.906020 0.510389
Si Si3 0.437427 0.214897 0.683832
Si Si4 0.496625 0.510084 0.677072
Si Si5 0.612613 0.400801 0.083225
Si Si6 0.293322 0.007587 0.115390
Si Si7 0.212126 0.192098 0.138098
O O1 0.228357 0.446715 0.417747
O O2 0.730757 0.303624 0.585835
O O3 0.926729 0.172628 0.611642
O O4 0.133434 0.442891 0.198593
O O5 0.581834 0.863695 0.389776
O O6 0.373459 0.729673 0.785270
O O7 0.500000 0.000000 0.500000
O O8 0.895485 0.025393 0.372204
O O9 0.451626 0.362049 0.541845
O O10 0.224856 0.061632 0.969380
O O11 0.442240 0.560052 0.791141
O O12 0.260045 0.310117 0.916225
O O13 0.353227 0.301778 0.142065
O O14 0.372661 0.140363 0.094814
O O15 0.500000 0.000000 0.000000
#
# Coordination Sequence:
#
# PCOD9011736 Si02
#       7
#     2   2   2   2   2   2   2
#     4  10  21  40  67  89 128 174 212 263 325 379
#     4  11  26  37  66 103 129 169 212 272 331 390
#     4  10  24  43  63  94 133 173 219 266 323 384
#     4  10  23  41  66  98 131 174 207 272 336 384
#     4  10  23  40  65  95 131 171 209 269 337 383
#     4  10  23  43  68  93 128 177 223 268 316 384
#     4  11  23  41  66  97 132 171 219 265 326 390
#
# _framework density 24.969892000000002
#
# number of rings (size 3 to 8) (size 9 to 14) (size 15 to 20)
#    0.000    1.714    0.000    3.857   10.000    4.000 
#    0.000   12.857    0.000    0.000    0.000    0.000 
#    0.000    0.000    0.000    0.000    0.000    0.000 
#
# Total GULP energy -78212.356713 kJ/mol
# GULP energy per Si atom -5586.596908 kJ/mol
# Density = 2.491306 g / cm^3
# Si number density = 24.969892 Si / 1000 Ang^3
#
#
#
# Elastic Constant Matrix: (Units=GPa)
#
#
# Indices 1 2 3 4 5 6 
#
# 1 78.0688 4.6977 22.6930 -4.8355 13.4799 -17.8475
# 2 4.6977 73.3111 43.9789 -8.4006 11.9964 -29.0053
# 3 22.6930 43.9789 169.6195 -13.7099 56.7093 -6.9186
# 4 -4.8355 -8.4006 -13.7099 36.3991 -7.6056 15.7711
# 5 13.4799 11.9964 56.7093 -7.6056 54.2966 -6.8336
# 6 -17.8475 -29.0053 -6.9186 15.7711 -6.8336 32.9418
#
#
#
# Elastic Compliance Matrix: (Units=1/GPa)
#
#
# Indices 1 2 3 4 5 6 
#
# 1 0.017264 0.007672 -0.003836 -0.005132 -0.000471 0.017662
# 2 0.007672 0.031227 -0.010079 -0.009839 0.004779 0.035237
# 3 -0.003836 -0.010079 0.012532 0.005302 -0.010817 -0.013102
# 4 -0.005132 -0.009839 0.005302 0.039063 -0.000279 -0.029090
# 5 -0.000471 0.004779 -0.010817 -0.000279 0.029741 0.007985
# 6 0.017662 0.035237 -0.013102 -0.029090 0.007985 0.083783
#
#
# Mechanical properties :
#
#
# Convention : Reuss Voigt Hill
#
# Bulk Modulus (GPa) = 20.60282 51.52653 36.06468
# Shear Modulus (GPa) = 20.63769 41.36949 31.00359
#
# Velocity S-wave (km/s) = 2.87802 4.07477 3.52751
# Velocity P-wave (km/s) = 4.39465 6.54359 5.57367
#
# Compressibility (1/GPa) = 0.04853705
#
# Stress axis : x y z
#
# Youngs Moduli (GPa) = 57.92525 32.02366 79.79361
#
# Poissons Ratio (x) = -0.24567 0.30607
# Poissons Ratio (y) = -0.44438 0.80422
# Poissons Ratio (z) = 0.22219 0.32276
#
# Static dielectric constant tensor:
#      x y z
#    x 2.028830 0.035550 0.014810 
#    y 0.035550 1.980760 -0.004570 
#    z 0.014810 -0.004570 2.067790 
# 
# From -- ./inp_files/397005.got.cif
#   From: 2010.05.17/outbox.cif.g08.bks.cpg/sg2_199_cif.got.tgz:397005.got - 2010.06.03 11:33:40.
