data_PCOD9011321
_publ_section_title
;
Structure prediction by ZEFSAII (Michael W. Deem and Ramdas Pophale) SiO2 
 PCOD9011321
Probable space group: P -1
;
_chemical_formula_sum "Si O2"
_cell_formula_units_Z 16
_cell_length_a 5.409764
_cell_length_b 10.778003
_cell_length_c 16.684322
_cell_angle_alpha 136.005673
_cell_angle_beta 89.426009
_cell_angle_gamma 93.488666
_cell_volume 673.644695
_symmetry_space_group_name_H-M "P -1"
_symmetry_group_IT_number 2
_symmetry_cell_setting 'triclinic'
loop_
_space_group_symop_operation_xyz
x,y,z
-x,-y,-z
loop_
_atom_site_type_symbol
_atom_site_label
_atom_site_fract_x
_atom_site_fract_y
_atom_site_fract_z
Si Si1 0.450303 0.268451 0.171740
Si Si2 0.831133 0.165005 0.575648
Si Si3 0.206992 0.415296 0.628236
Si Si4 0.850273 0.054797 0.785430
Si Si5 0.069144 0.775168 0.758290
Si Si6 0.180468 0.364840 0.896373
Si Si7 0.554059 0.929203 0.589839
Si Si8 0.559176 0.299876 0.006165
O O1 0.178037 0.221600 0.185120
O O2 0.457847 0.239779 0.064035
O O3 0.549317 0.476380 0.285519
O O4 0.672841 0.172064 0.171035
O O5 0.001619 0.349147 0.664457
O O6 0.275055 0.235203 0.502320
O O7 0.628935 0.105967 0.616870
O O8 0.000000 0.000000 0.500000
O O9 0.097391 0.565627 0.642744
O O10 0.702602 0.151214 0.482630
O O11 0.014052 0.189604 0.789151
O O12 0.013448 0.900498 0.743400
O O13 0.605828 0.982109 0.705115
O O14 0.765855 0.172470 0.915013
O O15 0.332048 0.492013 0.892671
O O16 0.359738 0.303855 0.937497
O O17 0.000000 0.500000 0.000000
#
# Coordination Sequence:
#
# PCOD9011321 Si02
#       8
#     2   2   2   2   2   2   2   2
#     4  10  24  44  71  95 134 182 228 278 324 395
#     4   9  19  39  61  96 129 172 226 272 335 395
#     4   9  21  41  66  94 133 173 228 271 331 389
#     4  11  25  41  67  96 139 175 221 278 340 405
#     4  10  25  44  66 104 132 184 229 273 330 395
#     4   9  22  44  61  97 130 170 224 273 350 397
#     4  10  21  40  65  97 136 175 219 280 338 399
#     4  10  23  43  68  97 132 176 223 282 339 402
#
# _framework density 23.751391999999999
#
# number of rings (size 3 to 8) (size 9 to 14) (size 15 to 20)
#    0.750    1.500    0.000    0.750    7.000    3.500 
#   22.500    1.250    0.000    0.000    0.000    0.000 
#    0.000    0.000    0.000    0.000    0.000    0.000 
#
# Total GULP energy -89296.548869 kJ/mol
# GULP energy per Si atom -5581.034304 kJ/mol
# Density = 2.369733 g / cm^3
# Si number density = 23.751392 Si / 1000 Ang^3
#
#
#
# Elastic Constant Matrix: (Units=GPa)
#
#
# Indices 1 2 3 4 5 6 
#
# 1 94.8880 17.8625 11.3685 6.2376 -2.6679 -17.6514
# 2 17.8625 80.8973 40.5817 20.8917 0.5333 -23.9471
# 3 11.3685 40.5817 67.1091 8.5978 4.6836 -2.0281
# 4 6.2376 20.8917 8.5978 30.3644 -2.0173 1.1981
# 5 -2.6679 0.5333 4.6836 -2.0173 16.2792 2.4587
# 6 -17.6514 -23.9471 -2.0281 1.1981 2.4587 38.1815
#
#
#
# Elastic Compliance Matrix: (Units=1/GPa)
#
#
# Indices 1 2 3 4 5 6 
#
# 1 0.011944 0.000832 -0.002110 -0.002574 0.001323 0.005927
# 2 0.000832 0.030013 -0.015398 -0.017307 -0.001435 0.019026
# 3 -0.002110 -0.015398 0.024088 0.004246 -0.004860 -0.009173
# 4 -0.002574 -0.017307 0.004246 0.045144 0.006580 -0.013660
# 5 0.001323 -0.001435 -0.004860 0.006580 0.064648 -0.004916
# 6 0.005927 0.019026 -0.009173 -0.013660 -0.004916 0.041121
#
#
# Mechanical properties :
#
#
# Convention : Reuss Voigt Hill
#
# Bulk Modulus (GPa) = 30.58761 42.50219 36.54490
# Shear Modulus (GPa) = 19.14198 28.50379 23.82288
#
# Velocity S-wave (km/s) = 2.84197 3.46799 3.17047
# Velocity P-wave (km/s) = 4.86572 5.82833 5.36864
#
# Compressibility (1/GPa) = 0.03269298
#
# Stress axis : x y z
#
# Youngs Moduli (GPa) = 83.72472 33.31922 41.51525
#
# Poissons Ratio (x) = -0.02771 0.08758
# Poissons Ratio (y) = -0.06962 0.63923
# Poissons Ratio (z) = 0.17662 0.51303
#
# Static dielectric constant tensor:
#      x y z
#    x 1.984450 0.069030 -0.018480 
#    y 0.069030 1.916700 0.021130 
#    z -0.018480 0.021130 1.895350 
# 
# From -- ./inp_files/549312.got.cif
#   From: 2010.05.17/outbox.cif.g08.bks.cpg/sg2_275_cif.got.tgz:549312.got - 2010.06.03 11:33:40.
