data_PCOD9011220
_publ_section_title
;
Structure prediction by ZEFSAII (Michael W. Deem and Ramdas Pophale) SiO2 
 PCOD9011220
Probable space group: P -1
;
_chemical_formula_sum "Si O2"
_cell_formula_units_Z 14
_cell_length_a 11.664543
_cell_length_b 11.653867
_cell_length_c 12.743383
_cell_angle_alpha 102.878786
_cell_angle_beta 138.023542
_cell_angle_gamma 111.502014
_cell_volume 652.391063
_symmetry_space_group_name_H-M "P -1"
_symmetry_group_IT_number 2
_symmetry_cell_setting 'triclinic'
loop_
_space_group_symop_operation_xyz
x,y,z
-x,-y,-z
loop_
_atom_site_type_symbol
_atom_site_label
_atom_site_fract_x
_atom_site_fract_y
_atom_site_fract_z
Si Si1 0.652101 0.765331 0.478155
Si Si2 0.039080 0.913038 0.429215
Si Si3 0.803313 0.070298 0.013849
Si Si4 0.305121 0.998614 0.321503
Si Si5 0.478960 0.900907 0.063703
Si Si6 0.312481 0.373077 0.051757
Si Si7 0.343052 0.661977 0.752166
O O1 0.433349 0.559867 0.222374
O O2 0.790250 0.926803 0.516402
O O3 0.534903 0.790370 0.491130
O O4 0.904339 0.828894 0.720910
O O5 0.240167 0.936907 0.636950
O O6 0.000000 0.000000 0.500000
O O7 0.794229 0.699179 0.156726
O O8 0.753175 0.039860 0.849736
O O9 0.790046 0.197611 0.071988
O O10 0.527388 0.845514 0.833312
O O11 0.500000 0.000000 0.500000
O O12 0.976349 0.817522 0.112857
O O13 0.463815 0.765186 0.971350
O O14 0.500000 0.000000 0.000000
O O15 0.573796 0.422535 0.242419
O O16 0.000000 0.500000 0.500000
#
# Coordination Sequence:
#
# PCOD9011220 Si02
#       7
#     2   2   2   2   2   2   2
#     4  11  24  42  69 102 135 178 233 285 345 408
#     4  11  20  42  65  93 143 179 222 282 337 404
#     4  11  21  44  71  97 138 187 225 289 349 399
#     4  11  25  48  71  96 140 182 234 293 342 407
#     4  10  21  40  65  94 135 180 220 276 340 404
#     4  11  24  44  69 104 136 179 233 281 346 414
#     4  11  22  41  65 105 143 173 228 281 344 420
#
# _framework density 21.459520999999999
#
# number of rings (size 3 to 8) (size 9 to 14) (size 15 to 20)
#    0.000    1.143    4.286    3.857    0.000    2.857 
#   10.286    0.000    0.000    0.000    0.000    0.000 
#    0.000    0.000    0.000    0.000    0.000    0.000 
#
# Total GULP energy -78018.585617 kJ/mol
# GULP energy per Si atom -5572.756115 kJ/mol
# Density = 2.141068 g / cm^3
# Si number density = 21.459521 Si / 1000 Ang^3
#
#
#
# Elastic Constant Matrix: (Units=GPa)
#
#
# Indices 1 2 3 4 5 6 
#
# 1 136.3895 28.5987 48.7168 -2.6034 -28.7147 -17.0476
# 2 28.5987 41.8026 43.7636 -2.9463 -18.0794 -12.9911
# 3 48.7168 43.7636 143.6997 -15.7280 -23.5881 -0.9928
# 4 -2.6034 -2.9463 -15.7280 41.9599 -4.9816 -5.3724
# 5 -28.7147 -18.0794 -23.5881 -4.9816 50.9884 -2.5350
# 6 -17.0476 -12.9911 -0.9928 -5.3724 -2.5350 37.4977
#
#
#
# Elastic Compliance Matrix: (Units=1/GPa)
#
#
# Indices 1 2 3 4 5 6 
#
# 1 0.009842 -0.001123 -0.002142 0.000828 0.004456 0.004449
# 2 -0.001123 0.047518 -0.011767 0.002412 0.011843 0.016786
# 3 -0.002142 -0.011767 0.011551 0.002818 0.000025 -0.004339
# 4 0.000828 0.002412 0.002818 0.026457 0.005481 0.005447
# 5 0.004456 0.011843 0.000025 0.005481 0.027303 0.008760
# 6 0.004449 0.016786 -0.004339 0.005447 0.008760 0.035764
#
#
# Mechanical properties :
#
#
# Convention : Reuss Voigt Hill
#
# Bulk Modulus (GPa) = 25.74162 62.67223 44.20692
# Shear Modulus (GPa) = 24.82008 39.47672 32.14840
#
# Velocity S-wave (km/s) = 3.40457 4.29370 3.87472
# Velocity P-wave (km/s) = 5.24178 7.33821 6.37674
#
# Compressibility (1/GPa) = 0.03884760
#
# Stress axis : x y z
#
# Youngs Moduli (GPa) = 101.60042 21.04469 86.57087
#
# Poissons Ratio (x) = 0.02364 0.18543
# Poissons Ratio (y) = 0.11412 1.01866
# Poissons Ratio (z) = 0.21763 0.24763
#
# Static dielectric constant tensor:
#      x y z
#    x 1.849780 -0.074790 0.017760 
#    y -0.074790 1.804740 0.035770 
#    z 0.017760 0.035770 1.864300 
# 
# From -- ./inp_files/426254.got.cif
#   From: 2010.05.17/outbox.cif.g08.bks.cpg/sg2_214_cif.got.tgz:426254.got - 2010.06.03 11:33:40.
