data_PCOD9011698
_publ_section_title
;
Structure prediction by ZEFSAII (Michael W. Deem and Ramdas Pophale) SiO2 
 PCOD9011698
Probable space group: P -1
;
_chemical_formula_sum "Si O2"
_cell_formula_units_Z 16
_cell_length_a 11.216784
_cell_length_b 12.234844
_cell_length_c 13.241647
_cell_angle_alpha 109.286024
_cell_angle_beta 50.971065
_cell_angle_gamma 67.548601
_cell_volume 791.419356
_symmetry_space_group_name_H-M "P -1"
_symmetry_group_IT_number 2
_symmetry_cell_setting 'triclinic'
loop_
_space_group_symop_operation_xyz
x,y,z
-x,-y,-z
loop_
_atom_site_type_symbol
_atom_site_label
_atom_site_fract_x
_atom_site_fract_y
_atom_site_fract_z
Si Si1 0.929896 0.357920 0.333385
Si Si2 0.769275 0.622196 0.903714
Si Si3 0.863962 0.669868 0.201747
Si Si4 0.066563 0.016884 0.176973
Si Si5 0.040208 0.326105 0.501971
Si Si6 0.494089 0.791195 0.719026
Si Si7 0.716075 0.010823 0.317613
Si Si8 0.821972 0.016728 0.656951
O O1 0.935559 0.217701 0.274682
O O2 0.662268 0.583803 0.520168
O O3 0.149669 0.293857 0.134937
O O4 0.981469 0.352214 0.422838
O O5 0.974456 0.441704 0.815589
O O6 0.814828 0.527290 0.745110
O O7 0.479945 0.788502 0.148299
O O8 0.565636 0.819053 0.427571
O O9 0.857447 0.805186 0.206622
O O10 0.000000 0.500000 0.000000
O O11 0.879827 0.021448 0.268173
O O12 0.152482 0.980073 0.235465
O O13 0.309866 0.856699 0.924527
O O14 0.298222 0.244173 0.358368
O O15 0.084758 0.170113 0.471591
O O16 0.335000 0.946469 0.761464
O O17 0.000000 0.000000 0.500000
#
# Coordination Sequence:
#
# PCOD9011698 Si02
#       8
#     2   2   2   2   2   2   2   2
#     4  10  21  40  67 101 125 166 214 264 325 381
#     4  11  22  43  68  94 124 172 221 263 316 383
#     4  11  27  44  69  93 126 180 224 262 310 384
#     4  11  25  41  64  98 138 165 206 271 326 386
#     4  10  21  40  68  95 129 163 216 270 311 389
#     4  11  21  41  68  94 127 171 215 268 320 378
#     4  11  26  45  65  98 132 171 218 267 320 378
#     4  11  26  40  64  97 133 172 209 265 326 384
#
# _framework density 20.216843000000001
#
# number of rings (size 3 to 8) (size 9 to 14) (size 15 to 20)
#    0.000    1.250    2.500    4.125    7.000    4.000 
#    2.250    0.000    0.000    0.000    0.000    0.000 
#    0.000    0.000    0.000    0.000    0.000    0.000 
#
# Total GULP energy -89490.148294 kJ/mol
# GULP energy per Si atom -5593.134268 kJ/mol
# Density = 2.017083 g / cm^3
# Si number density = 20.216843 Si / 1000 Ang^3
#
#
#
# Elastic Constant Matrix: (Units=GPa)
#
#
# Indices 1 2 3 4 5 6 
#
# 1 65.9286 47.9438 22.3828 2.6622 -1.2579 35.4261
# 2 47.9438 107.0198 58.2587 23.2780 -30.7687 17.0940
# 3 22.3828 58.2587 90.0644 -12.8145 -1.4895 36.3758
# 4 2.6622 23.2780 -12.8145 17.3089 10.3087 9.2882
# 5 -1.2579 -30.7687 -1.4895 10.3087 14.5221 -16.9688
# 6 35.4261 17.0940 36.3758 9.2882 -16.9688 31.8734
#
#
#
# Elastic Compliance Matrix: (Units=1/GPa)
#
#
# Indices 1 2 3 4 5 6 
#
# 1 0.018859 0.002308 -0.006357 -0.015154 0.011452 -0.004431
# 2 0.002308 0.005765 0.002140 0.005958 -0.008174 -0.014188
# 3 -0.006357 0.002140 0.009173 -0.005138 0.013240 0.003995
# 4 -0.015154 0.005958 -0.005138 0.025219 0.018771 0.022156
# 5 0.011452 -0.008174 0.013240 0.018771 0.017910 -0.019389
# 6 -0.004431 -0.014188 0.003995 0.022156 -0.019389 0.022571
#
#
# Mechanical properties :
#
#
# Convention : Reuss Voigt Hill
#
# Bulk Modulus (GPa) = 33.35528 57.79815 45.57671
# Shear Modulus (GPa) = 44.12768 21.70271 32.91519
#
# Velocity S-wave (km/s) = 4.67703 3.27998 4.03936
# Velocity P-wave (km/s) = 6.76023 6.55710 6.65944
#
# Compressibility (1/GPa) = 0.02998026
#
# Stress axis : x y z
#
# Youngs Moduli (GPa) = 53.02507 173.46208 109.01328
#
# Poissons Ratio (x) = -0.40042 0.69300
# Poissons Ratio (y) = -0.12240 -0.23331
# Poissons Ratio (z) = 0.33708 -0.37125
#
# Static dielectric constant tensor:
#      x y z
#    x 1.702350 -0.017430 0.024060 
#    y -0.017430 1.722120 0.005220 
#    z 0.024060 0.005220 1.711730 
# 
# From -- ./inp_files/428333.got.cif
#   From: 2010.05.17/outbox.cif.g08.bks.cpg/sg2_215_cif.got.tgz:428333.got - 2010.06.03 11:33:40.
