data_PCOD9011958
_publ_section_title
;
Structure prediction by ZEFSAII (Michael W. Deem and Ramdas Pophale) SiO2 
 PCOD9011958
Probable space group: P -1
;
_chemical_formula_sum "Si O2"
_cell_formula_units_Z 16
_cell_length_a 14.489323
_cell_length_b 8.685788
_cell_length_c 11.004520
_cell_angle_alpha 42.636612
_cell_angle_beta 106.851238
_cell_angle_gamma 84.458090
_cell_volume 788.615968
_symmetry_space_group_name_H-M "P -1"
_symmetry_group_IT_number 2
_symmetry_cell_setting 'triclinic'
loop_
_space_group_symop_operation_xyz
x,y,z
-x,-y,-z
loop_
_atom_site_type_symbol
_atom_site_label
_atom_site_fract_x
_atom_site_fract_y
_atom_site_fract_z
Si Si1 0.903683 0.686846 0.194962
Si Si2 0.821601 0.192529 0.243221
Si Si3 0.198964 0.261684 0.609513
Si Si4 0.146337 0.801473 0.230929
Si Si5 0.394060 0.266521 0.828188
Si Si6 0.050650 0.870482 0.425956
Si Si7 0.394400 0.679410 0.439132
Si Si8 0.698406 0.742073 0.940721
O O1 0.858178 0.743641 0.281917
O O2 0.972447 0.372964 0.412855
O O3 0.815402 0.714749 0.042325
O O4 0.920042 0.932300 0.023975
O O5 0.867008 0.145105 0.426781
O O6 0.780749 0.988372 0.312253
O O7 0.730347 0.489695 0.018987
O O8 0.932043 0.118825 0.250213
O O9 0.140644 0.536056 0.355868
O O10 0.307180 0.260299 0.704128
O O11 0.108060 0.845645 0.332821
O O12 0.275654 0.732797 0.307258
O O13 0.410056 0.510027 0.661944
O O14 0.352088 0.286995 0.935649
O O15 0.500000 0.000000 0.000000
O O16 0.500000 0.500000 0.500000
O O17 0.377665 0.963092 0.298846
#
# Coordination Sequence:
#
# PCOD9011958 Si02
#       8
#     2   2   2   2   2   2   2   2
#     4   8  16  33  53  76 103 138 181 220 253 297
#     4  10  19  36  54  75 113 147 166 215 277 311
#     4   9  19  33  52  79 111 137 169 226 267 308
#     4   9  18  34  54  80 105 135 187 224 254 307
#     4  10  18  33  57  79  97 135 183 215 258 310
#     4   9  19  36  56  74 103 147 187 210 254 324
#     4  10  17  29  54  80  96 129 176 221 258 302
#     4   9  18  33  51  76 106 134 171 216 258 319
#
# _framework density 20.288709999999998
#
# number of rings (size 3 to 8) (size 9 to 14) (size 15 to 20)
#    0.000    2.750    1.250    2.250    0.000    2.000 
#    0.000   19.375    0.000    0.750    0.000    0.000 
#    0.000    0.000    0.000    0.000    0.000    0.000 
#
# Total GULP energy -89079.225124 kJ/mol
# GULP energy per Si atom -5567.451570 kJ/mol
# Density = 2.024253 g / cm^3
# Si number density = 20.288710 Si / 1000 Ang^3
#
#
#
# Elastic Constant Matrix: (Units=GPa)
#
#
# Indices 1 2 3 4 5 6 
#
# 1 77.6688 35.1777 53.2677 -13.1250 -38.7170 -39.6733
# 2 35.1777 104.7603 53.0799 -37.5075 -27.5677 -21.6738
# 3 53.2677 53.0799 158.3542 -41.3128 -52.4029 -46.5450
# 4 -13.1250 -37.5075 -41.3128 49.9005 -22.9600 -25.9872
# 5 -38.7170 -27.5677 -52.4029 -22.9600 133.0739 99.1877
# 6 -39.6733 -21.6738 -46.5450 -25.9872 99.1877 151.6158
#
#
#
# Elastic Compliance Matrix: (Units=1/GPa)
#
#
# Indices 1 2 3 4 5 6 
#
# 1 0.019322 -0.002697 -0.003407 0.002621 0.002219 0.002622
# 2 -0.002697 0.017459 0.001824 0.017290 0.005022 0.002028
# 3 -0.003407 0.001824 0.013426 0.015429 0.005391 0.002608
# 4 0.002621 0.017290 0.015429 0.057389 0.013869 0.008658
# 5 0.002219 0.005022 0.005391 0.013869 0.019015 -0.007109
# 6 0.002622 0.002028 0.002608 0.008658 -0.007109 0.014507
#
#
# Mechanical properties :
#
#
# Convention : Reuss Voigt Hill
#
# Bulk Modulus (GPa) = 24.01173 69.31488 46.66330
# Shear Modulus (GPa) = 30.57000 80.20190 55.38595
#
# Velocity S-wave (km/s) = 3.88590 6.29413 5.23050
# Velocity P-wave (km/s) = 5.65635 9.33059 7.71538
#
# Compressibility (1/GPa) = 0.04164632
#
# Stress axis : x y z
#
# Youngs Moduli (GPa) = 51.75570 57.27832 74.48450
#
# Poissons Ratio (x) = 0.15449 0.25373
# Poissons Ratio (y) = 0.13959 -0.13585
# Poissons Ratio (z) = 0.17631 -0.10447
#
# Static dielectric constant tensor:
#      x y z
#    x 1.827640 -0.015870 0.011610 
#    y -0.015870 1.861860 0.061470 
#    z 0.011610 0.061470 1.864470 
# 
# From -- ./inp_files/446665.got.cif
#   From: 2010.05.17/outbox.cif.g08.bks.cpg/sg2_224_cif.got.tgz:446665.got - 2010.06.03 11:33:40.
