data_PCOD9011331
_publ_section_title
;
Structure prediction by ZEFSAII (Michael W. Deem and Ramdas Pophale) SiO2 
 PCOD9011331
Probable space group: P -1
;
_chemical_formula_sum "Si O2"
_cell_formula_units_Z 15
_cell_length_a 6.223085
_cell_length_b 16.601192
_cell_length_c 7.678054
_cell_angle_alpha 86.108157
_cell_angle_beta 64.872492
_cell_angle_gamma 57.793142
_cell_volume 594.514395
_symmetry_space_group_name_H-M "P -1"
_symmetry_group_IT_number 2
_symmetry_cell_setting 'triclinic'
loop_
_space_group_symop_operation_xyz
x,y,z
-x,-y,-z
loop_
_atom_site_type_symbol
_atom_site_label
_atom_site_fract_x
_atom_site_fract_y
_atom_site_fract_z
Si Si1 0.817826 0.458961 0.826512
Si Si2 0.072136 0.703910 0.460349
Si Si3 0.158949 0.813365 0.809327
Si Si4 0.194032 0.016778 0.303818
Si Si5 0.733843 0.842795 0.252084
Si Si6 0.000000 0.000000 0.000000
Si Si7 0.601769 0.697041 0.198846
Si Si8 0.703246 0.662739 0.783523
O O1 0.890488 0.383559 0.658745
O O2 0.833947 0.549128 0.755393
O O3 0.068716 0.392452 0.886661
O O4 0.500000 0.500000 0.000000
O O5 0.386656 0.679128 0.372268
O O6 0.885269 0.800789 0.390527
O O7 0.920912 0.695235 0.681276
O O8 0.463238 0.714333 0.709128
O O9 0.967071 0.868552 0.698417
O O10 0.214949 0.892447 0.857129
O O11 0.962537 0.810056 0.024570
O O12 0.510915 0.958487 0.286766
O O13 0.000000 0.000000 0.500000
O O14 0.199920 0.974243 0.115978
O O15 0.568351 0.792091 0.274483
O O16 0.537247 0.704848 0.016116
#
# Coordination Sequence:
#
# PCOD9011331 Si02
#       8
#     2   2   2   2   2   1   2   2
#     4  11  23  45  69  94 136 177 217 276 340 399
#     4  11  25  42  66  98 134 174 221 283 326 406
#     4  10  21  42  66  94 135 176 221 280 346 402
#     4  10  21  40  65  98 135 174 233 283 337 416
#     4  11  22  44  66  95 136 178 219 281 340 403
#     4   8  22  38  66  94 132 178 222 278 354 390
#     4  11  24  45  65  96 136 174 220 275 341 397
#     4  12  22  43  68  96 129 176 226 270 339 401
#
# _framework density 25.230678999999999
#
# number of rings (size 3 to 8) (size 9 to 14) (size 15 to 20)
#    0.800    0.533    2.667    3.600    0.000    0.533 
#   12.000    0.667    0.000    0.000    0.000    0.000 
#    0.000    0.000    0.000    0.000    0.000    0.000 
#
# Total GULP energy -83690.162429 kJ/mol
# GULP energy per Si atom -5579.344162 kJ/mol
# Density = 2.517325 g / cm^3
# Si number density = 25.230679 Si / 1000 Ang^3
#
#
#
# Elastic Constant Matrix: (Units=GPa)
#
#
# Indices 1 2 3 4 5 6 
#
# 1 82.2560 28.8521 35.8614 -6.6293 -1.7002 -13.2213
# 2 28.8521 125.7881 16.4892 -17.7013 -3.0277 -29.4400
# 3 35.8614 16.4892 99.6934 -19.1219 -16.8409 -3.3888
# 4 -6.6293 -17.7013 -19.1219 32.7081 7.9507 -6.6516
# 5 -1.7002 -3.0277 -16.8409 7.9507 57.7316 1.0541
# 6 -13.2213 -29.4400 -3.3888 -6.6516 1.0541 27.7880
#
#
#
# Elastic Compliance Matrix: (Units=1/GPa)
#
#
# Indices 1 2 3 4 5 6 
#
# 1 0.015980 -0.001633 -0.005406 0.000631 -0.001378 0.005417
# 2 -0.001633 0.013593 0.000872 0.011095 -0.000909 0.016421
# 3 -0.005406 0.000872 0.013720 0.007019 0.002893 0.001596
# 4 0.000631 0.011095 0.007019 0.046775 -0.004237 0.024268
# 5 -0.001378 -0.000909 0.002893 -0.004237 0.018715 -0.002989
# 6 0.005417 0.016421 0.001596 0.024268 -0.002989 0.062078
#
#
# Mechanical properties :
#
#
# Convention : Reuss Voigt Hill
#
# Bulk Modulus (GPa) = 32.30052 52.23811 42.26931
# Shear Modulus (GPa) = 25.83794 38.74786 32.29290
#
# Velocity S-wave (km/s) = 3.20358 3.92311 3.58146
# Velocity P-wave (km/s) = 5.14915 6.42419 5.82168
#
# Compressibility (1/GPa) = 0.03095925
#
# Stress axis : x y z
#
# Youngs Moduli (GPa) = 62.57904 73.56835 72.88522
#
# Poissons Ratio (x) = 0.12016 0.39399
# Poissons Ratio (y) = 0.10221 -0.06356
# Poissons Ratio (z) = 0.33828 -0.06416
#
# Static dielectric constant tensor:
#      x y z
#    x 1.997940 0.002160 -0.005450 
#    y 0.002160 2.051960 -0.064680 
#    z -0.005450 -0.064680 2.024710 
# 
# From -- ./inp_files/137573.got.cif
#   From: 2010.05.17/outbox.cif.g08.bks.cpg/sg2_69_cif.got.tgz:137573.got - 2010.06.03 11:33:40.
