data_PCOD9011422
_publ_section_title
;
Structure prediction by ZEFSAII (Michael W. Deem and Ramdas Pophale) SiO2 
 PCOD9011422
Probable space group: P -1
;
_chemical_formula_sum "Si O2"
_cell_formula_units_Z 12
_cell_length_a 12.954057
_cell_length_b 9.279062
_cell_length_c 7.796007
_cell_angle_alpha 73.220560
_cell_angle_beta 33.813049
_cell_angle_gamma 78.646269
_cell_volume 497.646306
_symmetry_space_group_name_H-M "P -1"
_symmetry_group_IT_number 2
_symmetry_cell_setting 'triclinic'
loop_
_space_group_symop_operation_xyz
x,y,z
-x,-y,-z
loop_
_atom_site_type_symbol
_atom_site_label
_atom_site_fract_x
_atom_site_fract_y
_atom_site_fract_z
Si Si1 0.254908 0.779970 0.757671
Si Si2 0.431029 0.224239 0.437071
Si Si3 0.937225 0.735916 0.490109
Si Si4 0.250720 0.579967 0.274879
Si Si5 0.692856 0.974736 0.650062
Si Si6 0.219949 0.491405 0.719059
O O1 0.443750 0.846184 0.566158
O O2 0.281563 0.604009 0.747115
O O3 0.222035 0.865732 0.596704
O O4 0.079503 0.784818 0.122284
O O5 0.338283 0.122521 0.449050
O O6 0.282609 0.323843 0.697974
O O7 0.585905 0.334206 0.086643
O O8 0.810749 0.586738 0.656086
O O9 0.816866 0.877214 0.634462
O O10 0.070779 0.677375 0.472139
O O11 0.305834 0.560963 0.400722
O O12 0.500000 0.000000 0.000000
O O13 0.000000 0.500000 0.000000
#
# Coordination Sequence:
#
# PCOD9011422 Si02
#       6
#     2   2   2   2   2   2
#     4  11  24  42  64  94 130 165 212 254 324 374
#     4  11  24  42  65  92 130 169 208 264 309 375
#     4  10  22  42  64  91 126 169 204 268 306 372
#     4  10  21  40  66  90 126 159 218 255 317 352
#     4  12  25  42  64  94 129 171 210 254 321 379
#     4  12  22  39  65 100 123 165 212 262 313 371
#
# _framework density 24.113512
#
# number of rings (size 3 to 8) (size 9 to 14) (size 15 to 20)
#    0.000    1.000    3.333    3.000    2.333    1.333 
#    0.000    9.167    0.000    0.000    0.000    0.000 
#    0.000    0.000    0.000    0.000    0.000    0.000 
#
# Total GULP energy -67167.062748 kJ/mol
# GULP energy per Si atom -5597.255229 kJ/mol
# Density = 2.405863 g / cm^3
# Si number density = 24.113512 Si / 1000 Ang^3
#
#
#
# Elastic Constant Matrix: (Units=GPa)
#
#
# Indices 1 2 3 4 5 6 
#
# 1 50.2037 8.8747 -11.4195 7.9099 -7.2904 -3.9840
# 2 8.8747 98.1106 19.5105 22.3602 -11.9074 -14.6353
# 3 -11.4195 19.5105 47.7217 16.6947 -6.5352 -14.9072
# 4 7.9099 22.3602 16.6947 37.7629 -8.7766 0.4822
# 5 -7.2904 -11.9074 -6.5352 -8.7766 27.8400 -4.3471
# 6 -3.9840 -14.6353 -14.9072 0.4822 -4.3471 50.1217
#
#
#
# Elastic Compliance Matrix: (Units=1/GPa)
#
#
# Indices 1 2 3 4 5 6 
#
# 1 0.025965 -0.001020 0.012697 -0.008771 0.007559 0.006282
# 2 -0.001020 0.012943 -0.001926 -0.005824 0.003525 0.003487
# 3 0.012697 -0.001926 0.034799 -0.015269 0.007669 0.011609
# 4 -0.008771 -0.005824 -0.015269 0.039283 0.002909 -0.007065
# 5 0.007559 0.003525 0.007669 0.002909 0.043317 0.007640
# 6 0.006282 0.003487 0.011609 -0.007065 0.007640 0.025652
#
#
# Mechanical properties :
#
#
# Convention : Reuss Voigt Hill
#
# Bulk Modulus (GPa) = 10.72872 25.55193 18.14032
# Shear Modulus (GPa) = 25.83597 35.08294 30.45945
#
# Velocity S-wave (km/s) = 3.27682 3.81846 3.55797
# Velocity P-wave (km/s) = 4.33309 5.48274 4.94146
#
# Compressibility (1/GPa) = 0.09320778
#
# Stress axis : x y z
#
# Youngs Moduli (GPa) = 38.51281 77.26033 28.73671
#
# Poissons Ratio (x) = 0.07880 -0.36486
# Poissons Ratio (y) = 0.03928 0.05536
# Poissons Ratio (z) = -0.48898 0.14883
#
# Static dielectric constant tensor:
#      x y z
#    x 2.006380 -0.013610 -0.011050 
#    y -0.013610 1.964280 0.005740 
#    z -0.011050 0.005740 1.878680 
# 
# From -- ./inp_files/144406.got.cif
#   From: 2010.05.17/outbox.cif.g08.bks.cpg/sg2_73_cif.got.tgz:144406.got - 2010.06.03 11:33:40.
