data_PCOD9011050
_publ_section_title
;
Structure prediction by ZEFSAII (Michael W. Deem and Ramdas Pophale) SiO2 
 PCOD9011050
Probable space group: P -1
;
_chemical_formula_sum "Si O2"
_cell_formula_units_Z 14
_cell_length_a 6.924605
_cell_length_b 15.149722
_cell_length_c 13.676361
_cell_angle_alpha 140.422534
_cell_angle_beta 143.335348
_cell_angle_gamma 57.551577
_cell_volume 533.092678
_symmetry_space_group_name_H-M "P -1"
_symmetry_group_IT_number 2
_symmetry_cell_setting 'triclinic'
loop_
_space_group_symop_operation_xyz
x,y,z
-x,-y,-z
loop_
_atom_site_type_symbol
_atom_site_label
_atom_site_fract_x
_atom_site_fract_y
_atom_site_fract_z
Si Si1 0.838457 0.828110 0.883469
Si Si2 0.596194 0.897479 0.639135
Si Si3 0.213319 0.203782 0.958996
Si Si4 0.862018 0.737717 0.224916
Si Si5 0.219566 0.094637 0.475402
Si Si6 0.133664 0.471631 0.425388
Si Si7 0.931791 0.519162 0.806209
O O1 0.642560 0.864151 0.742174
O O2 0.953390 0.691671 0.777642
O O3 0.620279 0.795435 0.865470
O O4 0.165200 0.947165 0.138725
O O5 0.203726 0.847042 0.425482
O O6 0.751798 0.826197 0.550302
O O7 0.350293 0.265066 0.962496
O O8 0.967212 0.313807 0.978768
O O9 0.099905 0.033888 0.753848
O O10 0.942210 0.587112 0.159605
O O11 0.742761 0.806031 0.330930
O O12 0.500000 0.000000 0.500000
O O13 0.532757 0.500872 0.626127
O O14 0.004897 0.528350 0.319967
O O15 0.000000 0.500000 0.500000
#
# Coordination Sequence:
#
# PCOD9011050 Si02
#       7
#     2   2   2   2   2   2   2
#     4   9  20  40  64  94 126 163 212 263 308 375
#     4  10  21  40  66  91 128 160 214 264 309 377
#     4  10  22  43  64  92 130 169 205 263 320 376
#     4  12  23  40  71  92 128 171 209 263 321 372
#     4  11  24  42  66  93 127 168 216 261 317 378
#     4  10  21  40  65  88 131 169 202 260 319 371
#     4  10  23  41  62  97 127 162 218 254 312 388
#
# _framework density 26.261849999999999
#
# number of rings (size 3 to 8) (size 9 to 14) (size 15 to 20)
#    0.000    1.714    2.857    0.857    2.000    1.143 
#    5.143    7.143    0.000    0.000    0.000    0.000 
#    0.000    0.000    0.000    0.000    0.000    0.000 
#
# Total GULP energy -78054.616914 kJ/mol
# GULP energy per Si atom -5575.329780 kJ/mol
# Density = 2.620208 g / cm^3
# Si number density = 26.261850 Si / 1000 Ang^3
#
#
#
# Elastic Constant Matrix: (Units=GPa)
#
#
# Indices 1 2 3 4 5 6 
#
# 1 146.7306 42.0752 59.9099 -7.3673 -52.2225 20.9314
# 2 42.0752 76.0827 17.5847 -16.5059 -21.0292 27.2135
# 3 59.9099 17.5847 88.8899 -10.5649 -39.2652 13.5363
# 4 -7.3673 -16.5059 -10.5649 27.9612 5.7181 -19.6086
# 5 -52.2225 -21.0292 -39.2652 5.7181 61.5691 -11.0933
# 6 20.9314 27.2135 13.5363 -19.6086 -11.0933 31.6992
#
#
#
# Elastic Compliance Matrix: (Units=1/GPa)
#
#
# Indices 1 2 3 4 5 6 
#
# 1 0.012231 -0.003757 -0.004983 -0.004511 0.005697 -0.003519
# 2 -0.003757 0.020991 0.001821 0.001313 0.002378 -0.014672
# 3 -0.004983 0.001821 0.018185 0.004776 0.007464 -0.000472
# 4 -0.004511 0.001313 0.004776 0.065454 0.000907 0.040618
# 5 0.005697 0.002378 0.007464 0.000907 0.026729 0.000924
# 6 -0.003519 -0.014672 -0.000472 0.040618 0.000924 0.072117
#
#
# Mechanical properties :
#
#
# Convention : Reuss Voigt Hill
#
# Bulk Modulus (GPa) = 26.61950 61.20474 43.91212
# Shear Modulus (GPa) = 20.65530 37.05478 28.85504
#
# Velocity S-wave (km/s) = 2.80753 3.76037 3.31833
# Velocity P-wave (km/s) = 4.54619 6.49692 5.60704
#
# Compressibility (1/GPa) = 0.03756644
#
# Stress axis : x y z
#
# Youngs Moduli (GPa) = 81.76243 47.63963 54.99108
#
# Poissons Ratio (x) = 0.17899 0.27405
# Poissons Ratio (y) = 0.30719 -0.10012
# Poissons Ratio (z) = 0.40746 -0.08674
#
# Static dielectric constant tensor:
#      x y z
#    x 2.123460 0.109330 0.007160 
#    y 0.109330 2.263460 -0.134540 
#    z 0.007160 -0.134540 2.232770 
# 
# From -- ./inp_files/74844.got.cif
#   From: 2010.05.17/outbox.cif.g08.bks.cpg/sg2_38_cif.got.tgz:74844.got - 2010.06.03 11:33:40.
