data_PCOD9011695
_publ_section_title
;
Structure prediction by ZEFSAII (Michael W. Deem and Ramdas Pophale) SiO2 
 PCOD9011695
Probable space group: P -1
;
_chemical_formula_sum "Si O2"
_cell_formula_units_Z 13
_cell_length_a 17.904444
_cell_length_b 6.968799
_cell_length_c 6.120968
_cell_angle_alpha 80.318451
_cell_angle_beta 72.148222
_cell_angle_gamma 53.150001
_cell_volume 581.593740
_symmetry_space_group_name_H-M "P -1"
_symmetry_group_IT_number 2
_symmetry_cell_setting 'triclinic'
loop_
_space_group_symop_operation_xyz
x,y,z
-x,-y,-z
loop_
_atom_site_type_symbol
_atom_site_label
_atom_site_fract_x
_atom_site_fract_y
_atom_site_fract_z
Si Si1 0.550726 0.221908 0.026300
Si Si2 0.804026 0.511842 0.853324
Si Si3 0.612896 0.831649 0.708072
Si Si4 0.072170 0.020041 0.281215
Si Si5 0.724863 0.866600 0.227935
Si Si6 0.000000 0.500000 0.000000
Si Si7 0.867945 0.775608 0.455200
O O1 0.475753 0.186403 0.220351
O O2 0.650912 0.081003 0.094681
O O3 0.500000 0.500000 0.000000
O O4 0.573745 0.089257 0.798275
O O5 0.693247 0.641446 0.847525
O O6 0.846592 0.598408 0.619697
O O7 0.861494 0.229504 0.859000
O O8 0.803057 0.635613 0.056277
O O9 0.665159 0.800981 0.440714
O O10 0.133315 0.060212 0.390856
O O11 0.022321 0.247075 0.124517
O O12 0.000000 0.000000 0.500000
O O13 0.782340 0.923144 0.326981
O O14 0.035835 0.378832 0.743719
#
# Coordination Sequence:
#
# PCOD9011695 Si02
#       7
#     2   2   2   2   2   1   2
#     4  10  21  40  67 100 140 178 224 287 340 407
#     4  10  23  46  68  98 142 184 229 296 348 414
#     4   9  21  40  65  99 135 176 232 278 337 419
#     4  12  27  47  73 101 140 183 239 295 357 417
#     4  10  22  43  71  98 142 183 230 283 351 414
#     4  12  26  44  74 100 134 180 238 292 354 422
#     4  11  25  45  66 102 138 176 239 297 343 428
#
# _framework density 22.352374999999999
#
# number of rings (size 3 to 8) (size 9 to 14) (size 15 to 20)
#    0.000    1.538    1.538    1.846    2.154    8.615 
#    0.000    7.692    0.000    0.000    0.000    0.000 
#    0.000    0.000    0.000    0.000    0.000    0.000 
#
# Total GULP energy -72523.756936 kJ/mol
# GULP energy per Si atom -5578.750534 kJ/mol
# Density = 2.230150 g / cm^3
# Si number density = 22.352375 Si / 1000 Ang^3
#
#
#
# Elastic Constant Matrix: (Units=GPa)
#
#
# Indices 1 2 3 4 5 6 
#
# 1 85.5537 37.6944 5.3893 -6.8271 15.7228 -1.0232
# 2 37.6944 182.5734 43.5144 -10.4825 9.2759 3.8575
# 3 5.3893 43.5144 115.9659 4.9828 -7.5832 4.2910
# 4 -6.8271 -10.4825 4.9828 24.2691 -5.4047 -1.3462
# 5 15.7228 9.2759 -7.5832 -5.4047 26.3298 2.0348
# 6 -1.0232 3.8575 4.2910 -1.3462 2.0348 19.8149
#
#
#
# Elastic Compliance Matrix: (Units=1/GPa)
#
#
# Indices 1 2 3 4 5 6 
#
# 1 0.014344 -0.002437 -0.000399 0.001474 -0.007689 0.002191
# 2 -0.002437 0.006815 -0.002604 0.002507 -0.001134 -0.000602
# 3 -0.000399 -0.002604 0.010055 -0.002604 0.003691 -0.002247
# 4 0.001474 0.002507 -0.002604 0.044823 0.006492 0.002531
# 5 -0.007689 -0.001134 0.003691 0.006492 0.045771 -0.005235
# 6 0.002191 -0.000602 -0.002247 0.002531 -0.005235 0.051894
#
#
# Mechanical properties :
#
#
# Convention : Reuss Voigt Hill
#
# Bulk Modulus (GPa) = 49.17809 61.92102 55.54955
# Shear Modulus (GPa) = 26.12865 33.91575 30.02220
#
# Velocity S-wave (km/s) = 3.42269 3.89951 3.66885
# Velocity P-wave (km/s) = 6.13749 6.93089 6.54622
#
# Compressibility (1/GPa) = 0.02033426
#
# Stress axis : x y z
#
# Youngs Moduli (GPa) = 69.71316 146.72817 99.45153
#
# Poissons Ratio (x) = 0.35765 0.03970
# Poissons Ratio (y) = 0.16993 0.25894
# Poissons Ratio (z) = 0.02783 0.38203
#
# Static dielectric constant tensor:
#      x y z
#    x 1.951620 -0.018500 -0.059980 
#    y -0.018500 1.762640 0.022650 
#    z -0.059980 0.022650 1.822120 
# 
# From -- ./inp_files/5641.got.cif
#   From: 2010.05.17/outbox.cif.g08.bks.cpg/sg2_3_cif.got.tgz:5641.got - 2010.06.03 11:33:40.
