data_PCOD9011704
_publ_section_title
;
Structure prediction by ZEFSAII (Michael W. Deem and Ramdas Pophale) SiO2 
 PCOD9011704
Probable space group: P -1
;
_chemical_formula_sum "Si O2"
_cell_formula_units_Z 15
_cell_length_a 11.993015
_cell_length_b 17.948382
_cell_length_c 13.769286
_cell_angle_alpha 41.141361
_cell_angle_beta 141.851456
_cell_angle_gamma 160.992755
_cell_volume 595.601073
_symmetry_space_group_name_H-M "P -1"
_symmetry_group_IT_number 2
_symmetry_cell_setting 'triclinic'
loop_
_space_group_symop_operation_xyz
x,y,z
-x,-y,-z
loop_
_atom_site_type_symbol
_atom_site_label
_atom_site_fract_x
_atom_site_fract_y
_atom_site_fract_z
Si Si1 0.743376 0.022765 0.169465
Si Si2 0.555191 0.175916 0.644170
Si Si3 0.786029 0.601003 0.022364
Si Si4 0.431047 0.994051 0.325802
Si Si5 0.375622 0.196435 0.010453
Si Si6 0.500000 0.500000 0.500000
Si Si7 0.672303 0.385501 0.834911
Si Si8 0.885309 0.603666 0.471853
O O1 0.761229 0.010403 0.308555
O O2 0.515259 0.793357 0.198687
O O3 0.092597 0.237190 0.131751
O O4 0.500000 0.000000 0.000000
O O5 0.447277 0.060416 0.581799
O O6 0.882310 0.273953 0.812091
O O7 0.698888 0.382580 0.533143
O O8 0.648899 0.421396 0.039363
O O9 0.500000 0.500000 0.000000
O O10 0.024374 0.752974 0.327986
O O11 0.446052 0.100523 0.151372
O O12 0.715143 0.196370 0.401030
O O13 0.376629 0.240246 0.859283
O O14 0.000000 0.000000 0.000000
O O15 0.761328 0.549431 0.683337
O O16 0.644778 0.533712 0.457136
O O17 0.000000 0.500000 0.000000
#
# Coordination Sequence:
#
# PCOD9011704 Si02
#       8
#     2   2   2   2   2   1   2   2
#     4  10  21  40  67 101 139 193 244 303 373 446
#     4  11  21  45  68 100 144 193 247 305 378 444
#     4  11  23  39  65 103 146 184 252 311 364 454
#     4  11  24  43  73  99 141 203 245 297 392 439
#     4  12  23  41  67 103 136 188 251 298 369 451
#     4  12  26  44  74 108 150 190 254 316 366 448
#     4  12  24  44  75 102 146 197 244 309 374 440
#     4  11  24  46  68 103 148 191 246 315 366 450
#
# _framework density 25.184642
#
# number of rings (size 3 to 8) (size 9 to 14) (size 15 to 20)
#    0.000    0.800    2.667    6.800    0.000    1.067 
#    0.000    0.667    2.933    0.000    0.000    0.000 
#    0.000    0.000    0.000    0.000    0.000    0.000 
#
# Total GULP energy -83704.345674 kJ/mol
# GULP energy per Si atom -5580.289712 kJ/mol
# Density = 2.512732 g / cm^3
# Si number density = 25.184642 Si / 1000 Ang^3
#
#
#
# Elastic Constant Matrix: (Units=GPa)
#
#
# Indices 1 2 3 4 5 6 
#
# 1 152.8038 40.1653 19.5712 -24.3167 -1.0612 3.1491
# 2 40.1653 103.6430 27.7181 -27.7408 8.8854 -9.7661
# 3 19.5712 27.7181 106.6787 -23.4543 2.9987 5.5281
# 4 -24.3167 -27.7408 -23.4543 30.0862 2.2793 -0.4088
# 5 -1.0612 8.8854 2.9987 2.2793 32.7674 -6.8151
# 6 3.1491 -9.7661 5.5281 -0.4088 -6.8151 58.1127
#
#
#
# Elastic Compliance Matrix: (Units=1/GPa)
#
#
# Indices 1 2 3 4 5 6 
#
# 1 0.007777 -0.001907 0.000101 0.004575 0.000299 -0.000684
# 2 -0.001907 0.014176 -0.000866 0.011199 -0.004157 0.002159
# 3 0.000101 -0.000866 0.011545 0.008393 -0.001691 -0.001389
# 4 0.004575 0.011199 0.008393 0.054367 -0.007365 0.000355
# 5 0.000299 -0.004157 -0.001691 -0.007365 0.033001 0.003264
# 6 -0.000684 0.002159 -0.001389 0.000355 0.003264 0.018125
#
#
# Mechanical properties :
#
#
# Convention : Reuss Voigt Hill
#
# Bulk Modulus (GPa) = 35.51749 59.78163 47.64956
# Shear Modulus (GPa) = 32.52680 42.57132 37.54906
#
# Velocity S-wave (km/s) = 3.59769 4.11587 3.86547
# Velocity P-wave (km/s) = 5.60279 6.81000 6.23568
#
# Compressibility (1/GPa) = 0.02815514
#
# Stress axis : x y z
#
# Youngs Moduli (GPa) = 128.59010 70.53950 86.61657
#
# Poissons Ratio (x) = 0.13449 -0.00879
# Poissons Ratio (y) = 0.24516 0.07505
# Poissons Ratio (z) = -0.01305 0.06112
#
# Static dielectric constant tensor:
#      x y z
#    x 2.031580 0.027700 -0.017480 
#    y 0.027700 2.043750 0.006250 
#    z -0.017480 0.006250 1.989820 
# 
# From -- ./inp_files/523252.got.cif
#   From: 2010.05.17/outbox.cif.g08.bks.cpg/sg2_262_cif.got.tgz:523252.got - 2010.06.03 11:33:40.
