data_PCOD9011760
_publ_section_title
;
Structure prediction by ZEFSAII (Michael W. Deem and Ramdas Pophale) SiO2 
 PCOD9011760
Probable space group: P -1
;
_chemical_formula_sum "Si O2"
_cell_formula_units_Z 15
_cell_length_a 17.865374
_cell_length_b 5.900582
_cell_length_c 8.730745
_cell_angle_alpha 135.037316
_cell_angle_beta 81.020771
_cell_angle_gamma 96.889215
_cell_volume 642.339615
_symmetry_space_group_name_H-M "P -1"
_symmetry_group_IT_number 2
_symmetry_cell_setting 'triclinic'
loop_
_space_group_symop_operation_xyz
x,y,z
-x,-y,-z
loop_
_atom_site_type_symbol
_atom_site_label
_atom_site_fract_x
_atom_site_fract_y
_atom_site_fract_z
Si Si1 0.147383 0.067740 0.293853
Si Si2 0.549509 0.187555 0.869579
Si Si3 0.000000 0.500000 0.500000
Si Si4 0.679455 0.538232 0.857597
Si Si5 0.184227 0.068442 0.933247
Si Si6 0.951061 0.527392 0.875695
Si Si7 0.413333 0.813964 0.785138
Si Si8 0.280284 0.481405 0.518188
O O1 0.085812 0.341980 0.409959
O O2 0.175698 0.969574 0.067441
O O3 0.220823 0.191389 0.421902
O O4 0.101486 0.789806 0.260481
O O5 0.628819 0.237177 0.782041
O O6 0.494261 0.882176 0.709346
O O7 0.500000 0.500000 0.000000
O O8 0.568506 0.201708 0.049350
O O9 0.003868 0.464736 0.292738
O O10 0.761595 0.613925 0.938204
O O11 0.689705 0.533246 0.670780
O O12 0.633244 0.858523 0.067324
O O13 0.102488 0.164705 0.944227
O O14 0.226823 0.789736 0.700150
O O15 0.000000 0.500000 0.000000
O O16 0.354804 0.536151 0.622725
#
# Coordination Sequence:
#
# PCOD9011760 Si02
#       8
#     2   2   1   2   2   2   2   2
#     4  10  23  42  65  96 127 168 215 269 330 393
#     4   9  18  37  62  87 128 167 210 263 317 378
#     4  10  24  46  66  96 134 160 224 276 318 412
#     4   9  19  38  59  91 127 163 210 267 316 372
#     4   9  22  42  62  94 134 166 216 271 322 397
#     4  11  25  44  72  97 130 178 218 275 346 393
#     4   9  19  38  61  89 124 170 213 261 319 382
#     4  10  21  40  67  91 132 170 214 270 321 383
#
# _framework density 23.352132000000001
#
# number of rings (size 3 to 8) (size 9 to 14) (size 15 to 20)
#    0.000    2.400    0.000    0.400    3.733    4.800 
#    2.400   19.333    0.000    0.000    0.000    0.000 
#    0.000    0.000    0.000    0.000    0.000    0.000 
#
# Total GULP energy -83572.860695 kJ/mol
# GULP energy per Si atom -5571.524046 kJ/mol
# Density = 2.329898 g / cm^3
# Si number density = 23.352132 Si / 1000 Ang^3
#
#
#
# Elastic Constant Matrix: (Units=GPa)
#
#
# Indices 1 2 3 4 5 6 
#
# 1 103.9338 42.8743 40.2789 -5.0774 20.6144 13.6619
# 2 42.8743 58.9949 17.9976 4.2297 16.9082 22.4451
# 3 40.2789 17.9976 48.4602 4.7839 4.2103 17.7740
# 4 -5.0774 4.2297 4.7839 24.7076 9.7968 3.6421
# 5 20.6144 16.9082 4.2103 9.7968 36.6905 -1.2970
# 6 13.6619 22.4451 17.7740 3.6421 -1.2970 45.3008
#
#
#
# Elastic Compliance Matrix: (Units=1/GPa)
#
#
# Indices 1 2 3 4 5 6 
#
# 1 0.022447 -0.011187 -0.016434 0.012616 -0.008799 0.003955
# 2 -0.011187 0.031915 0.003559 -0.003039 -0.008508 -0.013835
# 3 -0.016434 0.003559 0.037429 -0.012160 0.006180 -0.010338
# 4 0.012616 -0.003039 -0.012160 0.053714 -0.018719 -0.002383
# 5 -0.008799 -0.008508 0.006180 -0.018719 0.040660 0.007114
# 6 0.003955 -0.013835 -0.010338 -0.002383 0.007114 0.032188
#
#
# Mechanical properties :
#
#
# Convention : Reuss Voigt Hill
#
# Bulk Modulus (GPa) = 22.90120 45.96562 34.43341
# Shear Modulus (GPa) = 17.79153 28.68900 23.24027
#
# Velocity S-wave (km/s) = 2.76321 3.50885 3.15812
# Velocity P-wave (km/s) = 4.47310 6.01186 5.29864
#
# Compressibility (1/GPa) = 0.04366583
#
# Stress axis : x y z
#
# Youngs Moduli (GPa) = 44.54935 31.33342 26.71754
#
# Poissons Ratio (x) = 0.35053 0.43908
# Poissons Ratio (y) = 0.49837 -0.09508
# Poissons Ratio (z) = 0.73213 -0.11151
#
# Static dielectric constant tensor:
#      x y z
#    x 1.934110 0.018700 0.047280 
#    y 0.018700 1.906820 0.036850 
#    z 0.047280 0.036850 1.903220 
# 
# From -- ./inp_files/11398.got.cif
#   From: 2010.05.17/outbox.cif.g08.bks.cpg/sg2_6_cif.got.tgz:11398.got - 2010.06.03 11:33:40.
