data_PCOD9011859
_publ_section_title
;
Structure prediction by ZEFSAII (Michael W. Deem and Ramdas Pophale) SiO2 
 PCOD9011859
Probable space group: P -1
;
_chemical_formula_sum "Si O2"
_cell_formula_units_Z 14
_cell_length_a 13.943745
_cell_length_b 9.218848
_cell_length_c 17.615265
_cell_angle_alpha 127.151386
_cell_angle_beta 21.022828
_cell_angle_gamma 127.085562
_cell_volume 641.311087
_symmetry_space_group_name_H-M "P -1"
_symmetry_group_IT_number 2
_symmetry_cell_setting 'triclinic'
loop_
_space_group_symop_operation_xyz
x,y,z
-x,-y,-z
loop_
_atom_site_type_symbol
_atom_site_label
_atom_site_fract_x
_atom_site_fract_y
_atom_site_fract_z
Si Si1 0.756444 0.974751 0.417005
Si Si2 0.645994 0.940038 0.948624
Si Si3 0.753804 0.832212 0.621293
Si Si4 0.349373 0.213648 0.840297
Si Si5 0.714889 0.576184 0.720269
Si Si6 0.494979 0.336617 0.392098
Si Si7 0.050141 0.855768 0.021358
O O1 0.606697 0.152491 0.585671
O O2 0.035642 0.998294 0.264353
O O3 0.553685 0.831565 0.567146
O O4 0.829602 0.895578 0.258039
O O5 0.632454 0.720903 0.889186
O O6 0.500000 0.000000 0.000000
O O7 0.499197 0.050634 0.153990
O O8 0.745379 0.695313 0.656628
O O9 0.724566 0.706955 0.527064
O O10 0.000000 0.000000 0.500000
O O11 0.472185 0.409549 0.843695
O O12 0.226666 0.057046 0.941195
O O13 0.106498 0.212955 0.960907
O O14 0.000000 0.500000 0.500000
O O15 0.500000 0.500000 0.500000
O O16 0.779197 0.307825 0.135227
#
# Coordination Sequence:
#
# PCOD9011859 Si02
#       7
#     2   2   2   2   2   2   2
#     4  11  21  42  69  88 139 177 226 275 353 404
#     4  10  21  40  67  96 129 181 214 276 354 402
#     4  11  25  45  68  99 146 185 224 286 362 412
#     4  10  23  42  65 100 135 172 231 284 347 406
#     4  11  23  42  71 104 134 173 239 290 332 422
#     4  11  25  41  67 103 133 180 242 280 333 424
#     4  10  23  43  66  93 137 185 219 287 350 405
#
# _framework density 21.830279000000001
#
# number of rings (size 3 to 8) (size 9 to 14) (size 15 to 20)
#    0.000    1.429    2.857    2.143    4.000    4.000 
#    2.571    1.429    0.000    0.000    0.000    0.000 
#    0.000    0.000    0.000    0.000    0.000    0.000 
#
# Total GULP energy -78010.961152 kJ/mol
# GULP energy per Si atom -5572.211511 kJ/mol
# Density = 2.178059 g / cm^3
# Si number density = 21.830279 Si / 1000 Ang^3
#
#
#
# Elastic Constant Matrix: (Units=GPa)
#
#
# Indices 1 2 3 4 5 6 
#
# 1 92.3150 26.7404 2.1793 9.9493 -6.2324 10.3680
# 2 26.7404 100.4292 14.9548 12.1626 -8.2354 20.3492
# 3 2.1793 14.9548 60.7232 15.1361 -10.0750 2.5003
# 4 9.9493 12.1626 15.1361 37.0513 2.2681 7.3843
# 5 -6.2324 -8.2354 -10.0750 2.2681 39.6267 3.3644
# 6 10.3680 20.3492 2.5003 7.3843 3.3644 28.4242
#
#
#
# Elastic Compliance Matrix: (Units=1/GPa)
#
#
# Indices 1 2 3 4 5 6 
#
# 1 0.012208 -0.002472 0.001272 -0.002645 0.002081 -0.002355
# 2 -0.002472 0.012932 -0.002016 -0.001291 0.002552 -0.008146
# 3 0.001272 -0.002016 0.019809 -0.008244 0.005225 0.000760
# 4 -0.002645 -0.001291 -0.008244 0.032828 -0.004199 -0.005418
# 5 0.002081 0.002552 0.005225 -0.004199 0.028110 -0.005282
# 6 -0.002355 -0.008146 0.000760 -0.005418 -0.005282 0.043837
#
#
# Mechanical properties :
#
#
# Convention : Reuss Voigt Hill
#
# Bulk Modulus (GPa) = 25.96157 37.91292 31.93724
# Shear Modulus (GPa) = 29.58653 34.99329 32.28991
#
# Velocity S-wave (km/s) = 3.68543 4.00805 3.85012
# Velocity P-wave (km/s) = 5.47979 6.23090 5.86738
#
# Compressibility (1/GPa) = 0.03851848
#
# Stress axis : x y z
#
# Youngs Moduli (GPa) = 81.91025 77.32968 50.48100
#
# Poissons Ratio (x) = 0.19116 -0.06422
# Poissons Ratio (y) = 0.20249 0.10175
# Poissons Ratio (z) = -0.10420 0.15587
#
# Static dielectric constant tensor:
#      x y z
#    x 1.864090 0.048890 0.005320 
#    y 0.048890 1.854600 0.019850 
#    z 0.005320 0.019850 1.916330 
# 
# From -- ./inp_files/381500.got.cif
#   From: 2010.05.17/outbox.cif.g08.bks.cpg/sg2_191_cif.got.tgz:381500.got - 2010.06.03 11:33:40.
