data_PCOD9011094
_publ_section_title
;
Structure prediction by ZEFSAII (Michael W. Deem and Ramdas Pophale) SiO2 
 PCOD9011094
Probable space group: P -1
;
_chemical_formula_sum "Si O2"
_cell_formula_units_Z 16
_cell_length_a 8.569677
_cell_length_b 9.408408
_cell_length_c 27.634737
_cell_angle_alpha 135.491550
_cell_angle_beta 140.507700
_cell_angle_gamma 72.911169
_cell_volume 812.497010
_symmetry_space_group_name_H-M "P -1"
_symmetry_group_IT_number 2
_symmetry_cell_setting 'triclinic'
loop_
_space_group_symop_operation_xyz
x,y,z
-x,-y,-z
loop_
_atom_site_type_symbol
_atom_site_label
_atom_site_fract_x
_atom_site_fract_y
_atom_site_fract_z
Si Si1 0.791233 0.639175 0.158205
Si Si2 0.506548 0.928247 0.134574
Si Si3 0.835723 0.693847 0.774718
Si Si4 0.879830 0.568969 0.860642
Si Si5 0.162855 0.283572 0.623163
Si Si6 0.785227 0.409907 0.380609
Si Si7 0.365210 0.064134 0.938955
Si Si8 0.842916 0.231325 0.633692
O O1 0.628344 0.756239 0.125940
O O2 0.021646 0.615667 0.174654
O O3 0.974210 0.794049 0.286577
O O4 0.544571 0.357424 0.047336
O O5 0.604789 0.035988 0.129524
O O6 0.657080 0.138719 0.262218
O O7 0.141938 0.760849 0.007011
O O8 0.930135 0.724489 0.861240
O O9 0.496046 0.596338 0.669681
O O10 0.865432 0.479853 0.711001
O O11 0.027169 0.929241 0.843214
O O12 0.525509 0.425205 0.751579
O O13 0.103849 0.414730 0.597565
O O14 0.001494 0.271119 0.630613
O O15 0.000000 0.000000 0.500000
O O16 0.000000 0.500000 0.500000
O O17 0.500000 0.000000 0.000000
O O18 0.500000 0.000000 0.500000
#
# Coordination Sequence:
#
# PCOD9011094 Si02
#       8
#     2   2   2   2   2   2   2   2
#     4  10  22  38  65  95 136 165 208 271 325 390
#     4  11  23  41  65  96 137 176 209 270 338 383
#     4  10  21  40  65  91 126 168 214 276 311 389
#     4   9  19  40  66  98 127 164 215 266 329 383
#     4  11  24  43  70  94 128 172 226 271 321 393
#     4  11  27  46  61  93 141 170 217 276 329 384
#     4  11  18  39  67  98 126 158 226 265 320 391
#     4  11  22  40  68  93 121 175 228 262 321 388
#
# _framework density 19.69238
#
# number of rings (size 3 to 8) (size 9 to 14) (size 15 to 20)
#    0.000    1.500    3.750    4.500    3.500    3.000 
#    6.750    2.500    0.000    0.000    0.000    0.000 
#    0.000    0.000    0.000    0.000    0.000    0.000 
#
# Total GULP energy -89258.445127 kJ/mol
# GULP energy per Si atom -5578.652820 kJ/mol
# Density = 1.964756 g / cm^3
# Si number density = 19.692380 Si / 1000 Ang^3
#
#
#
# Elastic Constant Matrix: (Units=GPa)
#
#
# Indices 1 2 3 4 5 6 
#
# 1 106.0331 38.8885 56.4646 -8.9672 9.8393 15.4946
# 2 38.8885 94.6450 57.5678 -18.0490 -1.0419 -3.5934
# 3 56.4646 57.5678 142.6701 -19.8400 -3.5390 15.9728
# 4 -8.9672 -18.0490 -19.8400 37.9983 3.3632 0.8891
# 5 9.8393 -1.0419 -3.5390 3.3632 33.9782 4.3100
# 6 15.4946 -3.5934 15.9728 0.8891 4.3100 24.3124
#
#
#
# Elastic Compliance Matrix: (Units=1/GPa)
#
#
# Indices 1 2 3 4 5 6 
#
# 1 0.013964 -0.004053 -0.003201 0.000181 -0.003663 -0.006753
# 2 -0.004053 0.016678 -0.005559 0.003894 -0.000373 0.008624
# 3 -0.003201 -0.005559 0.011745 0.002671 0.002611 -0.007059
# 4 0.000181 0.003894 0.002671 0.029859 -0.002361 -0.001968
# 5 -0.003663 -0.000373 0.002611 -0.002361 0.031614 -0.004954
# 6 -0.006753 0.008624 -0.007059 -0.001968 -0.004954 0.052297
#
#
# Mechanical properties :
#
#
# Convention : Reuss Voigt Hill
#
# Bulk Modulus (GPa) = 59.65701 72.13224 65.89462
# Shear Modulus (GPa) = 26.68510 31.95294 29.31902
#
# Velocity S-wave (km/s) = 3.68516 4.03253 3.86275
# Velocity P-wave (km/s) = 6.96185 7.64138 7.30952
#
# Compressibility (1/GPa) = 0.01676249
#
# Stress axis : x y z
#
# Youngs Moduli (GPa) = 71.61313 59.95826 85.13936
#
# Poissons Ratio (x) = 0.24300 0.27251
# Poissons Ratio (y) = 0.29024 0.47328
# Poissons Ratio (z) = 0.22922 0.33330
#
# Static dielectric constant tensor:
#      x y z
#    x 1.790310 -0.162900 -0.100550 
#    y -0.162900 2.115070 0.223200 
#    z -0.100550 0.223200 1.881780 
# 
# From -- ./inp_files/616694.got.cif
#   From: 2010.05.17/outbox.cif.g08.bks.cpg/sg2_309_cif.got.tgz:616694.got - 2010.06.03 11:33:40.
