data_PCOD9011268
_publ_section_title
;
Structure prediction by ZEFSAII (Michael W. Deem and Ramdas Pophale) SiO2 
 PCOD9011268
Probable space group: P -1
;
_chemical_formula_sum "Si O2"
_cell_formula_units_Z 14
_cell_length_a 11.774934
_cell_length_b 11.612162
_cell_length_c 12.453578
_cell_angle_alpha 147.980378
_cell_angle_beta 49.732433
_cell_angle_gamma 127.976257
_cell_volume 679.300571
_symmetry_space_group_name_H-M "P -1"
_symmetry_group_IT_number 2
_symmetry_cell_setting 'triclinic'
loop_
_space_group_symop_operation_xyz
x,y,z
-x,-y,-z
loop_
_atom_site_type_symbol
_atom_site_label
_atom_site_fract_x
_atom_site_fract_y
_atom_site_fract_z
Si Si1 0.399268 0.189297 0.217399
Si Si2 0.160801 0.241234 0.808725
Si Si3 0.323265 0.425550 0.075371
Si Si4 0.342675 0.426790 0.638374
Si Si5 0.107487 0.635445 0.819405
Si Si6 0.170079 0.118570 0.107951
Si Si7 0.087245 0.734269 0.497942
O O1 0.357097 0.219908 0.390997
O O2 0.499417 0.423993 0.310599
O O3 0.259873 0.142595 0.185020
O O4 0.500000 0.000000 0.000000
O O5 0.246786 0.328727 0.934633
O O6 0.248677 0.350176 0.739564
O O7 0.136982 0.977435 0.611577
O O8 0.998463 0.313287 0.977766
O O9 0.500000 0.500000 0.000000
O O10 0.278230 0.237754 0.044368
O O11 0.236371 0.620877 0.325833
O O12 0.258557 0.578882 0.733170
O O13 0.022274 0.429258 0.642290
O O14 0.128893 0.856355 0.909698
O O15 0.018015 0.224082 0.302940
#
# Coordination Sequence:
#
# PCOD9011268 Si02
#       7
#     2   2   2   2   2   2   2
#     4  11  23  39  64  95 126 168 210 260 316 369
#     4  10  24  41  63  95 127 166 208 261 315 379
#     4  11  25  44  65  95 127 166 212 265 319 373
#     4  11  22  40  62  95 131 164 212 257 316 377
#     4  10  21  40  65  96 123 167 211 259 320 370
#     4  11  22  42  67  93 129 166 215 261 312 381
#     4  10  23  43  63  95 125 173 214 254 320 371
#
# _framework density 20.609432999999999
#
# number of rings (size 3 to 8) (size 9 to 14) (size 15 to 20)
#    0.000    1.429    2.857    1.714    0.000   10.857 
#    0.000    0.000    0.000    0.000    0.000    0.000 
#    0.000    0.000    0.000    0.000    0.000    0.000 
#
# Total GULP energy -78213.908442 kJ/mol
# GULP energy per Si atom -5586.707746 kJ/mol
# Density = 2.056252 g / cm^3
# Si number density = 20.609433 Si / 1000 Ang^3
#
#
#
# Elastic Constant Matrix: (Units=GPa)
#
#
# Indices 1 2 3 4 5 6 
#
# 1 62.5214 18.7904 43.9774 -0.5620 -4.7735 17.3022
# 2 18.7904 127.8902 49.3810 -18.3785 -3.8352 1.1366
# 3 43.9774 49.3810 120.4763 6.3106 -6.3077 -6.4566
# 4 -0.5620 -18.3785 6.3106 30.7544 3.2869 4.0211
# 5 -4.7735 -3.8352 -6.3077 3.2869 15.6868 -4.6351
# 6 17.3022 1.1366 -6.4566 4.0211 -4.6351 28.2326
#
#
#
# Elastic Compliance Matrix: (Units=1/GPa)
#
#
# Indices 1 2 3 4 5 6 
#
# 1 0.032589 0.002351 -0.014958 0.008943 -0.004954 -0.025574
# 2 0.002351 0.011156 -0.006293 0.008915 -0.002432 -0.004998
# 3 -0.014958 -0.006293 0.018231 -0.010830 0.008388 0.016509
# 4 0.008943 0.008915 -0.010830 0.043880 -0.013613 -0.016801
# 5 -0.004954 -0.002432 0.008388 -0.013613 0.073502 0.019058
# 6 -0.025574 -0.004998 0.016509 -0.016801 0.019058 0.060592
#
#
# Mechanical properties :
#
#
# Convention : Reuss Voigt Hill
#
# Bulk Modulus (GPa) = 41.36244 59.46504 50.41374
# Shear Modulus (GPa) = 17.49416 28.18403 22.83909
#
# Velocity S-wave (km/s) = 2.91665 3.70203 3.33255
# Velocity P-wave (km/s) = 5.60854 6.86944 6.27076
#
# Compressibility (1/GPa) = 0.02417653
#
# Stress axis : x y z
#
# Youngs Moduli (GPa) = 30.68522 89.63606 54.85100
#
# Poissons Ratio (x) = -0.21077 0.82047
# Poissons Ratio (y) = -0.07215 0.34519
# Poissons Ratio (z) = 0.45899 0.56410
#
# Static dielectric constant tensor:
#      x y z
#    x 1.733090 0.017340 -0.022980 
#    y 0.017340 1.708510 0.002990 
#    z -0.022980 0.002990 1.756110 
# 
# From -- ./inp_files/429181.got.cif
#   From: 2010.05.17/outbox.cif.g08.bks.cpg/sg2_215_cif.got.tgz:429181.got - 2010.06.03 11:33:40.
