data_PCOD9011860
_publ_section_title
;
Structure prediction by ZEFSAII (Michael W. Deem and Ramdas Pophale) SiO2 
 PCOD9011860
Probable space group: P -1
;
_chemical_formula_sum "Si O2"
_cell_formula_units_Z 16
_cell_length_a 11.170350
_cell_length_b 8.739728
_cell_length_c 25.546833
_cell_angle_alpha 33.214638
_cell_angle_beta 34.040021
_cell_angle_gamma 46.094060
_cell_volume 764.744739
_symmetry_space_group_name_H-M "P -1"
_symmetry_group_IT_number 2
_symmetry_cell_setting 'triclinic'
loop_
_space_group_symop_operation_xyz
x,y,z
-x,-y,-z
loop_
_atom_site_type_symbol
_atom_site_label
_atom_site_fract_x
_atom_site_fract_y
_atom_site_fract_z
Si Si1 0.221412 0.988538 0.485053
Si Si2 0.929587 0.572903 0.253058
Si Si3 0.332941 0.747425 0.993025
Si Si4 0.802946 0.324279 0.523614
Si Si5 0.620631 0.344897 0.257710
Si Si6 0.551356 0.143042 0.885339
Si Si7 0.957297 0.873192 0.267993
Si Si8 0.410699 0.233192 0.755275
O O1 0.103322 0.750851 0.629304
O O2 0.276917 0.839532 0.452374
O O3 0.430151 0.120945 0.396783
O O4 0.047179 0.227309 0.469422
O O5 0.984165 0.735340 0.240210
O O6 0.708149 0.680104 0.279183
O O7 0.108780 0.634578 0.127375
O O8 0.500000 0.500000 0.000000
O O9 0.430992 0.958512 0.939202
O O10 0.326604 0.931879 0.890209
O O11 0.808634 0.653985 0.416113
O O12 0.660536 0.238558 0.649026
O O13 0.542997 0.546180 0.180238
O O14 0.635484 0.541136 0.247228
O O15 0.838365 0.169876 0.221560
O O16 0.807870 0.124055 0.792195
O O17 0.500000 0.000000 0.000000
#
# Coordination Sequence:
#
# PCOD9011860 Si02
#       8
#     2   2   2   2   2   2   2   2
#     4  10  21  40  69  97 125 169 221 265 317 377
#     4  11  23  42  65  95 129 172 219 262 317 385
#     4  11  25  44  65  92 130 176 211 262 329 386
#     4  10  21  40  67  96 130 169 214 267 320 382
#     4  11  25  42  65 102 131 168 213 267 331 378
#     4  11  24  46  67  96 131 166 223 268 315 384
#     4  11  23  43  70  96 128 171 219 271 316 376
#     4  11  25  42  61  98 135 167 211 265 326 393
#
# _framework density 20.922014000000001
#
# number of rings (size 3 to 8) (size 9 to 14) (size 15 to 20)
#    0.000    1.250    2.500    2.625    1.750    7.000 
#    0.000    0.000    0.000    0.000    0.000    0.000 
#    0.000    0.000    0.000    0.000    0.000    0.000 
#
# Total GULP energy -89409.277835 kJ/mol
# GULP energy per Si atom -5588.079865 kJ/mol
# Density = 2.087439 g / cm^3
# Si number density = 20.922014 Si / 1000 Ang^3
#
#
#
# Elastic Constant Matrix: (Units=GPa)
#
#
# Indices 1 2 3 4 5 6 
#
# 1 39.3888 -6.2625 -0.2486 -10.3865 1.0541 -22.8007
# 2 -6.2625 87.1160 45.8196 -14.0238 5.3907 -32.2620
# 3 -0.2486 45.8196 102.1710 -2.9010 11.4607 -4.6695
# 4 -10.3865 -14.0238 -2.9010 27.7717 -2.6876 3.1576
# 5 1.0541 5.3907 11.4607 -2.6876 31.8840 0.4406
# 6 -22.8007 -32.2620 -4.6695 3.1576 0.4406 20.7244
#
#
#
# Elastic Compliance Matrix: (Units=1/GPa)
#
#
# Indices 1 2 3 4 5 6 
#
# 1 -0.012967 -0.027631 0.009424 -0.011602 0.001473 -0.053420
# 2 -0.027631 -0.008001 0.001190 -0.009411 0.001614 -0.041187
# 3 0.009424 0.001190 0.010488 0.003201 -0.004209 0.014186
# 4 -0.011602 -0.009411 0.003201 0.031213 0.003891 -0.031531
# 5 0.001473 0.001614 -0.004209 0.003891 0.032857 0.001894
# 6 -0.053420 -0.041187 0.014186 -0.031531 0.001894 -0.066676
#
#
# Mechanical properties :
#
#
# Convention : Reuss Voigt Hill
#
# Bulk Modulus (GPa) = -22.46473 34.14365 5.83946
# Shear Modulus (GPa) = 818.52239 28.70050 423.61144
#
# Velocity S-wave (km/s) = 19.80088 3.70778 14.24469
# Velocity P-wave (km/s) = 22.62754 5.88940 16.53316
#
# Compressibility (1/GPa) = -0.04451422
#
# Stress axis : x y z
#
# Youngs Moduli (GPa) = -77.11693 -124.98333 95.34728
#
# Poissons Ratio (x) = -3.45338 -0.89851
# Poissons Ratio (y) = -2.13080 -0.11349
# Poissons Ratio (z) = 0.72672 0.14876
#
# Static dielectric constant tensor:
#      x y z
#    x 1.682440 -0.002700 -0.018380 
#    y -0.002700 1.732940 -0.004450 
#    z -0.018380 -0.004450 1.756130 
# 
# From -- ./inp_files/272320.got.cif
#   From: 2010.05.17/outbox.cif.g08.bks.cpg/sg2_137_cif.got.tgz:272320.got - 2010.06.03 11:33:40.
