data_PCOD9011088
_publ_section_title
;
Structure prediction by ZEFSAII (Michael W. Deem and Ramdas Pophale) SiO2 
 PCOD9011088
Probable space group: P -1
;
_chemical_formula_sum "Si O2"
_cell_formula_units_Z 14
_cell_length_a 13.519118
_cell_length_b 9.135419
_cell_length_c 17.465138
_cell_angle_alpha 59.524216
_cell_angle_beta 148.536809
_cell_angle_gamma 139.968914
_cell_volume 652.140281
_symmetry_space_group_name_H-M "P -1"
_symmetry_group_IT_number 2
_symmetry_cell_setting 'triclinic'
loop_
_space_group_symop_operation_xyz
x,y,z
-x,-y,-z
loop_
_atom_site_type_symbol
_atom_site_label
_atom_site_fract_x
_atom_site_fract_y
_atom_site_fract_z
Si Si1 0.618418 0.372124 0.340006
Si Si2 0.808406 0.118004 0.174434
Si Si3 0.455982 0.321390 0.079766
Si Si4 0.723352 0.814090 0.314656
Si Si5 0.073847 0.556805 0.705205
Si Si6 0.048849 0.807198 0.158534
Si Si7 0.846910 0.396084 0.006429
O O1 0.640651 0.424547 0.250882
O O2 0.585766 0.539738 0.306840
O O3 0.893426 0.476567 0.532815
O O4 0.350438 0.077713 0.260536
O O5 0.963979 0.313543 0.295468
O O6 0.793507 0.913540 0.245626
O O7 0.929689 0.273371 0.135208
O O8 0.500000 0.000000 0.000000
O O9 0.593015 0.255519 0.140671
O O10 0.500000 0.500000 0.000000
O O11 0.153156 0.167412 0.958416
O O12 0.482376 0.790823 0.180364
O O13 0.000000 0.000000 0.500000
O O14 0.952816 0.313364 0.735380
O O15 0.927623 0.601878 0.065608
O O16 0.000000 0.500000 0.000000
#
# Coordination Sequence:
#
# PCOD9011088 Si02
#       7
#     2   2   2   2   2   2   2
#     4  12  22  39  62  93 131 160 198 263 316 363
#     4   9  20  39  64  86 121 166 206 253 297 373
#     4  10  22  39  62  92 121 162 207 251 304 373
#     4  11  22  41  63  89 124 164 206 256 314 360
#     4  10  21  40  65  91 122 163 209 254 312 365
#     4  10  22  42  63  91 127 160 205 258 312 366
#     4  10  22  43  66  91 119 164 210 252 310 373
#
# _framework density 21.467773000000001
#
# number of rings (size 3 to 8) (size 9 to 14) (size 15 to 20)
#    0.000    1.714    2.857    1.286    2.000    2.286 
#    2.571    0.714    0.000    0.000    0.000    0.000 
#    0.000    0.000    0.000    0.000    0.000    0.000 
#
# Total GULP energy -77941.152688 kJ/mol
# GULP energy per Si atom -5567.225192 kJ/mol
# Density = 2.141891 g / cm^3
# Si number density = 21.467773 Si / 1000 Ang^3
#
#
#
# Elastic Constant Matrix: (Units=GPa)
#
#
# Indices 1 2 3 4 5 6 
#
# 1 79.7760 17.1992 35.3624 -12.6912 -6.9828 16.9083
# 2 17.1992 98.0490 42.3062 -12.5483 -0.5687 0.5754
# 3 35.3624 42.3062 141.0311 -19.4812 -12.5221 6.0021
# 4 -12.6912 -12.5483 -19.4812 31.8463 2.2150 -0.6516
# 5 -6.9828 -0.5687 -12.5221 2.2150 34.0689 -6.8655
# 6 16.9083 0.5754 6.0021 -0.6516 -6.8655 16.7970
#
#
#
# Elastic Compliance Matrix: (Units=1/GPa)
#
#
# Indices 1 2 3 4 5 6 
#
# 1 0.018574 -0.001268 -0.002959 0.004811 -0.001224 -0.017910
# 2 -0.001268 0.012067 -0.003127 0.002443 -0.001033 0.001652
# 3 -0.002959 -0.003127 0.009415 0.003174 0.002794 0.000987
# 4 0.004811 0.002443 0.003174 0.036200 -0.001197 -0.005146
# 5 -0.001224 -0.001033 0.002794 -0.001197 0.032948 0.013689
# 6 -0.017910 0.001652 0.000987 -0.005146 0.013689 0.082549
#
#
# Mechanical properties :
#
#
# Convention : Reuss Voigt Hill
#
# Bulk Modulus (GPa) = 39.44771 56.51019 47.97895
# Shear Modulus (GPa) = 23.26547 31.47501 27.37024
#
# Velocity S-wave (km/s) = 3.29559 3.83319 3.57451
# Velocity P-wave (km/s) = 5.73554 6.78023 6.27965
#
# Compressibility (1/GPa) = 0.02535001
#
# Stress axis : x y z
#
# Youngs Moduli (GPa) = 53.83793 82.86780 106.21267
#
# Poissons Ratio (x) = 0.10505 0.31427
# Poissons Ratio (y) = 0.06825 0.33210
# Poissons Ratio (z) = 0.15930 0.25911
#
# Static dielectric constant tensor:
#      x y z
#    x 1.856640 -0.004920 -0.018170 
#    y -0.004920 1.911950 -0.016070 
#    z -0.018170 -0.016070 1.769740 
# 
# From -- ./inp_files/516927.got.cif
#   From: 2010.05.17/outbox.cif.g08.bks.cpg/sg2_259_cif.got.tgz:516927.got - 2010.06.03 11:33:40.
