data_PCOD9011499
_publ_section_title
;
Structure prediction by ZEFSAII (Michael W. Deem and Ramdas Pophale) SiO2 
 PCOD9011499
Probable space group: P -1
;
_chemical_formula_sum "Si O2"
_cell_formula_units_Z 16
_cell_length_a 17.637263
_cell_length_b 17.419912
_cell_length_c 7.809130
_cell_angle_alpha 129.865786
_cell_angle_beta 51.039407
_cell_angle_gamma 157.624551
_cell_volume 695.675740
_symmetry_space_group_name_H-M "P -1"
_symmetry_group_IT_number 2
_symmetry_cell_setting 'triclinic'
loop_
_space_group_symop_operation_xyz
x,y,z
-x,-y,-z
loop_
_atom_site_type_symbol
_atom_site_label
_atom_site_fract_x
_atom_site_fract_y
_atom_site_fract_z
Si Si1 0.801740 0.356744 0.474461
Si Si2 0.666138 0.578805 0.078073
Si Si3 0.350508 0.638143 0.026634
Si Si4 0.004332 0.763450 0.246516
Si Si5 0.684434 0.612606 0.695576
Si Si6 0.488941 0.948073 0.132070
Si Si7 0.924110 0.341856 0.758667
Si Si8 0.087078 0.004240 0.238566
O O1 0.658803 0.295131 0.705594
O O2 0.000000 0.500000 0.500000
O O3 0.890423 0.507309 0.415479
O O4 0.670033 0.151912 0.280583
O O5 0.588326 0.414622 0.064057
O O6 0.659957 0.562032 0.857246
O O7 0.544352 0.568893 0.296291
O O8 0.898382 0.797502 0.103257
O O9 0.469946 0.811537 0.968785
O O10 0.127671 0.423771 0.959898
O O11 0.829826 0.670135 0.463821
O O12 0.113035 0.789307 0.263243
O O13 0.142742 0.958626 0.211786
O O14 0.779491 0.808661 0.809341
O O15 0.269892 0.798018 0.273852
O O16 0.500000 0.000000 0.000000
O O17 0.000000 0.500000 0.000000
O O18 0.000000 0.000000 0.500000
#
# Coordination Sequence:
#
# PCOD9011499 Si02
#       8
#     2   2   2   2   2   2   2   2
#     4  12  24  43  68  91 136 176 218 279 324 385
#     4  10  22  40  65  91 132 162 215 274 327 386
#     4  11  23  41  62  98 126 173 223 268 331 392
#     4  10  21  40  66  93 130 174 219 263 331 390
#     4  10  21  42  65  92 127 172 211 273 328 384
#     4  12  25  42  67  97 133 176 226 266 330 397
#     4  12  22  43  66  94 135 175 215 272 326 388
#     4   9  20  37  62  91 125 164 213 261 322 389
#
# _framework density 22.999220000000001
#
# number of rings (size 3 to 8) (size 9 to 14) (size 15 to 20)
#    0.000    1.250    3.750    1.500    0.000    5.500 
#    2.250   10.000    0.000    0.000    0.000    0.000 
#    0.000    0.000    0.000    0.000    0.000    0.000 
#
# Total GULP energy -89265.120336 kJ/mol
# GULP energy per Si atom -5579.070021 kJ/mol
# Density = 2.294687 g / cm^3
# Si number density = 22.999220 Si / 1000 Ang^3
#
#
#
# Elastic Constant Matrix: (Units=GPa)
#
#
# Indices 1 2 3 4 5 6 
#
# 1 152.9070 43.7425 9.4956 5.4175 -5.2248 -14.7099
# 2 43.7425 82.1618 -2.3474 8.7171 0.4587 -16.4213
# 3 9.4956 -2.3474 30.1031 2.8806 4.1686 -0.0381
# 4 5.4175 8.7171 2.8806 36.9645 -0.6528 3.1191
# 5 -5.2248 0.4587 4.1686 -0.6528 27.8506 -7.0705
# 6 -14.7099 -16.4213 -0.0381 3.1191 -7.0705 51.2518
#
#
#
# Elastic Compliance Matrix: (Units=1/GPa)
#
#
# Indices 1 2 3 4 5 6 
#
# 1 0.008146 -0.004173 -0.003225 -0.000028 0.002418 0.001334
# 2 -0.004173 0.015662 0.002971 -0.003658 -0.000564 0.003967
# 3 -0.003225 0.002971 0.035621 -0.003061 -0.006214 -0.000618
# 4 -0.000028 -0.003658 -0.003061 0.028407 0.000456 -0.002848
# 5 0.002418 -0.000564 -0.006214 0.000456 0.038790 0.005832
# 6 0.001334 0.003967 -0.000618 -0.002848 0.005832 0.022143
#
#
# Mechanical properties :
#
#
# Convention : Reuss Voigt Hill
#
# Bulk Modulus (GPa) = 19.77313 40.77260 30.27286
# Shear Modulus (GPa) = 28.65634 37.49880 33.07757
#
# Velocity S-wave (km/s) = 3.53366 4.04225 3.79648
# Velocity P-wave (km/s) = 5.02643 6.28909 5.69287
#
# Compressibility (1/GPa) = 0.05057369
#
# Stress axis : x y z
#
# Youngs Moduli (GPa) = 122.76131 63.84951 28.07343
#
# Poissons Ratio (x) = 0.26644 0.09054
# Poissons Ratio (y) = 0.51227 -0.08340
# Poissons Ratio (z) = 0.39594 -0.18968
#
# Static dielectric constant tensor:
#      x y z
#    x 1.924600 -0.016220 0.027620 
#    y -0.016220 1.979220 -0.065750 
#    z 0.027620 -0.065750 1.922020 
# 
# From -- ./inp_files/336763.got.cif
#   From: 2010.05.17/outbox.cif.g08.bks.cpg/sg2_169_cif.got.tgz:336763.got - 2010.06.03 11:33:40.
