data_PCOD9011626
_publ_section_title
;
Structure prediction by ZEFSAII (Michael W. Deem and Ramdas Pophale) SiO2 
 PCOD9011626
Probable space group: P -1
;
_chemical_formula_sum "Si O2"
_cell_formula_units_Z 16
_cell_length_a 14.719358
_cell_length_b 13.612311
_cell_length_c 9.066179
_cell_angle_alpha 106.351538
_cell_angle_beta 94.978453
_cell_angle_gamma 149.699419
_cell_volume 643.729871
_symmetry_space_group_name_H-M "P -1"
_symmetry_group_IT_number 2
_symmetry_cell_setting 'triclinic'
loop_
_space_group_symop_operation_xyz
x,y,z
-x,-y,-z
loop_
_atom_site_type_symbol
_atom_site_label
_atom_site_fract_x
_atom_site_fract_y
_atom_site_fract_z
Si Si1 0.133198 0.923959 0.761213
Si Si2 0.958908 0.558808 0.426497
Si Si3 0.815214 0.724298 0.192423
Si Si4 0.458870 0.078393 0.533442
Si Si5 0.616554 0.835301 0.655855
Si Si6 0.129183 0.322529 0.094185
Si Si7 0.389260 0.661485 0.835724
Si Si8 0.692068 0.767243 0.373469
O O1 0.952672 0.644272 0.576621
O O2 0.211258 0.065480 0.684072
O O3 0.986985 0.830847 0.829683
O O4 0.364222 0.102287 0.937107
O O5 0.000000 0.500000 0.500000
O O6 0.713696 0.331268 0.202202
O O7 0.209328 0.835009 0.487124
O O8 0.758695 0.650935 0.981260
O O9 0.811734 0.607321 0.211239
O O10 0.621050 0.589277 0.200546
O O11 0.086830 0.044596 0.407720
O O12 0.398161 0.064177 0.361343
O O13 0.500000 0.000000 0.500000
O O14 0.689153 0.388899 0.752818
O O15 0.434973 0.643236 0.686474
O O16 0.563118 0.705947 0.452487
O O17 0.883327 0.093714 0.870585
#
# Coordination Sequence:
#
# PCOD9011626 Si02
#       8
#     2   2   2   2   2   2   2   2
#     4  11  22  42  66  96 135 175 223 273 332 394
#     4  12  24  43  67  96 132 170 221 273 337 397
#     4  10  21  40  66  97 136 180 224 273 334 389
#     4  12  24  42  69  97 128 173 220 272 340 394
#     4  10  22  43  64  95 136 173 222 274 328 393
#     4  10  23  42  65  96 135 174 218 280 326 394
#     4  11  23  41  66  95 135 176 217 281 326 396
#     4  10  21  41  67  96 133 185 223 273 331 393
#
# _framework density 24.855145
#
# number of rings (size 3 to 8) (size 9 to 14) (size 15 to 20)
#    0.000    1.250    2.500    3.750    0.000    2.500 
#    0.000    2.500    0.000    0.000    0.000    0.000 
#    0.000    0.000    0.000    0.000    0.000    0.000 
#
# Total GULP energy -89231.364405 kJ/mol
# GULP energy per Si atom -5576.960275 kJ/mol
# Density = 2.479857 g / cm^3
# Si number density = 24.855145 Si / 1000 Ang^3
#
#
#
# Elastic Constant Matrix: (Units=GPa)
#
#
# Indices 1 2 3 4 5 6 
#
# 1 124.9885 21.0915 18.0598 -8.0053 15.9027 8.8537
# 2 21.0915 121.7207 25.3541 -24.8232 2.4091 21.1153
# 3 18.0598 25.3541 103.8474 -7.6502 6.5983 11.5542
# 4 -8.0053 -24.8232 -7.6502 40.6917 6.2430 1.4022
# 5 15.9027 2.4091 6.5983 6.2430 38.0146 -5.1012
# 6 8.8537 21.1153 11.5542 1.4022 -5.1012 44.0371
#
#
#
# Elastic Compliance Matrix: (Units=1/GPa)
#
#
# Indices 1 2 3 4 5 6 
#
# 1 0.009003 -0.000586 -0.000806 0.001965 -0.004162 -0.001862
# 2 -0.000586 0.010929 -0.001357 0.006787 -0.002027 -0.005217
# 3 -0.000806 -0.001357 0.010574 0.001375 -0.001937 -0.002230
# 4 0.001965 0.006787 0.001375 0.030684 -0.007313 -0.005835
# 5 -0.004162 -0.002027 -0.001937 -0.007313 0.030529 0.006086
# 6 -0.001862 -0.005217 -0.002230 -0.005835 0.006086 0.027060
#
#
# Mechanical properties :
#
#
# Convention : Reuss Voigt Hill
#
# Bulk Modulus (GPa) = 39.98845 53.28527 46.63686
# Shear Modulus (GPa) = 37.70360 43.61878 40.66119
#
# Velocity S-wave (km/s) = 3.89901 4.19372 4.04905
# Velocity P-wave (km/s) = 6.03268 6.70333 6.37683
#
# Compressibility (1/GPa) = 0.02500722
#
# Stress axis : x y z
#
# Youngs Moduli (GPa) = 111.06884 91.49848 94.57580
#
# Poissons Ratio (x) = 0.05362 0.07626
# Poissons Ratio (y) = 0.06509 0.12835
# Poissons Ratio (z) = 0.08956 0.12418
#
# Static dielectric constant tensor:
#      x y z
#    x 2.064820 0.082540 0.089820 
#    y 0.082540 2.039860 0.031420 
#    z 0.089820 0.031420 2.199050 
# 
# From -- ./inp_files/315651.got.cif
#   From: 2010.05.17/outbox.cif.g08.bks.cpg/sg2_158_cif.got.tgz:315651.got - 2010.06.03 11:33:40.
