data_PCOD9011681
_publ_section_title
;
Structure prediction by ZEFSAII (Michael W. Deem and Ramdas Pophale) SiO2 
 PCOD9011681
Probable space group: P -1
;
_chemical_formula_sum "Si O2"
_cell_formula_units_Z 13
_cell_length_a 13.222284
_cell_length_b 9.123393
_cell_length_c 11.861273
_cell_angle_alpha 52.777534
_cell_angle_beta 43.026787
_cell_angle_gamma 31.193552
_cell_volume 504.823735
_symmetry_space_group_name_H-M "P -1"
_symmetry_group_IT_number 2
_symmetry_cell_setting 'triclinic'
loop_
_space_group_symop_operation_xyz
x,y,z
-x,-y,-z
loop_
_atom_site_type_symbol
_atom_site_label
_atom_site_fract_x
_atom_site_fract_y
_atom_site_fract_z
Si Si1 0.259826 0.104558 0.519047
Si Si2 0.083788 0.525168 0.031223
Si Si3 0.000000 0.000000 0.500000
Si Si4 0.314021 0.749526 0.157128
Si Si5 0.887850 0.111372 0.163676
Si Si6 0.416894 0.869709 0.817293
Si Si7 0.929830 0.681529 0.655266
O O1 0.442562 0.093630 0.363480
O O2 0.219239 0.085818 0.430380
O O3 0.281796 0.893643 0.665627
O O4 0.051338 0.403395 0.614510
O O5 0.180962 0.307259 0.151294
O O6 0.841173 0.828556 0.134595
O O7 0.000000 0.500000 0.000000
O O8 0.218985 0.585443 0.871171
O O9 0.091959 0.696148 0.552318
O O10 0.200248 0.886276 0.305759
O O11 0.097860 0.898312 0.182222
O O12 0.487680 0.415592 0.170187
O O13 0.424221 0.820520 0.969858
O O14 0.000000 0.000000 0.000000
#
# Coordination Sequence:
#
# PCOD9011681 Si02
#       7
#     2   2   1   2   2   2   2
#     4  11  21  41  66 101 126 173 223 270 325 392
#     4  11  25  44  67  96 132 177 221 273 332 394
#     4  12  20  40  68 100 128 176 214 268 324 410
#     4  10  21  40  67 100 131 179 217 264 332 400
#     4  11  21  41  69  96 130 178 223 263 327 408
#     4  10  22  42  66  97 137 167 227 274 320 393
#     4  11  22  38  71  93 133 175 221 259 336 401
#
# _framework density 25.751560999999999
#
# number of rings (size 3 to 8) (size 9 to 14) (size 15 to 20)
#    0.000    1.231    4.615    2.769    0.000    0.615 
#    0.000    3.846    0.000    0.000    0.000    0.000 
#    0.000    0.000    0.000    0.000    0.000    0.000 
#
# Total GULP energy -72370.072560 kJ/mol
# GULP energy per Si atom -5566.928658 kJ/mol
# Density = 2.569295 g / cm^3
# Si number density = 25.751561 Si / 1000 Ang^3
#
#
#
# Elastic Constant Matrix: (Units=GPa)
#
#
# Indices 1 2 3 4 5 6 
#
# 1 54.7265 16.2633 59.9726 -15.5128 12.7642 13.5348
# 2 16.2633 60.9098 56.3310 -12.8338 11.0897 13.9223
# 3 59.9726 56.3310 183.2822 -47.1557 5.0536 28.1859
# 4 -15.5128 -12.8338 -47.1557 54.7239 10.3299 -4.5832
# 5 12.7642 11.0897 5.0536 10.3299 44.7156 -5.2493
# 6 13.5348 13.9223 28.1859 -4.5832 -5.2493 35.9419
#
#
#
# Elastic Compliance Matrix: (Units=1/GPa)
#
#
# Indices 1 2 3 4 5 6 
#
# 1 0.033350 0.004950 -0.010029 0.003456 -0.011331 -0.007826
# 2 0.004950 0.025681 -0.007856 0.001621 -0.008046 -0.006620
# 3 -0.010029 -0.007856 0.013021 0.006021 0.001669 -0.002380
# 4 0.003456 0.001621 0.006021 0.026066 -0.008629 -0.004587
# 5 -0.011331 -0.008046 0.001669 -0.008629 0.030505 0.009430
# 6 -0.007826 -0.006620 -0.002380 -0.004587 0.009430 0.035993
#
#
# Mechanical properties :
#
#
# Convention : Reuss Voigt Hill
#
# Bulk Modulus (GPa) = 21.65300 62.67249 42.16274
# Shear Modulus (GPa) = 24.28618 38.16637 31.22627
#
# Velocity S-wave (km/s) = 3.07432 3.85398 3.48601
# Velocity P-wave (km/s) = 4.58569 6.64789 5.71065
#
# Compressibility (1/GPa) = 0.04618298
#
# Stress axis : x y z
#
# Youngs Moduli (GPa) = 29.98519 38.93985 76.79826
#
# Poissons Ratio (x) = -0.19277 0.77020
# Poissons Ratio (y) = -0.14844 0.60331
# Poissons Ratio (z) = 0.30072 0.30590
#
# Static dielectric constant tensor:
#      x y z
#    x 2.202010 0.019060 -0.025560 
#    y 0.019060 2.074560 -0.060020 
#    z -0.025560 -0.060020 2.068030 
# 
# From -- ./inp_files/443993.got.cif
#   From: 2010.05.17/outbox.cif.g08.bks.cpg/sg2_222_cif.got.tgz:443993.got - 2010.06.03 11:33:40.
