data_PCOD9011341
_publ_section_title
;
Structure prediction by ZEFSAII (Michael W. Deem and Ramdas Pophale) SiO2 
 PCOD9011341
Probable space group: P -1
;
_chemical_formula_sum "Si O2"
_cell_formula_units_Z 15
_cell_length_a 21.535544
_cell_length_b 5.397902
_cell_length_c 5.287707
_cell_angle_alpha 92.997226
_cell_angle_beta 117.517687
_cell_angle_gamma 84.559455
_cell_volume 542.658268
_symmetry_space_group_name_H-M "P -1"
_symmetry_group_IT_number 2
_symmetry_cell_setting 'triclinic'
loop_
_space_group_symop_operation_xyz
x,y,z
-x,-y,-z
loop_
_atom_site_type_symbol
_atom_site_label
_atom_site_fract_x
_atom_site_fract_y
_atom_site_fract_z
Si Si1 0.870673 0.658807 0.962401
Si Si2 0.686927 0.878463 0.434819
Si Si3 0.404411 0.122421 0.243582
Si Si4 0.169780 0.809762 0.836630
Si Si5 0.719125 0.356556 0.375563
Si Si6 0.442831 0.599000 0.100899
Si Si7 0.063946 0.042821 0.305672
Si Si8 0.000000 0.500000 0.500000
O O1 0.839167 0.400971 0.982022
O O2 0.951054 0.550543 0.155340
O O3 0.838511 0.898697 0.083127
O O4 0.877624 0.801233 0.715815
O O5 0.627691 0.891835 0.539637
O O6 0.734049 0.622621 0.525205
O O7 0.727939 0.120873 0.561125
O O8 0.655597 0.874314 0.090081
O O9 0.436859 0.384738 0.285297
O O10 0.451377 0.873193 0.239727
O O11 0.238668 0.719998 0.800476
O O12 0.104395 0.803218 0.508844
O O13 0.634451 0.382278 0.173275
O O14 0.500000 0.500000 0.000000
O O15 0.029104 0.225814 0.452854
O O16 0.000000 0.000000 0.000000
#
# Coordination Sequence:
#
# PCOD9011341 Si02
#       8
#     2   2   2   2   2   2   2   1
#     4  11  23  42  69 102 134 185 231 284 356 419
#     4  10  21  42  68  95 135 182 229 291 354 427
#     4  10  21  40  65  99 132 177 229 289 357 426
#     4  11  25  45  66 101 142 180 238 294 345 433
#     4  10  22  44  65  95 136 179 228 289 356 416
#     4  10  21  41  68 100 135 179 232 291 352 424
#     4  11  24  45  72 107 138 191 233 296 364 424
#     4  10  22  42  72  94 150 168 234 294 346 426
#
# _framework density 27.641705999999999
#
# number of rings (size 3 to 8) (size 9 to 14) (size 15 to 20)
#    0.000    1.600    0.000    4.000    0.000    5.333 
#   14.400   18.000    2.933    0.000    0.000    0.000 
#    0.000    0.000    0.000    0.000    0.000    0.000 
#
# Total GULP energy -83765.732994 kJ/mol
# GULP energy per Si atom -5584.382200 kJ/mol
# Density = 2.757879 g / cm^3
# Si number density = 27.641706 Si / 1000 Ang^3
#
#
#
# Elastic Constant Matrix: (Units=GPa)
#
#
# Indices 1 2 3 4 5 6 
#
# 1 138.5664 58.9550 29.5389 3.7187 -17.8589 0.6229
# 2 58.9550 255.2576 26.3836 2.5218 -5.9866 5.9893
# 3 29.5389 26.3836 72.2357 -14.1523 11.6958 -11.7751
# 4 3.7187 2.5218 -14.1523 58.5151 -13.9494 6.2161
# 5 -17.8589 -5.9866 11.6958 -13.9494 50.6185 -10.4621
# 6 0.6229 5.9893 -11.7751 6.2161 -10.4621 56.8380
#
#
#
# Elastic Compliance Matrix: (Units=1/GPa)
#
#
# Indices 1 2 3 4 5 6 
#
# 1 0.009256 -0.001639 -0.003910 -0.000554 0.003828 0.000026
# 2 -0.001639 0.004428 -0.001108 -0.000289 -0.000012 -0.000649
# 3 -0.003910 -0.001108 0.017595 0.003285 -0.004115 0.002688
# 4 -0.000554 -0.000289 0.003285 0.018977 0.004117 -0.000601
# 5 0.003828 -0.000012 -0.004115 0.004117 0.023819 0.003041
# 6 0.000026 -0.000649 0.002688 -0.000601 0.003041 0.018844
#
#
# Mechanical properties :
#
#
# Convention : Reuss Voigt Hill
#
# Bulk Modulus (GPa) = 55.66119 77.31274 66.48697
# Shear Modulus (GPa) = 44.55478 56.60647 50.58063
#
# Velocity S-wave (km/s) = 4.01916 4.53024 4.28233
# Velocity P-wave (km/s) = 6.45900 7.44275 6.96825
#
# Compressibility (1/GPa) = 0.01796584
#
# Stress axis : x y z
#
# Youngs Moduli (GPa) = 108.04091 225.81466 56.83374
#
# Poissons Ratio (x) = 0.37010 0.22223
# Poissons Ratio (y) = 0.17707 0.06295
# Poissons Ratio (z) = 0.42247 0.25011
#
# Static dielectric constant tensor:
#      x y z
#    x 2.386060 0.137660 0.196630 
#    y 0.137660 2.173550 0.033360 
#    z 0.196630 0.033360 2.268660 
# 
# From -- ./inp_files/114673.got.cif
#   From: 2010.05.17/outbox.cif.g08.bks.cpg/sg2_58_cif.got.tgz:114673.got - 2010.06.03 11:33:40.
