data_PCOD9011446
_publ_section_title
;
Structure prediction by ZEFSAII (Michael W. Deem and Ramdas Pophale) SiO2 
 PCOD9011446
Probable space group: P -1
;
_chemical_formula_sum "Si O2"
_cell_formula_units_Z 16
_cell_length_a 12.266381
_cell_length_b 9.696827
_cell_length_c 10.073034
_cell_angle_alpha 118.948448
_cell_angle_beta 108.410984
_cell_angle_gamma 109.193630
_cell_volume 810.292840
_symmetry_space_group_name_H-M "P -1"
_symmetry_group_IT_number 2
_symmetry_cell_setting 'triclinic'
loop_
_space_group_symop_operation_xyz
x,y,z
-x,-y,-z
loop_
_atom_site_type_symbol
_atom_site_label
_atom_site_fract_x
_atom_site_fract_y
_atom_site_fract_z
Si Si1 0.875803 0.760718 0.696475
Si Si2 0.883586 0.403661 0.526422
Si Si3 0.970154 0.602654 0.149966
Si Si4 0.797707 0.886825 0.970465
Si Si5 0.602885 0.756765 0.225231
Si Si6 0.890479 0.973422 0.557429
Si Si7 0.627581 0.003336 0.110480
Si Si8 0.689999 0.544823 0.981353
O O1 0.843538 0.552783 0.610472
O O2 0.852179 0.797836 0.554930
O O3 0.791627 0.806193 0.785490
O O4 0.042453 0.925399 0.860297
O O5 0.749834 0.202508 0.323017
O O6 0.000000 0.500000 0.500000
O O7 0.957922 0.389912 0.679730
O O8 0.802969 0.503490 0.045847
O O9 0.035067 0.825132 0.242577
O O10 0.000000 0.500000 0.000000
O O11 0.756734 0.715625 0.978322
O O12 0.698989 0.954549 0.000372
O O13 0.650610 0.622556 0.128502
O O14 0.746253 0.929855 0.426239
O O15 0.571452 0.837870 0.123070
O O16 0.463425 0.640505 0.206308
O O17 0.000000 0.000000 0.500000
O O18 0.500000 0.000000 0.000000
#
# Coordination Sequence:
#
# PCOD9011446 Si02
#       8
#     2   2   2   2   2   2   2   2
#     4  11  23  38  69  95 131 173 218 269 336 385
#     4  12  25  40  66 103 131 167 224 277 323 389
#     4  12  25  41  67  98 135 169 220 279 333 381
#     4  10  21  42  63  96 130 173 218 271 327 403
#     4  10  22  39  66  95 123 173 222 265 322 389
#     4  12  21  43  68  95 127 174 229 269 313 402
#     4  11  24  43  65  96 135 171 217 277 334 389
#     4  10  21  40  66  91 128 168 219 269 323 390
#
# _framework density 19.745946
#
# number of rings (size 3 to 8) (size 9 to 14) (size 15 to 20)
#    0.000    1.000    5.000    2.250    3.500    2.000 
#    0.000    4.375    0.000    0.000    0.000    0.000 
#    0.000    0.000    0.000    0.000    0.000    0.000 
#
# Total GULP energy -89333.698320 kJ/mol
# GULP energy per Si atom -5583.356145 kJ/mol
# Density = 1.970100 g / cm^3
# Si number density = 19.745946 Si / 1000 Ang^3
#
#
#
# Elastic Constant Matrix: (Units=GPa)
#
#
# Indices 1 2 3 4 5 6 
#
# 1 151.8789 54.5512 72.9823 -1.7252 8.9038 -13.2473
# 2 54.5512 79.3240 30.6658 3.7447 4.3784 -8.7211
# 3 72.9823 30.6658 84.1538 1.0682 7.8345 -1.2820
# 4 -1.7252 3.7447 1.0682 33.4390 -6.1738 7.7379
# 5 8.9038 4.3784 7.8345 -6.1738 33.0467 0.8693
# 6 -13.2473 -8.7211 -1.2820 7.7379 0.8693 28.4706
#
#
#
# Elastic Compliance Matrix: (Units=1/GPa)
#
#
# Indices 1 2 3 4 5 6 
#
# 1 0.013480 -0.005031 -0.009736 0.000477 -0.000678 0.004184
# 2 -0.005031 0.017391 -0.001758 -0.003267 -0.001243 0.003833
# 3 -0.009736 -0.001758 0.021112 -0.000465 -0.002132 -0.003927
# 4 0.000477 -0.003267 -0.000465 0.033981 0.007033 -0.010250
# 5 -0.000678 -0.001243 -0.002132 0.007033 0.032524 -0.003697
# 6 0.004184 0.003833 -0.003927 -0.010250 -0.003697 0.040967
#
#
# Mechanical properties :
#
#
# Convention : Reuss Voigt Hill
#
# Bulk Modulus (GPa) = 52.82322 70.19504 61.50913
# Shear Modulus (GPa) = 25.14886 29.46842 27.30864
#
# Velocity S-wave (km/s) = 3.57266 3.86732 3.72291
# Velocity P-wave (km/s) = 6.62027 7.45438 7.04967
#
# Compressibility (1/GPa) = 0.01893107
#
# Stress axis : x y z
#
# Youngs Moduli (GPa) = 74.18396 57.50264 47.36631
#
# Poissons Ratio (x) = 0.28932 0.46117
# Poissons Ratio (y) = 0.37325 0.08327
# Poissons Ratio (z) = 0.72228 0.10110
#
# Static dielectric constant tensor:
#      x y z
#    x 1.689260 -0.007010 0.032650 
#    y -0.007010 1.727310 0.027670 
#    z 0.032650 0.027670 1.783380 
# 
# From -- ./inp_files/245137.got.cif
#   From: 2010.05.17/outbox.cif.g08.bks.cpg/sg2_123_cif.got.tgz:245137.got - 2010.06.03 11:33:40.
