data_PCOD9011368
_publ_section_title
;
Structure prediction by ZEFSAII (Michael W. Deem and Ramdas Pophale) SiO2 
 PCOD9011368
Probable space group: P -1
;
_chemical_formula_sum "Si O2"
_cell_formula_units_Z 14
_cell_length_a 16.058221
_cell_length_b 10.767135
_cell_length_c 7.623096
_cell_angle_alpha 120.510964
_cell_angle_beta 37.401535
_cell_angle_gamma 131.369285
_cell_volume 600.369488
_symmetry_space_group_name_H-M "P -1"
_symmetry_group_IT_number 2
_symmetry_cell_setting 'triclinic'
loop_
_space_group_symop_operation_xyz
x,y,z
-x,-y,-z
loop_
_atom_site_type_symbol
_atom_site_label
_atom_site_fract_x
_atom_site_fract_y
_atom_site_fract_z
Si Si1 0.226667 0.592206 0.311681
Si Si2 0.304616 0.501211 0.447696
Si Si3 0.340105 0.955307 0.334420
Si Si4 0.003165 0.856002 0.781903
Si Si5 0.564318 0.872337 0.351843
Si Si6 0.168860 0.153368 0.280138
Si Si7 0.898875 0.520589 0.916112
O O1 0.320525 0.535268 0.236811
O O2 0.288973 0.781530 0.390802
O O3 0.231840 0.583329 0.087636
O O4 0.044720 0.490621 0.608635
O O5 0.452145 0.672621 0.389533
O O6 0.249232 0.305074 0.394003
O O7 0.167017 0.505990 0.797882
O O8 0.183756 0.920503 0.464926
O O9 0.375199 0.086601 0.521027
O O10 0.500000 0.000000 0.000000
O O11 0.879038 0.795175 0.788035
O O12 0.958182 0.706708 0.885491
O O13 0.000000 0.000000 0.000000
O O14 0.500000 0.000000 0.500000
O O15 0.708770 0.909407 0.010424
O O16 0.000000 0.000000 0.500000
#
# Coordination Sequence:
#
# PCOD9011368 Si02
#       7
#     2   2   2   2   2   2   2
#     4  10  21  40  66 101 144 180 240 291 349 427
#     4  12  24  44  73 104 144 188 239 293 366 421
#     4  11  24  43  70 104 141 189 236 291 363 421
#     4  11  22  44  70  96 142 182 242 298 341 426
#     4  12  27  48  70 104 151 186 237 301 357 434
#     4  12  28  47  74 106 142 193 242 298 364 423
#     4  10  22  40  65 102 138 187 232 295 355 422
#
# _framework density 23.318971999999999
#
# number of rings (size 3 to 8) (size 9 to 14) (size 15 to 20)
#    0.000    0.857    4.286    2.571    4.000    1.143 
#    0.000    0.714    0.000    0.000    0.000    0.000 
#    0.000    0.000    0.000    0.000    0.000    0.000 
#
# Total GULP energy -78058.280299 kJ/mol
# GULP energy per Si atom -5575.591450 kJ/mol
# Density = 2.326590 g / cm^3
# Si number density = 23.318972 Si / 1000 Ang^3
#
#
#
# Elastic Constant Matrix: (Units=GPa)
#
#
# Indices 1 2 3 4 5 6 
#
# 1 49.4306 20.3222 2.3804 1.3192 4.7828 18.9428
# 2 20.3222 150.4555 37.2654 6.7890 -8.0126 36.3116
# 3 2.3804 37.2654 133.3954 -0.3394 -8.9546 8.7503
# 4 1.3192 6.7890 -0.3394 36.4803 1.9916 4.5729
# 5 4.7828 -8.0126 -8.9546 1.9916 29.8033 7.2377
# 6 18.9428 36.3116 8.7503 4.5729 7.2377 37.8669
#
#
#
# Elastic Compliance Matrix: (Units=1/GPa)
#
#
# Indices 1 2 3 4 5 6 
#
# 1 0.025149 -0.000766 0.000454 0.000787 -0.001293 -0.011799
# 2 -0.000766 0.009710 -0.001791 -0.000880 0.004505 -0.009269
# 3 0.000454 -0.001791 0.008185 0.000385 0.002085 -0.000847
# 4 0.000787 -0.000880 0.000385 0.027974 -0.001451 -0.002740
# 5 -0.001293 0.004505 0.002085 -0.001451 0.038446 -0.011329
# 6 -0.011799 -0.009269 -0.000847 -0.002740 -0.011329 0.043891
#
#
# Mechanical properties :
#
#
# Convention : Reuss Voigt Hill
#
# Bulk Modulus (GPa) = 25.74693 50.35749 38.05221
# Shear Modulus (GPa) = 29.32429 39.05100 34.18764
#
# Velocity S-wave (km/s) = 3.55001 4.09668 3.83311
# Velocity P-wave (km/s) = 5.27907 6.63468 5.99532
#
# Compressibility (1/GPa) = 0.03883958
#
# Stress axis : x y z
#
# Youngs Moduli (GPa) = 39.76265 102.98423 122.17290
#
# Poissons Ratio (x) = 0.07891 -0.05553
# Poissons Ratio (y) = 0.03047 0.21878
# Poissons Ratio (z) = -0.01807 0.18442
#
# Static dielectric constant tensor:
#      x y z
#    x 1.981010 -0.008630 -0.036040 
#    y -0.008630 1.968750 -0.014630 
#    z -0.036040 -0.014630 1.865630 
# 
# From -- ./inp_files/238635.got.cif
#   From: 2010.05.17/outbox.cif.g08.bks.cpg/sg2_120_cif.got.tgz:238635.got - 2010.06.03 11:33:40.
