data_PCOD9011773
_publ_section_title
;
Structure prediction by ZEFSAII (Michael W. Deem and Ramdas Pophale) SiO2 
 PCOD9011773
Probable space group: P -1
;
_chemical_formula_sum "Si O2"
_cell_formula_units_Z 16
_cell_length_a 16.479192
_cell_length_b 13.725169
_cell_length_c 16.148930
_cell_angle_alpha 125.005866
_cell_angle_beta 142.941984
_cell_angle_gamma 26.587868
_cell_volume 842.104512
_symmetry_space_group_name_H-M "P -1"
_symmetry_group_IT_number 2
_symmetry_cell_setting 'triclinic'
loop_
_space_group_symop_operation_xyz
x,y,z
-x,-y,-z
loop_
_atom_site_type_symbol
_atom_site_label
_atom_site_fract_x
_atom_site_fract_y
_atom_site_fract_z
Si Si1 0.719772 0.233977 0.010614
Si Si2 0.779154 0.751672 0.388394
Si Si3 0.104448 0.609049 0.436851
Si Si4 0.729422 0.980902 0.985350
Si Si5 0.656472 0.005445 0.125157
Si Si6 0.842241 0.411573 0.997693
Si Si7 0.669645 0.270684 0.800414
Si Si8 0.672810 0.826574 0.637102
O O1 0.500000 0.500000 0.000000
O O2 0.730859 0.117069 0.026588
O O3 0.621649 0.267591 0.855085
O O4 0.051388 0.010559 0.150933
O O5 0.580919 0.827321 0.202375
O O6 0.000000 0.500000 0.500000
O O7 0.949288 0.708791 0.447167
O O8 0.553779 0.989228 0.382532
O O9 0.388213 0.464410 0.613076
O O10 0.200288 0.403528 0.383603
O O11 0.888165 0.831112 0.301740
O O12 0.786353 0.914914 0.095174
O O13 0.974572 0.729851 0.006533
O O14 0.422980 0.292366 0.080452
O O15 0.500000 0.000000 0.000000
O O16 0.065954 0.286451 0.186962
O O17 0.743373 0.353650 0.904898
O O18 0.500000 0.000000 0.500000
#
# Coordination Sequence:
#
# PCOD9011773 Si02
#       8
#     2   2   2   2   2   2   2   2
#     4  10  21  40  67  92 129 170 209 252 320 391
#     4  11  21  36  60  91 128 159 204 262 323 370
#     4  12  25  41  60  99 127 165 214 265 315 375
#     4  10  22  39  62  92 121 169 215 260 312 373
#     4  12  23  42  66  89 126 171 221 258 309 384
#     4  10  23  44  63  91 126 172 209 261 321 374
#     4  10  24  41  63  96 132 165 207 262 327 378
#     4  11  23  37  65  93 128 161 208 270 319 370
#
# _framework density 19.000015999999999
#
# number of rings (size 3 to 8) (size 9 to 14) (size 15 to 20)
#    0.000    1.250    3.750    1.500    5.250    4.000 
#    0.000    2.500    0.000    0.000    0.000    0.000 
#    0.000    0.000    0.000    0.000    0.000    0.000 
#
# Total GULP energy -89402.489335 kJ/mol
# GULP energy per Si atom -5587.655583 kJ/mol
# Density = 1.895677 g / cm^3
# Si number density = 19.000016 Si / 1000 Ang^3
#
#
#
# Elastic Constant Matrix: (Units=GPa)
#
#
# Indices 1 2 3 4 5 6 
#
# 1 104.8450 26.2887 52.1725 0.2781 -16.8461 -0.3566
# 2 26.2887 63.6319 18.1501 3.5983 -4.7825 -9.1278
# 3 52.1725 18.1501 149.8953 -10.6404 -9.6059 -1.2985
# 4 0.2781 3.5983 -10.6404 22.0242 9.3057 0.2152
# 5 -16.8461 -4.7825 -9.6059 9.3057 32.6946 -1.7665
# 6 -0.3566 -9.1278 -1.2985 0.2152 -1.7665 22.4150
#
#
#
# Elastic Compliance Matrix: (Units=1/GPa)
#
#
# Indices 1 2 3 4 5 6 
#
# 1 0.013616 -0.003868 -0.004172 -0.004238 0.006373 -0.001057
# 2 -0.003868 0.019191 -0.001095 -0.004640 0.002241 0.007911
# 3 -0.004172 -0.001095 0.008523 0.004856 -0.001197 -0.000159
# 4 -0.004238 -0.004640 0.004856 0.056024 -0.017576 -0.003599
# 5 0.006373 0.002241 -0.001197 -0.017576 0.039075 0.004193
# 6 -0.001057 0.007911 -0.000159 -0.003599 0.004193 0.048173
#
#
# Mechanical properties :
#
#
# Convention : Reuss Voigt Hill
#
# Bulk Modulus (GPa) = 43.36594 56.84388 50.10491
# Shear Modulus (GPa) = 23.74640 30.21082 26.97861
#
# Velocity S-wave (km/s) = 3.53910 3.99186 3.77228
# Velocity P-wave (km/s) = 6.29079 7.15747 6.73808
#
# Compressibility (1/GPa) = 0.02305957
#
# Stress axis : x y z
#
# Youngs Moduli (GPa) = 73.44524 52.10709 117.33333
#
# Poissons Ratio (x) = 0.20155 0.48955
# Poissons Ratio (y) = 0.28409 0.12844
# Poissons Ratio (z) = 0.30643 0.05704
#
# Static dielectric constant tensor:
#      x y z
#    x 1.507870 0.080470 0.095890 
#    y 0.080470 1.593340 -0.049380 
#    z 0.095890 -0.049380 1.610160 
# 
# From -- ./inp_files/464693.got.cif
#   From: 2010.05.17/outbox.cif.g08.bks.cpg/sg2_233_cif.got.tgz:464693.got - 2010.06.03 11:33:40.
