data_PCOD9011892
_publ_section_title
;
Structure prediction by ZEFSAII (Michael W. Deem and Ramdas Pophale) SiO2 
 PCOD9011892
Probable space group: P -1
;
_chemical_formula_sum "Si O2"
_cell_formula_units_Z 16
_cell_length_a 29.934678
_cell_length_b 5.363494
_cell_length_c 5.182782
_cell_angle_alpha 100.406143
_cell_angle_beta 126.949070
_cell_angle_gamma 95.053994
_cell_volume 633.262324
_symmetry_space_group_name_H-M "P -1"
_symmetry_group_IT_number 2
_symmetry_cell_setting 'triclinic'
loop_
_space_group_symop_operation_xyz
x,y,z
-x,-y,-z
loop_
_atom_site_type_symbol
_atom_site_label
_atom_site_fract_x
_atom_site_fract_y
_atom_site_fract_z
Si Si1 0.267577 0.338189 0.696661
Si Si2 0.039264 0.897170 0.411042
Si Si3 0.433379 0.924397 0.685465
Si Si4 0.065827 0.393400 0.339080
Si Si5 0.171390 0.593134 0.411873
Si Si6 0.623272 0.657467 0.631354
Si Si7 0.338135 0.698271 0.655210
Si Si8 0.771974 0.152072 0.867415
O O1 0.207640 0.386817 0.589941
O O2 0.305699 0.625079 0.794968
O O3 0.247813 0.142697 0.354499
O O4 0.314815 0.234939 0.999792
O O5 0.065106 0.656690 0.542853
O O6 0.998223 0.753210 0.008159
O O7 0.000000 0.000000 0.500000
O O8 0.083378 0.161347 0.514151
O O9 0.413363 0.628037 0.447297
O O10 0.394528 0.914589 0.809057
O O11 0.414402 0.136206 0.482667
O O12 0.500000 0.000000 0.000000
O O13 0.105696 0.476986 0.243029
O O14 0.188618 0.685367 0.197977
O O15 0.195871 0.823852 0.745555
O O16 0.641082 0.561152 0.397467
O O17 0.286127 0.743151 0.304850
#
# Coordination Sequence:
#
# PCOD9011892 Si02
#       8
#     2   2   2   2   2   2   2   2
#     4  11  24  41  69  96 138 182 238 276 366 425
#     4  10  22  44  71  95 138 188 235 283 352 414
#     4  10  21  40  67  97 133 176 232 290 350 412
#     4  10  24  42  67 102 137 178 241 287 347 415
#     4  11  26  43  65 110 137 186 233 302 349 421
#     4  10  22  40  67  89 134 175 226 279 352 417
#     4   9  22  39  64  92 130 180 221 282 343 426
#     4  11  25  42  70  97 147 182 236 287 361 423
#
# _framework density 25.265992000000001
#
# number of rings (size 3 to 8) (size 9 to 14) (size 15 to 20)
#    0.750    1.000    1.250    1.500   10.500    1.000 
#    0.000    1.250    0.000    0.000    0.000    0.000 
#    0.000    0.000    0.000    0.000    0.000    0.000 
#
# Total GULP energy -89282.168628 kJ/mol
# GULP energy per Si atom -5580.135539 kJ/mol
# Density = 2.520849 g / cm^3
# Si number density = 25.265992 Si / 1000 Ang^3
#
#
#
# Elastic Constant Matrix: (Units=GPa)
#
#
# Indices 1 2 3 4 5 6 
#
# 1 84.4286 23.4108 14.3718 -4.5713 14.9669 9.0761
# 2 23.4108 165.7549 26.6987 19.0943 8.7074 -14.4588
# 3 14.3718 26.6987 60.5403 3.5453 1.5976 -12.6036
# 4 -4.5713 19.0943 3.5453 22.9324 -2.7363 2.9257
# 5 14.9669 8.7074 1.5976 -2.7363 39.4706 0.9373
# 6 9.0761 -14.4588 -12.6036 2.9257 0.9373 32.8749
#
#
#
# Elastic Compliance Matrix: (Units=1/GPa)
#
#
# Indices 1 2 3 4 5 6 
#
# 1 0.015207 -0.002599 -0.004257 0.006272 -0.004410 -0.007406
# 2 -0.002599 0.007975 -0.001508 -0.007643 -0.001346 0.004365
# 3 -0.004257 -0.001508 0.020176 -0.003724 0.000669 0.008559
# 4 0.006272 -0.007643 -0.003724 0.053661 0.003449 -0.011394
# 5 -0.004410 -0.001346 0.000669 0.003449 0.027522 -0.000210
# 6 -0.007406 0.004365 0.008559 -0.011394 -0.000210 0.038684
#
#
# Mechanical properties :
#
#
# Convention : Reuss Voigt Hill
#
# Bulk Modulus (GPa) = 37.55098 48.85403 43.20250
# Shear Modulus (GPa) = 26.47902 35.47177 30.97540
#
# Velocity S-wave (km/s) = 3.24081 3.75097 3.50519
# Velocity P-wave (km/s) = 5.37572 6.17557 5.78947
#
# Compressibility (1/GPa) = 0.02663046
#
# Stress axis : x y z
#
# Youngs Moduli (GPa) = 65.75899 125.39332 49.56427
#
# Poissons Ratio (x) = 0.32590 0.21097
# Poissons Ratio (y) = 0.17091 0.07475
# Poissons Ratio (z) = 0.27990 0.18911
#
# Static dielectric constant tensor:
#      x y z
#    x 2.025140 0.015340 -0.068050 
#    y 0.015340 2.112260 -0.014970 
#    z -0.068050 -0.014970 2.052610 
# 
# From -- ./inp_files/127932.got.cif
#   From: 2010.05.17/outbox.cif.g08.bks.cpg/sg2_64_cif.got.tgz:127932.got - 2010.06.03 11:33:40.
