data_PCOD9011653
_publ_section_title
;
Structure prediction by ZEFSAII (Michael W. Deem and Ramdas Pophale) SiO2 
 PCOD9011653
Probable space group: P -1
;
_chemical_formula_sum "Si O2"
_cell_formula_units_Z 14
_cell_length_a 9.005671
_cell_length_b 7.412423
_cell_length_c 11.112209
_cell_angle_alpha 80.751122
_cell_angle_beta 122.390016
_cell_angle_gamma 109.926911
_cell_volume 588.651661
_symmetry_space_group_name_H-M "P -1"
_symmetry_group_IT_number 2
_symmetry_cell_setting 'triclinic'
loop_
_space_group_symop_operation_xyz
x,y,z
-x,-y,-z
loop_
_atom_site_type_symbol
_atom_site_label
_atom_site_fract_x
_atom_site_fract_y
_atom_site_fract_z
Si Si1 0.215394 0.230340 0.598181
Si Si2 0.668217 0.345145 0.411471
Si Si3 0.673984 0.133893 0.990404
Si Si4 0.274672 0.094983 0.200662
Si Si5 0.847162 0.167031 0.309963
Si Si6 0.168263 0.453615 0.012248
Si Si7 0.032714 0.748460 0.284367
O O1 0.351604 0.442048 0.615862
O O2 0.271930 0.038768 0.660877
O O3 0.099713 0.230886 0.668969
O O4 0.058883 0.196731 0.431681
O O5 0.471626 0.184445 0.341288
O O6 0.805322 0.322966 0.578928
O O7 0.772508 0.317635 0.335724
O O8 0.665846 0.346885 0.935656
O O9 0.825841 0.169597 0.158261
O O10 0.500000 0.000000 0.000000
O O11 0.709800 0.026238 0.899404
O O12 0.131723 0.948647 0.240410
O O13 0.785383 0.723502 0.887859
O O14 0.093537 0.389466 0.853849
O O15 0.000000 0.500000 0.000000
#
# Coordination Sequence:
#
# PCOD9011653 Si02
#       7
#     2   2   2   2   2   2   2
#     4  10  22  40  72  95 130 172 230 264 327 394
#     4  11  23  44  69  99 135 170 224 275 333 387
#     4  12  25  43  70  97 137 169 223 276 334 392
#     4  12  27  44  66 104 138 174 218 281 339 388
#     4  10  21  40  66  99 126 173 221 271 323 391
#     4  12  27  46  69  96 135 180 228 266 334 405
#     4  11  23  47  69  95 137 180 219 274 328 399
#
# _framework density 23.783163999999999
#
# number of rings (size 3 to 8) (size 9 to 14) (size 15 to 20)
#    0.000    0.857    2.857    5.143    4.000    0.571 
#    2.571    0.714    0.000    0.000    0.000    0.000 
#    0.000    0.000    0.000    0.000    0.000    0.000 
#
# Total GULP energy -78423.041606 kJ/mol
# GULP energy per Si atom -5601.645829 kJ/mol
# Density = 2.372903 g / cm^3
# Si number density = 23.783164 Si / 1000 Ang^3
#
#
#
# Elastic Constant Matrix: (Units=GPa)
#
#
# Indices 1 2 3 4 5 6 
#
# 1 34.4348 20.8571 11.6265 -5.9864 0.1145 -3.2473
# 2 20.8571 196.4696 22.4136 -12.7141 -0.3301 -6.9482
# 3 11.6265 22.4136 72.5933 -13.6718 1.7092 -12.0964
# 4 -5.9864 -12.7141 -13.6718 31.9882 -1.3994 -1.1815
# 5 0.1145 -0.3301 1.7092 -1.3994 23.7091 -7.1821
# 6 -3.2473 -6.9482 -12.0964 -1.1815 -7.1821 36.6897
#
#
#
# Elastic Compliance Matrix: (Units=1/GPa)
#
#
# Indices 1 2 3 4 5 6 
#
# 1 0.032661 -0.002785 -0.003461 0.003612 0.000714 0.001478
# 2 -0.002785 0.005603 -0.000934 0.001349 0.000430 0.000634
# 3 -0.003461 -0.000934 0.016692 0.006349 0.000806 0.005382
# 4 0.003612 0.001349 0.006349 0.035479 0.002968 0.004392
# 5 0.000714 0.000430 0.000806 0.002968 0.045127 0.009339
# 6 0.001478 0.000634 0.005382 0.004392 0.009339 0.031251
#
#
# Mechanical properties :
#
#
# Convention : Reuss Voigt Hill
#
# Bulk Modulus (GPa) = 24.63426 45.92132 35.27779
# Shear Modulus (GPa) = 25.67997 35.05078 30.36537
#
# Velocity S-wave (km/s) = 3.28953 3.84313 3.57705
# Velocity P-wave (km/s) = 4.98079 6.24845 5.65028
#
# Compressibility (1/GPa) = 0.04059388
#
# Stress axis : x y z
#
# Youngs Moduli (GPa) = 30.61758 178.49123 59.90974
#
# Poissons Ratio (x) = 0.49713 0.20736
# Poissons Ratio (y) = 0.08528 0.05597
# Poissons Ratio (z) = 0.10598 0.16675
#
# Static dielectric constant tensor:
#      x y z
#    x 1.861060 -0.021200 0.028730 
#    y -0.021200 2.002900 0.046800 
#    z 0.028730 0.046800 1.936680 
# 
# From -- ./inp_files/412296.got.cif
#   From: 2010.05.17/outbox.cif.g08.bks.cpg/sg2_207_cif.got.tgz:412296.got - 2010.06.03 11:33:40.
