data_PCOD9011918
_publ_section_title
;
Structure prediction by ZEFSAII (Michael W. Deem and Ramdas Pophale) SiO2 
 PCOD9011918
Probable space group: P -1
;
_chemical_formula_sum "Si O2"
_cell_formula_units_Z 12
_cell_length_a 12.708284
_cell_length_b 14.922450
_cell_length_c 18.015784
_cell_angle_alpha 151.596565
_cell_angle_beta 158.144617
_cell_angle_gamma 29.009604
_cell_volume 571.446836
_symmetry_space_group_name_H-M "P -1"
_symmetry_group_IT_number 2
_symmetry_cell_setting 'triclinic'
loop_
_space_group_symop_operation_xyz
x,y,z
-x,-y,-z
loop_
_atom_site_type_symbol
_atom_site_label
_atom_site_fract_x
_atom_site_fract_y
_atom_site_fract_z
Si Si1 0.904935 0.482956 0.009494
Si Si2 0.210532 0.692858 0.465563
Si Si3 0.194760 0.769975 0.955491
Si Si4 0.119004 0.379979 0.660639
Si Si5 0.395143 0.068180 0.064949
Si Si6 0.250327 0.694736 0.763987
O O1 0.554800 0.518550 0.813381
O O2 0.000000 0.500000 0.000000
O O3 0.972139 0.659198 0.227974
O O4 0.111892 0.270777 0.021338
O O5 0.500000 0.500000 0.500000
O O6 0.337346 0.875795 0.678846
O O7 0.081001 0.682150 0.454668
O O8 0.071261 0.616032 0.807134
O O9 0.207955 0.702770 0.829663
O O10 0.532437 0.731690 0.176479
O O11 0.000000 0.000000 0.000000
O O12 0.018357 0.330591 0.478384
O O13 0.500000 0.000000 0.000000
O O14 0.303425 0.897801 0.920958
#
# Coordination Sequence:
#
# PCOD9011918 Si02
#       6
#     2   2   2   2   2   2
#     4  11  22  40  63  99 139 179 214 264 343 404
#     4  10  21  40  67  98 139 176 206 281 339 390
#     4  11  28  46  70  97 127 183 234 274 328 391
#     4  11  24  48  68  95 140 169 227 282 327 399
#     4  11  22  39  64 102 139 168 222 270 328 414
#     4  12  24  44  68  98 136 177 220 275 341 395
#
# _framework density 20.999327999999998
#
# number of rings (size 3 to 8) (size 9 to 14) (size 15 to 20)
#    0.000    1.000    5.000    1.500    4.667    2.667 
#    3.000    0.000    0.000    0.000    0.000    0.000 
#    0.000    0.000    0.000    0.000    0.000    0.000 
#
# Total GULP energy -67114.203168 kJ/mol
# GULP energy per Si atom -5592.850264 kJ/mol
# Density = 2.095153 g / cm^3
# Si number density = 20.999328 Si / 1000 Ang^3
#
#
#
# Elastic Constant Matrix: (Units=GPa)
#
#
# Indices 1 2 3 4 5 6 
#
# 1 61.7459 7.5240 24.2900 -12.7944 -10.7276 -5.2661
# 2 7.5240 134.9051 43.8201 2.3210 8.2988 7.2158
# 3 24.2900 43.8201 127.1624 -1.0114 -19.9325 8.4302
# 4 -12.7944 2.3210 -1.0114 29.1550 14.7774 0.6595
# 5 -10.7276 8.2988 -19.9325 14.7774 43.1682 8.2445
# 6 -5.2661 7.2158 8.4302 0.6595 8.2445 25.7123
#
#
#
# Elastic Compliance Matrix: (Units=1/GPa)
#
#
# Indices 1 2 3 4 5 6 
#
# 1 0.020068 -0.000117 -0.004283 0.009139 -0.001184 0.005692
# 2 -0.000117 0.008795 -0.003565 0.000990 -0.003672 -0.000171
# 3 -0.004283 -0.003565 0.011490 -0.005010 0.007790 -0.006013
# 4 0.009139 0.000990 -0.005010 0.046883 -0.017757 0.007728
# 5 -0.001184 -0.003672 0.007790 -0.017757 0.035688 -0.012754
# 6 0.005692 -0.000171 -0.006013 0.007728 -0.012754 0.045969
#
#
# Mechanical properties :
#
#
# Convention : Reuss Voigt Hill
#
# Bulk Modulus (GPa) = 40.94383 52.78684 46.86533
# Shear Modulus (GPa) = 25.91155 36.15240 31.03198
#
# Velocity S-wave (km/s) = 3.51653 4.15372 3.84834
# Velocity P-wave (km/s) = 6.00234 6.94237 6.48939
#
# Compressibility (1/GPa) = 0.02442371
#
# Stress axis : x y z
#
# Youngs Moduli (GPa) = 49.83044 113.69990 87.02910
#
# Poissons Ratio (x) = 0.01328 0.37277
# Poissons Ratio (y) = 0.00582 0.31024
# Poissons Ratio (z) = 0.21344 0.40532
#
# Static dielectric constant tensor:
#      x y z
#    x 1.704110 0.038940 -0.064290 
#    y 0.038940 1.703380 0.061390 
#    z -0.064290 0.061390 1.657320 
# 
# From -- ./inp_files/196431.got.cif
#   From: 2010.05.17/outbox.cif.g08.bks.cpg/sg2_99_cif.got.tgz:196431.got - 2010.06.03 11:33:40.
