data_PCOD9011423
_publ_section_title
;
Structure prediction by ZEFSAII (Michael W. Deem and Ramdas Pophale) SiO2 
 PCOD9011423
Probable space group: P -1
;
_chemical_formula_sum "Si O2"
_cell_formula_units_Z 16
_cell_length_a 8.073029
_cell_length_b 6.568455
_cell_length_c 25.853516
_cell_angle_alpha 130.161861
_cell_angle_beta 135.777565
_cell_angle_gamma 60.693275
_cell_volume 729.762153
_symmetry_space_group_name_H-M "P -1"
_symmetry_group_IT_number 2
_symmetry_cell_setting 'triclinic'
loop_
_space_group_symop_operation_xyz
x,y,z
-x,-y,-z
loop_
_atom_site_type_symbol
_atom_site_label
_atom_site_fract_x
_atom_site_fract_y
_atom_site_fract_z
Si Si1 0.425439 0.287056 0.010071
Si Si2 0.602730 0.873572 0.382148
Si Si3 0.202993 0.284299 0.490864
Si Si4 0.658660 0.650053 0.759565
Si Si5 0.060545 0.194769 0.644295
Si Si6 0.421547 0.226338 0.819231
Si Si7 0.859101 0.570484 0.118499
Si Si8 0.351790 0.391671 0.374400
O O1 0.423600 0.522475 0.090630
O O2 0.657487 0.351267 0.037785
O O3 0.182217 0.296681 0.924603
O O4 0.500000 0.000000 0.000000
O O5 0.678065 0.862735 0.456609
O O6 0.522923 0.576171 0.304360
O O7 0.816208 0.924815 0.399140
O O8 0.401231 0.101648 0.362286
O O9 0.411734 0.440861 0.536652
O O10 0.000000 0.500000 0.500000
O O11 0.074757 0.041318 0.395702
O O12 0.683889 0.634533 0.700126
O O13 0.896084 0.563078 0.829492
O O14 0.565060 0.946869 0.800688
O O15 0.876421 0.436265 0.629008
O O16 0.268428 0.279990 0.742405
O O17 0.235788 0.223649 0.824938
#
# Coordination Sequence:
#
# PCOD9011423 Si02
#       8
#     2   2   2   2   2   2   2   2
#     4   9  20  42  65  94 127 163 202 257 312 375
#     4  11  25  41  62  93 127 168 213 261 308 367
#     4  11  23  44  65  86 134 166 209 268 312 364
#     4  11  22  41  64  94 129 166 209 258 310 369
#     4  12  22  42  66  92 126 168 210 262 314 367
#     4  10  21  40  66  90 126 163 204 254 315 366
#     4   9  21  41  64  90 130 161 203 255 313 374
#     4  11  23  42  62  93 128 167 213 257 313 374
#
# _framework density 21.924954
#
# number of rings (size 3 to 8) (size 9 to 14) (size 15 to 20)
#    0.750    0.750    3.750    1.500    0.000    5.000 
#    4.500    0.625    0.000    0.000    0.000    0.000 
#    0.000    0.000    0.000    0.000    0.000    0.000 
#
# Total GULP energy -89354.739824 kJ/mol
# GULP energy per Si atom -5584.671239 kJ/mol
# Density = 2.187505 g / cm^3
# Si number density = 21.924954 Si / 1000 Ang^3
#
#
#
# Elastic Constant Matrix: (Units=GPa)
#
#
# Indices 1 2 3 4 5 6 
#
# 1 23.4912 11.9512 1.7185 -0.9861 0.7813 -11.0395
# 2 11.9512 142.6715 32.7007 3.2836 -4.4518 -20.0622
# 3 1.7185 32.7007 68.7116 -6.2650 -4.5532 -1.3481
# 4 -0.9861 3.2836 -6.2650 38.9394 -4.9886 -1.4747
# 5 0.7813 -4.4518 -4.5532 -4.9886 15.2431 -0.4362
# 6 -11.0395 -20.0622 -1.3481 -1.4747 -0.4362 40.5365
#
#
#
# Elastic Compliance Matrix: (Units=1/GPa)
#
#
# Indices 1 2 3 4 5 6 
#
# 1 0.049817 -0.002606 0.000235 0.001686 -0.002340 0.012321
# 2 -0.002606 0.008699 -0.004035 -0.001167 0.001185 0.003431
# 3 0.000235 -0.004035 0.017122 0.003710 0.005105 -0.001174
# 4 0.001686 -0.001167 0.003710 0.027715 0.009783 0.001119
# 5 -0.002340 0.001185 0.005105 0.009783 0.070831 0.001237
# 6 0.012321 0.003431 -0.001174 0.001119 0.001237 0.029738
#
#
# Mechanical properties :
#
#
# Convention : Reuss Voigt Hill
#
# Bulk Modulus (GPa) = 15.91750 36.40165 26.15958
# Shear Modulus (GPa) = 21.03710 31.51071 26.27391
#
# Velocity S-wave (km/s) = 3.10095 3.79516 3.46548
# Velocity P-wave (km/s) = 4.48296 5.98692 5.28868
#
# Compressibility (1/GPa) = 0.06282394
#
# Stress axis : x y z
#
# Youngs Moduli (GPa) = 20.07361 114.96050 58.40562
#
# Poissons Ratio (x) = 0.29959 -0.01371
# Poissons Ratio (y) = 0.05231 0.23568
# Poissons Ratio (z) = -0.00471 0.46388
#
# Static dielectric constant tensor:
#      x y z
#    x 1.847190 0.031170 -0.009810 
#    y 0.031170 1.794360 -0.042830 
#    z -0.009810 -0.042830 1.862940 
# 
# From -- ./inp_files/605776.got.cif
#   From: 2010.05.17/outbox.cif.g08.bks.cpg/sg2_303_cif.got.tgz:605776.got - 2010.06.03 11:33:40.
