data_PCOD9011680
_publ_section_title
;
Structure prediction by ZEFSAII (Michael W. Deem and Ramdas Pophale) SiO2 
 PCOD9011680
Probable space group: P -1
;
_chemical_formula_sum "Si O2"
_cell_formula_units_Z 16
_cell_length_a 6.431913
_cell_length_b 20.470391
_cell_length_c 11.934260
_cell_angle_alpha 145.692861
_cell_angle_beta 120.147371
_cell_angle_gamma 51.814784
_cell_volume 695.998184
_symmetry_space_group_name_H-M "P -1"
_symmetry_group_IT_number 2
_symmetry_cell_setting 'triclinic'
loop_
_space_group_symop_operation_xyz
x,y,z
-x,-y,-z
loop_
_atom_site_type_symbol
_atom_site_label
_atom_site_fract_x
_atom_site_fract_y
_atom_site_fract_z
Si Si1 0.445837 0.880950 0.770918
Si Si2 0.577113 0.363244 0.486274
Si Si3 0.886470 0.621936 0.751555
Si Si4 0.587191 0.470048 0.111047
Si Si5 0.025184 0.733485 0.727373
Si Si6 0.291339 0.820532 0.234202
Si Si7 0.394816 0.851199 0.053508
Si Si8 0.301574 0.992417 0.672689
O O1 0.370435 0.785341 0.690006
O O2 0.252135 0.932713 0.688290
O O3 0.735726 0.784477 0.670199
O O4 0.500000 0.000000 0.000000
O O5 0.278870 0.430910 0.450494
O O6 0.591123 0.428258 0.699553
O O7 0.773668 0.365412 0.445396
O O8 0.118296 0.545069 0.792648
O O9 0.996345 0.692810 0.789705
O O10 0.643303 0.722630 0.900408
O O11 0.500000 0.500000 0.000000
O O12 0.598546 0.330443 0.938852
O O13 0.131721 0.842363 0.926000
O O14 0.373840 0.855347 0.186901
O O15 0.383695 0.887888 0.451199
O O16 0.971284 0.886400 0.255890
O O17 0.465903 0.962055 0.183408
#
# Coordination Sequence:
#
# PCOD9011680 Si02
#       8
#     2   2   2   2   2   2   2   2
#     4  11  22  40  65 101 133 165 211 273 328 375
#     4  10  24  42  69  98 131 178 214 265 331 392
#     4  10  21  43  68  93 130 174 215 268 324 387
#     4  12  24  46  68  94 134 172 216 279 330 385
#     4  10  21  40  67 100 130 163 220 265 323 390
#     4  11  24  43  64  93 131 177 222 261 324 397
#     4  11  19  40  67  95 125 173 217 261 326 388
#     4  11  23  40  66  94 134 174 216 270 321 385
#
# _framework density 22.988565999999999
#
# number of rings (size 3 to 8) (size 9 to 14) (size 15 to 20)
#    0.000    1.250    2.500    4.500    0.000    3.500 
#    6.750    0.625    0.000    0.000    0.000    0.000 
#    0.000    0.000    0.000    0.000    0.000    0.000 
#
# Total GULP energy -89344.314643 kJ/mol
# GULP energy per Si atom -5584.019665 kJ/mol
# Density = 2.293624 g / cm^3
# Si number density = 22.988566 Si / 1000 Ang^3
#
#
#
# Elastic Constant Matrix: (Units=GPa)
#
#
# Indices 1 2 3 4 5 6 
#
# 1 87.3385 16.4124 22.5003 -3.1748 -10.5819 10.6326
# 2 16.4124 92.2302 26.8171 -14.5692 -4.6096 16.6703
# 3 22.5003 26.8171 133.7114 -12.3030 -22.8128 15.1873
# 4 -3.1748 -14.5692 -12.3030 39.9319 12.1504 2.2714
# 5 -10.5819 -4.6096 -22.8128 12.1504 32.9284 -5.6485
# 6 10.6326 16.6703 15.1873 2.2714 -5.6485 29.9597
#
#
#
# Elastic Compliance Matrix: (Units=1/GPa)
#
#
# Indices 1 2 3 4 5 6 
#
# 1 0.012640 -0.001412 -0.001119 -0.000582 0.002867 -0.002548
# 2 -0.001412 0.013635 -0.001670 0.005686 -0.003043 -0.007244
# 3 -0.001119 -0.001670 0.009217 0.000727 0.005106 -0.002438
# 4 -0.000582 0.005686 0.000727 0.031340 -0.011812 -0.007928
# 5 0.002867 -0.003043 0.005106 -0.011812 0.039875 0.006501
# 6 -0.002548 -0.007244 -0.002438 -0.007928 0.006501 0.041376
#
#
# Mechanical properties :
#
#
# Convention : Reuss Voigt Hill
#
# Bulk Modulus (GPa) = 36.91493 49.41552 43.16523
# Shear Modulus (GPa) = 30.20893 37.06735 33.63814
#
# Velocity S-wave (km/s) = 3.62896 4.01986 3.82940
# Velocity P-wave (km/s) = 5.80103 6.56415 6.19435
#
# Compressibility (1/GPa) = 0.02708931
#
# Stress axis : x y z
#
# Youngs Moduli (GPa) = 79.11591 73.34255 108.49585
#
# Poissons Ratio (x) = 0.10356 0.12138
# Poissons Ratio (y) = 0.11172 0.18121
# Poissons Ratio (z) = 0.08851 0.12250
#
# Static dielectric constant tensor:
#      x y z
#    x 1.840620 -0.009900 0.016700 
#    y -0.009900 1.861380 0.024020 
#    z 0.016700 0.024020 1.921820 
# 
# From -- ./inp_files/370135.got.cif
#   From: 2010.05.17/outbox.cif.g08.bks.cpg/sg2_186_cif.got.tgz:370135.got - 2010.06.03 11:33:40.
