data_PCOD9011367
_publ_section_title
;
Structure prediction by ZEFSAII (Michael W. Deem and Ramdas Pophale) SiO2 
 PCOD9011367
Probable space group: P -1
;
_chemical_formula_sum "Si O2"
_cell_formula_units_Z 16
_cell_length_a 21.060369
_cell_length_b 8.243131
_cell_length_c 11.077641
_cell_angle_alpha 52.727343
_cell_angle_beta 150.822706
_cell_angle_gamma 116.811548
_cell_volume 730.942890
_symmetry_space_group_name_H-M "P -1"
_symmetry_group_IT_number 2
_symmetry_cell_setting 'triclinic'
loop_
_space_group_symop_operation_xyz
x,y,z
-x,-y,-z
loop_
_atom_site_type_symbol
_atom_site_label
_atom_site_fract_x
_atom_site_fract_y
_atom_site_fract_z
Si Si1 0.108836 0.645914 0.635372
Si Si2 0.177359 0.916387 0.844604
Si Si3 0.309538 0.962800 0.513475
Si Si4 0.919466 0.048061 0.055931
Si Si5 0.087072 0.370407 0.380824
Si Si6 0.299843 0.528099 0.811575
Si Si7 0.133454 0.307202 0.223525
Si Si8 0.549078 0.941873 0.743944
O O1 0.142328 0.740737 0.776631
O O2 0.251695 0.547311 0.861181
O O3 0.000000 0.500000 0.500000
O O4 0.035691 0.845558 0.349120
O O5 0.897502 0.860314 0.435397
O O6 0.142936 0.913612 0.931166
O O7 0.330513 0.941054 0.081624
O O8 0.248405 0.149117 0.419128
O O9 0.337404 0.738908 0.728721
O O10 0.436159 0.996429 0.633045
O O11 0.194004 0.966250 0.221000
O O12 0.002280 0.211969 0.071652
O O13 0.162571 0.501831 0.532489
O O14 0.168518 0.352705 0.397914
O O15 0.935776 0.487570 0.055069
O O16 0.399430 0.309748 0.053399
O O17 0.500000 0.000000 0.500000
#
# Coordination Sequence:
#
# PCOD9011367 Si02
#       8
#     2   2   2   2   2   2   2   2
#     4  12  25  41  72 108 136 175 229 288 352 401
#     4  11  24  45  68 100 140 184 225 280 336 413
#     4  12  23  44  67 102 139 181 227 275 336 413
#     4  12  22  40  69  99 145 167 219 287 347 410
#     4  10  21  40  66 101 143 170 218 275 357 404
#     4  11  23  43  67  98 134 183 230 277 340 401
#     4  11  22  39  67 105 140 174 217 286 346 413
#     4  11  25  48  69  94 136 190 236 275 330 401
#
# _framework density 21.889534999999999
#
# number of rings (size 3 to 8) (size 9 to 14) (size 15 to 20)
#    0.000    0.750    5.000    3.375    1.750    0.000 
#    0.000    7.500    0.000    0.000    0.000    0.000 
#    0.000    0.000    0.000    0.000    0.000    0.000 
#
# Total GULP energy -89387.976505 kJ/mol
# GULP energy per Si atom -5586.748532 kJ/mol
# Density = 2.183971 g / cm^3
# Si number density = 21.889535 Si / 1000 Ang^3
#
#
#
# Elastic Constant Matrix: (Units=GPa)
#
#
# Indices 1 2 3 4 5 6 
#
# 1 159.2365 53.8519 42.9103 -14.8445 24.4265 -7.6013
# 2 53.8519 90.2098 17.7734 -8.5659 1.1587 -9.7322
# 3 42.9103 17.7734 65.3280 -11.6912 3.0226 -5.1485
# 4 -14.8445 -8.5659 -11.6912 33.4093 4.5579 0.4985
# 5 24.4265 1.1587 3.0226 4.5579 44.4162 -2.3063
# 6 -7.6013 -9.7322 -5.1485 0.4985 -2.3063 36.4421
#
#
#
# Elastic Compliance Matrix: (Units=1/GPa)
#
#
# Indices 1 2 3 4 5 6 
#
# 1 0.010273 -0.004925 -0.004746 0.002389 -0.005455 -0.000221
# 2 -0.004925 0.014486 -0.000406 0.001012 0.002406 0.002922
# 3 -0.004746 -0.000406 0.019414 0.004430 0.000930 0.001643
# 4 0.002389 0.001012 0.004430 0.033482 -0.005045 0.000617
# 5 -0.005455 0.002406 0.000930 -0.005045 0.025976 0.001349
# 6 -0.000221 0.002922 0.001643 0.000617 0.001349 0.028484
#
#
# Mechanical properties :
#
#
# Convention : Reuss Voigt Hill
#
# Bulk Modulus (GPa) = 41.63182 60.42729 51.02955
# Shear Modulus (GPa) = 31.19653 36.20277 33.69965
#
# Velocity S-wave (km/s) = 3.77925 4.07121 3.92794
# Velocity P-wave (km/s) = 6.17284 7.05444 6.62832
#
# Compressibility (1/GPa) = 0.02402009
#
# Stress axis : x y z
#
# Youngs Moduli (GPa) = 97.34131 69.03415 51.50886
#
# Poissons Ratio (x) = 0.33997 0.24444
# Poissons Ratio (y) = 0.47937 0.02092
# Poissons Ratio (z) = 0.46194 0.02804
#
# Static dielectric constant tensor:
#      x y z
#    x 1.984410 0.092760 -0.066080 
#    y 0.092760 1.952660 -0.056440 
#    z -0.066080 -0.056440 1.815390 
# 
# From -- ./inp_files/469250.got.cif
#   From: 2010.05.17/outbox.cif.g08.bks.cpg/sg2_235_cif.got.tgz:469250.got - 2010.06.03 11:33:40.
