data_PCOD9011470
_publ_section_title
;
Structure prediction by ZEFSAII (Michael W. Deem and Ramdas Pophale) SiO2 
 PCOD9011470
Probable space group: P -1
;
_chemical_formula_sum "Si O2"
_cell_formula_units_Z 16
_cell_length_a 11.217763
_cell_length_b 17.040151
_cell_length_c 6.554008
_cell_angle_alpha 103.353668
_cell_angle_beta 116.033577
_cell_angle_gamma 124.300273
_cell_volume 711.143281
_symmetry_space_group_name_H-M "P -1"
_symmetry_group_IT_number 2
_symmetry_cell_setting 'triclinic'
loop_
_space_group_symop_operation_xyz
x,y,z
-x,-y,-z
loop_
_atom_site_type_symbol
_atom_site_label
_atom_site_fract_x
_atom_site_fract_y
_atom_site_fract_z
Si Si1 0.200582 0.017990 0.943512
Si Si2 0.137775 0.171764 0.086135
Si Si3 0.610356 0.131614 0.233310
Si Si4 0.286695 0.442843 0.767515
Si Si5 0.171077 0.510478 0.403854
Si Si6 0.431661 0.647805 0.287102
Si Si7 0.270257 0.693369 0.919456
Si Si8 0.968919 0.192686 0.612423
O O1 0.128818 0.932030 0.642705
O O2 0.057483 0.925937 0.970237
O O3 0.171364 0.100728 0.956076
O O4 0.440181 0.107147 0.201834
O O5 0.344563 0.279154 0.436789
O O6 0.096082 0.221150 0.918488
O O7 0.678772 0.207002 0.121262
O O8 0.802101 0.184722 0.533474
O O9 0.500000 0.000000 0.000000
O O10 0.258029 0.467897 0.539051
O O11 0.110960 0.300927 0.616295
O O12 0.500000 0.500000 0.000000
O O13 0.300074 0.524304 0.980812
O O14 0.294197 0.593636 0.349907
O O15 0.212098 0.599944 0.650608
O O16 0.927964 0.387314 0.135880
O O17 0.446905 0.735547 0.214666
#
# Coordination Sequence:
#
# PCOD9011470 Si02
#       8
#     2   2   2   2   2   2   2   2
#     4  10  24  44  67  91 128 175 229 272 320 386
#     4  11  24  42  66  98 129 172 224 271 324 394
#     4  10  22  42  67  95 127 173 217 273 331 379
#     4  11  23  39  64  95 136 171 209 264 331 397
#     4  10  21  40  66  92 128 174 215 266 320 389
#     4  11  24  40  65 101 129 170 217 265 327 390
#     4  10  21  42  65  93 129 169 221 266 322 389
#     4  11  23  43  66  94 132 172 216 270 333 389
#
# _framework density 22.498985000000001
#
# number of rings (size 3 to 8) (size 9 to 14) (size 15 to 20)
#    0.000    1.500    1.250    3.000    0.000   10.500 
#    2.250    0.000    0.000    0.000    0.000    0.000 
#    0.000    0.000    0.000    0.000    0.000    0.000 
#
# Total GULP energy -89419.350957 kJ/mol
# GULP energy per Si atom -5588.709435 kJ/mol
# Density = 2.244778 g / cm^3
# Si number density = 22.498985 Si / 1000 Ang^3
#
#
#
# Elastic Constant Matrix: (Units=GPa)
#
#
# Indices 1 2 3 4 5 6 
#
# 1 97.2324 29.2419 35.3532 -13.0570 31.0201 17.3774
# 2 29.2419 111.0758 26.9688 -15.3452 16.5282 -14.1282
# 3 35.3532 26.9688 77.3032 -17.6711 14.4619 -16.7840
# 4 -13.0570 -15.3452 -17.6711 35.3101 -8.9005 9.9685
# 5 31.0201 16.5282 14.4619 -8.9005 34.0005 -4.9242
# 6 17.3774 -14.1282 -16.7840 9.9685 -4.9242 31.0571
#
#
#
# Elastic Compliance Matrix: (Units=1/GPa)
#
#
# Indices 1 2 3 4 5 6 
#
# 1 0.030339 -0.004552 -0.013644 0.005658 -0.022795 -0.031850
# 2 -0.004552 0.011289 -0.000010 0.001163 0.000032 0.007309
# 3 -0.013644 -0.000010 0.022938 0.002273 0.006229 0.020284
# 4 0.005658 0.001163 0.002273 0.035880 0.000846 -0.012791
# 5 -0.022795 0.000032 0.006229 0.000846 0.051238 0.023988
# 6 -0.031850 0.007309 0.020284 -0.012791 0.023988 0.072215
#
#
# Mechanical properties :
#
#
# Convention : Reuss Voigt Hill
#
# Bulk Modulus (GPa) = 35.51977 52.08214 43.80095
# Shear Modulus (GPa) = 18.53937 33.01003 25.77470
#
# Velocity S-wave (km/s) = 2.87367 3.83453 3.38833
# Velocity P-wave (km/s) = 5.17998 6.54246 5.90068
#
# Compressibility (1/GPa) = 0.02815334
#
# Stress axis : x y z
#
# Youngs Moduli (GPa) = 32.96103 88.58096 43.59601
#
# Poissons Ratio (x) = 0.40321 0.59484
# Poissons Ratio (y) = 0.15003 0.00044
# Poissons Ratio (z) = 0.44973 0.00090
#
# Static dielectric constant tensor:
#      x y z
#    x 1.916740 -0.120530 0.000900 
#    y -0.120530 2.020590 0.045700 
#    z 0.000900 0.045700 1.849410 
# 
# From -- ./inp_files/68537.got.cif
#   From: 2010.05.17/outbox.cif.g08.bks.cpg/sg2_35_cif.got.tgz:68537.got - 2010.06.03 11:33:40.
