data_PCOD9011901
_publ_section_title
;
Structure prediction by ZEFSAII (Michael W. Deem and Ramdas Pophale) SiO2 
 PCOD9011901
Probable space group: P -1
;
_chemical_formula_sum "Si O2"
_cell_formula_units_Z 12
_cell_length_a 13.873504
_cell_length_b 8.760316
_cell_length_c 12.791556
_cell_angle_alpha 146.096875
_cell_angle_beta 148.228343
_cell_angle_gamma 50.843710
_cell_volume 441.790219
_symmetry_space_group_name_H-M "P -1"
_symmetry_group_IT_number 2
_symmetry_cell_setting 'triclinic'
loop_
_space_group_symop_operation_xyz
x,y,z
-x,-y,-z
loop_
_atom_site_type_symbol
_atom_site_label
_atom_site_fract_x
_atom_site_fract_y
_atom_site_fract_z
Si Si1 0.813159 0.125166 0.626318
Si Si2 0.101294 0.392809 0.202588
Si Si3 0.117694 0.277450 0.704899
Si Si4 0.470803 0.692716 0.243433
Si Si5 0.227371 0.609109 0.756567
Si Si6 0.412795 0.192062 0.295100
O O1 0.861644 0.372239 0.723288
O O2 0.598760 0.095905 0.438653
O O3 0.839894 0.854770 0.438653
O O4 0.932295 0.166797 0.864589
O O5 0.279132 0.265314 0.303498
O O6 0.024367 0.520081 0.303499
O O7 0.327312 0.672688 1.000000
O O8 0.321934 0.447967 0.036691
O O9 0.000000 0.000000 0.500000
O O10 0.647537 0.568107 0.295075
O O11 0.500000 0.000000 0.500000
O O12 0.000000 0.500000 0.500000
O O13 0.285245 0.944855 0.963309
O O14 0.500000 0.500000 0.500000
#
# Coordination Sequence:
#
# PCOD9011901 Si02
#       6
#     2   2   2   2   2   2
#     4   9  18  38  59  90 130 168 211 270 329 388
#     4   9  20  34  63  93 126 165 211 274 335 382
#     4  10  21  40  67  98 129 171 227 277 329 398
#     4  11  27  48  70  99 140 184 227 279 342 408
#     4  11  27  48  70  99 140 184 227 279 342 408
#     4  10  21  40  67  98 129 171 227 277 329 398
#
# _framework density 27.162213999999999
#
# number of rings (size 3 to 8) (size 9 to 14) (size 15 to 20)
#    0.000    2.000    1.667    0.000    7.000    0.667 
#    0.000    1.667    0.000   12.000    0.000    0.000 
#    0.000    0.000    0.000    0.000    0.000    0.000 
#
# Total GULP energy -67027.038368 kJ/mol
# GULP energy per Si atom -5585.586531 kJ/mol
# Density = 2.710039 g / cm^3
# Si number density = 27.162214 Si / 1000 Ang^3
#
#
#
# Elastic Constant Matrix: (Units=GPa)
#
#
# Indices 1 2 3 4 5 6 
#
# 1 173.2310 88.9834 80.1754 -11.2283 -2.4540 -76.0551
# 2 88.9834 174.4952 87.6559 -15.7091 -2.4593 -74.6495
# 3 80.1754 87.6559 244.1865 8.3660 11.4791 -43.8499
# 4 -11.2283 -15.7091 8.3660 55.9923 -16.7008 11.9276
# 5 -2.4540 -2.4593 11.4791 -16.7008 44.4920 3.2910
# 6 -76.0551 -74.6495 -43.8499 11.9276 3.2910 79.6316
#
#
#
# Elastic Compliance Matrix: (Units=1/GPa)
#
#
# Indices 1 2 3 4 5 6 
#
# 1 0.010776 -0.001034 -0.001728 0.000539 0.000574 0.008267
# 2 -0.001034 0.010859 -0.002331 0.001973 0.001326 0.007558
# 3 -0.001728 -0.002331 0.005674 -0.002592 -0.002645 -0.000214
# 4 0.000539 0.001973 -0.002592 0.022303 0.009386 -0.002791
# 5 0.000574 0.001326 -0.002645 0.009386 0.026948 -0.002185
# 6 0.008267 0.007558 -0.000214 -0.002791 -0.002185 0.027929
#
#
# Mechanical properties :
#
#
# Convention : Reuss Voigt Hill
#
# Bulk Modulus (GPa) = 58.40271 122.83801 90.62036
# Shear Modulus (GPa) = 41.53440 58.36305 49.94872
#
# Velocity S-wave (km/s) = 3.91464 4.64042 4.29290
# Velocity P-wave (km/s) = 6.47925 8.60426 7.61624
#
# Compressibility (1/GPa) = 0.01712249
#
# Stress axis : x y z
#
# Youngs Moduli (GPa) = 92.79901 92.09208 176.23613
#
# Poissons Ratio (x) = 0.09523 0.30452
# Poissons Ratio (y) = 0.09596 0.41084
# Poissons Ratio (z) = 0.16035 0.21469
#
# Static dielectric constant tensor:
#      x y z
#    x 2.205720 0.188930 0.195370 
#    y 0.188930 2.283290 0.265080 
#    z 0.195370 0.265080 2.446320 
# 
# From -- ./inp_files/573529.got.cif
#   From: 2010.05.17/outbox.cif.g08.bks.cpg/sg2_287_cif.got.tgz:573529.got - 2010.06.03 11:33:40.
