data_PCOD9011251
_publ_section_title
;
Structure prediction by ZEFSAII (Michael W. Deem and Ramdas Pophale) SiO2 
 PCOD9011251
Probable space group: P -1
;
_chemical_formula_sum "Si O2"
_cell_formula_units_Z 16
_cell_length_a 12.458865
_cell_length_b 12.431465
_cell_length_c 11.701968
_cell_angle_alpha 144.162053
_cell_angle_beta 143.954726
_cell_angle_gamma 51.921694
_cell_volume 620.455559
_symmetry_space_group_name_H-M "P -1"
_symmetry_group_IT_number 2
_symmetry_cell_setting 'triclinic'
loop_
_space_group_symop_operation_xyz
x,y,z
-x,-y,-z
loop_
_atom_site_type_symbol
_atom_site_label
_atom_site_fract_x
_atom_site_fract_y
_atom_site_fract_z
Si Si1 0.367881 0.086587 0.110656
Si Si2 0.458959 0.789996 0.236143
Si Si3 0.921221 0.238402 0.035093
Si Si4 0.714110 0.859065 0.168649
Si Si5 0.179243 0.137352 0.502848
Si Si6 0.063994 0.459161 0.893347
Si Si7 0.156770 0.718757 0.635867
Si Si8 0.336415 0.366600 0.521352
O O1 0.232443 0.924472 0.911074
O O2 0.273383 0.130938 0.948705
O O3 0.543535 0.977981 0.144597
O O4 0.397487 0.261931 0.370445
O O5 0.241678 0.734408 0.992498
O O6 0.606307 0.790175 0.262364
O O7 0.530003 0.665154 0.288972
O O8 0.500000 0.000000 0.500000
O O9 0.915764 0.369861 0.030831
O O10 0.872756 0.030762 0.770822
O O11 0.128405 0.272885 0.286864
O O12 0.847083 0.938943 0.455443
O O13 0.751015 0.643540 0.034489
O O14 0.050271 0.298708 0.508502
O O15 0.000000 0.500000 0.000000
O O16 0.894695 0.319761 0.575003
O O17 0.301737 0.577824 0.661638
#
# Coordination Sequence:
#
# PCOD9011251 Si02
#       8
#     2   2   2   2   2   2   2   2
#     4  11  22  42  63  97 131 174 209 274 340 378
#     4  10  23  41  68  97 127 178 225 267 327 390
#     4  10  21  40  65  95 130 174 217 268 336 375
#     4  10  23  39  62  94 134 167 222 269 323 404
#     4  10  21  42  63  94 129 172 226 265 324 393
#     4  10  22  39  63  97 130 170 222 266 322 402
#     4  10  23  39  65  95 128 168 219 265 333 393
#     4  11  23  44  67  97 135 166 223 273 321 403
#
# _framework density 25.787503999999998
#
# number of rings (size 3 to 8) (size 9 to 14) (size 15 to 20)
#    0.000    1.750    1.250    3.000    3.500    3.500 
#    2.250    7.500    0.000    0.000    0.000    0.000 
#    0.000    0.000    0.000    0.000    0.000    0.000 
#
# Total GULP energy -89328.311023 kJ/mol
# GULP energy per Si atom -5583.019439 kJ/mol
# Density = 2.572881 g / cm^3
# Si number density = 25.787504 Si / 1000 Ang^3
#
#
#
# Elastic Constant Matrix: (Units=GPa)
#
#
# Indices 1 2 3 4 5 6 
#
# 1 70.9988 57.5225 2.8254 0.8486 -24.8883 -8.3988
# 2 57.5225 147.8291 10.3027 2.1400 -7.1877 -12.6044
# 3 2.8254 10.3027 48.4539 3.0228 -5.3789 -12.0112
# 4 0.8486 2.1400 3.0228 37.5782 -6.8227 -1.9669
# 5 -24.8883 -7.1877 -5.3789 -6.8227 29.0575 -4.8678
# 6 -8.3988 -12.6044 -12.0112 -1.9669 -4.8678 45.0655
#
#
#
# Elastic Compliance Matrix: (Units=1/GPa)
#
#
# Indices 1 2 3 4 5 6 
#
# 1 0.035454 -0.012045 0.005677 0.005519 0.031134 0.008355
# 2 -0.012045 0.011176 -0.002732 -0.001753 -0.008613 -0.000854
# 3 0.005677 -0.002732 0.023899 0.000324 0.009986 0.007756
# 4 0.005519 -0.001753 0.000324 0.028840 0.011651 0.003142
# 5 0.031134 -0.008613 0.009986 0.011651 0.065826 0.013674
# 6 0.008355 -0.000854 0.007756 0.003142 0.013674 0.027190
#
#
# Mechanical properties :
#
#
# Convention : Reuss Voigt Hill
#
# Bulk Modulus (GPa) = 19.11032 45.39813 32.25423
# Shear Modulus (GPa) = 21.92717 35.44900 28.68809
#
# Velocity S-wave (km/s) = 2.91916 3.71166 3.33900
# Velocity P-wave (km/s) = 4.33460 6.00096 5.23451
#
# Compressibility (1/GPa) = 0.05232774
#
# Stress axis : x y z
#
# Youngs Moduli (GPa) = 28.20572 89.48035 41.84239
#
# Poissons Ratio (x) = 1.07779 -0.23753
# Poissons Ratio (y) = 0.33974 0.11433
# Poissons Ratio (z) = -0.16012 0.24450
#
# Static dielectric constant tensor:
#      x y z
#    x 2.107290 0.001920 0.040040 
#    y 0.001920 2.049740 -0.015720 
#    z 0.040040 -0.015720 2.060240 
# 
# From -- ./inp_files/534647.got.cif
#   From: 2010.05.17/outbox.cif.g08.bks.cpg/sg2_268_cif.got.tgz:534647.got - 2010.06.03 11:33:40.
