data_PCOD9011236
_publ_section_title
;
Structure prediction by ZEFSAII (Michael W. Deem and Ramdas Pophale) SiO2 
 PCOD9011236
Probable space group: P -1
;
_chemical_formula_sum "Si O2"
_cell_formula_units_Z 16
_cell_length_a 12.753896
_cell_length_b 19.477449
_cell_length_c 8.456194
_cell_angle_alpha 126.826987
_cell_angle_beta 81.103782
_cell_angle_gamma 143.447616
_cell_volume 728.945228
_symmetry_space_group_name_H-M "P -1"
_symmetry_group_IT_number 2
_symmetry_cell_setting 'triclinic'
loop_
_space_group_symop_operation_xyz
x,y,z
-x,-y,-z
loop_
_atom_site_type_symbol
_atom_site_label
_atom_site_fract_x
_atom_site_fract_y
_atom_site_fract_z
Si Si1 0.654121 0.899136 0.275413
Si Si2 0.742947 0.141506 0.718458
Si Si3 0.576420 0.421638 0.600110
Si Si4 0.501457 0.807826 0.839560
Si Si5 0.267509 0.508806 0.006831
Si Si6 0.758664 0.220928 0.180839
Si Si7 0.167609 0.261655 0.541236
Si Si8 0.002153 0.237670 0.231098
O O1 0.709263 0.014269 0.546698
O O2 0.563828 0.876513 0.101178
O O3 0.447329 0.687459 0.095171
O O4 0.911174 0.043530 0.369388
O O5 0.988049 0.335692 0.828860
O O6 0.500000 0.000000 0.500000
O O7 0.779771 0.206439 0.973718
O O8 0.522322 0.311148 0.328259
O O9 0.354489 0.322704 0.546729
O O10 0.813736 0.643550 0.790902
O O11 0.639824 0.413742 0.729720
O O12 0.273277 0.699670 0.691203
O O13 0.737295 0.004069 0.953101
O O14 0.271222 0.409562 0.837055
O O15 0.952770 0.304544 0.345266
O O16 0.500000 0.000000 0.000000
O O17 0.111486 0.274367 0.412284
#
# Coordination Sequence:
#
# PCOD9011236 Si02
#       8
#     2   2   2   2   2   2   2   2
#     4  10  23  42  65  94 131 172 217 257 320 390
#     4  11  22  44  66  92 131 171 212 263 325 379
#     4  12  24  40  66  98 129 168 223 268 318 379
#     4  10  23  41  63  96 128 170 216 264 321 381
#     4  11  25  41  64  97 128 169 218 264 322 388
#     4  10  21  40  65  95 126 166 207 264 321 379
#     4  10  24  44  66  91 131 177 212 271 320 371
#     4  10  22  42  65  92 129 169 215 267 319 378
#
# _framework density 21.949524
#
# number of rings (size 3 to 8) (size 9 to 14) (size 15 to 20)
#    0.000    1.500    2.500    1.500    5.250    4.500 
#    0.000    0.000    0.000    0.000    0.000    0.000 
#    0.000    0.000    0.000    0.000    0.000    0.000 
#
# Total GULP energy -89370.384530 kJ/mol
# GULP energy per Si atom -5585.649033 kJ/mol
# Density = 2.189957 g / cm^3
# Si number density = 21.949524 Si / 1000 Ang^3
#
#
#
# Elastic Constant Matrix: (Units=GPa)
#
#
# Indices 1 2 3 4 5 6 
#
# 1 110.5931 47.6633 38.1642 10.0609 9.2609 33.6093
# 2 47.6633 136.1360 30.9525 34.0921 1.8407 19.6257
# 3 38.1642 30.9525 49.2822 16.5608 0.2438 14.8020
# 4 10.0609 34.0921 16.5608 36.9505 0.2694 2.5178
# 5 9.2609 1.8407 0.2438 0.2694 25.1325 -3.7662
# 6 33.6093 19.6257 14.8020 2.5178 -3.7662 33.1387
#
#
#
# Elastic Compliance Matrix: (Units=1/GPa)
#
#
# Indices 1 2 3 4 5 6 
#
# 1 0.017962 -0.002862 -0.008861 0.002718 -0.008409 -0.013726
# 2 -0.002862 0.011186 -0.001042 -0.008898 -0.000047 -0.002586
# 3 -0.008861 -0.001042 0.032655 -0.011017 0.002565 -0.003853
# 4 0.002718 -0.008898 -0.011017 0.039167 0.000005 0.004459
# 5 -0.008409 -0.000047 0.002565 0.000005 0.044738 0.012494
# 6 -0.013726 -0.002586 -0.003853 0.004459 0.012494 0.048431
#
#
# Mechanical properties :
#
#
# Convention : Reuss Voigt Hill
#
# Bulk Modulus (GPa) = 27.56979 58.84125 43.20552
# Shear Modulus (GPa) = 21.57394 30.99310 26.28352
#
# Velocity S-wave (km/s) = 3.13851 3.76176 3.46418
# Velocity P-wave (km/s) = 5.07163 6.76265 5.97725
#
# Compressibility (1/GPa) = 0.03627159
#
# Stress axis : x y z
#
# Youngs Moduli (GPa) = 55.67364 89.39428 30.62329
#
# Poissons Ratio (x) = 0.25587 0.27136
# Poissons Ratio (y) = 0.15935 0.03192
# Poissons Ratio (z) = 0.49333 0.09318
#
# Static dielectric constant tensor:
#      x y z
#    x 1.802400 -0.009060 0.000950 
#    y -0.009060 1.794020 -0.007550 
#    z 0.000950 -0.007550 1.848880 
# 
# From -- ./inp_files/269682.got.cif
#   From: 2010.05.17/outbox.cif.g08.bks.cpg/sg2_135_cif.got.tgz:269682.got - 2010.06.03 11:33:40.
