data_PCOD9011812
_publ_section_title
;
Structure prediction by ZEFSAII (Michael W. Deem and Ramdas Pophale) SiO2 
 PCOD9011812
Probable space group: P -1
;
_chemical_formula_sum "Si O2"
_cell_formula_units_Z 15
_cell_length_a 8.249883
_cell_length_b 12.090305
_cell_length_c 9.029773
_cell_angle_alpha 44.745199
_cell_angle_beta 94.043553
_cell_angle_gamma 80.849689
_cell_volume 603.754606
_symmetry_space_group_name_H-M "P -1"
_symmetry_group_IT_number 2
_symmetry_cell_setting 'triclinic'
loop_
_space_group_symop_operation_xyz
x,y,z
-x,-y,-z
loop_
_atom_site_type_symbol
_atom_site_label
_atom_site_fract_x
_atom_site_fract_y
_atom_site_fract_z
Si Si1 0.823492 0.623748 0.426648
Si Si2 0.843963 0.799471 0.551184
Si Si3 0.851358 0.459746 0.121661
Si Si4 0.774105 0.965088 0.929730
Si Si5 0.500000 0.500000 0.500000
Si Si6 0.651508 0.788575 0.854338
Si Si7 0.383573 0.605618 0.068799
Si Si8 0.840957 0.105856 0.072254
O O1 0.818578 0.664324 0.562957
O O2 0.799498 0.802744 0.184203
O O3 0.667792 0.558146 0.441803
O O4 0.000000 0.500000 0.500000
O O5 0.727283 0.814834 0.674352
O O6 0.050408 0.727778 0.652410
O O7 0.804624 0.973846 0.304542
O O8 0.789920 0.614913 0.080147
O O9 0.684400 0.468342 0.006694
O O10 0.000000 0.500000 0.000000
O O11 0.731824 0.113894 0.904409
O O12 0.652330 0.941271 0.814307
O O13 0.959156 0.954664 0.889574
O O14 0.485540 0.495702 0.313146
O O15 0.479128 0.739554 0.900183
O O16 0.210719 0.715764 0.031938
#
# Coordination Sequence:
#
# PCOD9011812 Si02
#       8
#     2   2   2   2   1   2   2   2
#     4  11  22  42  69 101 133 179 234 285 342 407
#     4  10  23  42  70  97 134 181 226 276 344 412
#     4  10  21  40  67  94 130 172 221 284 329 398
#     4  10  21  42  65  93 133 171 228 282 328 398
#     4  12  24  42  68 102 130 184 224 292 344 406
#     4  11  22  41  63  99 137 173 216 284 341 406
#     4  12  25  41  66  99 139 175 226 282 349 408
#     4  10  23  43  68  99 128 182 231 275 337 418
#
# _framework density 24.844532000000001
#
# number of rings (size 3 to 8) (size 9 to 14) (size 15 to 20)
#    0.000    1.333    1.333    5.200    0.000    3.200 
#    0.000    0.000    2.933    0.000    0.000    0.000 
#    0.000    0.000    0.000    0.000    0.000    0.000 
#
# Total GULP energy -83556.115492 kJ/mol
# GULP energy per Si atom -5570.407699 kJ/mol
# Density = 2.478798 g / cm^3
# Si number density = 24.844532 Si / 1000 Ang^3
#
#
#
# Elastic Constant Matrix: (Units=GPa)
#
#
# Indices 1 2 3 4 5 6 
#
# 1 107.1753 6.9205 27.3102 6.8222 -20.6532 29.2254
# 2 6.9205 85.7372 17.0136 17.3020 5.5979 21.6277
# 3 27.3102 17.0136 71.7251 24.3028 -17.8011 9.6129
# 4 6.8222 17.3020 24.3028 33.9258 0.0743 9.9848
# 5 -20.6532 5.5979 -17.8011 0.0743 37.4479 1.3811
# 6 29.2254 21.6277 9.6129 9.9848 1.3811 41.9263
#
#
#
# Elastic Compliance Matrix: (Units=1/GPa)
#
#
# Indices 1 2 3 4 5 6 
#
# 1 0.014019 0.001347 -0.003357 0.001936 0.006313 -0.010366
# 2 0.001347 0.014738 -0.002236 -0.004129 -0.002258 -0.006971
# 3 -0.003357 -0.002236 0.023006 -0.015131 0.009393 0.001513
# 4 0.001936 -0.004129 -0.015131 0.043811 -0.005373 -0.006007
# 5 0.006313 -0.002258 0.009393 -0.005373 0.035193 -0.005269
# 6 -0.010366 -0.006971 0.001513 -0.006007 -0.005269 0.035931
#
#
# Mechanical properties :
#
#
# Convention : Reuss Voigt Hill
#
# Bulk Modulus (GPa) = 23.11068 40.79180 31.95124
# Shear Modulus (GPa) = 26.36941 36.88620 31.62781
#
# Velocity S-wave (km/s) = 3.26141 3.85734 3.57182
# Velocity P-wave (km/s) = 4.84817 6.02438 5.46799
#
# Compressibility (1/GPa) = 0.04327004
#
# Stress axis : x y z
#
# Youngs Moduli (GPa) = 71.33119 67.85395 43.46683
#
# Poissons Ratio (x) = -0.09138 0.14593
# Poissons Ratio (y) = -0.09606 0.09718
# Poissons Ratio (z) = 0.23948 0.15170
#
# Static dielectric constant tensor:
#      x y z
#    x 1.980470 -0.016290 0.071960 
#    y -0.016290 2.003080 0.065580 
#    z 0.071960 0.065580 2.121690 
# 
# From -- ./inp_files/184339.got.cif
#   From: 2010.05.17/outbox.cif.g08.bks.cpg/sg2_93_cif.got.tgz:184339.got - 2010.06.03 11:33:40.
