data_PCOD9011167
_publ_section_title
;
Structure prediction by ZEFSAII (Michael W. Deem and Ramdas Pophale) SiO2 
 PCOD9011167
Probable space group: P -1
;
_chemical_formula_sum "Si O2"
_cell_formula_units_Z 16
_cell_length_a 8.438853
_cell_length_b 14.260939
_cell_length_c 10.372058
_cell_angle_alpha 35.470551
_cell_angle_beta 84.654479
_cell_angle_gamma 75.042542
_cell_volume 684.369870
_symmetry_space_group_name_H-M "P -1"
_symmetry_group_IT_number 2
_symmetry_cell_setting 'triclinic'
loop_
_space_group_symop_operation_xyz
x,y,z
-x,-y,-z
loop_
_atom_site_type_symbol
_atom_site_label
_atom_site_fract_x
_atom_site_fract_y
_atom_site_fract_z
Si Si1 0.150454 0.083924 0.247049
Si Si2 0.351621 0.426746 0.424567
Si Si3 0.352536 0.466032 0.670085
Si Si4 0.362619 0.415490 0.067954
Si Si5 0.951427 0.252373 0.329698
Si Si6 0.984921 0.591840 0.256327
Si Si7 0.260420 0.193928 0.535595
Si Si8 0.511111 0.856761 0.862043
O O1 0.348610 0.051495 0.263321
O O2 0.068212 0.196266 0.254690
O O3 0.118903 0.904536 0.463252
O O4 0.076435 0.204513 0.993501
O O5 0.329679 0.514491 0.468344
O O6 0.539151 0.433865 0.373877
O O7 0.325306 0.242553 0.613383
O O8 0.174814 0.534367 0.250437
O O9 0.169754 0.461453 0.733649
O O10 0.461219 0.265967 0.880451
O O11 0.341073 0.296277 0.317765
O O12 0.440714 0.284401 0.094367
O O13 0.500000 0.500000 0.000000
O O14 0.190420 0.567829 0.884358
O O15 0.067988 0.253690 0.442426
O O16 0.000000 0.500000 0.500000
O O17 0.332467 0.995280 0.720839
#
# Coordination Sequence:
#
# PCOD9011167 Si02
#       8
#     2   2   2   2   2   2   2   2
#     4  10  22  41  64  88 137 167 216 267 330 390
#     4  10  21  40  65  93 128 169 221 269 326 399
#     4   9  21  40  66  92 123 172 218 271 328 387
#     4  12  25  40  63  91 128 172 219 262 326 397
#     4  11  25  39  63  96 129 177 211 269 327 398
#     4   9  19  38  69  97 123 169 219 273 328 386
#     4  12  25  39  62  96 130 167 217 268 335 385
#     4  11  24  41  62  91 130 169 213 275 324 388
#
# _framework density 23.379168
#
# number of rings (size 3 to 8) (size 9 to 14) (size 15 to 20)
#    0.000    1.500    1.250    3.000    8.750    0.500 
#    0.000    0.000    0.000    2.250    0.000    0.000 
#    0.000    0.000    0.000    0.000    0.000    0.000 
#
# Total GULP energy -89139.820031 kJ/mol
# GULP energy per Si atom -5571.238752 kJ/mol
# Density = 2.332596 g / cm^3
# Si number density = 23.379168 Si / 1000 Ang^3
#
#
#
# Elastic Constant Matrix: (Units=GPa)
#
#
# Indices 1 2 3 4 5 6 
#
# 1 129.8038 17.6632 22.7909 -17.4249 14.3509 27.2764
# 2 17.6632 59.5652 21.6148 -9.3004 10.8720 15.9545
# 3 22.7909 21.6148 92.7349 -9.5095 17.0371 -3.3582
# 4 -17.4249 -9.3004 -9.5095 30.0489 -8.2429 1.7898
# 5 14.3509 10.8720 17.0371 -8.2429 46.5154 -8.8597
# 6 27.2764 15.9545 -3.3582 1.7898 -8.8597 33.4374
#
#
#
# Elastic Compliance Matrix: (Units=1/GPa)
#
#
# Indices 1 2 3 4 5 6 
#
# 1 0.011824 0.002647 -0.002475 0.006374 -0.004656 -0.012732
# 2 0.002647 0.024508 -0.005053 0.006679 -0.006649 -0.016480
# 3 -0.002475 -0.005053 0.013126 0.000348 -0.001801 0.005253
# 4 0.006374 0.006679 0.000348 0.040177 0.001542 -0.010093
# 5 -0.004656 -0.006649 -0.001801 0.001542 0.028118 0.014157
# 6 -0.012732 -0.016480 0.005253 -0.010093 0.014157 0.052975
#
#
# Mechanical properties :
#
#
# Convention : Reuss Voigt Hill
#
# Bulk Modulus (GPa) = 25.19164 45.13797 35.16480
# Shear Modulus (GPa) = 25.81019 36.66935 31.23977
#
# Velocity S-wave (km/s) = 3.32623 3.96468 3.65940
# Velocity P-wave (km/s) = 5.05474 6.34878 5.73835
#
# Compressibility (1/GPa) = 0.03969571
#
# Stress axis : x y z
#
# Youngs Moduli (GPa) = 84.57338 40.80358 76.18312
#
# Poissons Ratio (x) = -0.10801 0.18856
# Poissons Ratio (y) = -0.22387 0.38496
# Poissons Ratio (z) = 0.20932 0.20619
#
# Static dielectric constant tensor:
#      x y z
#    x 1.932550 0.009720 0.009980 
#    y 0.009720 2.101760 0.077990 
#    z 0.009980 0.077990 1.898840 
# 
# From -- ./inp_files/398156.got.cif
#   From: 2010.05.17/outbox.cif.g08.bks.cpg/sg2_200_cif.got.tgz:398156.got - 2010.06.03 11:33:40.
