data_PCOD9011062
_publ_section_title
;
Structure prediction by ZEFSAII (Michael W. Deem and Ramdas Pophale) SiO2 
 PCOD9011062
Probable space group: P -1
;
_chemical_formula_sum "Si O2"
_cell_formula_units_Z 14
_cell_length_a 11.721265
_cell_length_b 5.826608
_cell_length_c 12.608244
_cell_angle_alpha 108.639404
_cell_angle_beta 46.406489
_cell_angle_gamma 104.242529
_cell_volume 590.515860
_symmetry_space_group_name_H-M "P -1"
_symmetry_group_IT_number 2
_symmetry_cell_setting 'triclinic'
loop_
_space_group_symop_operation_xyz
x,y,z
-x,-y,-z
loop_
_atom_site_type_symbol
_atom_site_label
_atom_site_fract_x
_atom_site_fract_y
_atom_site_fract_z
Si Si1 0.212722 0.857236 0.755377
Si Si2 0.312872 0.594295 0.448968
Si Si3 0.985260 0.710447 0.445867
Si Si4 0.301155 0.602707 0.226728
Si Si5 0.634728 0.839579 0.984493
Si Si6 0.372733 0.690426 0.831119
Si Si7 0.871239 0.694228 0.000039
O O1 0.288655 0.784882 0.585417
O O2 0.340806 0.815580 0.758144
O O3 0.151251 0.123010 0.859152
O O4 0.052580 0.693914 0.850961
O O5 0.179574 0.376756 0.514015
O O6 0.283276 0.711536 0.370971
O O7 0.484512 0.485420 0.307198
O O8 0.000000 0.500000 0.500000
O O9 0.146053 0.667428 0.271213
O O10 0.000000 0.000000 0.500000
O O11 0.466923 0.711307 0.099293
O O12 0.305291 0.308431 0.177293
O O13 0.765245 0.787314 0.983607
O O14 0.601195 0.119650 0.061890
O O15 0.211529 0.552071 0.945951
#
# Coordination Sequence:
#
# PCOD9011062 Si02
#       7
#     2   2   2   2   2   2   2
#     4  10  23  41  64  88 129 166 215 271 328 398
#     4  11  22  41  63  98 128 167 217 274 333 393
#     4  10  22  42  63  93 137 175 216 271 334 400
#     4  10  21  41  64  94 128 172 215 266 331 400
#     4  10  21  40  65  89 127 167 216 270 324 398
#     4  11  22  40  64  94 122 167 222 267 329 387
#     4  10  21  43  63  89 122 167 217 266 328 394
#
# _framework density 23.708083999999999
#
# number of rings (size 3 to 8) (size 9 to 14) (size 15 to 20)
#    0.000    1.714    1.429    2.571    0.000    1.143 
#   18.000    0.000    0.000    0.000    0.000    0.000 
#    0.000    0.000    0.000    0.000    0.000    0.000 
#
# Total GULP energy -78068.817405 kJ/mol
# GULP energy per Si atom -5576.344100 kJ/mol
# Density = 2.365412 g / cm^3
# Si number density = 23.708084 Si / 1000 Ang^3
#
#
#
# Elastic Constant Matrix: (Units=GPa)
#
#
# Indices 1 2 3 4 5 6 
#
# 1 81.4988 3.1312 1.1786 23.5318 -16.0101 -3.5248
# 2 3.1312 74.3470 22.2359 24.4218 10.7211 20.1911
# 3 1.1786 22.2359 126.9897 14.4131 20.1625 3.9864
# 4 23.5318 24.4218 14.4131 52.7039 -1.9397 -4.8282
# 5 -16.0101 10.7211 20.1625 -1.9397 51.6055 0.2752
# 6 -3.5248 20.1911 3.9864 -4.8282 0.2752 35.3661
#
#
#
# Elastic Compliance Matrix: (Units=1/GPa)
#
#
# Indices 1 2 3 4 5 6 
#
# 1 0.015105 0.001183 -0.000214 -0.007091 0.004258 -0.000147
# 2 0.001183 0.022052 -0.001464 -0.011765 -0.004010 -0.013882
# 3 -0.000214 -0.001464 0.008875 -0.001811 -0.003295 -0.000407
# 4 -0.007091 -0.011765 -0.001811 0.029092 0.001991 0.010171
# 5 0.004258 -0.004010 -0.003295 0.001991 0.022878 0.003179
# 6 -0.000147 -0.013882 -0.000407 0.010171 0.003179 0.037596
#
#
# Mechanical properties :
#
#
# Convention : Reuss Voigt Hill
#
# Bulk Modulus (GPa) = 22.20235 37.32523 29.76379
# Shear Modulus (GPa) = 32.98116 45.02106 39.00111
#
# Velocity S-wave (km/s) = 3.73384 4.36245 4.06033
# Velocity P-wave (km/s) = 5.28904 6.41502 5.87905
#
# Compressibility (1/GPa) = 0.04504029
#
# Stress axis : x y z
#
# Youngs Moduli (GPa) = 66.20189 45.34828 112.68029
#
# Poissons Ratio (x) = -0.05364 0.02412
# Poissons Ratio (y) = -0.07830 0.16501
# Poissons Ratio (z) = 0.01417 0.06641
#
# Static dielectric constant tensor:
#      x y z
#    x 1.976910 -0.034420 -0.027490 
#    y -0.034420 1.965680 0.000050 
#    z -0.027490 0.000050 1.923940 
# 
# From -- ./inp_files/71727.got.cif
#   From: 2010.05.17/outbox.cif.g08.bks.cpg/sg2_36_cif.got.tgz:71727.got - 2010.06.03 11:33:40.
