data_PCOD9011879
_publ_section_title
;
Structure prediction by ZEFSAII (Michael W. Deem and Ramdas Pophale) SiO2 
 PCOD9011879
Probable space group: P -1
;
_chemical_formula_sum "Si O2"
_cell_formula_units_Z 16
_cell_length_a 7.288613
_cell_length_b 16.797175
_cell_length_c 8.737729
_cell_angle_alpha 54.737879
_cell_angle_beta 126.706865
_cell_angle_gamma 118.315768
_cell_volume 686.474827
_symmetry_space_group_name_H-M "P -1"
_symmetry_group_IT_number 2
_symmetry_cell_setting 'triclinic'
loop_
_space_group_symop_operation_xyz
x,y,z
-x,-y,-z
loop_
_atom_site_type_symbol
_atom_site_label
_atom_site_fract_x
_atom_site_fract_y
_atom_site_fract_z
Si Si1 0.521277 0.738402 0.599237
Si Si2 0.153252 0.445727 0.748727
Si Si3 0.983043 0.235492 0.769016
Si Si4 0.352357 0.580334 0.951226
Si Si5 0.349507 0.227125 0.697341
Si Si6 0.249029 0.109005 0.217559
Si Si7 0.982269 0.074896 0.544140
Si Si8 0.308477 0.773516 0.880621
O O1 0.469942 0.647866 0.791409
O O2 0.608320 0.712022 0.506306
O O3 0.694969 0.828000 0.668469
O O4 0.274865 0.772305 0.413814
O O5 0.045956 0.329451 0.809389
O O6 0.168188 0.494589 0.871139
O O7 0.000000 0.500000 0.500000
O O8 0.425962 0.455632 0.824334
O O9 0.169867 0.257666 0.696905
O O10 0.030474 0.139592 0.988260
O O11 0.262229 0.660796 0.920981
O O12 0.223031 0.116968 0.703648
O O13 0.596781 0.227874 0.899293
O O14 0.468155 0.158604 0.168670
O O15 0.197986 0.992285 0.354240
O O16 0.891698 0.169393 0.328526
O O17 0.000000 0.000000 0.500000
#
# Coordination Sequence:
#
# PCOD9011879 Si02
#       8
#     2   2   2   2   2   2   2   2
#     4  11  21  39  66  91 129 170 211 264 322 378
#     4  11  20  37  73  97 126 166 216 257 327 389
#     4  11  23  42  67  96 127 173 213 265 325 381
#     4  10  21  40  67  97 128 171 207 264 324 387
#     4  11  24  41  65  93 130 169 217 267 318 383
#     4  10  22  43  59  90 128 171 219 259 322 381
#     4  12  25  39  62  95 128 171 219 269 320 376
#     4  10  23  42  65  91 129 172 215 265 322 378
#
# _framework density 23.307482
#
# number of rings (size 3 to 8) (size 9 to 14) (size 15 to 20)
#    0.000    1.250    6.250    1.875    1.750    3.500 
#    0.000    0.625    0.000    1.500    0.000    0.000 
#    0.000    0.000    0.000    0.000    0.000    0.000 
#
# Total GULP energy -89418.307553 kJ/mol
# GULP energy per Si atom -5588.644222 kJ/mol
# Density = 2.325443 g / cm^3
# Si number density = 23.307482 Si / 1000 Ang^3
#
#
#
# Elastic Constant Matrix: (Units=GPa)
#
#
# Indices 1 2 3 4 5 6 
#
# 1 59.7590 5.5110 36.2542 2.1792 6.6653 2.2779
# 2 5.5110 74.9399 28.8781 7.7940 -8.1826 -18.0401
# 3 36.2542 28.8781 123.2452 15.7082 20.0500 -12.0143
# 4 2.1792 7.7940 15.7082 24.4696 -11.7816 -1.3792
# 5 6.6653 -8.1826 20.0500 -11.7816 37.2803 -8.5856
# 6 2.2779 -18.0401 -12.0143 -1.3792 -8.5856 23.4505
#
#
#
# Elastic Compliance Matrix: (Units=1/GPa)
#
#
# Indices 1 2 3 4 5 6 
#
# 1 0.021196 -0.000911 -0.006635 0.001600 -0.001433 -0.006590
# 2 -0.000911 0.021080 -0.005643 0.004571 0.013564 0.018649
# 3 -0.006635 -0.005643 0.015035 -0.013474 -0.012730 -0.001446
# 4 0.001600 0.004571 -0.013474 0.063285 0.030584 0.011377
# 5 -0.001433 0.013564 -0.012730 0.030584 0.052328 0.025009
# 6 -0.006590 0.018649 -0.001446 0.011377 0.025009 0.066714
#
#
# Mechanical properties :
#
#
# Convention : Reuss Voigt Hill
#
# Bulk Modulus (GPa) = 32.32680 44.35898 38.34289
# Shear Modulus (GPa) = 18.09454 29.52678 23.81066
#
# Velocity S-wave (km/s) = 2.78931 3.56313 3.19970
# Velocity P-wave (km/s) = 4.92681 6.00010 5.48975
#
# Compressibility (1/GPa) = 0.03093409
#
# Stress axis : x y z
#
# Youngs Moduli (GPa) = 47.17956 47.43730 66.51157
#
# Poissons Ratio (x) = 0.04323 0.44128
# Poissons Ratio (y) = 0.04299 0.37530
# Poissons Ratio (z) = 0.31302 0.26767
#
# Static dielectric constant tensor:
#      x y z
#    x 1.977030 0.006840 -0.015830 
#    y 0.006840 1.867230 0.013730 
#    z -0.015830 0.013730 1.906100 
# 
# From -- ./inp_files/212383.got.cif
#   From: 2010.05.17/outbox.cif.g08.bks.cpg/sg2_107_cif.got.tgz:212383.got - 2010.06.03 11:33:40.
