data_PCOD9011754
_publ_section_title
;
Structure prediction by ZEFSAII (Michael W. Deem and Ramdas Pophale) SiO2 
 PCOD9011754
Probable space group: P -1
;
_chemical_formula_sum "Si O2"
_cell_formula_units_Z 14
_cell_length_a 32.183603
_cell_length_b 17.019176
_cell_length_c 17.195475
_cell_angle_alpha 17.190908
_cell_angle_beta 15.485772
_cell_angle_gamma 16.418056
_cell_volume 648.368748
_symmetry_space_group_name_H-M "P -1"
_symmetry_group_IT_number 2
_symmetry_cell_setting 'triclinic'
loop_
_space_group_symop_operation_xyz
x,y,z
-x,-y,-z
loop_
_atom_site_type_symbol
_atom_site_label
_atom_site_fract_x
_atom_site_fract_y
_atom_site_fract_z
Si Si1 0.405551 0.850561 0.857183
Si Si2 0.641607 0.498596 0.022438
Si Si3 0.420824 0.025752 0.438316
Si Si4 0.046573 0.093589 0.632165
Si Si5 0.984769 0.791075 0.794716
Si Si6 0.556808 0.233574 0.711762
Si Si7 0.985152 0.587737 0.152367
O O1 0.421408 0.958173 0.813390
O O2 0.500000 0.000000 0.500000
O O3 0.500000 0.500000 0.000000
O O4 0.215526 0.975350 0.044121
O O5 0.584855 0.814537 0.782947
O O6 0.858696 0.322379 0.796725
O O7 0.546941 0.591217 0.188414
O O8 0.579631 0.289372 0.281365
O O9 0.231802 0.254087 0.605932
O O10 0.049916 0.261037 0.386072
O O11 0.232482 0.973019 0.454703
O O12 0.029052 0.793586 0.934889
O O13 0.064878 0.636034 0.881215
O O14 0.000000 0.000000 0.500000
O O15 0.000000 0.500000 0.000000
O O16 0.500000 0.500000 0.500000
O O17 0.500000 0.000000 0.000000
#
# Coordination Sequence:
#
# PCOD9011754 Si02
#       7
#     2   2   2   2   2   2   2
#     4  12  24  40  66  92 131 182 228 278 340 385
#     4  10  23  42  66  98 128 169 227 261 322 411
#     4  10  21  40  67  91 126 176 225 272 314 390
#     4  10  23  42  68  95 124 176 212 267 335 391
#     4  12  26  40  59  96 136 175 227 286 343 393
#     4  12  26  44  69 101 136 165 207 274 339 410
#     4  10  21  41  65  87 131 172 219 271 325 392
#
# _framework density 21.592649999999999
#
# number of rings (size 3 to 8) (size 9 to 14) (size 15 to 20)
#    0.000    1.143    1.429    4.286    4.000    4.571 
#    0.000    0.000    0.000    0.000    0.000    0.000 
#    0.000    0.000    0.000    0.000    0.000    0.000 
#
# Total GULP energy -77939.165512 kJ/mol
# GULP energy per Si atom -5567.083251 kJ/mol
# Density = 2.154350 g / cm^3
# Si number density = 21.592650 Si / 1000 Ang^3
#
#
#
# Elastic Constant Matrix: (Units=GPa)
#
#
# Indices 1 2 3 4 5 6 
#
# 1 72.8478 16.3384 14.2875 8.1514 12.4602 -5.8345
# 2 16.3384 65.9392 17.1368 -17.6631 -4.0734 -6.1646
# 3 14.2875 17.1368 97.4749 -32.6526 19.2325 -8.4988
# 4 8.1514 -17.6631 -32.6526 37.4207 -0.8329 -3.8189
# 5 12.4602 -4.0734 19.2325 -0.8329 51.4938 -2.8109
# 6 -5.8345 -6.1646 -8.4988 -3.8189 -2.8109 33.3775
#
#
#
# Elastic Compliance Matrix: (Units=1/GPa)
#
#
# Indices 1 2 3 4 5 6 
#
# 1 0.017837 -0.006482 -0.004617 -0.011131 -0.003329 -0.000809
# 2 -0.006482 0.020488 0.001484 0.012934 0.003105 0.004770
# 3 -0.004617 0.001484 0.018209 0.018072 -0.004960 0.005753
# 4 -0.011131 0.012934 0.018072 0.052095 -0.001597 0.010871
# 5 -0.003329 0.003105 -0.004960 -0.001597 0.022321 0.000426
# 6 -0.000809 0.004770 0.005753 0.010871 0.000426 0.033445
#
#
# Mechanical properties :
#
#
# Convention : Reuss Voigt Hill
#
# Bulk Modulus (GPa) = 26.80748 36.86526 31.83637
# Shear Modulus (GPa) = 25.50242 37.02501 31.26372
#
# Velocity S-wave (km/s) = 3.44040 4.14539 3.80924
# Velocity P-wave (km/s) = 5.31261 6.32633 5.84150
#
# Compressibility (1/GPa) = 0.03730302
#
# Stress axis : x y z
#
# Youngs Moduli (GPa) = 56.06416 48.80833 54.91825
#
# Poissons Ratio (x) = 0.31640 0.25356
# Poissons Ratio (y) = 0.36343 -0.08150
# Poissons Ratio (z) = 0.25885 -0.07244
#
# Static dielectric constant tensor:
#      x y z
#    x 1.854260 -0.095120 -0.004500 
#    y -0.095120 1.757340 0.069090 
#    z -0.004500 0.069090 2.026760 
# 
# From -- ./inp_files/503515.got.cif
#   From: 2010.05.17/outbox.cif.g08.bks.cpg/sg2_252_cif.got.tgz:503515.got - 2010.06.03 11:33:40.
