data_PCOD9011932
_publ_section_title
;
Structure prediction by ZEFSAII (Michael W. Deem and Ramdas Pophale) SiO2 
 PCOD9011932
Probable space group: P -1
;
_chemical_formula_sum "Si O2"
_cell_formula_units_Z 14
_cell_length_a 6.456197
_cell_length_b 9.912675
_cell_length_c 11.503370
_cell_angle_alpha 68.702688
_cell_angle_beta 113.202914
_cell_angle_gamma 118.729306
_cell_volume 579.388370
_symmetry_space_group_name_H-M "P -1"
_symmetry_group_IT_number 2
_symmetry_cell_setting 'triclinic'
loop_
_space_group_symop_operation_xyz
x,y,z
-x,-y,-z
loop_
_atom_site_type_symbol
_atom_site_label
_atom_site_fract_x
_atom_site_fract_y
_atom_site_fract_z
Si Si1 0.276082 0.079970 0.989451
Si Si2 0.478613 0.933630 0.257488
Si Si3 0.005097 0.779475 0.715014
Si Si4 0.171005 0.494820 0.818308
Si Si5 0.977504 0.800400 0.282114
Si Si6 0.299704 0.325270 0.101348
Si Si7 0.661681 0.684724 0.463352
O O1 0.385097 0.230893 0.052121
O O2 0.399231 0.963375 0.099592
O O3 0.223394 0.137966 0.834657
O O4 0.000000 0.000000 0.000000
O O5 0.502159 0.772557 0.346057
O O6 0.252120 0.931270 0.289304
O O7 0.740608 0.073721 0.296252
O O8 0.049317 0.619867 0.754349
O O9 0.910709 0.777525 0.825946
O O10 0.787266 0.767713 0.584334
O O11 0.033894 0.340044 0.761761
O O12 0.450584 0.574369 0.807885
O O13 0.199680 0.435633 0.972028
O O14 0.888907 0.726758 0.410753
O O15 0.500000 0.500000 0.500000
#
# Coordination Sequence:
#
# PCOD9011932 Si02
#       7
#     2   2   2   2   2   2   2
#     4   9  20  43  67 101 130 169 215 276 343 382
#     4  11  25  45  67 102 131 176 225 276 342 384
#     4  12  25  41  69 102 136 174 226 273 329 399
#     4  10  21  42  68  99 132 180 220 269 339 385
#     4  10  24  46  71  95 139 174 221 280 328 403
#     4  10  21  40  67  99 138 169 221 277 329 397
#     4  12  28  47  66  97 136 184 230 264 329 405
#
# _framework density 24.163411
#
# number of rings (size 3 to 8) (size 9 to 14) (size 15 to 20)
#    0.000    1.429    1.429    2.571    4.000    4.571 
#    7.714    0.000    0.000    0.000    0.000    0.000 
#    0.000    0.000    0.000    0.000    0.000    0.000 
#
# Total GULP energy -78268.968207 kJ/mol
# GULP energy per Si atom -5590.640586 kJ/mol
# Density = 2.410841 g / cm^3
# Si number density = 24.163411 Si / 1000 Ang^3
#
#
#
# Elastic Constant Matrix: (Units=GPa)
#
#
# Indices 1 2 3 4 5 6 
#
# 1 83.1039 32.3132 35.3880 -18.1954 5.6572 12.2671
# 2 32.3132 103.0198 30.9576 -19.3206 7.7821 16.4506
# 3 35.3880 30.9576 111.5190 -28.4424 -1.7525 5.7334
# 4 -18.1954 -19.3206 -28.4424 38.4649 -0.5250 8.9305
# 5 5.6572 7.7821 -1.7525 -0.5250 41.9013 -14.4347
# 6 12.2671 16.4506 5.7334 8.9305 -14.4347 49.2850
#
#
#
# Elastic Compliance Matrix: (Units=1/GPa)
#
#
# Indices 1 2 3 4 5 6 
#
# 1 0.016341 -0.002090 -0.002965 0.005624 -0.003631 -0.005107
# 2 -0.002090 0.013150 -0.001188 0.006090 -0.004225 -0.006072
# 3 -0.002965 -0.001188 0.012197 0.007355 0.000741 -0.001400
# 4 0.005624 0.006090 0.007355 0.040146 -0.005631 -0.013212
# 5 -0.003631 -0.004225 0.000741 -0.005631 0.029162 0.011790
# 6 -0.005107 -0.006072 -0.001400 -0.013212 0.011790 0.029598
#
#
# Mechanical properties :
#
#
# Convention : Reuss Voigt Hill
#
# Bulk Modulus (GPa) = 34.24502 54.99560 44.62031
# Shear Modulus (GPa) = 30.70952 39.19582 34.95267
#
# Velocity S-wave (km/s) = 3.56885 4.03192 3.80743
# Velocity P-wave (km/s) = 5.58438 6.66966 6.15100
#
# Compressibility (1/GPa) = 0.02920133
#
# Stress axis : x y z
#
# Youngs Moduli (GPa) = 61.19640 76.04299 81.98490
#
# Poissons Ratio (x) = 0.15892 0.24312
# Poissons Ratio (y) = 0.12789 0.09743
# Poissons Ratio (z) = 0.18148 0.09036
#
# Static dielectric constant tensor:
#      x y z
#    x 1.972770 -0.022670 -0.011060 
#    y -0.022670 2.006760 0.000390 
#    z -0.011060 0.000390 1.920250 
# 
# From -- ./inp_files/361849.got.cif
#   From: 2010.05.17/outbox.cif.g08.bks.cpg/sg2_181_cif.got.tgz:361849.got - 2010.06.03 11:33:40.
