data_PCOD9011967
_publ_section_title
;
Structure prediction by ZEFSAII (Michael W. Deem and Ramdas Pophale) SiO2 
 PCOD9011967
Probable space group: P -1
;
_chemical_formula_sum "Si O2"
_cell_formula_units_Z 16
_cell_length_a 8.344318
_cell_length_b 15.129128
_cell_length_c 9.221682
_cell_angle_alpha 82.372643
_cell_angle_beta 108.269175
_cell_angle_gamma 138.811120
_cell_volume 718.032409
_symmetry_space_group_name_H-M "P -1"
_symmetry_group_IT_number 2
_symmetry_cell_setting 'triclinic'
loop_
_space_group_symop_operation_xyz
x,y,z
-x,-y,-z
loop_
_atom_site_type_symbol
_atom_site_label
_atom_site_fract_x
_atom_site_fract_y
_atom_site_fract_z
Si Si1 0.469348 0.055033 0.112650
Si Si2 0.846205 0.904886 0.617456
Si Si3 0.318871 0.630285 0.563381
Si Si4 0.977300 0.121119 0.762620
Si Si5 0.771498 0.542578 0.653611
Si Si6 0.928895 0.176711 0.418158
Si Si7 0.297691 0.660095 0.874291
Si Si8 0.518986 0.432185 0.897779
O O1 0.532120 0.184721 0.069872
O O2 0.671773 0.107382 0.283182
O O3 0.196645 0.930521 0.137151
O O4 0.500000 0.000000 0.000000
O O5 0.534527 0.791724 0.545511
O O6 0.933301 0.837366 0.650155
O O7 0.960568 0.008017 0.758053
O O8 0.000000 0.000000 0.500000
O O9 0.381171 0.582989 0.468879
O O10 0.386255 0.652030 0.747463
O O11 0.000000 0.500000 0.500000
O O12 0.883058 0.121404 0.578910
O O13 0.249817 0.274891 0.831079
O O14 0.885415 0.664615 0.558908
O O15 0.614567 0.510155 0.755993
O O16 0.017016 0.587749 0.778069
O O17 0.300439 0.578633 0.001393
O O18 0.500000 0.500000 0.000000
#
# Coordination Sequence:
#
# PCOD9011967 Si02
#       8
#     2   2   2   2   2   2   2   2
#     4  11  25  45  70 102 138 182 226 284 350 416
#     4  10  21  40  68 101 136 175 228 289 345 406
#     4  10  21  42  72 100 131 180 236 287 344 409
#     4  11  25  45  68 101 137 182 232 287 347 410
#     4  10  23  45  70  97 137 182 231 284 348 408
#     4  10  24  43  73 101 136 177 236 288 339 414
#     4  10  24  46  68  97 137 183 227 284 349 414
#     4  12  29  44  66 103 143 182 231 285 350 423
#
# _framework density 22.283117000000001
#
# number of rings (size 3 to 8) (size 9 to 14) (size 15 to 20)
#    0.000    1.500    1.250    2.250    8.750    1.500 
#    0.000    0.000    0.000    0.000    0.000    0.000 
#    0.000    0.000    0.000    0.000    0.000    0.000 
#
# Total GULP energy -89215.197141 kJ/mol
# GULP energy per Si atom -5575.949821 kJ/mol
# Density = 2.223240 g / cm^3
# Si number density = 22.283117 Si / 1000 Ang^3
#
#
#
# Elastic Constant Matrix: (Units=GPa)
#
#
# Indices 1 2 3 4 5 6 
#
# 1 54.9477 6.2213 11.5857 -9.5744 -16.2994 2.9843
# 2 6.2213 93.0805 11.3525 4.9486 -7.1324 2.3353
# 3 11.5857 11.3525 48.7012 -6.2253 -24.6314 -9.3771
# 4 -9.5744 4.9486 -6.2253 33.2818 -0.8676 -5.9113
# 5 -16.2994 -7.1324 -24.6314 -0.8676 54.5508 -1.5283
# 6 2.9843 2.3353 -9.3771 -5.9113 -1.5283 41.2767
#
#
#
# Elastic Compliance Matrix: (Units=1/GPa)
#
#
# Indices 1 2 3 4 5 6 
#
# 1 0.021405 -0.001144 -0.001264 0.006121 0.005754 -0.000680
# 2 -0.001144 0.011394 -0.003332 -0.002971 -0.000453 -0.001761
# 3 -0.001264 -0.003332 0.031293 0.007947 0.013696 0.009034
# 4 0.006121 -0.002971 0.007947 0.035088 0.005776 0.006770
# 5 0.005754 -0.000453 0.013696 0.005776 0.026394 0.004526
# 6 -0.000680 -0.001761 0.009034 0.006770 0.004526 0.027565
#
#
# Mechanical properties :
#
#
# Convention : Reuss Voigt Hill
#
# Bulk Modulus (GPa) = 19.00704 28.33869 23.67287
# Shear Modulus (GPa) = 27.44888 36.99318 32.22103
#
# Velocity S-wave (km/s) = 3.51354 4.07891 3.80673
# Velocity P-wave (km/s) = 5.00083 5.91003 5.47434
#
# Compressibility (1/GPa) = 0.05261209
#
# Stress axis : x y z
#
# Youngs Moduli (GPa) = 46.71718 87.76833 31.95610
#
# Poissons Ratio (x) = 0.10040 0.04040
# Poissons Ratio (y) = 0.05344 0.10647
# Poissons Ratio (z) = 0.05906 0.29243
#
# Static dielectric constant tensor:
#      x y z
#    x 1.939740 -0.022650 0.059830 
#    y -0.022650 1.874040 0.006790 
#    z 0.059830 0.006790 1.819550 
# 
# From -- ./inp_files/207105.got.cif
#   From: 2010.05.17/outbox.cif.g08.bks.cpg/sg2_104_cif.got.tgz:207105.got - 2010.06.03 11:33:40.
