data_PCOD9011798
_publ_section_title
;
Structure prediction by ZEFSAII (Michael W. Deem and Ramdas Pophale) SiO2 
 PCOD9011798
Probable space group: P -1
;
_chemical_formula_sum "Si O2"
_cell_formula_units_Z 16
_cell_length_a 20.985496
_cell_length_b 8.466484
_cell_length_c 8.699693
_cell_angle_alpha 113.706300
_cell_angle_beta 123.933591
_cell_angle_gamma 35.009991
_cell_volume 730.805838
_symmetry_space_group_name_H-M "P -1"
_symmetry_group_IT_number 2
_symmetry_cell_setting 'triclinic'
loop_
_space_group_symop_operation_xyz
x,y,z
-x,-y,-z
loop_
_atom_site_type_symbol
_atom_site_label
_atom_site_fract_x
_atom_site_fract_y
_atom_site_fract_z
Si Si1 0.015638 0.176838 0.108362
Si Si2 0.197258 0.141932 0.401208
Si Si3 0.330846 0.769225 0.987615
Si Si4 0.034884 0.693414 0.565154
Si Si5 0.804920 0.277688 0.342577
Si Si6 0.204216 0.319152 0.161108
Si Si7 0.414163 0.634231 0.689870
Si Si8 0.370763 0.325235 0.464965
O O1 0.950309 0.332563 0.243318
O O2 0.147533 0.039755 0.245566
O O3 0.938815 0.399585 0.955818
O O4 0.000000 0.000000 0.000000
O O5 0.085578 0.430611 0.454980
O O6 0.221984 0.213305 0.313516
O O7 0.317934 0.921990 0.583474
O O8 0.244868 0.753136 0.874087
O O9 0.375175 0.687504 0.837602
O O10 0.443506 0.562568 0.178555
O O11 0.260659 0.071604 0.034364
O O12 0.116231 0.703272 0.606018
O O13 0.894242 0.995560 0.453568
O O14 0.695408 0.543574 0.405700
O O15 0.274406 0.378080 0.260776
O O16 0.400576 0.471631 0.527666
O O17 0.500000 0.000000 0.500000
#
# Coordination Sequence:
#
# PCOD9011798 Si02
#       8
#     2   2   2   2   2   2   2   2
#     4  12  26  41  65  98 132 172 219 278 329 392
#     4  12  25  43  67  98 134 176 219 269 336 401
#     4  10  21  40  67  93 131 170 223 274 320 384
#     4  11  23  43  69  94 138 174 220 266 337 403
#     4  10  22  41  69 100 129 177 217 274 333 392
#     4  12  24  41  65  99 132 170 224 273 332 387
#     4  10  22  42  67  94 130 178 222 263 331 396
#     4  11  21  44  67  96 133 175 216 268 332 394
#
# _framework density 21.893640000000001
#
# number of rings (size 3 to 8) (size 9 to 14) (size 15 to 20)
#    0.000    1.000    2.500    5.250    3.500    0.500 
#    0.000    0.625    0.000    0.000    0.000    0.000 
#    0.000    0.000    0.000    0.000    0.000    0.000 
#
# Total GULP energy -89408.824520 kJ/mol
# GULP energy per Si atom -5588.051533 kJ/mol
# Density = 2.184381 g / cm^3
# Si number density = 21.893640 Si / 1000 Ang^3
#
#
#
# Elastic Constant Matrix: (Units=GPa)
#
#
# Indices 1 2 3 4 5 6 
#
# 1 33.7109 26.6305 29.8696 -5.7924 16.4872 8.2696
# 2 26.6305 114.7761 56.0934 2.1437 5.5822 8.7568
# 3 29.8696 56.0934 100.7263 -8.6180 34.9260 11.9650
# 4 -5.7924 2.1437 -8.6180 56.1859 10.2218 2.7741
# 5 16.4872 5.5822 34.9260 10.2218 37.4845 1.7621
# 6 8.2696 8.7568 11.9650 2.7741 1.7621 25.8087
#
#
#
# Elastic Compliance Matrix: (Units=1/GPa)
#
#
# Indices 1 2 3 4 5 6 
#
# 1 0.056443 -0.012099 0.002559 0.012512 -0.028135 -0.014591
# 2 -0.012099 0.016519 -0.012095 -0.006784 0.015815 0.003528
# 3 0.002559 -0.012095 0.027168 0.010232 -0.027026 -0.008566
# 4 0.012512 -0.006784 0.010232 0.025026 -0.020487 -0.007742
# 5 -0.028135 0.015815 -0.027026 -0.020487 0.066816 0.013818
# 6 -0.014591 0.003528 -0.008566 -0.007742 0.013818 0.046085
#
#
# Mechanical properties :
#
#
# Convention : Reuss Voigt Hill
#
# Bulk Modulus (GPa) = 17.58645 52.71113 35.14879
# Shear Modulus (GPa) = 16.65115 33.00382 24.82749
#
# Velocity S-wave (km/s) = 2.76079 3.88682 3.37115
# Velocity P-wave (km/s) = 4.26764 6.65368 5.58946
#
# Compressibility (1/GPa) = 0.05686196
#
# Stress axis : x y z
#
# Youngs Moduli (GPa) = 17.71688 60.53616 36.80741
#
# Poissons Ratio (x) = 0.73242 -0.09419
# Poissons Ratio (y) = 0.21435 0.44517
# Poissons Ratio (z) = -0.04534 0.73216
#
# Static dielectric constant tensor:
#      x y z
#    x 1.835770 -0.016690 0.020900 
#    y -0.016690 1.797660 0.001020 
#    z 0.020900 0.001020 1.813470 
# 
# From -- ./inp_files/178221.got.cif
#   From: 2010.05.17/outbox.cif.g08.bks.cpg/sg2_90_cif.got.tgz:178221.got - 2010.06.03 11:33:40.
