data_PCOD9011871
_publ_section_title
;
Structure prediction by ZEFSAII (Michael W. Deem and Ramdas Pophale) SiO2 
 PCOD9011871
Probable space group: P -1
;
_chemical_formula_sum "Si O2"
_cell_formula_units_Z 14
_cell_length_a 12.561294
_cell_length_b 5.335128
_cell_length_c 15.390075
_cell_angle_alpha 109.517600
_cell_angle_beta 141.848477
_cell_angle_gamma 75.384495
_cell_volume 600.423999
_symmetry_space_group_name_H-M "P -1"
_symmetry_group_IT_number 2
_symmetry_cell_setting 'triclinic'
loop_
_space_group_symop_operation_xyz
x,y,z
-x,-y,-z
loop_
_atom_site_type_symbol
_atom_site_label
_atom_site_fract_x
_atom_site_fract_y
_atom_site_fract_z
Si Si1 0.463581 0.925357 0.334944
Si Si2 0.336035 0.152199 0.948016
Si Si3 0.734066 0.223575 0.635863
Si Si4 0.805415 0.944962 0.336047
Si Si5 0.077303 0.051229 0.908459
Si Si6 0.838255 0.744598 0.852530
Si Si7 0.592875 0.491659 0.250779
O O1 0.363901 0.898997 0.358415
O O2 0.527218 0.642242 0.311370
O O3 0.624741 0.128283 0.472739
O O4 0.312253 0.046983 0.195460
O O5 0.240477 0.000247 0.947893
O O6 0.209373 0.161964 0.785352
O O7 0.424631 0.416277 0.075937
O O8 0.500000 0.000000 0.000000
O O9 0.747919 0.528827 0.707370
O O10 0.925000 0.112222 0.749918
O O11 0.698754 0.221771 0.303808
O O12 0.711775 0.713439 0.305077
O O13 0.000000 0.000000 0.500000
O O14 0.105870 0.310376 0.018628
O O15 0.993011 0.851962 0.902404
#
# Coordination Sequence:
#
# PCOD9011871 Si02
#       7
#     2   2   2   2   2   2   2
#     4  10  23  38  66  95 138 177 231 283 356 420
#     4  10  24  46  70  99 141 185 236 289 354 420
#     4  10  21  41  59  99 135 179 226 290 349 419
#     4  11  26  50  73 105 139 183 241 299 351 418
#     4  10  22  40  64 100 133 177 235 284 349 409
#     4  10  21  40  67  96 136 183 228 287 348 423
#     4  11  25  47  74 103 140 188 233 291 359 421
#
# _framework density 23.316855
#
# number of rings (size 3 to 8) (size 9 to 14) (size 15 to 20)
#    0.000    1.714    0.000    2.571    8.000    2.286 
#    5.143    0.000    0.000    0.000    0.000    0.000 
#    0.000    0.000    0.000    0.000    0.000    0.000 
#
# Total GULP energy -78089.930822 kJ/mol
# GULP energy per Si atom -5577.852202 kJ/mol
# Density = 2.326379 g / cm^3
# Si number density = 23.316855 Si / 1000 Ang^3
#
#
#
# Elastic Constant Matrix: (Units=GPa)
#
#
# Indices 1 2 3 4 5 6 
#
# 1 115.2221 36.4050 35.0472 -24.0653 14.3834 -14.1597
# 2 36.4050 120.0923 33.7204 -10.3864 4.6055 -22.8241
# 3 35.0472 33.7204 173.7220 7.9189 17.9249 -10.9699
# 4 -24.0653 -10.3864 7.9189 23.7879 11.1363 2.0377
# 5 14.3834 4.6055 17.9249 11.1363 26.9561 11.8186
# 6 -14.1597 -22.8241 -10.9699 2.0377 11.8186 38.7138
#
#
#
# Elastic Compliance Matrix: (Units=1/GPa)
#
#
# Indices 1 2 3 4 5 6 
#
# 1 0.024757 0.001855 -0.002189 0.042765 -0.038018 0.018884
# 2 0.001855 0.011465 -0.001354 0.011743 -0.011224 0.009863
# 3 -0.002189 -0.001354 0.006934 -0.004300 -0.001957 0.001189
# 4 0.042765 0.011743 -0.004300 0.133113 -0.096110 0.043681
# 5 -0.038018 -0.011224 -0.001957 -0.096110 0.123916 -0.053848
# 6 0.018884 0.009863 0.001189 0.043681 -0.053848 0.053029
#
#
# Mechanical properties :
#
#
# Convention : Reuss Voigt Hill
#
# Bulk Modulus (GPa) = 25.13789 68.82017 46.97903
# Shear Modulus (GPa) = 13.51901 38.14914 25.83407
#
# Velocity S-wave (km/s) = 2.41051 4.04928 3.33221
# Velocity P-wave (km/s) = 4.30718 7.17228 5.91580
#
# Compressibility (1/GPa) = 0.03978059
#
# Stress axis : x y z
#
# Youngs Moduli (GPa) = 40.39270 87.21963 144.22215
#
# Poissons Ratio (x) = -0.16182 0.31568
# Poissons Ratio (y) = -0.07494 0.19530
# Poissons Ratio (z) = 0.08841 0.11811
#
# Static dielectric constant tensor:
#      x y z
#    x 1.832500 -0.002250 0.019620 
#    y -0.002250 1.962210 -0.010950 
#    z 0.019620 -0.010950 2.061760 
# 
# From -- ./inp_files/137921.got.cif
#   From: 2010.05.17/outbox.cif.g08.bks.cpg/sg2_69_cif.got.tgz:137921.got - 2010.06.03 11:33:40.
