data_PCOD9011991
_publ_section_title
;
Structure prediction by ZEFSAII (Michael W. Deem and Ramdas Pophale) SiO2 
 PCOD9011991
Probable space group: P -1
;
_chemical_formula_sum "Si O2"
_cell_formula_units_Z 16
_cell_length_a 6.346301
_cell_length_b 11.069836
_cell_length_c 22.196689
_cell_angle_alpha 30.457017
_cell_angle_beta 60.519122
_cell_angle_gamma 67.207946
_cell_volume 685.686446
_symmetry_space_group_name_H-M "P -1"
_symmetry_group_IT_number 2
_symmetry_cell_setting 'triclinic'
loop_
_space_group_symop_operation_xyz
x,y,z
-x,-y,-z
loop_
_atom_site_type_symbol
_atom_site_label
_atom_site_fract_x
_atom_site_fract_y
_atom_site_fract_z
Si Si1 0.605412 0.292775 0.533232
Si Si2 0.118940 0.083904 0.284841
Si Si3 0.633690 0.832861 0.507044
Si Si4 0.525777 0.392723 0.797587
Si Si5 0.675001 0.006815 0.084011
Si Si6 0.019890 0.408410 0.913976
Si Si7 0.140291 0.092928 0.140167
Si Si8 0.030058 0.339525 0.735397
O O1 0.500000 0.500000 0.500000
O O2 0.458909 0.200820 0.534128
O O3 0.850061 0.423769 0.413751
O O4 0.656691 0.067225 0.664637
O O5 0.051591 0.062152 0.233479
O O6 0.136274 0.367540 0.169521
O O7 0.901044 0.962167 0.407471
O O8 0.591557 0.572756 0.655642
O O9 0.500000 0.000000 0.500000
O O10 0.303029 0.483753 0.826945
O O11 0.794799 0.378257 0.793140
O O12 0.414054 0.131823 0.904050
O O13 0.433852 0.127069 0.087143
O O14 0.758445 0.789088 0.206292
O O15 0.903378 0.198926 0.977123
O O16 0.026921 0.293525 0.029174
O O17 0.073610 0.845580 0.221070
#
# Coordination Sequence:
#
# PCOD9011991 Si02
#       8
#     2   2   2   2   2   2   2   2
#     4  12  26  44  77 107 141 190 240 292 355 436
#     4  12  26  45  70 106 144 190 232 299 366 424
#     4  12  26  48  72 109 151 183 232 299 369 431
#     4  11  22  43  70 102 142 185 239 294 357 427
#     4  10  22  42  69  99 136 185 242 295 344 422
#     4  11  25  44  67 100 142 192 238 292 355 426
#     4  10  24  43  69  99 141 184 246 294 349 413
#     4  10  21  40  68 103 135 179 235 299 347 416
#
# _framework density 23.334282000000002
#
# number of rings (size 3 to 8) (size 9 to 14) (size 15 to 20)
#    0.000    1.000    3.750    2.250    1.750    9.500 
#    2.250    0.000    0.000    0.000    0.000    0.000 
#    0.000    0.000    0.000    0.000    0.000    0.000 
#
# Total GULP energy -89367.077590 kJ/mol
# GULP energy per Si atom -5585.442349 kJ/mol
# Density = 2.328117 g / cm^3
# Si number density = 23.334282 Si / 1000 Ang^3
#
#
#
# Elastic Constant Matrix: (Units=GPa)
#
#
# Indices 1 2 3 4 5 6 
#
# 1 83.5462 28.9329 51.8110 -8.1937 26.2836 -1.3127
# 2 28.9329 76.9602 12.1053 -11.4897 25.5114 -7.6733
# 3 51.8110 12.1053 107.6174 -15.2164 39.4388 -8.9068
# 4 -8.1937 -11.4897 -15.2164 36.4445 -5.1532 6.1995
# 5 26.2836 25.5114 39.4388 -5.1532 52.8510 5.9906
# 6 -1.3127 -7.6733 -8.9068 6.1995 5.9906 29.5412
#
#
#
# Elastic Compliance Matrix: (Units=1/GPa)
#
#
# Indices 1 2 3 4 5 6 
#
# 1 0.019786 -0.006724 -0.009510 -0.000891 0.000836 -0.003717
# 2 -0.006724 0.019835 0.006588 0.004438 -0.011651 0.008271
# 3 -0.009510 0.006588 0.019495 0.004640 -0.013559 0.008942
# 4 -0.000891 0.004438 0.004640 0.030948 -0.001732 -0.003631
# 5 0.000836 -0.011651 -0.013559 -0.001732 0.035659 -0.013945
# 6 -0.003717 0.008271 0.008942 -0.003631 -0.013945 0.042120
#
#
# Mechanical properties :
#
#
# Convention : Reuss Voigt Hill
#
# Bulk Modulus (GPa) = 25.11007 50.42468 37.76737
# Shear Modulus (GPa) = 24.94888 35.45231 30.20059
#
# Velocity S-wave (km/s) = 3.27340 3.90208 3.60148
# Velocity P-wave (km/s) = 5.00712 6.47752 5.78919
#
# Compressibility (1/GPa) = 0.03982466
#
# Stress axis : x y z
#
# Youngs Moduli (GPa) = 50.53956 50.41665 51.29577
#
# Poissons Ratio (x) = 0.33899 0.48781
# Poissons Ratio (y) = 0.33981 -0.33793
# Poissons Ratio (z) = 0.48062 -0.33214
#
# Static dielectric constant tensor:
#      x y z
#    x 1.969540 -0.015190 0.011540 
#    y -0.015190 2.140220 -0.027950 
#    z 0.011540 -0.027950 1.864220 
# 
# From -- ./inp_files/604375.got.cif
#   From: 2010.05.17/outbox.cif.g08.bks.cpg/sg2_303_cif.got.tgz:604375.got - 2010.06.03 11:33:40.
