data_PCOD9011201
_publ_section_title
;
Structure prediction by ZEFSAII (Michael W. Deem and Ramdas Pophale) SiO2 
 PCOD9011201
Probable space group: P -1
;
_chemical_formula_sum "Si O2"
_cell_formula_units_Z 16
_cell_length_a 16.836507
_cell_length_b 8.928748
_cell_length_c 8.842643
_cell_angle_alpha 129.913949
_cell_angle_beta 78.609484
_cell_angle_gamma 133.407609
_cell_volume 666.294248
_symmetry_space_group_name_H-M "P -1"
_symmetry_group_IT_number 2
_symmetry_cell_setting 'triclinic'
loop_
_space_group_symop_operation_xyz
x,y,z
-x,-y,-z
loop_
_atom_site_type_symbol
_atom_site_label
_atom_site_fract_x
_atom_site_fract_y
_atom_site_fract_z
Si Si1 0.581837 0.255068 0.762079
Si Si2 0.278462 0.150957 0.043979
Si Si3 0.781704 0.310190 0.420044
Si Si4 0.866321 0.124736 0.796360
Si Si5 0.304292 0.547095 0.672770
Si Si6 0.530201 0.423030 0.180806
Si Si7 0.079128 0.335037 0.680480
Si Si8 0.707169 0.104499 0.638949
O O1 0.681295 0.562635 0.833107
O O2 0.635755 0.163047 0.765090
O O3 0.500000 0.000000 0.500000
O O4 0.394061 0.256026 0.150926
O O5 0.161425 0.923125 0.046437
O O6 0.462534 0.663455 0.044756
O O7 0.254382 0.973599 0.793995
O O8 0.684432 0.287929 0.367838
O O9 0.900830 0.568325 0.440377
O O10 0.780990 0.316216 0.602422
O O11 0.798443 0.173411 0.765412
O O12 0.783375 0.786330 0.561465
O O13 0.999502 0.665954 0.185573
O O14 0.419309 0.652787 0.773804
O O15 0.216378 0.521856 0.795187
O O16 0.615083 0.767154 0.397451
O O17 0.000000 0.000000 0.500000
#
# Coordination Sequence:
#
# PCOD9011201 Si02
#       8
#     2   2   2   2   2   2   2   2
#     4  12  24  42  66  89 135 180 211 264 322 383
#     4  12  24  40  63  96 132 173 213 262 328 387
#     4  10  21  40  65  94 127 174 208 262 333 372
#     4  10  22  40  66  96 129 164 224 269 309 390
#     4   8  20  40  66  91 125 171 206 264 326 376
#     4  11  23  43  63  97 137 163 217 265 317 398
#     4   8  18  41  66  92 124 169 216 266 322 379
#     4  11  23  41  64  99 131 170 215 266 325 377
#
# _framework density 24.013415999999999
#
# number of rings (size 3 to 8) (size 9 to 14) (size 15 to 20)
#    0.750    1.000    2.500    1.875    1.750    3.500 
#    2.250    0.000    0.000    1.500    0.000    0.000 
#    0.000    0.000    0.000    0.000    0.000    0.000 
#
# Total GULP energy -89305.773635 kJ/mol
# GULP energy per Si atom -5581.610852 kJ/mol
# Density = 2.395876 g / cm^3
# Si number density = 24.013416 Si / 1000 Ang^3
#
#
#
# Elastic Constant Matrix: (Units=GPa)
#
#
# Indices 1 2 3 4 5 6 
#
# 1 85.9786 17.6181 18.3950 6.9088 -33.2996 -11.2213
# 2 17.6181 132.8421 26.5680 11.8823 -13.8927 -3.3283
# 3 18.3950 26.5680 69.2082 7.4159 -16.5814 -8.4168
# 4 6.9088 11.8823 7.4159 31.9377 1.8706 -10.5879
# 5 -33.2996 -13.8927 -16.5814 1.8706 34.8637 2.6034
# 6 -11.2213 -3.3283 -8.4168 -10.5879 2.6034 39.6286
#
#
#
# Elastic Compliance Matrix: (Units=1/GPa)
#
#
# Indices 1 2 3 4 5 6 
#
# 1 0.019670 -0.000225 0.000206 -0.004250 0.018783 0.003225
# 2 -0.000225 0.008527 -0.002461 -0.002950 0.002231 -0.000805
# 3 0.000206 -0.002461 0.017770 -0.002927 0.007650 0.002341
# 4 -0.004250 -0.002950 -0.002927 0.037376 -0.009269 0.008522
# 5 0.018783 0.002231 0.007650 -0.009269 0.051554 0.001268
# 6 0.003225 -0.000805 0.002341 0.008522 0.001268 0.028771
#
#
# Mechanical properties :
#
#
# Convention : Reuss Voigt Hill
#
# Bulk Modulus (GPa) = 24.38547 45.91014 35.14781
# Shear Modulus (GPa) = 27.42806 36.31587 31.87196
#
# Velocity S-wave (km/s) = 3.38331 3.89307 3.64711
# Velocity P-wave (km/s) = 5.04374 6.27439 5.69242
#
# Compressibility (1/GPa) = 0.04100802
#
# Stress axis : x y z
#
# Youngs Moduli (GPa) = 50.83908 117.27859 56.27370
#
# Poissons Ratio (x) = 0.02634 -0.01159
# Poissons Ratio (y) = 0.01142 0.13848
# Poissons Ratio (z) = -0.01047 0.28860
#
# Static dielectric constant tensor:
#      x y z
#    x 1.956870 0.041160 -0.044850 
#    y 0.041160 1.948680 0.015620 
#    z -0.044850 0.015620 1.977520 
# 
# From -- ./inp_files/342097.got.cif
#   From: 2010.05.17/outbox.cif.g08.bks.cpg/sg2_172_cif.got.tgz:342097.got - 2010.06.03 11:33:40.
