data_PCOD9011811
_publ_section_title
;
Structure prediction by ZEFSAII (Michael W. Deem and Ramdas Pophale) SiO2 
 PCOD9011811
Probable space group: P -1
;
_chemical_formula_sum "Si O2"
_cell_formula_units_Z 14
_cell_length_a 11.840547
_cell_length_b 23.816941
_cell_length_c 5.218815
_cell_angle_alpha 115.165798
_cell_angle_beta 59.587240
_cell_angle_gamma 152.361894
_cell_volume 587.782270
_symmetry_space_group_name_H-M "P -1"
_symmetry_group_IT_number 2
_symmetry_cell_setting 'triclinic'
loop_
_space_group_symop_operation_xyz
x,y,z
-x,-y,-z
loop_
_atom_site_type_symbol
_atom_site_label
_atom_site_fract_x
_atom_site_fract_y
_atom_site_fract_z
Si Si1 0.315460 0.636977 0.599102
Si Si2 0.214354 0.000193 0.862554
Si Si3 0.223472 0.802370 0.515900
Si Si4 0.270927 0.356804 0.483546
Si Si5 0.094729 0.224858 0.938429
Si Si6 0.115801 0.619650 0.298647
Si Si7 0.154660 0.106338 0.336471
O O1 0.254806 0.631540 0.367721
O O2 0.613625 0.763527 0.549998
O O3 0.182078 0.517779 0.585716
O O4 0.189227 0.632149 0.947031
O O5 0.052480 0.899336 0.072772
O O6 0.027030 0.925302 0.688630
O O7 0.481317 0.073787 0.661836
O O8 0.273872 0.097891 0.014038
O O9 0.182243 0.715783 0.488974
O O10 0.006289 0.722489 0.391727
O O11 0.136317 0.818721 0.847798
O O12 0.500000 0.500000 0.500000
O O13 0.280507 0.316411 0.143731
O O14 0.239735 0.303663 0.669747
O O15 0.000000 0.000000 0.500000
#
# Coordination Sequence:
#
# PCOD9011811 Si02
#       7
#     2   2   2   2   2   2   2
#     4  10  22  41  63  95 128 174 217 277 324 394
#     4  11  24  45  62 104 133 185 228 280 334 405
#     4  10  23  40  73  94 136 175 220 284 335 402
#     4  10  24  45  68 100 133 177 220 279 343 401
#     4  10  25  43  71  99 134 174 227 278 339 408
#     4  10  21  40  67  94 129 165 226 268 336 393
#     4  11  25  40  69  92 144 181 227 279 333 396
#
# _framework density 23.818342999999999
#
# number of rings (size 3 to 8) (size 9 to 14) (size 15 to 20)
#    0.857    0.857    1.429    1.714    6.000    2.857 
#    0.000    0.000    0.000    0.000    0.000    0.000 
#    0.000    0.000    0.000    0.000    0.000    0.000 
#
# Total GULP energy -78191.289795 kJ/mol
# GULP energy per Si atom -5585.092128 kJ/mol
# Density = 2.376413 g / cm^3
# Si number density = 23.818343 Si / 1000 Ang^3
#
#
#
# Elastic Constant Matrix: (Units=GPa)
#
#
# Indices 1 2 3 4 5 6 
#
# 1 87.4569 51.8812 46.5340 -24.0908 9.3107 -1.4501
# 2 51.8812 155.8898 24.9429 -23.9509 -0.7785 -2.4773
# 3 46.5340 24.9429 70.1397 -14.1117 19.7714 2.6499
# 4 -24.0908 -23.9509 -14.1117 31.3278 -2.2981 -4.5206
# 5 9.3107 -0.7785 19.7714 -2.2981 39.8996 -3.4723
# 6 -1.4501 -2.4773 2.6499 -4.5206 -3.4723 51.3112
#
#
#
# Elastic Compliance Matrix: (Units=1/GPa)
#
#
# Indices 1 2 3 4 5 6 
#
# 1 0.022905 -0.004194 -0.012307 0.009252 0.001378 0.001989
# 2 -0.004194 0.008333 0.000095 0.003383 0.001347 0.000668
# 3 -0.012307 0.000095 0.025466 0.001032 -0.009880 -0.002236
# 4 0.009252 0.003383 0.001032 0.042701 0.000216 0.004148
# 5 0.001378 0.001347 -0.009880 0.000216 0.029907 0.002657
# 6 0.001989 0.000668 -0.002236 0.004148 0.002657 0.020238
#
#
# Mechanical properties :
#
#
# Convention : Reuss Voigt Hill
#
# Bulk Modulus (GPa) = 41.85555 62.24474 52.05014
# Shear Modulus (GPa) = 26.27064 37.18293 31.72679
#
# Velocity S-wave (km/s) = 3.32468 3.95537 3.65366
# Velocity P-wave (km/s) = 5.68762 6.85928 6.30074
#
# Compressibility (1/GPa) = 0.02389170
#
# Stress axis : x y z
#
# Youngs Moduli (GPa) = 43.65799 120.01165 39.26813
#
# Poissons Ratio (x) = 0.50332 0.48328
# Poissons Ratio (y) = 0.18310 -0.00373
# Poissons Ratio (z) = 0.53730 -0.01140
#
# Static dielectric constant tensor:
#      x y z
#    x 1.929360 -0.000260 -0.103530 
#    y -0.000260 1.890120 0.051720 
#    z -0.103530 0.051720 2.053770 
# 
# From -- ./inp_files/84411.got.cif
#   From: 2010.05.17/outbox.cif.g08.bks.cpg/sg2_43_cif.got.tgz:84411.got - 2010.06.03 11:33:40.
