data_PCOD9011134
_publ_section_title
;
Structure prediction by ZEFSAII (Michael W. Deem and Ramdas Pophale) SiO2 
 PCOD9011134
Probable space group: P -1
;
_chemical_formula_sum "Si O2"
_cell_formula_units_Z 14
_cell_length_a 8.468329
_cell_length_b 19.837620
_cell_length_c 8.552019
_cell_angle_alpha 150.513226
_cell_angle_beta 112.531587
_cell_angle_gamma 74.735230
_cell_volume 645.330577
_symmetry_space_group_name_H-M "P -1"
_symmetry_group_IT_number 2
_symmetry_cell_setting 'triclinic'
loop_
_space_group_symop_operation_xyz
x,y,z
-x,-y,-z
loop_
_atom_site_type_symbol
_atom_site_label
_atom_site_fract_x
_atom_site_fract_y
_atom_site_fract_z
Si Si1 0.671659 0.902418 0.426109
Si Si2 0.610155 0.383260 0.755832
Si Si3 0.940504 0.980924 0.215038
Si Si4 0.197262 0.850605 0.220205
Si Si5 0.185088 0.554836 0.753412
Si Si6 0.601455 0.891786 0.735438
Si Si7 0.456863 0.381698 0.376217
O O1 0.883721 0.915801 0.551243
O O2 0.329789 0.948857 0.358248
O O3 0.590966 0.890763 0.543327
O O4 0.604843 0.768366 0.025456
O O5 0.492066 0.248457 0.507332
O O6 0.607893 0.376660 0.552986
O O7 0.500000 0.500000 0.000000
O O8 0.786211 0.410136 0.979854
O O9 0.835532 0.059007 0.458065
O O10 0.014852 0.850907 0.059785
O O11 0.804146 0.928529 0.925986
O O12 0.240069 0.702222 0.982935
O O13 0.301814 0.438420 0.522657
O O14 0.000000 0.500000 0.500000
O O15 0.500000 0.000000 0.000000
O O16 0.500000 0.500000 0.500000
#
# Coordination Sequence:
#
# PCOD9011134 Si02
#       7
#     2   2   2   2   2   2   2
#     4  10  21  40  65  92 129 178 217 265 330 388
#     4  10  24  41  63  92 133 169 209 267 336 384
#     4   9  20  38  66  90 131 168 217 260 336 375
#     4   9  20  38  68  93 126 165 224 262 321 379
#     4  11  23  41  68  98 127 173 224 260 318 400
#     4  12  24  39  64  98 130 166 221 279 327 388
#     4  11  24  44  66  93 133 175 213 271 337 390
#
# _framework density 21.694309000000001
#
# number of rings (size 3 to 8) (size 9 to 14) (size 15 to 20)
#    0.857    0.857    0.000    4.714    4.000    1.143 
#    0.000    5.000    0.000    0.000    0.000    0.000 
#    0.000    0.000    0.000    0.000    0.000    0.000 
#
# Total GULP energy -78102.457367 kJ/mol
# GULP energy per Si atom -5578.746955 kJ/mol
# Density = 2.164493 g / cm^3
# Si number density = 21.694309 Si / 1000 Ang^3
#
#
#
# Elastic Constant Matrix: (Units=GPa)
#
#
# Indices 1 2 3 4 5 6 
#
# 1 51.0469 27.7922 29.4935 -11.8405 1.6830 5.1185
# 2 27.7922 149.6377 94.3676 -19.0245 5.4176 6.8325
# 3 29.4935 94.3676 142.4101 -19.0783 7.4838 -6.8059
# 4 -11.8405 -19.0245 -19.0783 61.0797 -13.4036 3.1654
# 5 1.6830 5.4176 7.4838 -13.4036 40.4857 -3.1872
# 6 5.1185 6.8325 -6.8059 3.1654 -3.1872 40.7261
#
#
#
# Elastic Compliance Matrix: (Units=1/GPa)
#
#
# Indices 1 2 3 4 5 6 
#
# 1 0.023624 -0.001541 -0.003635 0.003303 0.000713 -0.003519
# 2 -0.001541 0.012137 -0.007712 0.001245 0.000024 -0.003226
# 3 -0.003635 -0.007712 0.013196 0.000654 -0.000737 0.003847
# 4 0.003303 0.001245 0.000654 0.018940 0.005725 -0.001539
# 5 0.000713 0.000024 -0.000737 0.005725 0.026812 0.001437
# 6 -0.003519 -0.003226 0.003847 -0.001539 0.001437 0.026413
#
#
# Mechanical properties :
#
#
# Convention : Reuss Voigt Hill
#
# Bulk Modulus (GPa) = 43.13781 71.82236 57.48008
# Shear Modulus (GPa) = 32.33622 41.22108 36.77865
#
# Velocity S-wave (km/s) = 3.86494 4.36373 4.12189
# Velocity P-wave (km/s) = 6.31225 7.65297 7.01472
#
# Compressibility (1/GPa) = 0.02318152
#
# Stress axis : x y z
#
# Youngs Moduli (GPa) = 42.32934 82.38936 75.78307
#
# Poissons Ratio (x) = 0.12693 0.27546
# Poissons Ratio (y) = 0.06521 0.58447
# Poissons Ratio (z) = 0.15386 0.63542
#
# Static dielectric constant tensor:
#      x y z
#    x 1.839070 -0.039220 0.034490 
#    y -0.039220 1.848950 -0.073340 
#    z 0.034490 -0.073340 1.779640 
# 
# From -- ./inp_files/222800.got.cif
#   From: 2010.05.17/outbox.cif.g08.bks.cpg/sg2_112_cif.got.tgz:222800.got - 2010.06.03 11:33:40.
