data_PCOD9011338
_publ_section_title
;
Structure prediction by ZEFSAII (Michael W. Deem and Ramdas Pophale) SiO2 
 PCOD9011338
Probable space group: P -1
;
_chemical_formula_sum "Si O2"
_cell_formula_units_Z 12
_cell_length_a 11.607803
_cell_length_b 5.008733
_cell_length_c 11.163670
_cell_angle_alpha 96.079509
_cell_angle_beta 103.222662
_cell_angle_gamma 126.894699
_cell_volume 480.024061
_symmetry_space_group_name_H-M "P -1"
_symmetry_group_IT_number 2
_symmetry_cell_setting 'triclinic'
loop_
_space_group_symop_operation_xyz
x,y,z
-x,-y,-z
loop_
_atom_site_type_symbol
_atom_site_label
_atom_site_fract_x
_atom_site_fract_y
_atom_site_fract_z
Si Si1 0.350473 0.644296 0.644907
Si Si2 0.086632 0.563123 0.718695
Si Si3 0.660530 0.311372 0.806199
Si Si4 0.915925 0.811071 0.596071
Si Si5 0.540454 0.669006 0.886387
Si Si6 0.997131 0.724061 0.913095
O O1 0.235965 0.684892 0.687474
O O2 0.262589 0.420166 0.494551
O O3 0.393426 0.491084 0.752152
O O4 0.515820 0.019176 0.676043
O O5 0.970725 0.588855 0.621489
O O6 0.122475 0.811848 0.850587
O O7 0.991386 0.153024 0.713887
O O8 0.649936 0.605980 0.850013
O O9 0.825753 0.477337 0.801197
O O10 0.623383 0.079995 0.906988
O O11 0.000000 0.000000 0.500000
O O12 0.500000 0.500000 0.000000
O O13 0.000000 0.500000 0.000000
O O14 0.000000 0.000000 0.000000
#
# Coordination Sequence:
#
# PCOD9011338 Si02
#       6
#     2   2   2   2   2   2
#     4   9  23  38  70  94 133 162 216 270 328 367
#     4  11  24  41  68  95 128 171 220 263 328 386
#     4  10  24  40  62  92 129 167 219 261 325 382
#     4  10  21  40  65  99 130 163 215 273 325 381
#     4  10  22  37  64  93 132 163 220 266 326 376
#     4  12  27  47  65  90 135 177 216 269 329 391
#
# _framework density 24.998746000000001
#
# number of rings (size 3 to 8) (size 9 to 14) (size 15 to 20)
#    1.000    0.667    0.000    4.500    9.333    1.333 
#    0.000    1.667    0.000    0.000    0.000    0.000 
#    0.000    0.000    0.000    0.000    0.000    0.000 
#
# Total GULP energy -66967.260194 kJ/mol
# GULP energy per Si atom -5580.605016 kJ/mol
# Density = 2.494185 g / cm^3
# Si number density = 24.998746 Si / 1000 Ang^3
#
#
#
# Elastic Constant Matrix: (Units=GPa)
#
#
# Indices 1 2 3 4 5 6 
#
# 1 130.8268 41.1448 27.2766 7.5160 17.4239 -17.1898
# 2 41.1448 78.2734 1.5687 14.4112 -0.4040 -23.0885
# 3 27.2766 1.5687 52.1327 10.9193 5.8945 -6.9075
# 4 7.5160 14.4112 10.9193 40.5348 -1.8398 6.8220
# 5 17.4239 -0.4040 5.8945 -1.8398 45.6252 4.6363
# 6 -17.1898 -23.0885 -6.9075 6.8220 4.6363 53.4560
#
#
#
# Elastic Compliance Matrix: (Units=1/GPa)
#
#
# Indices 1 2 3 4 5 6 
#
# 1 0.011068 -0.005801 -0.005398 0.001216 -0.003584 0.000512
# 2 -0.005801 0.019849 0.005358 -0.008831 0.000481 0.008485
# 3 -0.005398 0.005358 0.024484 -0.008424 -0.001900 0.004982
# 4 0.001216 -0.008831 -0.008424 0.031451 0.002704 -0.008760
# 5 -0.003584 0.000481 -0.001900 0.002704 0.024013 -0.003618
# 6 0.000512 0.008485 0.004982 -0.008760 -0.003618 0.024612
#
#
# Mechanical properties :
#
#
# Convention : Reuss Voigt Hill
#
# Bulk Modulus (GPa) = 22.87388 44.57926 33.72657
# Shear Modulus (GPa) = 30.91499 40.67269 35.79384
#
# Velocity S-wave (km/s) = 3.52044 4.03797 3.78805
# Velocity P-wave (km/s) = 5.06897 6.29377 5.71428
#
# Compressibility (1/GPa) = 0.04371798
#
# Stress axis : x y z
#
# Youngs Moduli (GPa) = 90.34724 50.38023 40.84230
#
# Poissons Ratio (x) = 0.29227 0.22047
# Poissons Ratio (y) = 0.52413 -0.21882
# Poissons Ratio (z) = 0.48771 -0.26992
#
# Static dielectric constant tensor:
#      x y z
#    x 1.912330 0.039710 0.062710 
#    y 0.039710 2.071780 0.047470 
#    z 0.062710 0.047470 2.176130 
# 
# From -- ./inp_files/408027.got.cif
#   From: 2010.05.17/outbox.cif.g08.bks.cpg/sg2_205_cif.got.tgz:408027.got - 2010.06.03 11:33:40.
