data_PCOD9011234
_publ_section_title
;
Structure prediction by ZEFSAII (Michael W. Deem and Ramdas Pophale) SiO2 
 PCOD9011234
Probable space group: P -1
;
_chemical_formula_sum "Si O2"
_cell_formula_units_Z 16
_cell_length_a 12.819198
_cell_length_b 18.733806
_cell_length_c 9.346687
_cell_angle_alpha 94.933569
_cell_angle_beta 125.491510
_cell_angle_gamma 39.683441
_cell_volume 840.222257
_symmetry_space_group_name_H-M "P -1"
_symmetry_group_IT_number 2
_symmetry_cell_setting 'triclinic'
loop_
_space_group_symop_operation_xyz
x,y,z
-x,-y,-z
loop_
_atom_site_type_symbol
_atom_site_label
_atom_site_fract_x
_atom_site_fract_y
_atom_site_fract_z
Si Si1 0.179223 0.711910 0.137333
Si Si2 0.856866 0.623162 0.205237
Si Si3 0.768174 0.069232 0.249237
Si Si4 0.829881 0.393413 0.630197
Si Si5 0.212620 0.309390 0.500712
Si Si6 0.215389 0.147970 0.389907
Si Si7 0.844354 0.020222 0.976029
Si Si8 0.233493 0.098419 0.723116
O O1 0.506895 0.564643 0.365527
O O2 0.144106 0.662966 0.210394
O O3 0.030224 0.767802 0.879164
O O4 0.019173 0.860516 0.095130
O O5 0.822562 0.668408 0.350501
O O6 0.007012 0.612589 0.239088
O O7 0.038678 0.461461 0.326456
O O8 0.548912 0.758849 0.928036
O O9 0.801388 0.967414 0.277840
O O10 0.000000 0.000000 0.500000
O O11 0.799280 0.071804 0.107752
O O12 0.973078 0.272572 0.603730
O O13 0.132552 0.271659 0.371821
O O14 0.537116 0.156973 0.697607
O O15 0.265803 0.090957 0.577770
O O16 0.500000 0.000000 0.500000
O O17 0.000000 0.000000 0.000000
O O18 0.500000 0.000000 0.000000
#
# Coordination Sequence:
#
# PCOD9011234 Si02
#       8
#     2   2   2   2   2   2   2   2
#     4  11  25  40  65 100 131 168 223 277 325 395
#     4  10  21  42  67  91 129 174 218 266 333 396
#     4  11  25  40  66 100 128 171 227 271 325 399
#     4  11  22  44  67  92 128 182 220 263 336 398
#     4  10  21  40  65  95 125 171 216 268 328 394
#     4  12  24  40  68 102 130 163 226 278 321 393
#     4  11  22  42  63  88 135 172 208 266 341 393
#     4  12  22  44  72  91 132 183 221 266 333 402
#
# _framework density 19.042583
#
# number of rings (size 3 to 8) (size 9 to 14) (size 15 to 20)
#    0.000    1.000    5.000    2.250    1.750    1.500 
#    0.000    0.625    0.000    0.000    0.000    0.000 
#    0.000    0.000    0.000    0.000    0.000    0.000 
#
# Total GULP energy -89425.416059 kJ/mol
# GULP energy per Si atom -5589.088504 kJ/mol
# Density = 1.899924 g / cm^3
# Si number density = 19.042583 Si / 1000 Ang^3
#
#
#
# Elastic Constant Matrix: (Units=GPa)
#
#
# Indices 1 2 3 4 5 6 
#
# 1 120.4727 14.4626 48.4461 -7.7142 11.0316 -3.5312
# 2 14.4626 65.7912 31.0983 -27.4360 6.4070 1.4661
# 3 48.4461 31.0983 136.9158 -12.7115 15.3121 -4.4457
# 4 -7.7142 -27.4360 -12.7115 40.5987 -4.0600 -3.3044
# 5 11.0316 6.4070 15.3121 -4.0600 28.8664 3.4159
# 6 -3.5312 1.4661 -4.4457 -3.3044 3.4159 33.7656
#
#
#
# Elastic Compliance Matrix: (Units=1/GPa)
#
#
# Indices 1 2 3 4 5 6 
#
# 1 0.009835 -0.000271 -0.003103 0.000579 -0.002077 0.000899
# 2 -0.000271 0.023061 -0.003701 0.014268 -0.001043 -0.000015
# 3 -0.003103 -0.003701 0.009631 -0.000291 -0.003309 0.001411
# 4 0.000579 0.014268 -0.000291 0.034641 0.001324 0.002659
# 5 -0.002077 -0.001043 -0.003309 0.001324 0.038122 -0.004335
# 6 0.000899 -0.000015 0.001411 0.002659 -0.004335 0.030595
#
#
# Mechanical properties :
#
#
# Convention : Reuss Voigt Hill
#
# Bulk Modulus (GPa) = 35.24148 56.79930 46.02039
# Shear Modulus (GPa) = 29.49950 35.92429 32.71189
#
# Velocity S-wave (km/s) = 3.94017 4.34813 4.14917
# Velocity P-wave (km/s) = 6.26473 7.42297 6.86831
#
# Compressibility (1/GPa) = 0.02837566
#
# Stress axis : x y z
#
# Youngs Moduli (GPa) = 101.68124 43.36401 103.82906
#
# Poissons Ratio (x) = 0.01177 0.32218
# Poissons Ratio (y) = 0.02760 0.38427
# Poissons Ratio (z) = 0.31552 0.16049
#
# Static dielectric constant tensor:
#      x y z
#    x 1.697220 0.043130 0.043850 
#    y 0.043130 1.709080 0.055080 
#    z 0.043850 0.055080 1.711210 
# 
# From -- ./inp_files/261695.got.cif
#   From: 2010.05.17/outbox.cif.g08.bks.cpg/sg2_131_cif.got.tgz:261695.got - 2010.06.03 11:33:40.
