data_PCOD9011182
_publ_section_title
;
Structure prediction by ZEFSAII (Michael W. Deem and Ramdas Pophale) SiO2 
 PCOD9011182
Probable space group: P -1
;
_chemical_formula_sum "Si O2"
_cell_formula_units_Z 12
_cell_length_a 5.521196
_cell_length_b 11.989740
_cell_length_c 9.044080
_cell_angle_alpha 81.816056
_cell_angle_beta 95.692138
_cell_angle_gamma 50.878934
_cell_volume 445.605358
_symmetry_space_group_name_H-M "P -1"
_symmetry_group_IT_number 2
_symmetry_cell_setting 'triclinic'
loop_
_space_group_symop_operation_xyz
x,y,z
-x,-y,-z
loop_
_atom_site_type_symbol
_atom_site_label
_atom_site_fract_x
_atom_site_fract_y
_atom_site_fract_z
Si Si1 0.578894 0.705886 0.720065
Si Si2 0.792691 0.852734 0.837961
Si Si3 0.362869 0.418635 0.977860
Si Si4 0.379093 0.871253 0.378590
Si Si5 0.927831 0.914083 0.117545
Si Si6 0.925029 0.588085 0.327776
O O1 0.840237 0.724345 0.773205
O O2 0.428933 0.720747 0.866585
O O3 0.390320 0.825803 0.555762
O O4 0.728590 0.541978 0.702869
O O5 0.775451 0.961934 0.701218
O O6 0.424822 0.967710 0.857795
O O7 0.960485 0.804559 0.019855
O O8 0.500000 0.500000 0.000000
O O9 0.320387 0.390341 0.812710
O O10 0.000000 0.500000 0.000000
O O11 0.735968 0.754510 0.346175
O O12 0.166687 0.846536 0.280565
O O13 0.000000 0.000000 0.000000
O O14 0.000000 0.500000 0.500000
#
# Coordination Sequence:
#
# PCOD9011182 Si02
#       6
#     2   2   2   2   2   2
#     4  10  22  42  65  98 129 173 220 278 334 400
#     4  10  21  40  65  93 132 168 220 271 335 397
#     4  10  23  45  65  98 135 178 225 282 341 405
#     4  10  21  42  64  95 132 171 221 269 335 400
#     4   9  21  38  60  94 128 174 213 272 330 402
#     4   9  21  43  66  95 132 175 223 276 336 402
#
# _framework density 26.929656999999999
#
# number of rings (size 3 to 8) (size 9 to 14) (size 15 to 20)
#    0.000    2.333    0.000    0.500    7.000    3.333 
#   18.000    4.167    0.000    0.000    0.000    0.000 
#    0.000    0.000    0.000    0.000    0.000    0.000 
#
# Total GULP energy -66911.621103 kJ/mol
# GULP energy per Si atom -5575.968425 kJ/mol
# Density = 2.686836 g / cm^3
# Si number density = 26.929657 Si / 1000 Ang^3
#
#
#
# Elastic Constant Matrix: (Units=GPa)
#
#
# Indices 1 2 3 4 5 6 
#
# 1 61.0123 12.8913 43.7055 -2.6906 -14.0535 10.8656
# 2 12.8913 112.3951 15.8344 -17.2427 -18.0676 10.7973
# 3 43.7055 15.8344 242.8405 -21.3961 -4.5654 23.0780
# 4 -2.6906 -17.2427 -21.3961 43.0587 -6.1177 -11.6210
# 5 -14.0535 -18.0676 -4.5654 -6.1177 32.1219 4.1719
# 6 10.8656 10.7973 23.0780 -11.6210 4.1719 37.6623
#
#
#
# Elastic Compliance Matrix: (Units=1/GPa)
#
#
# Indices 1 2 3 4 5 6 
#
# 1 0.021959 -0.000009 -0.003274 -0.000358 0.009786 -0.005521
# 2 -0.000009 0.011082 0.000091 0.004857 0.007500 -0.002563
# 3 -0.003274 0.000091 0.005014 0.001887 -0.000107 -0.001560
# 4 -0.000358 0.004857 0.001887 0.028662 0.007580 0.005559
# 5 0.009786 0.007500 -0.000107 0.007580 0.041998 -0.007221
# 6 -0.005521 -0.002563 -0.001560 0.005559 -0.007221 0.032350
#
#
# Mechanical properties :
#
#
# Convention : Reuss Voigt Hill
#
# Bulk Modulus (GPa) = 31.57427 62.34558 46.95993
# Shear Modulus (GPa) = 31.64451 45.48969 38.56710
#
# Velocity S-wave (km/s) = 3.43166 4.11445 3.78847
# Velocity P-wave (km/s) = 5.23946 6.76559 6.05083
#
# Compressibility (1/GPa) = 0.03167135
#
# Stress axis : x y z
#
# Youngs Moduli (GPa) = 45.53940 90.23409 199.44978
#
# Poissons Ratio (x) = 0.00080 0.65309
# Poissons Ratio (y) = 0.00040 -0.01824
# Poissons Ratio (z) = 0.14912 -0.00825
#
# Static dielectric constant tensor:
#      x y z
#    x 2.290300 -0.044210 0.083530 
#    y -0.044210 2.238300 0.016860 
#    z 0.083530 0.016860 2.127650 
# 
# From -- ./inp_files/28543.got.cif
#   From: 2010.05.17/outbox.cif.g08.bks.cpg/sg2_15_cif.got.tgz:28543.got - 2010.06.03 11:33:40.
