data_PCOD9011106
_publ_section_title
;
Structure prediction by ZEFSAII (Michael W. Deem and Ramdas Pophale) SiO2 
 PCOD9011106
Probable space group: P -1
;
_chemical_formula_sum "Si O2"
_cell_formula_units_Z 16
_cell_length_a 15.848165
_cell_length_b 9.248124
_cell_length_c 11.375712
_cell_angle_alpha 97.512202
_cell_angle_beta 71.314735
_cell_angle_gamma 38.530608
_cell_volume 750.810705
_symmetry_space_group_name_H-M "P -1"
_symmetry_group_IT_number 2
_symmetry_cell_setting 'triclinic'
loop_
_space_group_symop_operation_xyz
x,y,z
-x,-y,-z
loop_
_atom_site_type_symbol
_atom_site_label
_atom_site_fract_x
_atom_site_fract_y
_atom_site_fract_z
Si Si1 0.787765 0.110247 0.910717
Si Si2 0.775302 0.424857 0.083410
Si Si3 0.070762 0.243979 0.991031
Si Si4 0.786790 0.775617 0.591449
Si Si5 0.517335 0.293068 0.304454
Si Si6 0.516028 0.147067 0.541146
Si Si7 0.636302 0.301447 0.764956
Si Si8 0.523518 0.947148 0.845490
O O1 0.829548 0.198774 0.970484
O O2 0.574482 0.371838 0.062089
O O3 0.911738 0.804183 0.880054
O O4 0.784310 0.145737 0.777414
O O5 0.658949 0.559801 0.267799
O O6 0.629214 0.726069 0.104962
O O7 0.941312 0.298682 0.014334
O O8 0.279451 0.927606 0.817671
O O9 0.000000 0.500000 0.000000
O O10 0.000000 0.500000 0.500000
O O11 0.706318 0.886493 0.505354
O O12 0.673601 0.076845 0.722959
O O13 0.716746 0.731789 0.685089
O O14 0.501746 0.258146 0.439746
O O15 0.365711 0.622577 0.354435
O O16 0.510540 0.163926 0.204815
O O17 0.500000 0.000000 0.500000
O O18 0.500000 0.000000 0.000000
#
# Coordination Sequence:
#
# PCOD9011106 Si02
#       8
#     2   2   2   2   2   2   2   2
#     4  10  21  40  65  91 133 168 211 268 328 386
#     4  11  21  40  63  94 128 170 212 259 333 388
#     4  11  22  37  62 102 125 157 220 272 312 378
#     4  11  25  44  69  97 131 176 221 265 330 392
#     4  11  23  41  66  94 129 170 219 266 322 393
#     4  11  21  43  66  90 134 179 209 257 336 398
#     4  10  22  41  66  94 125 173 220 265 325 384
#     4  11  22  40  66  93 131 172 216 267 325 390
#
# _framework density 21.310299000000001
#
# number of rings (size 3 to 8) (size 9 to 14) (size 15 to 20)
#    0.000    1.250    6.250    1.125    3.500    3.500 
#    0.000    0.625    2.750    0.000    0.000    0.000 
#    0.000    0.000    0.000    0.000    0.000    0.000 
#
# Total GULP energy -89287.572800 kJ/mol
# GULP energy per Si atom -5580.473300 kJ/mol
# Density = 2.126180 g / cm^3
# Si number density = 21.310299 Si / 1000 Ang^3
#
#
#
# Elastic Constant Matrix: (Units=GPa)
#
#
# Indices 1 2 3 4 5 6 
#
# 1 125.9927 55.7345 42.2255 -6.8503 -12.8563 -28.3908
# 2 55.7345 101.6660 24.2942 -17.1005 -14.3360 -18.2284
# 3 42.2255 24.2942 60.5125 -23.6504 -10.1871 -22.2528
# 4 -6.8503 -17.1005 -23.6504 32.1110 3.3764 10.0127
# 5 -12.8563 -14.3360 -10.1871 3.3764 30.7660 -0.5601
# 6 -28.3908 -18.2284 -22.2528 10.0127 -0.5601 31.4697
#
#
#
# Elastic Compliance Matrix: (Units=1/GPa)
#
#
# Indices 1 2 3 4 5 6 
#
# 1 0.014578 -0.006035 -0.008454 -0.008489 0.001528 0.006406
# 2 -0.006035 0.014869 0.003053 0.007441 0.004656 0.003041
# 3 -0.008454 0.003053 0.035337 0.021153 0.007497 0.012532
# 4 -0.008489 0.007441 0.021153 0.050071 0.001351 -0.004298
# 5 0.001528 0.004656 0.007497 0.001351 0.037821 0.009620
# 6 0.006406 0.003041 0.012532 -0.004298 0.009620 0.049718
#
#
# Mechanical properties :
#
#
# Convention : Reuss Voigt Hill
#
# Bulk Modulus (GPa) = 23.86079 59.18664 41.52371
# Shear Modulus (GPa) = 20.89964 29.93048 25.41506
#
# Velocity S-wave (km/s) = 3.13506 3.75174 3.45718
# Velocity P-wave (km/s) = 4.93213 6.82652 5.95514
#
# Compressibility (1/GPa) = 0.04190977
#
# Stress axis : x y z
#
# Youngs Moduli (GPa) = 68.59587 67.25461 28.29874
#
# Poissons Ratio (x) = 0.40591 0.23925
# Poissons Ratio (y) = 0.41401 -0.08639
# Poissons Ratio (z) = 0.57994 -0.20530
#
# Static dielectric constant tensor:
#      x y z
#    x 1.804630 -0.034130 -0.003950 
#    y -0.034130 1.831140 -0.057250 
#    z -0.003950 -0.057250 1.882380 
# 
# From -- ./inp_files/447491.got.cif
#   From: 2010.05.17/outbox.cif.g08.bks.cpg/sg2_224_cif.got.tgz:447491.got - 2010.06.03 11:33:40.
