data_PCOD9011042
_publ_section_title
;
Structure prediction by ZEFSAII (Michael W. Deem and Ramdas Pophale) SiO2 
 PCOD9011042
Probable space group: P -1
;
_chemical_formula_sum "Si O2"
_cell_formula_units_Z 14
_cell_length_a 7.158145
_cell_length_b 8.306313
_cell_length_c 9.718820
_cell_angle_alpha 70.292803
_cell_angle_beta 68.876894
_cell_angle_gamma 72.592166
_cell_volume 496.968336
_symmetry_space_group_name_H-M "P -1"
_symmetry_group_IT_number 2
_symmetry_cell_setting 'triclinic'
loop_
_space_group_symop_operation_xyz
x,y,z
-x,-y,-z
loop_
_atom_site_type_symbol
_atom_site_label
_atom_site_fract_x
_atom_site_fract_y
_atom_site_fract_z
Si Si1 0.658628 0.905517 0.782238
Si Si2 0.231991 0.524780 0.426149
Si Si3 0.067278 0.809152 0.601828
Si Si4 0.335427 0.202449 0.660522
Si Si5 0.689110 0.654988 0.071055
Si Si6 0.150578 0.725737 0.903788
Si Si7 0.861026 0.178729 0.823942
O O1 0.499573 0.022134 0.687872
O O2 0.770446 0.037678 0.801769
O O3 0.839326 0.769763 0.696633
O O4 0.572526 0.796014 0.954086
O O5 0.359913 0.338826 0.494237
O O6 0.000000 0.500000 0.500000
O O7 0.214786 0.674756 0.505345
O O8 0.255060 0.627785 0.250361
O O9 0.164482 0.805204 0.727265
O O10 0.000000 0.000000 0.500000
O O11 0.357044 0.303603 0.769179
O O12 0.101097 0.173772 0.727602
O O13 0.693319 0.457996 0.085317
O O14 0.924064 0.681863 0.987785
O O15 0.159381 0.839858 0.002554
#
# Coordination Sequence:
#
# PCOD9011042 Si02
#       7
#     2   2   2   2   2   2   2
#     4  11  23  37  67  94 127 165 213 260 316 368
#     4  10  21  40  65  87 129 168 209 254 316 377
#     4  11  21  40  63  97 124 167 212 259 315 377
#     4  10  21  40  65  91 128 170 205 263 317 367
#     4   9  18  35  62  89 122 166 210 245 315 375
#     4   9  19  36  65  89 124 176 203 251 325 373
#     4  10  22  41  63  97 126 164 216 256 307 385
#
# _framework density 28.170809999999999
#
# number of rings (size 3 to 8) (size 9 to 14) (size 15 to 20)
#    0.000    2.000    2.857    0.429    6.000    5.714 
#    0.000    3.571    3.143    0.000    0.000    1.000 
#    0.000    0.000    0.000    0.000    0.000    0.000 
#
# Total GULP energy -78462.677957 kJ/mol
# GULP energy per Si atom -5604.476997 kJ/mol
# Density = 2.810669 g / cm^3
# Si number density = 28.170810 Si / 1000 Ang^3
#
#
#
# Elastic Constant Matrix: (Units=GPa)
#
#
# Indices 1 2 3 4 5 6 
#
# 1 142.5822 42.5300 8.5174 -10.0345 20.8932 -14.3190
# 2 42.5300 110.6307 58.5142 -18.4957 21.0634 -13.3224
# 3 8.5174 58.5142 187.3627 -26.3754 38.4913 -3.5236
# 4 -10.0345 -18.4957 -26.3754 58.5035 -14.8348 6.7352
# 5 20.8932 21.0634 38.4913 -14.8348 29.8810 -5.6868
# 6 -14.3190 -13.3224 -3.5236 6.7352 -5.6868 41.4971
#
#
#
# Elastic Compliance Matrix: (Units=1/GPa)
#
#
# Indices 1 2 3 4 5 6 
#
# 1 0.008857 -0.003061 0.001820 -0.000390 -0.006302 0.001428
# 2 -0.003061 0.012754 -0.003305 0.001377 -0.001465 0.002334
# 3 0.001820 -0.003305 0.008325 0.000739 -0.009518 -0.001151
# 4 -0.000390 0.001377 0.000739 0.020016 0.007947 -0.001790
# 5 -0.006302 -0.001465 -0.009518 0.007947 0.055659 0.002885
# 6 0.001428 0.002334 -0.001151 -0.001790 0.002885 0.025928
#
#
# Mechanical properties :
#
#
# Convention : Reuss Voigt Hill
#
# Bulk Modulus (GPa) = 47.97890 73.29988 60.63939
# Shear Modulus (GPa) = 33.88009 48.04393 40.96201
#
# Velocity S-wave (km/s) = 3.47171 4.13419 3.81735
# Velocity P-wave (km/s) = 5.75663 6.99035 6.40327
#
# Compressibility (1/GPa) = 0.02084250
#
# Stress axis : x y z
#
# Youngs Moduli (GPa) = 112.90308 78.40555 120.12728
#
# Poissons Ratio (x) = 0.24000 -0.21861
# Poissons Ratio (y) = 0.34560 0.39707
# Poissons Ratio (z) = -0.20546 0.25916
#
# Static dielectric constant tensor:
#      x y z
#    x 2.305300 -0.038710 -0.080930 
#    y -0.038710 2.182410 0.010510 
#    z -0.080930 0.010510 2.238070 
# 
# From -- ./inp_files/310908.got.cif
#   From: 2010.05.17/outbox.cif.g08.bks.cpg/sg2_156_cif.got.tgz:310908.got - 2010.06.03 11:33:40.
