data_PCOD9011080
_publ_section_title
;
Structure prediction by ZEFSAII (Michael W. Deem and Ramdas Pophale) SiO2 
 PCOD9011080
Probable space group: P -1
;
_chemical_formula_sum "Si O2"
_cell_formula_units_Z 16
_cell_length_a 10.532400
_cell_length_b 11.843064
_cell_length_c 13.667603
_cell_angle_alpha 31.890961
_cell_angle_beta 69.260448
_cell_angle_gamma 90.531423
_cell_volume 655.955704
_symmetry_space_group_name_H-M "P -1"
_symmetry_group_IT_number 2
_symmetry_cell_setting 'triclinic'
loop_
_space_group_symop_operation_xyz
x,y,z
-x,-y,-z
loop_
_atom_site_type_symbol
_atom_site_label
_atom_site_fract_x
_atom_site_fract_y
_atom_site_fract_z
Si Si1 0.992885 0.205625 0.915419
Si Si2 0.409439 0.332813 0.996866
Si Si3 0.566324 0.416760 0.699640
Si Si4 0.805607 0.196393 0.267645
Si Si5 0.546111 0.214116 0.216456
Si Si6 0.316322 0.930681 0.014738
Si Si7 0.864490 0.230620 0.604575
Si Si8 0.892366 0.896011 0.344321
O O1 0.129061 0.519337 0.613015
O O2 0.811329 0.145450 0.982553
O O3 0.026082 0.172976 0.042458
O O4 0.000000 0.000000 0.000000
O O5 0.538909 0.311420 0.040200
O O6 0.243679 0.019897 0.256520
O O7 0.459571 0.438461 0.794688
O O8 0.394965 0.534574 0.912782
O O9 0.747051 0.714873 0.434021
O O10 0.596328 0.214497 0.892875
O O11 0.466340 0.257080 0.746822
O O12 0.694265 0.184864 0.215945
O O13 0.652117 0.051064 0.500549
O O14 0.836471 0.978328 0.391838
O O15 0.000000 0.500000 0.000000
O O16 0.206093 0.845512 0.208980
O O17 0.043483 0.276488 0.523610
#
# Coordination Sequence:
#
# PCOD9011080 Si02
#       8
#     2   2   2   2   2   2   2   2
#     4  12  24  39  64 100 129 170 221 269 329 398
#     4  10  22  44  68  93 124 183 217 271 339 397
#     4  10  21  40  65  90 127 174 214 263 330 389
#     4  11  25  44  68 100 138 171 216 289 337 390
#     4  10  23  46  68  96 137 169 225 277 339 398
#     4  10  21  41  64  89 132 171 211 271 325 385
#     4  11  23  43  67  92 136 171 219 273 330 393
#     4  12  24  41  67  96 130 172 223 270 331 402
#
# _framework density 24.391891000000001
#
# number of rings (size 3 to 8) (size 9 to 14) (size 15 to 20)
#    0.000    1.250    3.750    1.875    3.500    0.500 
#    2.250    1.875    0.000    0.000    0.000    0.000 
#    0.000    0.000    0.000    0.000    0.000    0.000 
#
# Total GULP energy -89291.650753 kJ/mol
# GULP energy per Si atom -5580.728172 kJ/mol
# Density = 2.433637 g / cm^3
# Si number density = 24.391891 Si / 1000 Ang^3
#
#
#
# Elastic Constant Matrix: (Units=GPa)
#
#
# Indices 1 2 3 4 5 6 
#
# 1 48.2066 4.2990 18.6314 0.8347 -1.4088 -12.3609
# 2 4.2990 64.4256 18.0711 -7.5519 -11.0889 -5.3569
# 3 18.6314 18.0711 102.1399 -24.2509 -2.3080 -3.1379
# 4 0.8347 -7.5519 -24.2509 26.0338 2.7665 -0.5911
# 5 -1.4088 -11.0889 -2.3080 2.7665 40.9138 -6.8540
# 6 -12.3609 -5.3569 -3.1379 -0.5911 -6.8540 27.3333
#
#
#
# Elastic Compliance Matrix: (Units=1/GPa)
#
#
# Indices 1 2 3 4 5 6 
#
# 1 0.026263 0.000737 -0.005964 -0.006252 0.003201 0.012004
# 2 0.000737 0.017772 -0.002435 0.002405 0.005369 0.004935
# 3 -0.005964 -0.002435 0.014296 0.012893 -0.001191 -0.001553
# 4 -0.006252 0.002405 0.012893 0.051565 -0.002383 -0.000358
# 5 0.003201 0.005369 -0.001191 -0.002383 0.027650 0.009245
# 6 0.012004 0.004935 -0.001553 -0.000358 0.009245 0.045113
#
#
# Mechanical properties :
#
#
# Convention : Reuss Voigt Hill
#
# Bulk Modulus (GPa) = 23.25229 32.97503 28.11366
# Shear Modulus (GPa) = 23.54949 30.44089 26.99519
#
# Velocity S-wave (km/s) = 3.11056 3.53653 3.33036
# Velocity P-wave (km/s) = 4.73860 5.49766 5.13218
#
# Compressibility (1/GPa) = 0.04300651
#
# Stress axis : x y z
#
# Youngs Moduli (GPa) = 38.07589 56.26864 69.95089
#
# Poissons Ratio (x) = -0.04146 0.41721
# Poissons Ratio (y) = -0.02805 0.17031
# Poissons Ratio (z) = 0.22710 0.13700
#
# Static dielectric constant tensor:
#      x y z
#    x 1.979770 -0.001150 -0.089230 
#    y -0.001150 1.904680 0.035850 
#    z -0.089230 0.035850 2.076170 
# 
# From -- ./inp_files/519483.got.cif
#   From: 2010.05.17/outbox.cif.g08.bks.cpg/sg2_260_cif.got.tgz:519483.got - 2010.06.03 11:33:40.
