data_PCOD9011316
_publ_section_title
;
Structure prediction by ZEFSAII (Michael W. Deem and Ramdas Pophale) SiO2 
 PCOD9011316
Probable space group: P -1
;
_chemical_formula_sum "Si O2"
_cell_formula_units_Z 14
_cell_length_a 14.920366
_cell_length_b 17.545296
_cell_length_c 15.603878
_cell_angle_alpha 24.833705
_cell_angle_beta 152.672034
_cell_angle_gamma 159.806351
_cell_volume 572.970807
_symmetry_space_group_name_H-M "P -1"
_symmetry_group_IT_number 2
_symmetry_cell_setting 'triclinic'
loop_
_space_group_symop_operation_xyz
x,y,z
-x,-y,-z
loop_
_atom_site_type_symbol
_atom_site_label
_atom_site_fract_x
_atom_site_fract_y
_atom_site_fract_z
Si Si1 0.278205 0.471425 0.120940
Si Si2 0.292163 0.900250 0.718687
Si Si3 0.740811 0.722836 0.370010
Si Si4 0.786042 0.996295 0.277199
Si Si5 0.407696 0.753641 0.539460
Si Si6 0.143281 0.210400 0.100018
Si Si7 0.972548 0.198797 0.788073
O O1 0.487380 0.492542 0.336093
O O2 0.287391 0.413755 0.090039
O O3 0.978094 0.250378 0.126581
O O4 0.340513 0.720838 0.928435
O O5 0.352908 0.990212 0.776764
O O6 0.979743 0.748766 0.583616
O O7 0.475165 0.126000 0.577250
O O8 0.826655 0.547057 0.355127
O O9 0.631591 0.774389 0.303913
O O10 0.000000 0.000000 0.500000
O O11 0.652435 0.812776 0.735533
O O12 0.308781 0.874917 0.376340
O O13 0.057217 0.276249 0.880834
O O14 0.900399 0.952696 0.203615
O O15 0.000000 0.000000 0.000000
#
# Coordination Sequence:
#
# PCOD9011316 Si02
#       7
#     2   2   2   2   2   2   2
#     4  11  22  39  69  93 135 181 213 263 331 380
#     4  10  21  40  65  97 134 171 224 269 322 388
#     4   9  21  40  63  94 133 176 216 266 324 381
#     4   9  20  40  60  96 136 170 224 270 308 391
#     4  10  24  45  66 101 132 168 218 278 325 397
#     4  10  23  43  65 100 135 166 221 275 317 401
#     4  11  25  46  72  97 129 172 221 272 344 395
#
# _framework density 24.434054
#
# number of rings (size 3 to 8) (size 9 to 14) (size 15 to 20)
#    0.000    2.000    0.000    2.571    4.000    4.571 
#    7.714    8.571    0.000    0.000    0.000    0.000 
#    0.000    0.000    0.000    0.000    0.000    0.000 
#
# Total GULP energy -78305.972561 kJ/mol
# GULP energy per Si atom -5593.283754 kJ/mol
# Density = 2.437844 g / cm^3
# Si number density = 24.434054 Si / 1000 Ang^3
#
#
#
# Elastic Constant Matrix: (Units=GPa)
#
#
# Indices 1 2 3 4 5 6 
#
# 1 85.3983 40.0703 39.3984 6.8237 14.1790 -6.9476
# 2 40.0703 80.8071 30.5156 5.3769 13.0276 -16.8612
# 3 39.3984 30.5156 118.0813 -6.7369 22.9511 -6.8340
# 4 6.8237 5.3769 -6.7369 41.3516 -4.6650 -3.6983
# 5 14.1790 13.0276 22.9511 -4.6650 32.2841 0.4192
# 6 -6.9476 -16.8612 -6.8340 -3.6983 0.4192 32.4102
#
#
#
# Elastic Compliance Matrix: (Units=1/GPa)
#
#
# Indices 1 2 3 4 5 6 
#
# 1 0.017147 -0.006668 -0.003708 -0.002940 -0.002618 -0.000877
# 2 -0.006668 0.018563 -0.001451 -0.001281 -0.003818 0.007825
# 3 -0.003708 -0.001451 0.011350 0.002126 -0.005563 0.001158
# 4 -0.002940 -0.001281 0.002126 0.025815 0.004001 0.002046
# 5 -0.002618 -0.003818 -0.005563 0.004001 0.038247 -0.003758
# 6 -0.000877 0.007825 0.001158 0.002046 -0.003758 0.035264
#
#
# Mechanical properties :
#
#
# Convention : Reuss Voigt Hill
#
# Bulk Modulus (GPa) = 42.72040 56.02836 49.37438
# Shear Modulus (GPa) = 28.11480 32.82934 30.47207
#
# Velocity S-wave (km/s) = 3.39579 3.66948 3.53528
# Velocity P-wave (km/s) = 5.73560 6.39794 6.07580
#
# Compressibility (1/GPa) = 0.02340802
#
# Stress axis : x y z
#
# Youngs Moduli (GPa) = 58.31762 53.87086 88.10313
#
# Poissons Ratio (x) = 0.35921 0.32667
# Poissons Ratio (y) = 0.38886 0.12780
# Poissons Ratio (z) = 0.21623 0.07814
#
# Static dielectric constant tensor:
#      x y z
#    x 1.945220 0.017540 0.022250 
#    y 0.017540 1.975100 -0.003950 
#    z 0.022250 -0.003950 1.928860 
# 
# From -- ./inp_files/534185.got.cif
#   From: 2010.05.17/outbox.cif.g08.bks.cpg/sg2_268_cif.got.tgz:534185.got - 2010.06.03 11:33:40.
