data_PCOD9011169
_publ_section_title
;
Structure prediction by ZEFSAII (Michael W. Deem and Ramdas Pophale) SiO2 
 PCOD9011169
Probable space group: P -1
;
_chemical_formula_sum "Si O2"
_cell_formula_units_Z 14
_cell_length_a 8.166087
_cell_length_b 11.774194
_cell_length_c 10.438806
_cell_angle_alpha 114.443189
_cell_angle_beta 76.935426
_cell_angle_gamma 140.748268
_cell_volume 570.326052
_symmetry_space_group_name_H-M "P -1"
_symmetry_group_IT_number 2
_symmetry_cell_setting 'triclinic'
loop_
_space_group_symop_operation_xyz
x,y,z
-x,-y,-z
loop_
_atom_site_type_symbol
_atom_site_label
_atom_site_fract_x
_atom_site_fract_y
_atom_site_fract_z
Si Si1 0.291876 0.287345 0.006817
Si Si2 0.827661 0.572248 0.518352
Si Si3 0.126735 0.961595 0.375335
Si Si4 0.360342 0.760064 0.442807
Si Si5 0.979199 0.284465 0.919796
Si Si6 0.378396 0.285811 0.287200
Si Si7 0.614282 0.262381 0.870828
O O1 0.334950 0.174544 0.886037
O O2 0.025974 0.211885 0.991574
O O3 0.500000 0.500000 0.000000
O O4 0.342471 0.288989 0.146335
O O5 0.689884 0.409577 0.575767
O O6 0.679792 0.452998 0.357624
O O7 0.763751 0.678196 0.603830
O O8 0.129169 0.708565 0.522118
O O9 0.958735 0.757467 0.242114
O O10 0.358427 0.040587 0.459719
O O11 0.255330 0.096713 0.289673
O O12 0.000000 0.000000 0.500000
O O13 0.342627 0.746238 0.287991
O O14 0.696096 0.188488 0.904992
O O15 0.180841 0.513008 0.016008
#
# Coordination Sequence:
#
# PCOD9011169 Si02
#       7
#     2   2   2   2   2   2   2
#     4  10  21  40  65  93 128 172 225 274 322 395
#     4   9  20  38  66  95 127 164 228 281 325 403
#     4  11  25  44  64  97 139 177 218 275 339 408
#     4  10  21  40  66  99 127 168 222 282 338 385
#     4  10  23  40  63  96 131 172 226 266 330 398
#     4  10  22  39  65  95 130 178 217 275 340 383
#     4  10  22  39  69  94 126 178 225 278 325 391
#
# _framework density 24.547362
#
# number of rings (size 3 to 8) (size 9 to 14) (size 15 to 20)
#    0.000    2.000    0.000    2.571    8.000    4.571 
#    5.143    0.714    0.000    0.000    0.000    0.000 
#    0.000    0.000    0.000    0.000    0.000    0.000 
#
# Total GULP energy -78242.202990 kJ/mol
# GULP energy per Si atom -5588.728785 kJ/mol
# Density = 2.449149 g / cm^3
# Si number density = 24.547362 Si / 1000 Ang^3
#
#
#
# Elastic Constant Matrix: (Units=GPa)
#
#
# Indices 1 2 3 4 5 6 
#
# 1 148.7664 -3.4928 8.4184 -6.7732 16.7142 -18.9447
# 2 -3.4928 64.9690 25.5061 -11.3328 11.6302 -17.8321
# 3 8.4184 25.5061 112.9429 1.1104 17.3121 0.4922
# 4 -6.7732 -11.3328 1.1104 33.2188 -12.4980 9.5506
# 5 16.7142 11.6302 17.3121 -12.4980 35.4674 -1.5862
# 6 -18.9447 -17.8321 0.4922 9.5506 -1.5862 28.3087
#
#
#
# Elastic Compliance Matrix: (Units=1/GPa)
#
#
# Indices 1 2 3 4 5 6 
#
# 1 0.008350 0.003578 -0.000717 -0.001155 -0.004809 0.007974
# 2 0.003578 0.023222 -0.004756 0.002111 -0.005516 0.016084
# 3 -0.000717 -0.004756 0.010716 -0.002991 -0.004517 -0.002906
# 4 -0.001155 0.002111 -0.002991 0.039677 0.014759 -0.011950
# 5 -0.004809 -0.005516 -0.004517 0.014759 0.039255 -0.009394
# 6 0.007974 0.016084 -0.002906 -0.011950 -0.009394 0.054349
#
#
# Mechanical properties :
#
#
# Convention : Reuss Voigt Hill
#
# Bulk Modulus (GPa) = 25.97513 43.06020 34.51766
# Shear Modulus (GPa) = 26.01591 39.14876 32.58233
#
# Velocity S-wave (km/s) = 3.25903 3.99786 3.64720
# Velocity P-wave (km/s) = 4.97657 6.23621 5.64166
#
# Compressibility (1/GPa) = 0.03849836
#
# Stress axis : x y z
#
# Youngs Moduli (GPa) = 119.76438 43.06281 93.31796
#
# Poissons Ratio (x) = -0.15410 0.06689
# Poissons Ratio (y) = -0.42857 0.44385
# Poissons Ratio (z) = 0.08585 0.20482
#
# Static dielectric constant tensor:
#      x y z
#    x 2.036280 0.035960 -0.008440 
#    y 0.035960 1.978920 0.031360 
#    z -0.008440 0.031360 1.939580 
# 
# From -- ./inp_files/190036.got.cif
#   From: 2010.05.17/outbox.cif.g08.bks.cpg/sg2_96_cif.got.tgz:190036.got - 2010.06.03 11:33:40.
