data_PCOD9011414
_publ_section_title
;
Structure prediction by ZEFSAII (Michael W. Deem and Ramdas Pophale) SiO2 
 PCOD9011414
Probable space group: P -1
;
_chemical_formula_sum "Si O2"
_cell_formula_units_Z 14
_cell_length_a 11.244875
_cell_length_b 8.844237
_cell_length_c 11.701965
_cell_angle_alpha 44.922898
_cell_angle_beta 90.155538
_cell_angle_gamma 116.538889
_cell_volume 638.207633
_symmetry_space_group_name_H-M "P -1"
_symmetry_group_IT_number 2
_symmetry_cell_setting 'triclinic'
loop_
_space_group_symop_operation_xyz
x,y,z
-x,-y,-z
loop_
_atom_site_type_symbol
_atom_site_label
_atom_site_fract_x
_atom_site_fract_y
_atom_site_fract_z
Si Si1 0.573890 0.456625 0.343991
Si Si2 0.656393 0.900924 0.265292
Si Si3 0.193917 0.471780 0.044029
Si Si4 0.678496 0.777966 0.706414
Si Si5 0.046928 0.652327 0.537735
Si Si6 0.104775 0.323028 0.857601
Si Si7 0.114383 0.076801 0.592890
O O1 0.594434 0.726594 0.241870
O O2 0.475367 0.241410 0.561785
O O3 0.481676 0.342717 0.285605
O O4 0.735837 0.530905 0.286131
O O5 0.780223 0.869685 0.329185
O O6 0.737916 0.221038 0.090300
O O7 0.313330 0.422868 0.108005
O O8 0.147180 0.394906 0.952346
O O9 0.035640 0.241640 0.232287
O O10 0.783370 0.849702 0.556479
O O11 0.775391 0.071717 0.611403
O O12 0.028334 0.452559 0.741504
O O13 0.000000 0.500000 0.500000
O O14 0.945798 0.750653 0.498277
O O15 0.000000 0.000000 0.000000
#
# Coordination Sequence:
#
# PCOD9011414 Si02
#       7
#     2   2   2   2   2   2   2
#     4  10  23  42  60  87 126 163 204 252 315 370
#     4  10  21  40  66  90 119 162 208 257 302 361
#     4  11  22  37  62  95 124 159 207 255 303 363
#     4  10  23  42  63  90 126 166 203 254 311 361
#     4  11  22  39  63  90 124 163 200 248 307 365
#     4  12  25  41  63  92 124 162 208 257 309 369
#     4  10  21  41  64  91 125 159 206 254 307 364
#
# _framework density 21.936433999999998
#
# number of rings (size 3 to 8) (size 9 to 14) (size 15 to 20)
#    0.000    1.429    0.000    7.286    0.000    6.857 
#    0.000    5.714    0.000    0.000    0.000    0.000 
#    0.000    0.000    0.000    0.000    0.000    0.000 
#
# Total GULP energy -78333.542738 kJ/mol
# GULP energy per Si atom -5595.253053 kJ/mol
# Density = 2.188651 g / cm^3
# Si number density = 21.936434 Si / 1000 Ang^3
#
#
#
# Elastic Constant Matrix: (Units=GPa)
#
#
# Indices 1 2 3 4 5 6 
#
# 1 81.7830 14.4924 40.0411 -19.5685 -4.2484 1.9605
# 2 14.4924 131.4879 37.6771 -18.6924 12.8957 8.1317
# 3 40.0411 37.6771 100.8915 -25.3937 21.6057 -12.8698
# 4 -19.5685 -18.6924 -25.3937 38.2089 -1.5453 1.1035
# 5 -4.2484 12.8957 21.6057 -1.5453 33.2244 1.7930
# 6 1.9605 8.1317 -12.8698 1.1035 1.7930 27.8380
#
#
#
# Elastic Compliance Matrix: (Units=1/GPa)
#
#
# Indices 1 2 3 4 5 6 
#
# 1 0.018108 0.000754 -0.009044 0.004158 0.008442 -0.006385
# 2 0.000754 0.009254 -0.003440 0.002718 -0.000895 -0.004397
# 3 -0.009044 -0.003440 0.020947 0.006705 -0.013776 0.011948
# 4 0.004158 0.002718 0.006705 0.033926 -0.003353 0.000884
# 5 0.008442 -0.000895 -0.013776 -0.003353 0.040824 -0.009199
# 6 -0.006385 -0.004397 0.011948 0.000884 -0.009199 0.043737
#
#
# Mechanical properties :
#
#
# Convention : Reuss Voigt Hill
#
# Bulk Modulus (GPa) = 40.24378 55.39817 47.82098
# Shear Modulus (GPa) = 25.18379 34.65105 29.91742
#
# Velocity S-wave (km/s) = 3.39194 3.97874 3.69700
# Velocity P-wave (km/s) = 5.80739 6.81293 6.33016
#
# Compressibility (1/GPa) = 0.02484856
#
# Stress axis : x y z
#
# Youngs Moduli (GPa) = 55.22298 108.06189 47.73885
#
# Poissons Ratio (x) = -0.08144 0.43175
# Poissons Ratio (y) = -0.04162 0.16423
# Poissons Ratio (z) = 0.49944 0.37175
#
# Static dielectric constant tensor:
#      x y z
#    x 1.845010 0.033550 -0.016330 
#    y 0.033550 1.823690 0.007680 
#    z -0.016330 0.007680 1.807830 
# 
# From -- ./inp_files/416124.got.cif
#   From: 2010.05.17/outbox.cif.g08.bks.cpg/sg2_209_cif.got.tgz:416124.got - 2010.06.03 11:33:40.
