data_PCOD9011931
_publ_section_title
;
Structure prediction by ZEFSAII (Michael W. Deem and Ramdas Pophale) SiO2 
 PCOD9011931
Probable space group: P -1
;
_chemical_formula_sum "Si O2"
_cell_formula_units_Z 16
_cell_length_a 21.755443
_cell_length_b 5.156474
_cell_length_c 9.238174
_cell_angle_alpha 123.199466
_cell_angle_beta 129.831560
_cell_angle_gamma 70.566859
_cell_volume 665.677611
_symmetry_space_group_name_H-M "P -1"
_symmetry_group_IT_number 2
_symmetry_cell_setting 'triclinic'
loop_
_space_group_symop_operation_xyz
x,y,z
-x,-y,-z
loop_
_atom_site_type_symbol
_atom_site_label
_atom_site_fract_x
_atom_site_fract_y
_atom_site_fract_z
Si Si1 0.004083 0.298471 0.196420
Si Si2 0.637649 0.009091 0.920320
Si Si3 0.314929 0.352687 0.661795
Si Si4 0.771996 0.770935 0.251209
Si Si5 0.064469 0.949921 0.454680
Si Si6 0.735814 0.651810 0.728284
Si Si7 0.480815 0.131798 0.854165
Si Si8 0.821899 0.260314 0.976736
O O1 0.047998 0.592560 0.279974
O O2 0.912232 0.363916 0.112374
O O3 0.045809 0.193299 0.375015
O O4 0.000000 0.000000 0.000000
O O5 0.542133 0.976737 0.788427
O O6 0.670558 0.863246 0.777379
O O7 0.657878 0.367080 0.103788
O O8 0.688265 0.837767 0.067900
O O9 0.239725 0.201860 0.587154
O O10 0.295954 0.474885 0.511304
O O11 0.386370 0.113181 0.677421
O O12 0.841578 0.993418 0.357248
O O13 0.797515 0.431892 0.138791
O O14 0.000000 0.000000 0.500000
O O15 0.766963 0.400004 0.810234
O O16 0.806997 0.897250 0.867432
O O17 0.500000 0.500000 0.000000
O O18 0.500000 0.000000 0.000000
#
# Coordination Sequence:
#
# PCOD9011931 Si02
#       8
#     2   2   2   2   2   2   2   2
#     4  12  28  48  68  99 141 183 224 293 354 407
#     4  10  23  43  68  98 140 181 225 279 346 401
#     4  11  24  42  70 101 136 180 228 281 343 407
#     4  11  24  42  73  94 135 181 231 283 347 404
#     4  12  27  45  71 101 132 181 239 279 345 420
#     4  11  26  41  71 102 136 178 233 279 338 411
#     4  10  21  40  67  99 137 177 225 275 338 410
#     4  11  25  47  67  96 139 180 225 286 344 410
#
# _framework density 24.035661000000001
#
# number of rings (size 3 to 8) (size 9 to 14) (size 15 to 20)
#    0.000    1.000    3.750    1.500    7.000    0.500 
#    0.000    0.000    0.000    5.250    0.000    0.000 
#    0.000    0.000    0.000    0.000    0.000    0.000 
#
# Total GULP energy -89532.049093 kJ/mol
# GULP energy per Si atom -5595.753068 kJ/mol
# Density = 2.398095 g / cm^3
# Si number density = 24.035661 Si / 1000 Ang^3
#
#
#
# Elastic Constant Matrix: (Units=GPa)
#
#
# Indices 1 2 3 4 5 6 
#
# 1 121.1142 28.0244 40.8958 -11.2406 -7.9778 -6.5569
# 2 28.0244 76.9984 16.3483 -8.6497 0.0041 -0.0661
# 3 40.8958 16.3483 57.9412 -9.5313 -13.9683 -3.5050
# 4 -11.2406 -8.6497 -9.5313 39.6046 3.6766 -1.0575
# 5 -7.9778 0.0041 -13.9683 3.6766 28.4227 -2.9492
# 6 -6.5569 -0.0661 -3.5050 -1.0575 -2.9492 34.7654
#
#
#
# Elastic Compliance Matrix: (Units=1/GPa)
#
#
# Indices 1 2 3 4 5 6 
#
# 1 0.011410 -0.002515 -0.007160 0.001032 -0.000301 0.001431
# 2 -0.002515 0.014697 -0.002656 0.002054 -0.002367 -0.000853
# 3 -0.007160 -0.002656 0.026252 0.002767 0.010772 0.002289
# 4 0.001032 0.002054 0.002767 0.026846 -0.001704 0.001150
# 5 -0.000301 -0.002367 0.010772 -0.001704 0.041076 0.004457
# 6 0.001431 -0.000853 0.002289 0.001150 0.004457 0.029676
#
#
# Mechanical properties :
#
#
# Convention : Reuss Voigt Hill
#
# Bulk Modulus (GPa) = 36.10502 47.39899 41.75200
# Shear Modulus (GPa) = 27.19600 31.94423 29.57012
#
# Velocity S-wave (km/s) = 3.36741 3.64955 3.51131
# Velocity P-wave (km/s) = 5.49302 6.12552 5.81787
#
# Compressibility (1/GPa) = 0.02769698
#
# Stress axis : x y z
#
# Youngs Moduli (GPa) = 87.64483 68.04218 38.09220
#
# Poissons Ratio (x) = 0.17115 0.27272
# Poissons Ratio (y) = 0.22046 0.10117
# Poissons Ratio (z) = 0.62750 0.18071
#
# Static dielectric constant tensor:
#      x y z
#    x 1.844580 0.040310 0.075050 
#    y 0.040310 1.908740 0.016840 
#    z 0.075050 0.016840 1.925070 
# 
# From -- ./inp_files/112418.got.cif
#   From: 2010.05.17/outbox.cif.g08.bks.cpg/sg2_57_cif.got.tgz:112418.got - 2010.06.03 11:33:40.
