data_PCOD9011686
_publ_section_title
;
Structure prediction by ZEFSAII (Michael W. Deem and Ramdas Pophale) SiO2 
 PCOD9011686
Probable space group: P -1
;
_chemical_formula_sum "Si O2"
_cell_formula_units_Z 16
_cell_length_a 9.203307
_cell_length_b 17.988874
_cell_length_c 12.330623
_cell_angle_alpha 42.682022
_cell_angle_beta 94.826726
_cell_angle_gamma 129.678989
_cell_volume 718.370997
_symmetry_space_group_name_H-M "P -1"
_symmetry_group_IT_number 2
_symmetry_cell_setting 'triclinic'
loop_
_space_group_symop_operation_xyz
x,y,z
-x,-y,-z
loop_
_atom_site_type_symbol
_atom_site_label
_atom_site_fract_x
_atom_site_fract_y
_atom_site_fract_z
Si Si1 0.085995 0.927962 0.064483
Si Si2 0.343749 0.849303 0.478853
Si Si3 0.059329 0.229918 0.208569
Si Si4 0.269892 0.682993 0.242146
Si Si5 0.826473 0.605278 0.573756
Si Si6 0.541822 0.173705 0.284674
Si Si7 0.151367 0.839722 0.952061
Si Si8 0.455199 0.587943 0.031424
O O1 0.912041 0.745253 0.336748
O O2 0.030373 0.842309 0.033469
O O3 0.418511 0.116253 0.901796
O O4 0.000000 0.000000 0.000000
O O5 0.258153 0.718641 0.714930
O O6 0.098510 0.750400 0.506409
O O7 0.521399 0.058309 0.326839
O O8 0.547562 0.922539 0.327417
O O9 0.245884 0.408887 0.118737
O O10 0.029548 0.278169 0.042872
O O11 0.232673 0.235008 0.178214
O O12 0.761765 0.013364 0.475231
O O13 0.270107 0.571279 0.293608
O O14 0.000000 0.500000 0.500000
O O15 0.215425 0.760892 0.089863
O O16 0.607319 0.506000 0.755906
O O17 0.594389 0.315191 0.069017
#
# Coordination Sequence:
#
# PCOD9011686 Si02
#       8
#     2   2   2   2   2   2   2   2
#     4  12  29  50  71 103 147 186 233 299 359 417
#     4  10  21  40  67 100 134 178 227 286 339 413
#     4  10  24  43  64 101 138 182 226 285 341 425
#     4  12  25  45  77 102 138 188 240 300 344 417
#     4  12  25  43  71 102 141 181 236 287 353 415
#     4  10  21  41  64  96 141 179 227 281 345 405
#     4  11  23  47  72  99 139 181 241 282 352 415
#     4  11  24  41  66 101 142 181 227 277 353 420
#
# _framework density 22.272614000000001
#
# number of rings (size 3 to 8) (size 9 to 14) (size 15 to 20)
#    0.000    1.000    3.750    2.250    3.500    2.000 
#    9.000    0.000    0.000    0.000    0.000    0.000 
#    0.000    0.000    0.000    0.000    0.000    0.000 
#
# Total GULP energy -89401.841960 kJ/mol
# GULP energy per Si atom -5587.615123 kJ/mol
# Density = 2.222192 g / cm^3
# Si number density = 22.272614 Si / 1000 Ang^3
#
#
#
# Elastic Constant Matrix: (Units=GPa)
#
#
# Indices 1 2 3 4 5 6 
#
# 1 87.9965 27.7618 33.2200 7.4677 -8.4768 -9.0117
# 2 27.7618 93.2777 35.1274 24.4339 -4.2136 -15.1689
# 3 33.2200 35.1274 94.2397 28.9383 -6.9182 -10.0073
# 4 7.4677 24.4339 28.9383 26.9225 -5.0287 -6.1594
# 5 -8.4768 -4.2136 -6.9182 -5.0287 38.4928 4.0058
# 6 -9.0117 -15.1689 -10.0073 -6.1594 4.0058 27.1307
#
#
#
# Elastic Compliance Matrix: (Units=1/GPa)
#
#
# Indices 1 2 3 4 5 6 
#
# 1 0.014300 -0.003346 -0.005079 0.005404 0.002380 0.001881
# 2 -0.003346 0.015809 -0.000646 -0.011807 -0.001183 0.004984
# 3 -0.005079 -0.000646 0.017988 -0.017229 -0.000282 0.000717
# 4 0.005404 -0.011807 -0.017229 0.066574 0.005166 0.003190
# 5 0.002380 -0.001183 -0.000282 0.005166 0.027293 -0.002832
# 6 0.001881 0.004984 0.000717 0.003190 -0.002832 0.041677
#
#
# Mechanical properties :
#
#
# Convention : Reuss Voigt Hill
#
# Bulk Modulus (GPa) = 33.38003 51.97024 42.67514
# Shear Modulus (GPa) = 23.61088 30.46951 27.04020
#
# Velocity S-wave (km/s) = 3.25943 3.70270 3.48811
# Velocity P-wave (km/s) = 5.40229 6.45479 5.95185
#
# Compressibility (1/GPa) = 0.02995803
#
# Stress axis : x y z
#
# Youngs Moduli (GPa) = 69.92886 63.25370 55.59228
#
# Poissons Ratio (x) = 0.21162 0.28234
# Poissons Ratio (y) = 0.23395 0.03589
# Poissons Ratio (z) = 0.35515 0.04084
#
# Static dielectric constant tensor:
#      x y z
#    x 1.852910 0.028130 -0.026390 
#    y 0.028130 1.854680 0.010270 
#    z -0.026390 0.010270 1.832110 
# 
# From -- ./inp_files/70836.got.cif
#   From: 2010.05.17/outbox.cif.g08.bks.cpg/sg2_36_cif.got.tgz:70836.got - 2010.06.03 11:33:40.
