data_PCOD9011944
_publ_section_title
;
Structure prediction by ZEFSAII (Michael W. Deem and Ramdas Pophale) SiO2 
 PCOD9011944
Probable space group: P -1
;
_chemical_formula_sum "Si O2"
_cell_formula_units_Z 16
_cell_length_a 5.004761
_cell_length_b 10.123832
_cell_length_c 12.474424
_cell_angle_alpha 109.396171
_cell_angle_beta 78.144724
_cell_angle_gamma 95.328956
_cell_volume 583.249640
_symmetry_space_group_name_H-M "P -1"
_symmetry_group_IT_number 2
_symmetry_cell_setting 'triclinic'
loop_
_space_group_symop_operation_xyz
x,y,z
-x,-y,-z
loop_
_atom_site_type_symbol
_atom_site_label
_atom_site_fract_x
_atom_site_fract_y
_atom_site_fract_z
Si Si1 0.497927 0.524004 0.802348
Si Si2 0.259359 0.785658 0.811047
Si Si3 0.449966 0.832515 0.604059
Si Si4 0.821547 0.904699 0.403294
Si Si5 0.390741 0.959106 0.114407
Si Si6 0.890933 0.801236 0.042077
Si Si7 0.046906 0.645883 0.184060
Si Si8 0.266760 0.425650 0.428043
O O1 0.417458 0.686264 0.854031
O O2 0.210060 0.448564 0.783474
O O3 0.681712 0.528296 0.684426
O O4 0.678404 0.440552 0.848657
O O5 0.224242 0.747522 0.678762
O O6 0.480726 0.911594 0.797298
O O7 0.990871 0.805215 0.911173
O O8 0.568557 0.828554 0.467342
O O9 0.707379 0.739711 0.599488
O O10 0.312145 0.985324 0.638203
O O11 0.009650 0.790881 0.295057
O O12 0.000000 0.000000 0.500000
O O13 0.075464 0.925663 0.116312
O O14 0.574012 0.828017 0.094384
O O15 0.500000 0.000000 0.000000
O O16 0.986707 0.673618 0.070912
O O17 0.500000 0.500000 0.500000
O O18 0.000000 0.500000 0.500000
#
# Coordination Sequence:
#
# PCOD9011944 Si02
#       8
#     2   2   2   2   2   2   2   2
#     4  11  26  44  67 101 138 191 225 287 335 418
#     4  10  23  44  69 100 139 176 236 278 348 407
#     4  10  24  43  65 100 132 175 224 283 345 406
#     4  11  26  42  69  98 135 180 225 289 352 412
#     4  10  21  40  68 100 133 171 225 286 343 396
#     4  11  24  43  71 104 135 186 223 292 341 403
#     4  12  27  46  69  97 145 182 239 276 349 412
#     4  11  23  42  68  96 134 177 230 279 337 402
#
# _framework density 27.432507999999999
#
# number of rings (size 3 to 8) (size 9 to 14) (size 15 to 20)
#    0.000    1.250    0.000    5.250    8.750    4.000 
#    4.500    0.000    0.000    0.000    0.000    0.000 
#    0.000    0.000    0.000    0.000    0.000    0.000 
#
# Total GULP energy -89121.980311 kJ/mol
# GULP energy per Si atom -5570.123769 kJ/mol
# Density = 2.737007 g / cm^3
# Si number density = 27.432508 Si / 1000 Ang^3
#
#
#
# Elastic Constant Matrix: (Units=GPa)
#
#
# Indices 1 2 3 4 5 6 
#
# 1 116.1440 44.5443 27.6025 23.4254 -0.6309 -37.4054
# 2 44.5443 156.1811 41.9322 -18.9137 11.0581 -45.1234
# 3 27.6025 41.9322 113.8109 -7.6393 -19.2937 -5.8681
# 4 23.4254 -18.9137 -7.6393 41.1997 -3.3695 3.7057
# 5 -0.6309 11.0581 -19.2937 -3.3695 38.9905 -0.4093
# 6 -37.4054 -45.1234 -5.8681 3.7057 -0.4093 57.5991
#
#
#
# Elastic Compliance Matrix: (Units=1/GPa)
#
#
# Indices 1 2 3 4 5 6 
#
# 1 0.015317 -0.002181 -0.003524 -0.011281 -0.001762 0.008592
# 2 -0.002181 0.010615 -0.003487 0.004555 -0.004312 0.006221
# 3 -0.003524 -0.003487 0.012190 0.003611 0.007235 -0.003959
# 4 -0.011281 0.004555 0.003611 0.034210 0.003211 -0.005568
# 5 -0.001762 -0.004312 0.007235 0.003211 0.030659 -0.003774
# 6 0.008592 0.006221 -0.003959 -0.005568 -0.003774 0.027743
#
#
# Mechanical properties :
#
#
# Convention : Reuss Voigt Hill
#
# Bulk Modulus (GPa) = 50.66131 68.25487 59.45809
# Shear Modulus (GPa) = 32.11342 45.69501 38.90421
#
# Velocity S-wave (km/s) = 3.42516 4.08576 3.76996
# Velocity P-wave (km/s) = 5.84380 6.86971 6.37742
#
# Compressibility (1/GPa) = 0.01973893
#
# Stress axis : x y z
#
# Youngs Moduli (GPa) = 65.28676 94.20491 82.03124
#
# Poissons Ratio (x) = 0.20549 0.28908
# Poissons Ratio (y) = 0.14241 0.28601
# Poissons Ratio (z) = 0.23007 0.32845
#
# Static dielectric constant tensor:
#      x y z
#    x 1.902800 -0.143260 -0.324010 
#    y -0.143260 2.104920 -0.125030 
#    z -0.324010 -0.125030 1.793050 
# 
# From -- ./inp_files/480623.got.cif
#   From: 2010.05.17/outbox.cif.g08.bks.cpg/sg2_241_cif.got.tgz:480623.got - 2010.06.03 11:33:40.
