data_PCOD9011567
_publ_section_title
;
Structure prediction by ZEFSAII (Michael W. Deem and Ramdas Pophale) SiO2 
 PCOD9011567
Probable space group: P -1
;
_chemical_formula_sum "Si O2"
_cell_formula_units_Z 14
_cell_length_a 8.070254
_cell_length_b 15.357279
_cell_length_c 13.768806
_cell_angle_alpha 29.283541
_cell_angle_beta 73.935279
_cell_angle_gamma 56.155479
_cell_volume 594.424226
_symmetry_space_group_name_H-M "P -1"
_symmetry_group_IT_number 2
_symmetry_cell_setting 'triclinic'
loop_
_space_group_symop_operation_xyz
x,y,z
-x,-y,-z
loop_
_atom_site_type_symbol
_atom_site_label
_atom_site_fract_x
_atom_site_fract_y
_atom_site_fract_z
Si Si1 0.546680 0.780525 0.266629
Si Si2 0.648476 0.506053 0.264508
Si Si3 0.564033 0.486125 0.891385
Si Si4 0.771199 0.270131 0.745303
Si Si5 0.451671 0.055622 0.203208
Si Si6 0.343847 0.986163 0.471639
Si Si7 0.863219 0.972093 0.337791
O O1 0.768784 0.484963 0.509276
O O2 0.350838 0.777362 0.265973
O O3 0.523810 0.856041 0.308952
O O4 0.500000 0.000000 0.000000
O O5 0.623070 0.476432 0.184167
O O6 0.411009 0.610421 0.251662
O O7 0.880632 0.258830 0.506511
O O8 0.658910 0.710184 0.070096
O O9 0.527022 0.717970 0.658706
O O10 0.500000 0.500000 0.000000
O O11 0.802315 0.220752 0.089379
O O12 0.000000 0.000000 0.000000
O O13 0.673786 0.990092 0.288400
O O14 0.266908 0.133161 0.242392
O O15 0.167321 0.034704 0.533483
O O16 0.500000 0.000000 0.500000
#
# Coordination Sequence:
#
# PCOD9011567 Si02
#       7
#     2   2   2   2   2   2   2
#     4  11  24  47  71 104 133 176 235 285 344 418
#     4  11  22  42  64  94 130 174 225 269 343 407
#     4   9  19  36  59  89 127 166 215 267 324 392
#     4  11  27  48  71  98 137 180 228 291 349 409
#     4  10  21  40  66  95 134 171 219 278 330 402
#     4   9  18  37  60  93 128 171 219 263 329 394
#     4   9  21  38  65  93 132 176 216 275 330 397
#
# _framework density 23.552202999999999
#
# number of rings (size 3 to 8) (size 9 to 14) (size 15 to 20)
#    0.000    2.000    1.429    1.714    0.000    9.143 
#    0.000    7.143    0.000    0.000    0.000    0.000 
#    0.000    0.000    0.000    0.000    0.000    0.000 
#
# Total GULP energy -77976.904114 kJ/mol
# GULP energy per Si atom -5569.778865 kJ/mol
# Density = 2.349860 g / cm^3
# Si number density = 23.552203 Si / 1000 Ang^3
#
#
#
# Elastic Constant Matrix: (Units=GPa)
#
#
# Indices 1 2 3 4 5 6 
#
# 1 35.5857 33.1800 42.2875 -19.5689 -1.7858 17.4813
# 2 33.1800 133.2261 42.2712 -5.2144 -4.4138 20.1082
# 3 42.2875 42.2712 165.6428 -29.4336 -4.1398 -7.9109
# 4 -19.5689 -5.2144 -29.4336 46.7716 -0.8677 -9.7942
# 5 -1.7858 -4.4138 -4.1398 -0.8677 47.6178 -7.4616
# 6 17.4813 20.1082 -7.9109 -9.7942 -7.4616 43.6014
#
#
#
# Elastic Compliance Matrix: (Units=1/GPa)
#
#
# Indices 1 2 3 4 5 6 
#
# 1 0.077591 -0.009788 -0.015850 0.015794 -0.003236 -0.026477
# 2 -0.009788 0.010375 -0.000931 -0.003916 0.000147 -0.001884
# 3 -0.015850 -0.000931 0.011259 0.002413 0.001860 0.009687
# 4 0.015794 -0.003916 0.002413 0.029688 0.001423 0.002824
# 5 -0.003236 0.000147 0.001860 0.001423 0.021965 0.005646
# 6 -0.026477 -0.001884 0.009687 0.002824 0.005646 0.037777
#
#
# Mechanical properties :
#
#
# Convention : Reuss Voigt Hill
#
# Bulk Modulus (GPa) = 21.69769 63.32580 42.51175
# Shear Modulus (GPa) = 19.44344 42.04588 30.74466
#
# Velocity S-wave (km/s) = 2.87635 4.22977 3.61693
# Velocity P-wave (km/s) = 4.50153 7.12744 5.96088
#
# Compressibility (1/GPa) = 0.04608786
#
# Stress axis : x y z
#
# Youngs Moduli (GPa) = 12.88805 96.38461 88.81847
#
# Poissons Ratio (x) = 0.94342 1.40774
# Poissons Ratio (y) = 0.12615 0.08269
# Poissons Ratio (z) = 0.20427 0.08974
#
# Static dielectric constant tensor:
#      x y z
#    x 1.879560 -0.030310 -0.033120 
#    y -0.030310 1.922790 0.011340 
#    z -0.033120 0.011340 2.045750 
# 
# From -- ./inp_files/503611.got.cif
#   From: 2010.05.17/outbox.cif.g08.bks.cpg/sg2_252_cif.got.tgz:503611.got - 2010.06.03 11:33:40.
