data_PCOD9011398
_publ_section_title
;
Structure prediction by ZEFSAII (Michael W. Deem and Ramdas Pophale) SiO2 
 PCOD9011398
Probable space group: P -1
;
_chemical_formula_sum "Si O2"
_cell_formula_units_Z 16
_cell_length_a 14.583385
_cell_length_b 9.116030
_cell_length_c 21.311793
_cell_angle_alpha 121.725714
_cell_angle_beta 20.426711
_cell_angle_gamma 128.230887
_cell_volume 761.493078
_symmetry_space_group_name_H-M "P -1"
_symmetry_group_IT_number 2
_symmetry_cell_setting 'triclinic'
loop_
_space_group_symop_operation_xyz
x,y,z
-x,-y,-z
loop_
_atom_site_type_symbol
_atom_site_label
_atom_site_fract_x
_atom_site_fract_y
_atom_site_fract_z
Si Si1 0.971036 0.243982 0.900354
Si Si2 0.241862 0.987349 0.462234
Si Si3 0.384695 0.609800 0.647048
Si Si4 0.412515 0.728366 0.043757
Si Si5 0.175799 0.019375 0.954731
Si Si6 0.973401 0.301734 0.208342
Si Si7 0.944728 0.100858 0.296378
Si Si8 0.375137 0.099365 0.191844
O O1 0.174602 0.455480 0.795857
O O2 0.043175 0.097905 0.776321
O O3 0.987961 0.172665 0.942943
O O4 0.634106 0.200939 0.096965
O O5 0.362451 0.215999 0.441458
O O6 0.936531 0.898739 0.601863
O O7 0.497129 0.946565 0.260278
O O8 0.186527 0.918973 0.554917
O O9 0.500000 0.500000 0.500000
O O10 0.217669 0.698046 0.728887
O O11 0.162874 0.518487 0.154620
O O12 0.327505 0.880677 0.167436
O O13 0.716866 0.749643 0.881842
O O14 0.489853 0.802830 0.939379
O O15 0.166676 0.193583 0.038669
O O16 0.000000 0.000000 0.000000
O O17 0.806155 0.180750 0.349164
#
# Coordination Sequence:
#
# PCOD9011398 Si02
#       8
#     2   2   2   2   2   2   2   2
#     4  10  21  40  66  89 118 161 204 243 310 357
#     4  11  22  39  60  89 130 154 203 251 299 349
#     4  12  22  36  64  96 115 150 211 257 290 351
#     4   9  16  33  62  91 120 147 200 250 309 341
#     4  11  25  43  57  84 128 172 194 240 307 369
#     4  11  21  37  62  85 122 161 202 238 303 364
#     4   9  20  36  61  92 119 155 194 254 301 353
#     4   9  18  36  63  93 119 154 195 262 302 345
#
# _framework density 21.011354000000001
#
# number of rings (size 3 to 8) (size 9 to 14) (size 15 to 20)
#    0.000    1.750    3.750    1.875    0.000    2.500 
#    0.000    2.500    0.000    0.000    0.000    0.000 
#    0.000    0.000    0.000    0.000    0.000    0.000 
#
# Total GULP energy -89407.432070 kJ/mol
# GULP energy per Si atom -5587.964504 kJ/mol
# Density = 2.096353 g / cm^3
# Si number density = 21.011354 Si / 1000 Ang^3
#
#
#
# Elastic Constant Matrix: (Units=GPa)
#
#
# Indices 1 2 3 4 5 6 
#
# 1 84.2135 12.9570 23.9503 -18.4226 11.5523 -27.9737
# 2 12.9570 64.5439 31.2461 -11.8641 -2.6651 -12.7481
# 3 23.9503 31.2461 93.6307 -1.3723 -1.6210 -15.2051
# 4 -18.4226 -11.8641 -1.3723 35.6225 6.6978 -0.0980
# 5 11.5523 -2.6651 -1.6210 6.6978 15.3182 -2.6818
# 6 -27.9737 -12.7481 -15.2051 -0.0980 -2.6818 30.0140
#
#
#
# Elastic Compliance Matrix: (Units=1/GPa)
#
#
# Indices 1 2 3 4 5 6 
#
# 1 0.028886 0.004148 -0.005059 0.021212 -0.026706 0.023805
# 2 0.004148 0.021334 -0.006560 0.009518 -0.002627 0.009401
# 3 -0.005059 -0.006560 0.014245 -0.005499 0.006637 0.000290
# 4 0.021212 0.009518 -0.005499 0.048220 -0.032812 0.018252
# 5 -0.026706 -0.002627 0.006637 -0.032812 0.097557 -0.014034
# 6 0.023805 0.009401 0.000290 0.018252 -0.014034 0.058450
#
#
# Mechanical properties :
#
#
# Convention : Reuss Voigt Hill
#
# Bulk Modulus (GPa) = 20.19223 42.07723 31.13473
# Shear Modulus (GPa) = 16.65881 27.80660 22.23271
#
# Velocity S-wave (km/s) = 2.81881 3.64181 3.25642
# Velocity P-wave (km/s) = 4.49725 6.14436 5.38416
#
# Compressibility (1/GPa) = 0.04952400
#
# Stress axis : x y z
#
# Youngs Moduli (GPa) = 34.61846 46.87327 70.20037
#
# Poissons Ratio (x) = -0.19445 0.35515
# Poissons Ratio (y) = -0.14361 0.46051
# Poissons Ratio (z) = 0.17514 0.30749
#
# Static dielectric constant tensor:
#      x y z
#    x 1.810750 -0.024390 0.003340 
#    y -0.024390 1.738780 0.016200 
#    z 0.003340 0.016200 1.754250 
# 
# From -- ./inp_files/223607.got.cif
#   From: 2010.05.17/outbox.cif.g08.bks.cpg/sg2_112_cif.got.tgz:223607.got - 2010.06.03 11:33:40.
