data_PCOD9011900
_publ_section_title
;
Structure prediction by ZEFSAII (Michael W. Deem and Ramdas Pophale) SiO2 
 PCOD9011900
Probable space group: P -1
;
_chemical_formula_sum "Si O2"
_cell_formula_units_Z 12
_cell_length_a 4.995838
_cell_length_b 11.356474
_cell_length_c 10.938981
_cell_angle_alpha 53.069588
_cell_angle_beta 118.003266
_cell_angle_gamma 113.320128
_cell_volume 432.294893
_symmetry_space_group_name_H-M "P -1"
_symmetry_group_IT_number 2
_symmetry_cell_setting 'triclinic'
loop_
_space_group_symop_operation_xyz
x,y,z
-x,-y,-z
loop_
_atom_site_type_symbol
_atom_site_label
_atom_site_fract_x
_atom_site_fract_y
_atom_site_fract_z
Si Si1 0.648773 0.372669 0.511696
Si Si2 0.976614 0.676558 0.996703
Si Si3 0.833085 0.991787 0.139556
Si Si4 0.601231 0.682216 0.239548
Si Si5 0.791541 0.121019 0.512617
Si Si6 0.984146 0.628749 0.752611
O O1 0.774497 0.542480 0.383321
O O2 0.598971 0.319715 0.675531
O O3 0.725573 0.244743 0.519147
O O4 0.291408 0.383947 0.393846
O O5 0.347051 0.673246 0.085309
O O6 0.856154 0.518465 0.134372
O O7 0.962679 0.844465 0.933351
O O8 0.872629 0.647797 0.854014
O O9 0.850393 0.830614 0.184607
O O10 0.923064 0.950970 0.324619
O O11 0.500000 0.000000 0.000000
O O12 0.828319 0.213211 0.338532
O O13 0.500000 0.000000 0.500000
#
# Coordination Sequence:
#
# PCOD9011900 Si02
#       6
#     2   2   2   2   2   2
#     4  10  21  40  67  98 128 175 225 274 331 399
#     4   9  20  39  68  92 130 181 219 265 342 395
#     4  10  21  42  66  95 136 175 215 276 340 387
#     4   9  19  40  66  93 132 177 214 274 340 390
#     4  12  26  40  70 105 130 176 233 275 329 404
#     4  10  21  43  67  91 135 182 219 276 332 396
#
# _framework density 27.75883
#
# number of rings (size 3 to 8) (size 9 to 14) (size 15 to 20)
#    0.000    2.000    1.667    1.000    2.333    2.000 
#    0.000   16.667    3.667    0.000    0.000    0.000 
#    0.000    0.000    0.000    0.000    0.000    0.000 
#
# Total GULP energy -66881.278291 kJ/mol
# GULP energy per Si atom -5573.439858 kJ/mol
# Density = 2.769565 g / cm^3
# Si number density = 27.758830 Si / 1000 Ang^3
#
#
#
# Elastic Constant Matrix: (Units=GPa)
#
#
# Indices 1 2 3 4 5 6 
#
# 1 -1894.7630-1525.4648 1097.0016 81.2039 749.9527-1399.1002
# 2 -1525.4648-1043.8477 897.8408 37.3759 591.1394-1090.1691
# 3 1097.0016 897.8408 -421.9834 -76.7330 -423.2224 763.1700
# 4 81.2039 37.3759 -76.7330 57.3024 -31.9030 57.7084
# 5 749.9527 591.1394 -423.2224 -31.9030 -255.8946 543.2559
# 6 -1399.1002-1090.1691 763.1700 57.7084 543.2559 -947.2328
#
#
#
# Elastic Compliance Matrix: (Units=1/GPa)
#
#
# Indices 1 2 3 4 5 6 
#
# 1 0.009572 -0.002875 0.001229 -0.000263 0.006945 -0.005872
# 2 -0.002875 0.006558 -0.000833 0.002498 0.001470 -0.002977
# 3 0.001229 -0.000833 0.005950 0.002661 -0.000956 0.003551
# 4 -0.000263 0.002498 0.002661 0.018937 0.000184 0.000917
# 5 0.006945 0.001470 -0.000956 0.000184 0.025650 0.002003
# 6 -0.005872 -0.002977 0.003551 0.000917 0.002003 0.015109
#
#
# Mechanical properties :
#
#
# Convention : Reuss Voigt Hill
#
# Bulk Modulus (GPa) = 58.40588 -269.09322 -105.34367
# Shear Modulus (GPa) = 54.08862 -484.49646 -215.20392
#
# Velocity S-wave (km/s) = 4.41899 -13.22561 -8.81445
# Velocity P-wave (km/s) = 6.86461 18.17615 11.90062
#
# Compressibility (1/GPa) = 0.01712156
#
# Stress axis : x y z
#
# Youngs Moduli (GPa) = 104.47521 152.48859 168.07031
#
# Poissons Ratio (x) = 0.43841 -0.20650
# Poissons Ratio (y) = 0.30037 0.13992
# Poissons Ratio (z) = -0.12836 0.12695
#
# Static dielectric constant tensor:
#      x y z
#    x 2.368620 0.113990 -0.063560 
#    y 0.113990 2.256880 -0.116400 
#    z -0.063560 -0.116400 2.231380 
# 
# From -- ./inp_files/362617.got.cif
#   From: 2010.05.17/outbox.cif.g08.bks.cpg/sg2_182_cif.got.tgz:362617.got - 2010.06.03 11:33:40.
