data_PCOD9011150
_publ_section_title
;
Structure prediction by ZEFSAII (Michael W. Deem and Ramdas Pophale) SiO2 
 PCOD9011150
Probable space group: P -1
;
_chemical_formula_sum "Si O2"
_cell_formula_units_Z 16
_cell_length_a 8.519553
_cell_length_b 9.469814
_cell_length_c 13.237873
_cell_angle_alpha 61.538495
_cell_angle_beta 115.256720
_cell_angle_gamma 90.645786
_cell_volume 824.024281
_symmetry_space_group_name_H-M "P -1"
_symmetry_group_IT_number 2
_symmetry_cell_setting 'triclinic'
loop_
_space_group_symop_operation_xyz
x,y,z
-x,-y,-z
loop_
_atom_site_type_symbol
_atom_site_label
_atom_site_fract_x
_atom_site_fract_y
_atom_site_fract_z
Si Si1 0.369668 0.188709 0.567323
Si Si2 0.702030 0.363530 0.871709
Si Si3 0.720424 0.717377 0.716170
Si Si4 0.147073 0.936614 0.648950
Si Si5 0.623027 0.363887 0.285682
Si Si6 0.750669 0.199560 0.727894
Si Si7 0.998840 0.884775 0.838441
Si Si8 0.185369 0.533852 0.501048
O O1 0.289962 0.217965 0.422658
O O2 0.583761 0.156172 0.638013
O O3 0.301829 0.360381 0.550402
O O4 0.291128 0.046868 0.644140
O O5 0.782668 0.517846 0.806900
O O6 0.512557 0.459080 0.837246
O O7 0.681761 0.270360 0.794182
O O8 0.833697 0.241076 0.022921
O O9 0.515819 0.748005 0.687098
O O10 0.847452 0.792350 0.795354
O O11 0.239664 0.743056 0.718850
O O12 0.057429 0.956856 0.726374
O O13 0.000000 0.000000 0.500000
O O14 0.724086 0.397664 0.402452
O O15 0.819763 0.335252 0.635181
O O16 0.908474 0.035670 0.834331
O O17 0.000000 0.500000 0.500000
#
# Coordination Sequence:
#
# PCOD9011150 Si02
#       8
#     2   2   2   2   2   2   2   2
#     4  12  21  40  66  92 126 160 206 262 316 372
#     4  10  23  44  65  88 123 172 219 240 304 371
#     4  10  21  40  65  93 119 164 211 252 310 367
#     4  12  25  39  60  98 129 158 202 263 324 355
#     4  10  22  41  62  92 124 166 203 249 315 375
#     4  12  22  42  66  94 121 166 213 256 310 366
#     4  12  25  40  64  93 130 163 209 262 299 372
#     4  12  22  37  64  98 126 159 203 264 319 363
#
# _framework density 19.416902
#
# number of rings (size 3 to 8) (size 9 to 14) (size 15 to 20)
#    0.750    0.000    5.000    4.125    0.000    1.500 
#    0.000    0.625    2.750    0.000    0.000    0.000 
#    0.000    0.000    0.000    0.000    0.000    0.000 
#
# Total GULP energy -89311.581023 kJ/mol
# GULP energy per Si atom -5581.973814 kJ/mol
# Density = 1.937271 g / cm^3
# Si number density = 19.416902 Si / 1000 Ang^3
#
#
#
# Elastic Constant Matrix: (Units=GPa)
#
#
# Indices 1 2 3 4 5 6 
#
# 1 57.2177 0.8548 21.2044 -1.5615 15.6499 6.9153
# 2 0.8548 74.6366 21.2900 -9.3610 12.4093 -8.1634
# 3 21.2044 21.2900 84.6637 -4.4887 14.6436 6.8885
# 4 -1.5615 -9.3610 -4.4887 25.7503 -6.2543 11.3964
# 5 15.6499 12.4093 14.6436 -6.2543 17.7151 -6.5527
# 6 6.9153 -8.1634 6.8885 11.3964 -6.5527 35.9937
#
#
#
# Elastic Compliance Matrix: (Units=1/GPa)
#
#
# Indices 1 2 3 4 5 6 
#
# 1 0.027032 0.004007 -0.002168 -0.000184 -0.028274 -0.008959
# 2 0.004007 0.016535 -0.003108 0.002657 -0.011370 0.000664
# 3 -0.002168 -0.003108 0.015429 0.001400 -0.010217 -0.005545
# 4 -0.000184 0.002657 0.001400 0.048114 0.009256 -0.013179
# 5 -0.028274 -0.011370 -0.010217 0.009256 0.109150 0.021749
# 6 -0.008959 0.000664 -0.005545 -0.013179 0.021749 0.038848
#
#
# Mechanical properties :
#
#
# Convention : Reuss Voigt Hill
#
# Bulk Modulus (GPa) = 17.71284 33.69072 25.70178
# Shear Modulus (GPa) = 18.08543 27.43642 22.76093
#
# Velocity S-wave (km/s) = 3.05524 3.76309 3.42749
# Velocity P-wave (km/s) = 4.64631 6.02246 5.37858
#
# Compressibility (1/GPa) = 0.05645623
#
# Stress axis : x y z
#
# Youngs Moduli (GPa) = 36.99331 60.47704 64.81435
#
# Poissons Ratio (x) = -0.24232 0.14055
# Poissons Ratio (y) = -0.14823 0.20146
# Poissons Ratio (z) = 0.08022 0.18798
#
# Static dielectric constant tensor:
#      x y z
#    x 1.691430 -0.019430 0.031490 
#    y -0.019430 1.680210 -0.027270 
#    z 0.031490 -0.027270 1.654360 
# 
# From -- ./inp_files/492267.got.cif
#   From: 2010.05.17/outbox.cif.g08.bks.cpg/sg2_247_cif.got.tgz:492267.got - 2010.06.03 11:33:40.
