data_PCOD9011320
_publ_section_title
;
Structure prediction by ZEFSAII (Michael W. Deem and Ramdas Pophale) SiO2 
 PCOD9011320
Probable space group: P -1
;
_chemical_formula_sum "Si O2"
_cell_formula_units_Z 16
_cell_length_a 26.377195
_cell_length_b 16.265688
_cell_length_c 5.103990
_cell_angle_alpha 90.010525
_cell_angle_beta 92.238354
_cell_angle_gamma 163.155296
_cell_volume 628.723958
_symmetry_space_group_name_H-M "P -1"
_symmetry_group_IT_number 2
_symmetry_cell_setting 'triclinic'
loop_
_space_group_symop_operation_xyz
x,y,z
-x,-y,-z
loop_
_atom_site_type_symbol
_atom_site_label
_atom_site_fract_x
_atom_site_fract_y
_atom_site_fract_z
Si Si1 0.699362 0.706025 0.545931
Si Si2 0.034409 0.429964 0.244457
Si Si3 0.179091 0.241247 0.816910
Si Si4 0.345305 0.185151 0.651061
Si Si5 0.220787 0.639118 0.786317
Si Si6 0.483143 0.183347 0.812107
Si Si7 0.061978 0.228295 0.846555
Si Si8 0.700721 0.026093 0.727422
O O1 0.716983 0.654600 0.363646
O O2 0.546669 0.468846 0.736546
O O3 0.657124 0.721119 0.371396
O O4 0.891475 0.011667 0.706442
O O5 0.122446 0.513051 0.497051
O O6 0.107666 0.636392 0.272745
O O7 0.108757 0.507323 0.994365
O O8 0.824457 0.101862 0.216902
O O9 0.315178 0.483937 0.072296
O O10 0.111896 0.224205 0.694769
O O11 0.020590 0.940548 0.906653
O O12 0.308758 0.082610 0.364919
O O13 0.213952 0.531792 0.851663
O O14 0.413028 0.980867 0.823962
O O15 0.371781 0.060834 0.006821
O O16 0.417469 0.109708 0.514964
#
# Coordination Sequence:
#
# PCOD9011320 Si02
#       8
#     2   2   2   2   2   2   2   2
#     4  11  23  42  62  94 133 173 222 272 334 393
#     4  10  21  40  65  97 136 175 215 266 331 398
#     4  11  24  43  68  94 131 177 226 278 334 394
#     4  11  21  38  64  96 133 176 217 272 325 400
#     4  10  22  43  68  98 136 172 221 275 327 396
#     4  10  22  43  68  98 136 172 221 275 327 396
#     4  11  24  43  68  94 131 177 226 278 334 394
#     4  10  21  40  65  97 136 175 215 266 331 398
#
# _framework density 25.448373
#
# number of rings (size 3 to 8) (size 9 to 14) (size 15 to 20)
#    0.000    1.500    2.500    2.250    0.000    1.500 
#    4.500    6.250    0.000    4.500    0.000    0.000 
#    0.000    0.000    0.000    0.000    0.000    0.000 
#
# Total GULP energy -89512.277902 kJ/mol
# GULP energy per Si atom -5594.517369 kJ/mol
# Density = 2.539045 g / cm^3
# Si number density = 25.448373 Si / 1000 Ang^3
#
#
#
# Elastic Constant Matrix: (Units=GPa)
#
#
# Indices 1 2 3 4 5 6 
#
# 1 130.8308 39.9295 13.5945 -17.3209 -9.1392 -14.7538
# 2 39.9295 103.9106 16.3907 -25.7494 16.4371 -17.1098
# 3 13.5945 16.3907 77.3730 -10.4446 9.9120 -4.8849
# 4 -17.3209 -25.7494 -10.4446 20.2369 4.2207 5.4191
# 5 -9.1392 16.4371 9.9120 4.2207 22.2624 2.2629
# 6 -14.7538 -17.1098 -4.8849 5.4191 2.2629 52.4369
#
#
#
# Elastic Compliance Matrix: (Units=1/GPa)
#
#
# Indices 1 2 3 4 5 6 
#
# 1 0.009934 -0.004966 -0.001860 -0.000768 0.008647 0.000708
# 2 -0.004966 0.024765 0.004303 0.034291 -0.029228 0.004802
# 3 -0.001860 0.004303 0.016244 0.014819 -0.014132 0.001472
# 4 -0.000768 0.034291 0.014819 0.110318 -0.053478 0.003260
# 5 0.008647 -0.029228 -0.014132 -0.053478 0.087156 -0.006655
# 6 0.000708 0.004802 0.001472 0.003260 -0.006655 0.020924
#
#
# Mechanical properties :
#
#
# Convention : Reuss Voigt Hill
#
# Bulk Modulus (GPa) = 21.78829 50.21598 36.00214
# Shear Modulus (GPa) = 17.26015 35.13389 26.19702
#
# Velocity S-wave (km/s) = 2.60713 3.71967 3.21194
# Velocity P-wave (km/s) = 4.20038 6.18249 5.28519
#
# Compressibility (1/GPa) = 0.04589621
#
# Stress axis : x y z
#
# Youngs Moduli (GPa) = 100.66060 40.38027 61.56285
#
# Poissons Ratio (x) = 0.20051 0.11452
# Poissons Ratio (y) = 0.49984 -0.26489
# Poissons Ratio (z) = 0.18726 -0.17375
#
# Static dielectric constant tensor:
#      x y z
#    x 2.005720 -0.040380 0.049290 
#    y -0.040380 2.074840 0.020300 
#    z 0.049290 0.020300 2.015750 
# 
# From -- ./inp_files/77849.got.cif
#   From: 2010.05.17/outbox.cif.g08.bks.cpg/sg2_39_cif.got.tgz:77849.got - 2010.06.03 11:33:40.
