data_PCOD9011671
_publ_section_title
;
Structure prediction by ZEFSAII (Michael W. Deem and Ramdas Pophale) SiO2 
 PCOD9011671
Probable space group: P -1
;
_chemical_formula_sum "Si O2"
_cell_formula_units_Z 13
_cell_length_a 7.797837
_cell_length_b 17.386584
_cell_length_c 14.399060
_cell_angle_alpha 25.812972
_cell_angle_beta 37.757815
_cell_angle_gamma 50.576045
_cell_volume 498.526861
_symmetry_space_group_name_H-M "P -1"
_symmetry_group_IT_number 2
_symmetry_cell_setting 'triclinic'
loop_
_space_group_symop_operation_xyz
x,y,z
-x,-y,-z
loop_
_atom_site_type_symbol
_atom_site_label
_atom_site_fract_x
_atom_site_fract_y
_atom_site_fract_z
Si Si1 0.327516 0.202044 0.949116
Si Si2 0.319189 0.600081 0.564013
Si Si3 0.000000 0.500000 0.000000
Si Si4 0.567465 0.719002 0.597662
Si Si5 0.068343 0.307396 0.695100
Si Si6 0.751446 0.892835 0.515500
Si Si7 0.437306 0.085281 0.235618
O O1 0.379883 0.152691 0.086095
O O2 0.231860 0.390257 0.792710
O O3 0.625355 0.259164 0.699109
O O4 0.068203 0.032658 0.207529
O O5 0.649304 0.655239 0.402373
O O6 0.119732 0.595439 0.742778
O O7 0.658377 0.460612 0.151882
O O8 0.844139 0.766137 0.359856
O O9 0.661420 0.735400 0.646902
O O10 0.380679 0.866078 0.502786
O O11 0.000000 0.500000 0.500000
O O12 0.782540 0.170780 0.010263
O O13 0.741324 0.854697 0.671508
O O14 0.500000 0.000000 0.500000
#
# Coordination Sequence:
#
# PCOD9011671 Si02
#       7
#     2   2   1   2   2   2   2
#     4  11  22  39  67  98 134 180 224 271 343 398
#     4  10  21  40  67  94 135 177 222 277 337 409
#     4  10  22  42  66  96 128 178 220 278 346 386
#     4  10  23  44  70  97 135 176 228 281 336 409
#     4  11  22  43  67  96 133 178 225 277 342 401
#     4  10  21  40  66  99 137 176 225 280 335 402
#     4  11  22  41  70  99 136 178 229 277 335 404
#
# _framework density 26.076827999999999
#
# number of rings (size 3 to 8) (size 9 to 14) (size 15 to 20)
#    0.000    1.538    1.538    4.615    0.000    2.462 
#    0.000    9.231    0.000    0.000    0.000    0.000 
#    0.000    0.000    0.000    0.000    0.000    0.000 
#
# Total GULP energy -72539.320929 kJ/mol
# GULP energy per Si atom -5579.947764 kJ/mol
# Density = 2.601748 g / cm^3
# Si number density = 26.076828 Si / 1000 Ang^3
#
#
#
# Elastic Constant Matrix: (Units=GPa)
#
#
# Indices 1 2 3 4 5 6 
#
# 1 104.7657 23.2027 30.6332 17.2233 19.5299 35.9333
# 2 23.2027 123.2592 27.9819 21.3215 21.8557 22.7186
# 3 30.6332 27.9819 103.5288 41.1780 13.9781 2.7346
# 4 17.2233 21.3215 41.1780 49.8174 6.0329 12.9367
# 5 19.5299 21.8557 13.9781 6.0329 46.2450 13.5341
# 6 35.9333 22.7186 2.7346 12.9367 13.5341 36.8226
#
#
#
# Elastic Compliance Matrix: (Units=1/GPa)
#
#
# Indices 1 2 3 4 5 6 
#
# 1 0.016574 0.000996 -0.005871 0.003270 -0.001121 -0.017089
# 2 0.000996 0.010125 -0.002026 -0.001206 -0.002791 -0.005618
# 3 -0.005871 -0.002026 0.017934 -0.014636 -0.003622 0.012121
# 4 0.003270 -0.001206 -0.014636 0.035017 0.003410 -0.014916
# 5 -0.001121 -0.002791 -0.003622 0.003410 0.026348 -0.007797
# 6 -0.017089 -0.005618 0.012121 -0.014916 -0.007797 0.054506
#
#
# Mechanical properties :
#
#
# Convention : Reuss Voigt Hill
#
# Bulk Modulus (GPa) = 32.43679 55.02106 43.72892
# Shear Modulus (GPa) = 27.08794 43.22606 35.15700
#
# Velocity S-wave (km/s) = 3.22650 4.07583 3.67578
# Velocity P-wave (km/s) = 5.13287 6.57992 5.90092
#
# Compressibility (1/GPa) = 0.03082919
#
# Stress axis : x y z
#
# Youngs Moduli (GPa) = 60.33588 98.76930 55.75927
#
# Poissons Ratio (x) = -0.09835 0.32737
# Poissons Ratio (y) = -0.06008 0.11299
# Poissons Ratio (z) = 0.35424 0.20014
#
# Static dielectric constant tensor:
#      x y z
#    x 2.133480 -0.006540 0.090750 
#    y -0.006540 2.137770 -0.103520 
#    z 0.090750 -0.103520 2.156270 
# 
# From -- ./inp_files/506529.got.cif
#   From: 2010.05.17/outbox.cif.g08.bks.cpg/sg2_254_cif.got.tgz:506529.got - 2010.06.03 11:33:40.
