data_PCOD9011202
_publ_section_title
;
Structure prediction by ZEFSAII (Michael W. Deem and Ramdas Pophale) SiO2 
 PCOD9011202
Probable space group: P -1
;
_chemical_formula_sum "Si O2"
_cell_formula_units_Z 16
_cell_length_a 10.959288
_cell_length_b 15.929973
_cell_length_c 14.905720
_cell_angle_alpha 141.955261
_cell_angle_beta 141.003003
_cell_angle_gamma 67.715164
_cell_volume 807.045113
_symmetry_space_group_name_H-M "P -1"
_symmetry_group_IT_number 2
_symmetry_cell_setting 'triclinic'
loop_
_space_group_symop_operation_xyz
x,y,z
-x,-y,-z
loop_
_atom_site_type_symbol
_atom_site_label
_atom_site_fract_x
_atom_site_fract_y
_atom_site_fract_z
Si Si1 0.633352 0.007701 0.172610
Si Si2 0.688246 0.283385 0.720994
Si Si3 0.310008 0.285063 0.039366
Si Si4 0.008515 0.256371 0.005893
Si Si5 0.989676 0.320676 0.753669
Si Si6 0.876001 0.521606 0.572853
Si Si7 0.868577 0.234072 0.241422
Si Si8 0.113977 0.060237 0.214944
O O1 0.846265 0.195735 0.484156
O O2 0.722485 0.890400 0.115469
O O3 0.417985 0.915519 0.045809
O O4 0.500000 0.000000 0.000000
O O5 0.792466 0.291519 0.688932
O O6 0.403118 0.184206 0.475476
O O7 0.773726 0.201277 0.768338
O O8 0.832508 0.479849 0.998120
O O9 0.217679 0.320942 0.106338
O O10 0.595117 0.430977 0.311494
O O11 0.150425 0.275485 0.858887
O O12 0.076038 0.403162 0.237682
O O13 0.965697 0.101462 0.907088
O O14 0.915305 0.377705 0.457963
O O15 0.044589 0.673452 0.727177
O O16 0.012462 0.157536 0.280036
O O17 0.000000 0.000000 0.000000
#
# Coordination Sequence:
#
# PCOD9011202 Si02
#       8
#     2   2   2   2   2   2   2   2
#     4  11  23  40  66  94 132 168 212 267 318 379
#     4  10  24  41  63  94 127 169 213 265 319 374
#     4  10  22  40  65  95 127 165 218 257 322 379
#     4  11  23  40  65  96 129 165 212 267 316 378
#     4  10  22  41  64  92 127 170 214 262 319 378
#     4  10  21  40  65  94 128 167 207 266 315 381
#     4  10  22  39  62  93 127 165 217 248 322 378
#     4  12  22  40  65  92 127 167 214 261 315 383
#
# _framework density 19.825409000000001
#
# number of rings (size 3 to 8) (size 9 to 14) (size 15 to 20)
#    0.000    1.500    1.250    3.375    3.500    0.000 
#    2.250    0.625    5.500    0.000    0.000    0.000 
#    0.000    0.000    0.000    0.000    0.000    0.000 
#
# Total GULP energy -89450.919268 kJ/mol
# GULP energy per Si atom -5590.682454 kJ/mol
# Density = 1.978029 g / cm^3
# Si number density = 19.825409 Si / 1000 Ang^3
#
#
#
# Elastic Constant Matrix: (Units=GPa)
#
#
# Indices 1 2 3 4 5 6 
#
# 1 88.8646 32.5231 49.7260 -12.3859 -0.2786 -15.8860
# 2 32.5231 115.4079 26.6879 -8.7029 -8.2561 -8.0224
# 3 49.7260 26.6879 92.1846 -6.6637 -7.6601 1.2891
# 4 -12.3859 -8.7029 -6.6637 20.6419 -1.1148 2.7249
# 5 -0.2786 -8.2561 -7.6601 -1.1148 26.1947 -3.3609
# 6 -15.8860 -8.0224 1.2891 2.7249 -3.3609 36.9764
#
#
#
# Elastic Compliance Matrix: (Units=1/GPa)
#
#
# Indices 1 2 3 4 5 6 
#
# 1 0.019972 -0.002467 -0.009869 0.006623 -0.002181 0.007703
# 2 -0.002467 0.010126 -0.001189 0.002403 0.003084 0.001282
# 3 -0.009869 -0.001189 0.016891 -0.000138 0.003848 -0.004727
# 4 0.006623 0.002403 -0.000138 0.053591 0.003029 -0.000302
# 5 -0.002181 0.003084 0.003848 0.003029 0.040774 0.003081
# 6 0.007703 0.001282 -0.004727 -0.000302 0.003081 0.031099
#
#
# Mechanical properties :
#
#
# Convention : Reuss Voigt Hill
#
# Bulk Modulus (GPa) = 50.15225 57.14789 53.65007
# Shear Modulus (GPa) = 24.25431 29.26393 26.75912
#
# Velocity S-wave (km/s) = 3.50150 3.84615 3.67786
# Velocity P-wave (km/s) = 6.45749 6.97223 6.71979
#
# Compressibility (1/GPa) = 0.01993928
#
# Stress axis : x y z
#
# Youngs Moduli (GPa) = 50.07084 98.75586 59.20224
#
# Poissons Ratio (x) = 0.24365 0.58427
# Poissons Ratio (y) = 0.12353 0.07037
# Poissons Ratio (z) = 0.49415 0.11739
#
# Static dielectric constant tensor:
#      x y z
#    x 1.701650 -0.002000 -0.007020 
#    y -0.002000 1.701620 0.013910 
#    z -0.007020 0.013910 1.660110 
# 
# From -- ./inp_files/308436.got.cif
#   From: 2010.05.17/outbox.cif.g08.bks.cpg/sg2_155_cif.got.tgz:308436.got - 2010.06.03 11:33:40.
