data_PCOD9011406
_publ_section_title
;
Structure prediction by ZEFSAII (Michael W. Deem and Ramdas Pophale) SiO2 
 PCOD9011406
Probable space group: P -1
;
_chemical_formula_sum "Si O2"
_cell_formula_units_Z 16
_cell_length_a 19.974116
_cell_length_b 8.296541
_cell_length_c 20.006493
_cell_angle_alpha 42.113856
_cell_angle_beta 20.822954
_cell_angle_gamma 51.819910
_cell_volume 749.968597
_symmetry_space_group_name_H-M "P -1"
_symmetry_group_IT_number 2
_symmetry_cell_setting 'triclinic'
loop_
_space_group_symop_operation_xyz
x,y,z
-x,-y,-z
loop_
_atom_site_type_symbol
_atom_site_label
_atom_site_fract_x
_atom_site_fract_y
_atom_site_fract_z
Si Si1 0.967280 0.413601 0.798946
Si Si2 0.090217 0.980092 0.507386
Si Si3 0.879247 0.468983 0.018703
Si Si4 0.475045 0.497463 0.444099
Si Si5 0.261271 0.118758 0.655007
Si Si6 0.252324 0.891290 0.524159
Si Si7 0.334496 0.138270 0.106404
Si Si8 0.458946 0.711338 0.774699
O O1 0.062656 0.693124 0.594244
O O2 0.122084 0.263418 0.707037
O O3 0.907718 0.475911 0.910113
O O4 0.753788 0.261223 0.015516
O O5 0.171303 0.988487 0.503791
O O6 0.869015 0.001117 0.701734
O O7 0.247235 0.160390 0.255000
O O8 0.687167 0.528483 0.204880
O O9 0.849930 0.178061 0.152228
O O10 0.074451 0.688277 0.793042
O O11 0.500000 0.500000 0.500000
O O12 0.322406 0.240074 0.634106
O O13 0.393346 0.722086 0.427600
O O14 0.463129 0.185951 0.403018
O O15 0.372471 0.123598 0.385073
O O16 0.427932 0.414194 0.901820
O O17 0.500000 0.000000 0.000000
#
# Coordination Sequence:
#
# PCOD9011406 Si02
#       8
#     2   2   2   2   2   2   2   2
#     4  10  21  40  66  89 124 173 215 263 319 379
#     4   9  20  41  64  94 130 159 211 264 324 382
#     4  11  24  41  62  88 129 175 219 269 313 376
#     4  12  26  40  64  95 130 175 226 270 319 372
#     4  12  23  41  65  91 129 178 226 266 318 382
#     4  11  26  44  61  97 138 172 214 272 320 374
#     4  10  21  40  72  98 120 166 214 263 327 395
#     4  11  25  41  66  96 130 170 218 261 325 393
#
# _framework density 21.334226999999998
#
# number of rings (size 3 to 8) (size 9 to 14) (size 15 to 20)
#    0.000    1.250    3.750    2.250    1.750    3.500 
#    0.000    0.625    0.000    0.000    0.000    0.000 
#    0.000    0.000    0.000    0.000    0.000    0.000 
#
# Total GULP energy -89418.337574 kJ/mol
# GULP energy per Si atom -5588.646098 kJ/mol
# Density = 2.128567 g / cm^3
# Si number density = 21.334227 Si / 1000 Ang^3
#
#
#
# Elastic Constant Matrix: (Units=GPa)
#
#
# Indices 1 2 3 4 5 6 
#
# 1 91.4611 14.0118 8.7558 -10.7878 -16.3971 4.2925
# 2 14.0118 58.8601 9.3824 19.6775 -9.2395 -20.6665
# 3 8.7558 9.3824 73.6473 -7.5599 -11.4147 5.4392
# 4 -10.7878 19.6775 -7.5599 36.1289 -10.0233 -4.9581
# 5 -16.3971 -9.2395 -11.4147 -10.0233 39.3859 0.9208
# 6 4.2925 -20.6665 5.4392 -4.9581 0.9208 30.3588
#
#
#
# Elastic Compliance Matrix: (Units=1/GPa)
#
#
# Indices 1 2 3 4 5 6 
#
# 1 0.015105 -0.008849 0.002187 0.010994 0.007807 -0.006993
# 2 -0.008849 0.034966 -0.007856 -0.021182 -0.003689 0.023114
# 3 0.002187 -0.007856 0.016812 0.009232 0.006461 -0.007357
# 4 0.010994 -0.021182 0.009232 0.047025 0.014494 -0.010387
# 5 0.007807 -0.003689 0.006461 0.014494 0.033416 -0.003419
# 6 -0.006993 0.023114 -0.007357 -0.010387 -0.003419 0.049388
#
#
# Mechanical properties :
#
#
# Convention : Reuss Voigt Hill
#
# Bulk Modulus (GPa) = 26.42316 32.02982 29.22649
# Shear Modulus (GPa) = 20.97640 33.96263 27.46951
#
# Velocity S-wave (km/s) = 3.13905 3.99423 3.59218
# Velocity P-wave (km/s) = 5.05474 6.02642 5.56184
#
# Compressibility (1/GPa) = 0.03784559
#
# Stress axis : x y z
#
# Youngs Moduli (GPa) = 66.20493 28.59922 59.48297
#
# Poissons Ratio (x) = 0.25308 -0.13007
# Poissons Ratio (y) = 0.58587 0.46728
# Poissons Ratio (z) = -0.14477 0.22467
#
# Static dielectric constant tensor:
#      x y z
#    x 1.821960 -0.006570 -0.031560 
#    y -0.006570 1.755890 -0.002270 
#    z -0.031560 -0.002270 1.803490 
# 
# From -- ./inp_files/297421.got.cif
#   From: 2010.05.17/outbox.cif.g08.bks.cpg/sg2_149_cif.got.tgz:297421.got - 2010.06.03 11:33:40.
