data_PCOD9011091
_publ_section_title
;
Structure prediction by ZEFSAII (Michael W. Deem and Ramdas Pophale) SiO2 
 PCOD9011091
Probable space group: P -1
;
_chemical_formula_sum "Si O2"
_cell_formula_units_Z 16
_cell_length_a 12.684627
_cell_length_b 11.037099
_cell_length_c 7.002284
_cell_angle_alpha 64.344653
_cell_angle_beta 47.567485
_cell_angle_gamma 84.027765
_cell_volume 625.618960
_symmetry_space_group_name_H-M "P -1"
_symmetry_group_IT_number 2
_symmetry_cell_setting 'triclinic'
loop_
_space_group_symop_operation_xyz
x,y,z
-x,-y,-z
loop_
_atom_site_type_symbol
_atom_site_label
_atom_site_fract_x
_atom_site_fract_y
_atom_site_fract_z
Si Si1 0.495258 0.862727 0.974785
Si Si2 0.214392 0.209017 0.391415
Si Si3 0.026052 0.757552 0.027738
Si Si4 0.519990 0.661094 0.420796
Si Si5 0.846898 0.868120 0.898100
Si Si6 0.795226 0.157389 0.888993
Si Si7 0.359209 0.521818 0.050976
Si Si8 0.079551 0.545877 0.574297
O O1 0.471209 0.741593 0.248989
O O2 0.367668 0.850340 0.984305
O O3 0.647803 0.853981 0.692610
O O4 0.500000 0.000000 0.000000
O O5 0.101202 0.213043 0.695169
O O6 0.143191 0.130243 0.342925
O O7 0.278858 0.374019 0.150655
O O8 0.990644 0.836787 0.835202
O O9 0.997881 0.593674 0.116581
O O10 0.169729 0.808960 0.951866
O O11 0.500000 0.500000 0.500000
O O12 0.690521 0.744739 0.209661
O O13 0.413405 0.643143 0.747462
O O14 0.822160 0.009646 0.912080
O O15 0.904777 0.290021 0.548487
O O16 0.500000 0.500000 0.000000
O O17 0.248088 0.544629 0.331822
O O18 0.000000 0.500000 0.500000
#
# Coordination Sequence:
#
# PCOD9011091 Si02
#       8
#     2   2   2   2   2   2   2   2
#     4  11  21  40  60  93 133 161 202 270 329 367
#     4  10  21  40  65  91 125 162 216 261 313 380
#     4  10  23  42  67  90 118 176 221 251 316 391
#     4  11  21  37  64  95 124 167 213 261 317 380
#     4  11  22  40  62  93 129 164 213 262 321 382
#     4  11  22  41  61  91 131 167 200 270 331 368
#     4  11  20  37  65  98 119 163 220 261 307 385
#     4   9  21  39  60  86 124 162 202 258 316 365
#
# _framework density 25.574672
#
# number of rings (size 3 to 8) (size 9 to 14) (size 15 to 20)
#    0.000    1.500    5.000    2.625    1.750    0.500 
#    2.250    3.750    0.000    9.000    0.000    0.000 
#    0.000    0.000    0.000    0.000    0.000    0.000 
#
# Total GULP energy -89503.014026 kJ/mol
# GULP energy per Si atom -5593.938377 kJ/mol
# Density = 2.551646 g / cm^3
# Si number density = 25.574672 Si / 1000 Ang^3
#
#
#
# Elastic Constant Matrix: (Units=GPa)
#
#
# Indices 1 2 3 4 5 6 
#
# 1 198.9238 48.7998 26.8800 -11.5585 -18.3277 -13.4698
# 2 48.7998 178.2625 20.5550 -37.9357 -3.3045 4.6656
# 3 26.8800 20.5550 56.9298 -21.7444 -7.2447 6.4866
# 4 -11.5585 -37.9357 -21.7444 43.7677 -7.3467 2.4597
# 5 -18.3277 -3.3045 -7.2447 -7.3467 29.6127 -1.5381
# 6 -13.4698 4.6656 6.4866 2.4597 -1.5381 45.6943
#
#
#
# Elastic Compliance Matrix: (Units=1/GPa)
#
#
# Indices 1 2 3 4 5 6 
#
# 1 0.006145 -0.001524 -0.002454 -0.000547 0.003024 0.002447
# 2 -0.001524 0.007472 0.001136 0.007040 0.001827 -0.001691
# 3 -0.002454 0.001136 0.025540 0.014688 0.008242 -0.004978
# 4 -0.000547 0.007040 0.014688 0.038607 0.013380 -0.004593
# 5 0.003024 0.001827 0.008242 0.013380 0.041191 0.000201
# 6 0.002447 -0.001691 -0.004978 -0.004593 0.000201 0.023739
#
#
# Mechanical properties :
#
#
# Convention : Reuss Voigt Hill
#
# Bulk Modulus (GPa) = 29.87441 69.62063 49.74752
# Shear Modulus (GPa) = 31.34084 46.34038 38.84061
#
# Velocity S-wave (km/s) = 3.50446 4.26133 3.90130
# Velocity P-wave (km/s) = 5.29921 7.17590 6.30774
#
# Compressibility (1/GPa) = 0.03347347
#
# Stress axis : x y z
#
# Youngs Moduli (GPa) = 162.73533 133.83029 39.15373
#
# Poissons Ratio (x) = 0.20390 0.09609
# Poissons Ratio (y) = 0.24794 -0.04446
# Poissons Ratio (z) = 0.39936 -0.15198
#
# Static dielectric constant tensor:
#      x y z
#    x 1.419240 0.024820 0.354130 
#    y 0.024820 2.047880 -0.012180 
#    z 0.354130 -0.012180 1.902100 
# 
# From -- ./inp_files/261988.got.cif
#   From: 2010.05.17/outbox.cif.g08.bks.cpg/sg2_131_cif.got.tgz:261988.got - 2010.06.03 11:33:40.
