data_PCOD9011141
_publ_section_title
;
Structure prediction by ZEFSAII (Michael W. Deem and Ramdas Pophale) SiO2 
 PCOD9011141
Probable space group: P -1
;
_chemical_formula_sum "Si O2"
_cell_formula_units_Z 16
_cell_length_a 15.764491
_cell_length_b 16.109728
_cell_length_c 6.389075
_cell_angle_alpha 69.652257
_cell_angle_beta 123.467544
_cell_angle_gamma 143.728451
_cell_volume 785.197335
_symmetry_space_group_name_H-M "P -1"
_symmetry_group_IT_number 2
_symmetry_cell_setting 'triclinic'
loop_
_space_group_symop_operation_xyz
x,y,z
-x,-y,-z
loop_
_atom_site_type_symbol
_atom_site_label
_atom_site_fract_x
_atom_site_fract_y
_atom_site_fract_z
Si Si1 0.571041 0.105438 0.311514
Si Si2 0.729711 0.074181 0.244994
Si Si3 0.738051 0.598457 0.804301
Si Si4 0.183189 0.201047 0.944759
Si Si5 0.175298 0.053302 0.423284
Si Si6 0.126485 0.586814 0.401512
Si Si7 0.977626 0.633689 0.853467
Si Si8 0.388344 0.331971 0.728169
O O1 0.681972 0.116411 0.310123
O O2 0.689681 0.265162 0.406089
O O3 0.500000 0.000000 0.500000
O O4 0.420886 0.034966 0.026544
O O5 0.890554 0.213782 0.214607
O O6 0.759522 0.001067 0.458321
O O7 0.853184 0.605587 0.847096
O O8 0.577963 0.447795 0.828961
O O9 0.671987 0.622120 0.519176
O O10 0.829764 0.722333 0.990988
O O11 0.344818 0.316179 0.923656
O O12 0.192819 0.122103 0.175136
O O13 0.020477 0.084238 0.683896
O O14 0.278939 0.176098 0.630341
O O15 0.111653 0.486183 0.339732
O O16 0.000000 0.500000 0.500000
O O17 0.072309 0.629141 0.135532
#
# Coordination Sequence:
#
# PCOD9011141 Si02
#       8
#     2   2   2   2   2   2   2   2
#     4  11  24  43  67  94 129 172 214 275 331 385
#     4  11  24  42  66  95 130 169 222 268 323 397
#     4  10  23  39  65  93 126 170 217 262 321 387
#     4  10  21  40  65  92 132 170 211 265 324 385
#     4  10  23  38  63  96 127 168 216 263 322 383
#     4  11  24  44  67  94 131 169 216 276 333 389
#     4  11  24  42  68  96 128 167 223 270 323 399
#     4  10  21  42  60  93 135 166 209 270 316 385
#
# _framework density 20.377041999999999
#
# number of rings (size 3 to 8) (size 9 to 14) (size 15 to 20)
#    0.000    1.500    2.500    1.500    1.750    6.000 
#    0.000    2.500    0.000    0.000    0.000    0.000 
#    0.000    0.000    0.000    0.000    0.000    0.000 
#
# Total GULP energy -89482.202904 kJ/mol
# GULP energy per Si atom -5592.637681 kJ/mol
# Density = 2.033066 g / cm^3
# Si number density = 20.377042 Si / 1000 Ang^3
#
#
#
# Elastic Constant Matrix: (Units=GPa)
#
#
# Indices 1 2 3 4 5 6 
#
# 1 137.6467 70.6628 29.4227 4.0556 -0.5180 5.4170
# 2 70.6628 126.9723 30.7372 19.4747 -6.0365 -0.3616
# 3 29.4227 30.7372 35.4118 12.9615 -8.0272 -10.5235
# 4 4.0556 19.4747 12.9615 19.4316 5.7992 -5.4216
# 5 -0.5180 -6.0365 -8.0272 5.7992 25.4593 -8.5679
# 6 5.4170 -0.3616 -10.5235 -5.4216 -8.5679 34.6479
#
#
#
# Elastic Compliance Matrix: (Units=1/GPa)
#
#
# Indices 1 2 3 4 5 6 
#
# 1 0.014649 -0.007205 -0.018426 0.018312 -0.014296 -0.008632
# 2 -0.007205 0.014335 0.001377 -0.015752 0.007652 0.001122
# 3 -0.018426 0.001377 0.086351 -0.061657 0.052113 0.032361
# 4 0.018312 -0.015752 -0.061657 0.116190 -0.055053 -0.017187
# 5 -0.014296 0.007652 0.052113 -0.055053 0.079604 0.029213
# 6 -0.008632 0.001122 0.032361 -0.017187 0.029213 0.044587
#
#
# Mechanical properties :
#
#
# Convention : Reuss Voigt Hill
#
# Bulk Modulus (GPa) = 14.96376 62.40845 38.68611
# Shear Modulus (GPa) = 11.72339 27.18831 19.45585
#
# Velocity S-wave (km/s) = 2.40119 3.65672 3.09332
# Velocity P-wave (km/s) = 3.87905 6.96578 5.63778
#
# Compressibility (1/GPa) = 0.06682812
#
# Stress axis : x y z
#
# Youngs Moduli (GPa) = 68.26608 69.75961 11.58062
#
# Poissons Ratio (x) = 0.50259 0.21338
# Poissons Ratio (y) = 0.49183 -0.01595
# Poissons Ratio (z) = 1.25786 -0.09607
#
# Static dielectric constant tensor:
#      x y z
#    x 1.682510 0.002400 -0.010330 
#    y 0.002400 1.718290 0.019150 
#    z -0.010330 0.019150 1.712500 
# 
# From -- ./inp_files/97824.got.cif
#   From: 2010.05.17/outbox.cif.g08.bks.cpg/sg2_49_cif.got.tgz:97824.got - 2010.06.03 11:33:40.
