data_PCOD9011898
_publ_section_title
;
Structure prediction by ZEFSAII (Michael W. Deem and Ramdas Pophale) SiO2 
 PCOD9011898
Probable space group: P -1
;
_chemical_formula_sum "Si O2"
_cell_formula_units_Z 13
_cell_length_a 6.129161
_cell_length_b 13.560641
_cell_length_c 8.691981
_cell_angle_alpha 112.321163
_cell_angle_beta 66.619237
_cell_angle_gamma 75.220085
_cell_volume 538.830289
_symmetry_space_group_name_H-M "P -1"
_symmetry_group_IT_number 2
_symmetry_cell_setting 'triclinic'
loop_
_space_group_symop_operation_xyz
x,y,z
-x,-y,-z
loop_
_atom_site_type_symbol
_atom_site_label
_atom_site_fract_x
_atom_site_fract_y
_atom_site_fract_z
Si Si1 0.500000 0.500000 0.000000
Si Si2 0.651590 0.807392 0.251046
Si Si3 0.284928 0.066928 0.379438
Si Si4 0.234966 0.694709 0.946742
Si Si5 0.293064 0.884200 0.872546
Si Si6 0.763405 0.483496 0.627385
Si Si7 0.730496 0.242139 0.501541
O O1 0.717309 0.369470 0.939644
O O2 0.263134 0.494894 0.169176
O O3 0.714379 0.861917 0.422322
O O4 0.526909 0.722832 0.295028
O O5 0.425377 0.926355 0.300446
O O6 0.918418 0.744877 0.035207
O O7 0.469599 0.082959 0.205708
O O8 0.984119 0.126292 0.434752
O O9 0.295314 0.807084 0.974426
O O10 0.461384 0.583122 0.718040
O O11 0.326579 0.796437 0.668922
O O12 0.000000 0.000000 0.000000
O O13 0.797111 0.350584 0.525671
O O14 0.000000 0.500000 0.500000
#
# Coordination Sequence:
#
# PCOD9011898 Si02
#       7
#     1   2   2   2   2   2   2
#     4   8  22  42  70  98 130 186 230 288 344 412
#     4  10  21  40  67  97 142 176 233 297 338 424
#     4  10  21  41  66  96 140 185 228 289 354 417
#     4  10  21  42  65 100 134 185 228 288 352 407
#     4  11  23  43  67 100 141 181 233 298 348 417
#     4  10  22  45  71 102 136 187 232 292 348 418
#     4  11  24  41  66 104 135 190 237 278 363 425
#
# _framework density 24.126332999999999
#
# number of rings (size 3 to 8) (size 9 to 14) (size 15 to 20)
#    0.923    0.923    1.538    2.308    0.000    3.077 
#    5.538    0.000    0.000    0.000    0.000    0.000 
#    0.000    0.000    0.000    0.000    0.000    0.000 
#
# Total GULP energy -72371.063756 kJ/mol
# GULP energy per Si atom -5567.004904 kJ/mol
# Density = 2.407142 g / cm^3
# Si number density = 24.126333 Si / 1000 Ang^3
#
#
#
# Elastic Constant Matrix: (Units=GPa)
#
#
# Indices 1 2 3 4 5 6 
#
# 1 50.0557 22.6439 30.5363 -15.5602 -6.9518 7.2820
# 2 22.6439 175.6591 42.8951 -15.8979 -30.0022 7.0643
# 3 30.5363 42.8951 123.1701 -13.8448 -40.1063 19.0635
# 4 -15.5602 -15.8979 -13.8448 41.3301 13.4045 -21.4560
# 5 -6.9518 -30.0022 -40.1063 13.4045 38.6123 -9.9545
# 6 7.2820 7.0643 19.0635 -21.4560 -9.9545 42.3295
#
#
#
# Elastic Compliance Matrix: (Units=1/GPa)
#
#
# Indices 1 2 3 4 5 6 
#
# 1 0.027673 -0.002112 -0.007930 0.011033 -0.007984 0.002878
# 2 -0.002112 0.006867 -0.000472 0.000670 0.004442 0.000814
# 3 -0.007930 -0.000472 0.015099 -0.005191 0.014511 -0.004576
# 4 0.011033 0.000670 -0.005191 0.040045 -0.012210 0.017755
# 5 -0.007984 0.004442 0.014511 -0.012210 0.046954 -0.001050
# 6 0.002878 0.000814 -0.004576 0.017755 -0.001050 0.033806
#
#
# Mechanical properties :
#
#
# Convention : Reuss Voigt Hill
#
# Bulk Modulus (GPa) = 34.95137 60.11506 47.53321
# Shear Modulus (GPa) = 24.87440 41.30834 33.09137
#
# Velocity S-wave (km/s) = 3.21441 4.14232 3.70751
# Velocity P-wave (km/s) = 5.31929 6.91732 6.17026
#
# Compressibility (1/GPa) = 0.02861119
#
# Stress axis : x y z
#
# Youngs Moduli (GPa) = 36.13619 145.62388 66.22869
#
# Poissons Ratio (x) = 0.30749 0.52521
# Poissons Ratio (y) = 0.07630 0.03127
# Poissons Ratio (z) = 0.28657 0.06876
#
# Static dielectric constant tensor:
#      x y z
#    x 1.932240 0.020730 0.073880 
#    y 0.020730 1.830370 -0.024160 
#    z 0.073880 -0.024160 1.999580 
# 
# From -- ./inp_files/366365.got.cif
#   From: 2010.05.17/outbox.cif.g08.bks.cpg/sg2_184_cif.got.tgz:366365.got - 2010.06.03 11:33:40.
