data_PCOD9011137
_publ_section_title
;
Structure prediction by ZEFSAII (Michael W. Deem and Ramdas Pophale) SiO2 
 PCOD9011137
Probable space group: P -1
;
_chemical_formula_sum "Si O2"
_cell_formula_units_Z 16
_cell_length_a 13.358502
_cell_length_b 11.843726
_cell_length_c 19.051063
_cell_angle_alpha 28.513627
_cell_angle_beta 148.092766
_cell_angle_gamma 129.916174
_cell_volume 692.524043
_symmetry_space_group_name_H-M "P -1"
_symmetry_group_IT_number 2
_symmetry_cell_setting 'triclinic'
loop_
_space_group_symop_operation_xyz
x,y,z
-x,-y,-z
loop_
_atom_site_type_symbol
_atom_site_label
_atom_site_fract_x
_atom_site_fract_y
_atom_site_fract_z
Si Si1 0.017394 0.682736 0.156139
Si Si2 0.655219 0.249501 0.792286
Si Si3 0.316552 0.758597 0.375682
Si Si4 0.684852 0.539080 0.999829
Si Si5 0.303985 0.927003 0.930269
Si Si6 0.902393 0.390535 0.440147
Si Si7 0.473724 0.645756 0.682803
Si Si8 0.539450 0.806657 0.910446
O O1 0.163806 0.729703 0.158809
O O2 0.143394 0.639919 0.327334
O O3 0.923492 0.480131 0.190222
O O4 0.813023 0.955105 0.887917
O O5 0.504637 0.544847 0.561577
O O6 0.735868 0.108890 0.991688
O O7 0.532026 0.086837 0.774195
O O8 0.395718 0.775920 0.490379
O O9 0.618367 0.687584 0.804922
O O10 0.628532 0.288936 0.104245
O O11 0.544661 0.729755 0.873879
O O12 0.386502 0.650097 0.094548
O O13 0.093627 0.146564 0.655368
O O14 0.500000 0.000000 0.000000
O O15 0.734352 0.312333 0.421717
O O16 0.761465 0.607513 0.183304
O O17 0.000000 0.500000 0.500000
#
# Coordination Sequence:
#
# PCOD9011137 Si02
#       8
#     2   2   2   2   2   2   2   2
#     4  11  23  41  65  94 125 164 214 259 314 375
#     4  11  22  40  66  96 123 162 214 268 306 367
#     4  10  23  40  67  93 120 164 216 265 306 369
#     4  10  23  42  61  92 135 170 201 256 321 380
#     4  11  20  34  60  95 126 157 209 263 308 362
#     4  11  19  33  60  93 122 159 205 259 309 359
#     4  10  22  40  58  89 127 165 207 256 314 376
#     4  10  21  40  65  92 130 168 208 257 317 375
#
# _framework density 23.10389
#
# number of rings (size 3 to 8) (size 9 to 14) (size 15 to 20)
#    0.000    1.500    2.500    3.375    1.750    0.500 
#    0.000   10.000    0.000    0.000    0.000    2.625 
#    0.000    0.000    0.000    0.000    0.000    0.000 
#
# Total GULP energy -89286.024674 kJ/mol
# GULP energy per Si atom -5580.376542 kJ/mol
# Density = 2.305130 g / cm^3
# Si number density = 23.103890 Si / 1000 Ang^3
#
#
#
# Elastic Constant Matrix: (Units=GPa)
#
#
# Indices 1 2 3 4 5 6 
#
# 1 83.7168 41.5328 9.1577 -9.7507 -2.9904 -2.6130
# 2 41.5328 115.9262 12.8752 7.9776 -12.6468 4.4610
# 3 9.1577 12.8752 102.2199 -13.4864 -2.3020 -4.6180
# 4 -9.7507 7.9776 -13.4864 27.2948 -10.1712 -3.1934
# 5 -2.9904 -12.6468 -2.3020 -10.1712 33.8913 15.0235
# 6 -2.6130 4.4610 -4.6180 -3.1934 15.0235 48.3239
#
#
#
# Elastic Compliance Matrix: (Units=1/GPa)
#
#
# Indices 1 2 3 4 5 6 
#
# 1 0.016127 -0.006406 0.000574 0.008425 0.000789 0.001830
# 2 -0.006406 0.012004 -0.001758 -0.005746 0.003431 -0.003069
# 3 0.000574 -0.001758 0.010954 0.006898 0.001690 0.001170
# 4 0.008425 -0.005746 0.006898 0.049940 0.013759 0.000668
# 5 0.000789 0.003431 0.001690 0.013759 0.040301 -0.011733
# 6 0.001830 -0.003069 0.001170 0.000668 -0.011733 0.024879
#
#
# Mechanical properties :
#
#
# Convention : Reuss Voigt Hill
#
# Bulk Modulus (GPa) = 41.82993 47.66602 44.74798
# Shear Modulus (GPa) = 28.19262 37.78848 32.99055
#
# Velocity S-wave (km/s) = 3.49700 4.04863 3.78288
# Velocity P-wave (km/s) = 5.86940 6.52159 6.20407
#
# Compressibility (1/GPa) = 0.02390633
#
# Stress axis : x y z
#
# Youngs Moduli (GPa) = 62.00921 83.30522 91.29269
#
# Poissons Ratio (x) = 0.53361 -0.05240
# Poissons Ratio (y) = 0.39720 0.16045
# Poissons Ratio (z) = -0.03559 0.14641
#
# Static dielectric constant tensor:
#      x y z
#    x 1.930860 0.012080 -0.060750 
#    y 0.012080 1.929920 0.014060 
#    z -0.060750 0.014060 1.890150 
# 
# From -- ./inp_files/597947.got.cif
#   From: 2010.05.17/outbox.cif.g08.bks.cpg/sg2_299_cif.got.tgz:597947.got - 2010.06.03 11:33:40.
