data_PCOD9011575
_publ_section_title
;
Structure prediction by ZEFSAII (Michael W. Deem and Ramdas Pophale) SiO2 
 PCOD9011575
Probable space group: P -1
;
_chemical_formula_sum "Si O2"
_cell_formula_units_Z 12
_cell_length_a 9.201294
_cell_length_b 22.598492
_cell_length_c 7.556607
_cell_angle_alpha 46.987334
_cell_angle_beta 113.394234
_cell_angle_gamma 146.280607
_cell_volume 578.920793
_symmetry_space_group_name_H-M "P -1"
_symmetry_group_IT_number 2
_symmetry_cell_setting 'triclinic'
loop_
_space_group_symop_operation_xyz
x,y,z
-x,-y,-z
loop_
_atom_site_type_symbol
_atom_site_label
_atom_site_fract_x
_atom_site_fract_y
_atom_site_fract_z
Si Si1 0.787458 0.890713 0.284310
Si Si2 0.279922 0.962733 0.072965
Si Si3 0.949382 0.144795 0.297934
Si Si4 0.391933 0.854701 0.771052
Si Si5 0.316648 0.647634 0.281155
Si Si6 0.689460 0.662804 0.273154
O O1 0.497207 0.740093 0.357772
O O2 0.898794 0.865028 0.508822
O O3 0.760243 0.968895 0.190359
O O4 0.000000 0.000000 0.000000
O O5 0.963694 0.785912 0.290578
O O6 0.428278 0.050216 0.152995
O O7 0.500000 0.000000 0.000000
O O8 0.883855 0.203987 0.239115
O O9 0.616054 0.971307 0.486660
O O10 0.140513 0.247369 0.010984
O O11 0.323863 0.731632 0.995571
O O12 0.469145 0.639682 0.268002
O O13 0.000000 0.500000 0.500000
O O14 0.500000 0.500000 0.500000
#
# Coordination Sequence:
#
# PCOD9011575 Si02
#       6
#     2   2   2   2   2   2
#     4  11  21  43  68  90 125 168 215 256 317 375
#     4  11  21  41  66  94 127 169 207 260 312 381
#     4  11  21  40  65  99 124 162 218 263 306 383
#     4  10  21  40  66  96 125 166 216 254 313 384
#     4  11  23  43  66  91 132 173 204 260 324 373
#     4  12  25  40  65  97 133 164 209 267 321 367
#
# _framework density 20.728224999999998
#
# number of rings (size 3 to 8) (size 9 to 14) (size 15 to 20)
#    0.000    1.000    6.667    1.000    2.333    2.667 
#    0.000   10.000    0.000    0.000    0.000    0.000 
#    0.000    0.000    0.000    0.000    0.000    0.000 
#
# Total GULP energy -66907.587766 kJ/mol
# GULP energy per Si atom -5575.632314 kJ/mol
# Density = 2.068105 g / cm^3
# Si number density = 20.728225 Si / 1000 Ang^3
#
#
#
# Elastic Constant Matrix: (Units=GPa)
#
#
# Indices 1 2 3 4 5 6 
#
# 1 212.4701 40.0500 96.3225 -19.1216 10.9555 12.6160
# 2 40.0500 72.5900 47.3403 -17.2443 2.4340 9.2077
# 3 96.3225 47.3403 159.6186 -16.1518 1.9262 4.1189
# 4 -19.1216 -17.2443 -16.1518 41.9648 4.9842 0.1890
# 5 10.9555 2.4340 1.9262 4.9842 56.3104 1.2089
# 6 12.6160 9.2077 4.1189 0.1890 1.2089 33.7701
#
#
#
# Elastic Compliance Matrix: (Units=1/GPa)
#
#
# Indices 1 2 3 4 5 6 
#
# 1 0.006830 -0.000712 -0.003689 0.001559 -0.001270 -0.001871
# 2 -0.000712 0.019109 -0.004513 0.005925 -0.000963 -0.004392
# 3 -0.003689 -0.004513 0.009804 0.000169 0.000533 0.001393
# 4 0.001559 0.005925 0.000169 0.027399 -0.002942 -0.002266
# 5 -0.001270 -0.000963 0.000533 -0.002942 0.018289 0.000034
# 6 -0.001871 -0.004392 0.001393 -0.002266 0.000034 0.031350
#
#
# Mechanical properties :
#
#
# Convention : Reuss Voigt Hill
#
# Bulk Modulus (GPa) = 55.82025 90.23382 73.02704
# Shear Modulus (GPa) = 36.60806 43.80679 40.20742
#
# Velocity S-wave (km/s) = 4.20705 4.60215 4.40903
# Velocity P-wave (km/s) = 7.11246 8.47738 7.82474
#
# Compressibility (1/GPa) = 0.01791464
#
# Stress axis : x y z
#
# Youngs Moduli (GPa) = 146.41160 52.33064 101.99607
#
# Poissons Ratio (x) = 0.03728 0.37627
# Poissons Ratio (y) = 0.10429 0.46032
# Poissons Ratio (z) = 0.54012 0.23617
#
# Static dielectric constant tensor:
#      x y z
#    x 1.814600 -0.013110 0.032220 
#    y -0.013110 1.815460 0.071790 
#    z 0.032220 0.071790 1.751280 
# 
# From -- ./inp_files/147684.got.cif
#   From: 2010.05.17/outbox.cif.g08.bks.cpg/sg2_74_cif.got.tgz:147684.got - 2010.06.03 11:33:40.
