data_PCOD9011650
_publ_section_title
;
Structure prediction by ZEFSAII (Michael W. Deem and Ramdas Pophale) SiO2 
 PCOD9011650
Probable space group: P -1
;
_chemical_formula_sum "Si O2"
_cell_formula_units_Z 16
_cell_length_a 11.323797
_cell_length_b 16.621101
_cell_length_c 8.710083
_cell_angle_alpha 149.726610
_cell_angle_beta 57.890840
_cell_angle_gamma 130.104293
_cell_volume 630.816517
_symmetry_space_group_name_H-M "P -1"
_symmetry_group_IT_number 2
_symmetry_cell_setting 'triclinic'
loop_
_space_group_symop_operation_xyz
x,y,z
-x,-y,-z
loop_
_atom_site_type_symbol
_atom_site_label
_atom_site_fract_x
_atom_site_fract_y
_atom_site_fract_z
Si Si1 0.730291 0.236998 0.062496
Si Si2 0.573150 0.037585 0.338779
Si Si3 0.026884 0.840935 0.410129
Si Si4 0.725543 0.683707 0.221037
Si Si5 0.916278 0.608185 0.383527
Si Si6 0.148352 0.590242 0.434579
Si Si7 0.233396 0.136905 0.992707
Si Si8 0.504715 0.343827 0.929825
O O1 0.565406 0.088566 0.880427
O O2 0.859774 0.172572 0.818602
O O3 0.783715 0.418102 0.220308
O O4 0.733033 0.271158 0.298363
O O5 0.713833 0.984832 0.139317
O O6 0.500000 0.000000 0.500000
O O7 0.610123 0.243973 0.648261
O O8 0.872316 0.843158 0.453183
O O9 0.968291 0.660303 0.256675
O O10 0.126720 0.006741 0.720123
O O11 0.616923 0.710019 0.214988
O O12 0.796855 0.561458 0.890396
O O13 0.608675 0.552336 0.210590
O O14 0.067143 0.639969 0.431261
O O15 0.853603 0.754662 0.704073
O O16 0.000000 0.500000 0.500000
O O17 0.397527 0.273441 0.034564
#
# Coordination Sequence:
#
# PCOD9011650 Si02
#       8
#     2   2   2   2   2   2   2   2
#     4  11  22  42  70 101 128 191 226 265 349 401
#     4  10  22  41  67  94 135 176 225 275 333 401
#     4  12  24  41  72 102 131 176 235 273 340 400
#     4  11  24  42  71 103 131 178 233 278 333 404
#     4  11  25  40  68 103 139 172 228 288 326 403
#     4  10  21  40  66  98 139 165 223 283 332 389
#     4  11  25  44  67  98 143 179 218 281 347 394
#     4  10  23  44  67  93 138 178 220 280 333 399
#
# _framework density 25.363952999999999
#
# number of rings (size 3 to 8) (size 9 to 14) (size 15 to 20)
#    0.000    1.250    5.000    2.250    5.250    2.000 
#    4.500    0.625    0.000    0.000    0.000    0.000 
#    0.000    0.000    0.000    0.000    0.000    0.000 
#
# Total GULP energy -89539.136281 kJ/mol
# GULP energy per Si atom -5596.196018 kJ/mol
# Density = 2.530622 g / cm^3
# Si number density = 25.363953 Si / 1000 Ang^3
#
#
#
# Elastic Constant Matrix: (Units=GPa)
#
#
# Indices 1 2 3 4 5 6 
#
# 1 135.5711 -7.7751 32.4534 -4.3397 -13.5495 17.3916
# 2 -7.7751 59.6460 7.5835 2.6363 -9.3571 3.7899
# 3 32.4534 7.5835 69.2246 -6.2550 -0.0907 5.4670
# 4 -4.3397 2.6363 -6.2550 37.1973 1.0186 5.0007
# 5 -13.5495 -9.3571 -0.0907 1.0186 52.6730 7.5259
# 6 17.3916 3.7899 5.4670 5.0007 7.5259 33.7660
#
#
#
# Elastic Compliance Matrix: (Units=1/GPa)
#
#
# Indices 1 2 3 4 5 6 
#
# 1 0.009678 0.002712 -0.004313 0.000855 0.003740 -0.005551
# 2 0.002712 0.018519 -0.003094 -0.001127 0.004550 -0.003821
# 3 -0.004313 -0.003094 0.017062 0.002660 -0.001650 -0.000220
# 4 0.000855 -0.001127 0.002660 0.028172 0.000188 -0.004959
# 5 0.003740 0.004550 -0.001650 0.000188 0.021756 -0.007047
# 6 -0.005551 -0.003821 -0.000220 -0.004959 -0.007047 0.035244
#
#
# Mechanical properties :
#
#
# Convention : Reuss Voigt Hill
#
# Bulk Modulus (GPa) = 27.88081 36.55171 32.21626
# Shear Modulus (GPa) = 32.94277 40.20591 36.57434
#
# Velocity S-wave (km/s) = 3.60780 3.98573 3.80146
# Velocity P-wave (km/s) = 5.32645 5.96854 5.65662
#
# Compressibility (1/GPa) = 0.03586696
#
# Stress axis : x y z
#
# Youngs Moduli (GPa) = 103.33182 53.99913 58.60830
#
# Poissons Ratio (x) = -0.14642 0.25280
# Poissons Ratio (y) = -0.28019 0.18134
# Poissons Ratio (z) = 0.44572 0.16708
#
# Static dielectric constant tensor:
#      x y z
#    x 2.043700 -0.042000 0.001960 
#    y -0.042000 2.173490 0.047470 
#    z 0.001960 0.047470 1.998790 
# 
# From -- ./inp_files/280240.got.cif
#   From: 2010.05.17/outbox.cif.g08.bks.cpg/sg2_141_cif.got.tgz:280240.got - 2010.06.03 11:33:40.
