data_PCOD9011340
_publ_section_title
;
Structure prediction by ZEFSAII (Michael W. Deem and Ramdas Pophale) SiO2 
 PCOD9011340
Probable space group: P -1
;
_chemical_formula_sum "Si O2"
_cell_formula_units_Z 16
_cell_length_a 5.305117
_cell_length_b 26.034462
_cell_length_c 6.853411
_cell_angle_alpha 121.499174
_cell_angle_beta 71.525500
_cell_angle_gamma 117.726803
_cell_volume 710.990629
_symmetry_space_group_name_H-M "P -1"
_symmetry_group_IT_number 2
_symmetry_cell_setting 'triclinic'
loop_
_space_group_symop_operation_xyz
x,y,z
-x,-y,-z
loop_
_atom_site_type_symbol
_atom_site_label
_atom_site_fract_x
_atom_site_fract_y
_atom_site_fract_z
Si Si1 0.935513 0.030384 0.879837
Si Si2 0.913202 0.552942 0.514702
Si Si3 0.550170 0.676292 0.135818
Si Si4 0.811632 0.308890 0.115826
Si Si5 0.592318 0.469140 0.102776
Si Si6 0.418051 0.057926 0.546816
Si Si7 0.769471 0.137464 0.301634
Si Si8 0.435310 0.217144 0.341098
O O1 0.229543 0.074571 0.789185
O O2 0.781782 0.973372 0.652485
O O3 0.750906 0.073265 0.059951
O O4 0.000000 0.000000 0.000000
O O5 0.851474 0.525874 0.256917
O O6 0.635088 0.550098 0.700001
O O7 0.000000 0.500000 0.500000
O O8 0.127317 0.626026 0.640149
O O9 0.538017 0.724549 0.402767
O O10 0.371784 0.685415 0.013175
O O11 0.407203 0.601166 0.086236
O O12 0.881786 0.691793 0.027356
O O13 0.629956 0.247367 0.166201
O O14 0.500000 0.500000 0.000000
O O15 0.680486 0.115681 0.503943
O O16 0.500000 0.000000 0.500000
O O17 0.561578 0.169422 0.324858
O O18 0.101309 0.183268 0.304723
#
# Coordination Sequence:
#
# PCOD9011340 Si02
#       8
#     2   2   2   2   2   2   2   2
#     4  11  24  46  74 110 149 183 229 290 359 414
#     4  10  21  40  65  99 132 170 236 298 361 434
#     4  11  25  47  69 100 142 186 242 296 353 430
#     4  11  25  47  72  95 143 188 236 303 364 412
#     4  10  23  38  66 103 134 177 229 298 373 425
#     4  11  25  44  76 109 145 182 224 297 357 406
#     4  12  27  48  72 108 143 187 244 281 345 429
#     4  12  29  47  70 101 143 196 242 286 341 429
#
# _framework density 22.503814999999999
#
# number of rings (size 3 to 8) (size 9 to 14) (size 15 to 20)
#    0.000    1.000    2.500    2.625    5.250    6.500 
#    0.000    0.000    0.000    0.000    0.000    0.000 
#    0.000    0.000    0.000    0.000    0.000    0.000 
#
# Total GULP energy -89548.481468 kJ/mol
# GULP energy per Si atom -5596.780092 kJ/mol
# Density = 2.245259 g / cm^3
# Si number density = 22.503815 Si / 1000 Ang^3
#
#
#
# Elastic Constant Matrix: (Units=GPa)
#
#
# Indices 1 2 3 4 5 6 
#
# 1 100.4332 17.1977 29.3288 -11.9507 6.1438 -2.1926
# 2 17.1977 93.5378 26.2113 -25.0912 -3.8464 6.8810
# 3 29.3288 26.2113 107.1116 -2.0634 1.9443 -7.6525
# 4 -11.9507 -25.0912 -2.0634 42.0862 -1.4049 -7.0236
# 5 6.1438 -3.8464 1.9443 -1.4049 53.0511 -6.2033
# 6 -2.1926 6.8810 -7.6525 -7.0236 -6.2033 45.9620
#
#
#
# Elastic Compliance Matrix: (Units=1/GPa)
#
#
# Indices 1 2 3 4 5 6 
#
# 1 0.011295 -0.000628 -0.002836 0.002727 -0.001128 0.000425
# 2 -0.000628 0.013945 -0.003205 0.007805 0.001257 -0.001289
# 3 -0.002836 -0.003205 0.010997 -0.001869 -0.000138 0.001871
# 4 0.002727 0.007805 -0.001869 0.029713 0.001502 0.003394
# 5 -0.001128 0.001257 -0.000138 0.001502 0.019419 0.002585
# 6 0.000425 -0.001289 0.001871 0.003394 0.002585 0.023149
#
#
# Mechanical properties :
#
#
# Convention : Reuss Voigt Hill
#
# Bulk Modulus (GPa) = 43.66964 49.61759 46.64362
# Shear Modulus (GPa) = 38.61329 43.44283 41.02806
#
# Velocity S-wave (km/s) = 4.14678 4.39847 4.27448
# Velocity P-wave (km/s) = 6.50963 6.92039 6.71815
#
# Compressibility (1/GPa) = 0.02289920
#
# Stress axis : x y z
#
# Youngs Moduli (GPa) = 88.53234 71.71218 90.93405
#
# Poissons Ratio (x) = 0.04505 0.25786
# Poissons Ratio (y) = 0.05562 0.29144
# Poissons Ratio (z) = 0.25105 0.22983
#
# Static dielectric constant tensor:
#      x y z
#    x 1.823870 0.061580 0.052420 
#    y 0.061580 1.841980 0.023860 
#    z 0.052420 0.023860 1.603220 
# 
# From -- ./inp_files/14687.got.cif
#   From: 2010.05.17/outbox.cif.g08.bks.cpg/sg2_8_cif.got.tgz:14687.got - 2010.06.03 11:33:40.
