data_PCOD9011486
_publ_section_title
;
Structure prediction by ZEFSAII (Michael W. Deem and Ramdas Pophale) SiO2 
 PCOD9011486
Probable space group: P -1
;
_chemical_formula_sum "Si O2"
_cell_formula_units_Z 14
_cell_length_a 8.320953
_cell_length_b 5.469770
_cell_length_c 13.357846
_cell_angle_alpha 97.024315
_cell_angle_beta 102.136899
_cell_angle_gamma 70.668364
_cell_volume 559.948285
_symmetry_space_group_name_H-M "P -1"
_symmetry_group_IT_number 2
_symmetry_cell_setting 'triclinic'
loop_
_space_group_symop_operation_xyz
x,y,z
-x,-y,-z
loop_
_atom_site_type_symbol
_atom_site_label
_atom_site_fract_x
_atom_site_fract_y
_atom_site_fract_z
Si Si1 0.048102 0.994746 0.659560
Si Si2 0.607084 0.342914 0.100152
Si Si3 0.233223 0.678904 0.500011
Si Si4 0.703704 0.888503 0.594782
Si Si5 0.152278 0.122167 0.014752
Si Si6 0.215348 0.299160 0.842787
Si Si7 0.571534 0.899202 0.794393
O O1 0.205046 0.782770 0.614285
O O2 0.897691 0.870003 0.656995
O O3 0.103172 0.157101 0.760214
O O4 0.955767 0.210285 0.573034
O O5 0.769252 0.420426 0.166548
O O6 0.480761 0.335404 0.173692
O O7 0.500000 0.500000 0.000000
O O8 0.696970 0.067092 0.046299
O O9 0.289291 0.372511 0.476407
O O10 0.336973 0.847911 0.463500
O O11 0.588471 0.908828 0.679078
O O12 0.245936 0.125349 0.131233
O O13 0.132500 0.357136 0.946780
O O14 0.000000 0.000000 0.000000
O O15 0.415737 0.142600 0.827688
#
# Coordination Sequence:
#
# PCOD9011486 Si02
#       7
#     2   2   2   2   2   2   2
#     4   9  21  38  66  91 122 161 213 260 321 373
#     4  11  21  41  63  81 128 175 204 254 325 376
#     4   9  21  40  67  90 128 160 206 273 318 371
#     4  10  21  40  66  93 122 165 209 263 321 372
#     4  11  23  39  59  92 121 159 212 267 308 379
#     4  11  22  41  60  90 120 168 208 253 319 386
#     4  11  23  38  61  86 129 161 209 260 319 379
#
# _framework density 25.002306000000001
#
# number of rings (size 3 to 8) (size 9 to 14) (size 15 to 20)
#    0.857    0.857    2.857    2.143    2.000    4.000 
#    0.000    1.429    0.000    0.000    0.000    0.000 
#    0.000    0.000    0.000    0.000    0.000    0.000 
#
# Total GULP energy -78070.794743 kJ/mol
# GULP energy per Si atom -5576.485339 kJ/mol
# Density = 2.494540 g / cm^3
# Si number density = 25.002306 Si / 1000 Ang^3
#
#
#
# Elastic Constant Matrix: (Units=GPa)
#
#
# Indices 1 2 3 4 5 6 
#
# 1 110.5316 37.5981 41.2625 -6.0001 -14.0664 17.7631
# 2 37.5981 51.8803 12.1470 22.6951 12.0049 61.1422
# 3 41.2625 12.1470 97.8575 6.4346 -9.0256 11.2574
# 4 -6.0001 22.6951 6.4346 32.2888 3.1404 -11.6221
# 5 -14.0664 12.0049 -9.0256 3.1404 38.3898 -22.2330
# 6 17.7631 61.1422 11.2574 -11.6221 -22.2330 10.1641
#
#
#
# Elastic Compliance Matrix: (Units=1/GPa)
#
#
# Indices 1 2 3 4 5 6 
#
# 1 0.012255 -0.001326 -0.004395 0.001830 0.000110 -0.006238
# 2 -0.001326 0.001279 -0.000786 0.003306 0.006603 0.013718
# 3 -0.004395 -0.000786 0.012414 -0.002504 0.002532 0.001336
# 4 0.001830 0.003306 -0.002504 0.026352 -0.009662 -0.011317
# 5 0.000110 0.006603 0.002532 -0.009662 0.021470 -0.006802
# 6 -0.006238 0.013718 0.001336 -0.011317 -0.006802 -0.002533
#
#
# Mechanical properties :
#
#
# Convention : Reuss Voigt Hill
#
# Bulk Modulus (GPa) = 77.32137 49.14275 63.23206
# Shear Modulus (GPa) = 56.45640 27.45266 41.95453
#
# Velocity S-wave (km/s) = 4.75705 3.31721 4.10082
# Velocity P-wave (km/s) = 7.82084 5.86258 6.91141
#
# Compressibility (1/GPa) = 0.01293304
#
# Stress axis : x y z
#
# Youngs Moduli (GPa) = 81.59967 781.70226 80.55157
#
# Poissons Ratio (x) = 1.03692 0.35405
# Poissons Ratio (y) = 0.10824 0.06331
# Poissons Ratio (z) = 0.35866 0.61436
#
# Static dielectric constant tensor:
#      x y z
#    x 3.114350 -3.343650 2.293430 
#    y -3.343650 12.009110 -6.799550 
#    z 2.293430 -6.799550 6.638100 
# 
# From -- ./inp_files/487202.got.cif
#   From: 2010.05.17/outbox.cif.g08.bks.cpg/sg2_244_cif.got.tgz:487202.got - 2010.06.03 11:33:40.
