data_PCOD9011905
_publ_section_title
;
Structure prediction by ZEFSAII (Michael W. Deem and Ramdas Pophale) SiO2 
 PCOD9011905
Probable space group: P -1
;
_chemical_formula_sum "Si O2"
_cell_formula_units_Z 16
_cell_length_a 14.699250
_cell_length_b 9.514093
_cell_length_c 8.355938
_cell_angle_alpha 90.467951
_cell_angle_beta 139.464223
_cell_angle_gamma 94.557356
_cell_volume 752.833820
_symmetry_space_group_name_H-M "P -1"
_symmetry_group_IT_number 2
_symmetry_cell_setting 'triclinic'
loop_
_space_group_symop_operation_xyz
x,y,z
-x,-y,-z
loop_
_atom_site_type_symbol
_atom_site_label
_atom_site_fract_x
_atom_site_fract_y
_atom_site_fract_z
Si Si1 0.437567 0.285263 0.791681
Si Si2 0.664631 0.921659 0.072388
Si Si3 0.837167 0.683519 0.189377
Si Si4 0.915075 0.124348 0.324726
Si Si5 0.711847 0.469011 0.284269
Si Si6 0.031048 0.620336 0.174645
Si Si7 0.432189 0.038128 0.575099
Si Si8 0.884201 0.094716 0.902741
O O1 0.351547 0.161032 0.783228
O O2 0.348834 0.417358 0.677813
O O3 0.459242 0.204687 0.656062
O O4 0.584759 0.346193 0.072984
O O5 0.741007 0.812652 0.062372
O O6 0.762968 0.073465 0.199774
O O7 0.512826 0.951572 0.810712
O O8 0.754598 0.555302 0.178640
O O9 0.983011 0.737929 0.480703
O O10 0.891638 0.642342 0.089737
O O11 0.897792 0.123238 0.111213
O O12 0.000000 0.000000 0.500000
O O13 0.847787 0.417855 0.544095
O O14 0.088595 0.762362 0.159836
O O15 0.000000 0.500000 0.000000
O O16 0.268049 0.986305 0.342552
O O17 0.500000 0.000000 0.500000
O O18 0.000000 0.000000 0.000000
#
# Coordination Sequence:
#
# PCOD9011905 Si02
#       8
#     2   2   2   2   2   2   2   2
#     4  10  24  42  72  94 136 185 236 285 340 421
#     4  10  21  42  66 101 133 175 232 280 347 409
#     4  10  23  41  72  95 138 183 235 283 342 415
#     4  10  21  40  67  98 132 176 225 277 348 413
#     4  10  23  47  67  97 133 190 242 282 341 419
#     4  12  27  41  68 103 140 182 233 290 352 415
#     4  12  26  40  67 104 142 178 224 290 357 415
#     4  12  27  44  69 103 144 178 228 294 363 409
#
# _framework density 21.253031
#
# number of rings (size 3 to 8) (size 9 to 14) (size 15 to 20)
#    0.000    1.250    1.250    3.750   10.500    1.000 
#    0.000    0.000    0.000    6.000    0.000    0.000 
#    0.000    0.000    0.000    0.000    0.000    0.000 
#
# Total GULP energy -89462.618327 kJ/mol
# GULP energy per Si atom -5591.413645 kJ/mol
# Density = 2.120466 g / cm^3
# Si number density = 21.253031 Si / 1000 Ang^3
#
#
#
# Elastic Constant Matrix: (Units=GPa)
#
#
# Indices 1 2 3 4 5 6 
#
# 1 93.8642 44.2318 32.4163 18.3786 11.1841 -17.2912
# 2 44.2318 87.8876 26.3085 5.7441 3.6222 -15.8976
# 3 32.4163 26.3085 70.6669 0.9909 15.5021 -23.5579
# 4 18.3786 5.7441 0.9909 36.2099 -6.1355 -2.3098
# 5 11.1841 3.6222 15.5021 -6.1355 35.5941 0.4241
# 6 -17.2912 -15.8976 -23.5579 -2.3098 0.4241 40.8994
#
#
#
# Elastic Compliance Matrix: (Units=1/GPa)
#
#
# Indices 1 2 3 4 5 6 
#
# 1 0.017728 -0.006633 -0.003715 -0.008503 -0.004771 0.002346
# 2 -0.006633 0.015661 -0.002594 0.001382 0.001836 0.001848
# 3 -0.003715 -0.002594 0.021994 0.000975 -0.008102 0.010229
# 4 -0.008503 0.001382 0.000975 0.032962 0.007797 -0.000715
# 5 -0.004771 0.001836 -0.008102 0.007797 0.034349 -0.005886
# 6 0.002346 0.001848 0.010229 -0.000715 -0.005886 0.032073
#
#
# Mechanical properties :
#
#
# Convention : Reuss Voigt Hill
#
# Bulk Modulus (GPa) = 33.89872 50.92577 42.41225
# Shear Modulus (GPa) = 26.24889 32.50481 29.37685
#
# Velocity S-wave (km/s) = 3.51816 3.91502 3.72189
# Velocity P-wave (km/s) = 5.69982 6.66710 6.20235
#
# Compressibility (1/GPa) = 0.02949964
#
# Stress axis : x y z
#
# Youngs Moduli (GPa) = 56.40817 63.85170 45.46683
#
# Poissons Ratio (x) = 0.42355 0.16889
# Poissons Ratio (y) = 0.37418 0.11793
# Poissons Ratio (z) = 0.20954 0.16562
#
# Static dielectric constant tensor:
#      x y z
#    x 1.807490 -0.019270 -0.002580 
#    y -0.019270 1.765790 0.016150 
#    z -0.002580 0.016150 1.741740 
# 
# From -- ./inp_files/299015.got.cif
#   From: 2010.05.17/outbox.cif.g08.bks.cpg/sg2_150_cif.got.tgz:299015.got - 2010.06.03 11:33:40.
