data_PCOD9011451
_publ_section_title
;
Structure prediction by ZEFSAII (Michael W. Deem and Ramdas Pophale) SiO2 
 PCOD9011451
Probable space group: P -1
;
_chemical_formula_sum "Si O2"
_cell_formula_units_Z 16
_cell_length_a 13.413405
_cell_length_b 14.671142
_cell_length_c 8.527035
_cell_angle_alpha 78.052810
_cell_angle_beta 49.717684
_cell_angle_gamma 116.576362
_cell_volume 785.628766
_symmetry_space_group_name_H-M "P -1"
_symmetry_group_IT_number 2
_symmetry_cell_setting 'triclinic'
loop_
_space_group_symop_operation_xyz
x,y,z
-x,-y,-z
loop_
_atom_site_type_symbol
_atom_site_label
_atom_site_fract_x
_atom_site_fract_y
_atom_site_fract_z
Si Si1 0.080816 0.045687 0.079295
Si Si2 0.656212 0.874547 0.716939
Si Si3 0.369986 0.057290 0.928472
Si Si4 0.516518 0.611353 0.380979
Si Si5 0.966498 0.563612 0.388745
Si Si6 0.426139 0.556983 0.123128
Si Si7 0.409627 0.893527 0.779159
Si Si8 0.226775 0.607519 0.666646
O O1 0.180762 0.003125 0.048519
O O2 0.271098 0.222622 0.842377
O O3 0.891830 0.975914 0.403784
O O4 0.000000 0.000000 0.000000
O O5 0.566755 0.901102 0.676959
O O6 0.638994 0.910169 0.895558
O O7 0.526850 0.706354 0.894372
O O8 0.589807 0.215333 0.575802
O O9 0.369524 0.947142 0.938717
O O10 0.500000 0.500000 0.500000
O O11 0.497116 0.598464 0.217615
O O12 0.327478 0.570444 0.648825
O O13 0.823289 0.568486 0.594942
O O14 0.820030 0.437735 0.450866
O O15 0.000000 0.500000 0.500000
O O16 0.184978 0.720783 0.042041
O O17 0.500000 0.500000 0.000000
O O18 0.500000 0.000000 0.500000
O O19 0.000000 0.500000 0.000000
#
# Coordination Sequence:
#
# PCOD9011451 Si02
#       8
#     2   2   2   2   2   2   2   2
#     4  11  25  41  70  98 137 179 223 288 352 403
#     4  12  24  46  68  99 140 180 234 282 344 417
#     4  11  23  45  66  98 138 182 226 284 341 416
#     4  10  24  44  62  98 137 170 231 280 336 412
#     4  11  22  44  67  96 135 173 227 282 330 407
#     4  11  25  43  70 100 133 182 233 279 339 413
#     4  12  26  42  69 107 139 177 233 285 347 412
#     4  10  21  40  66  91 134 175 217 275 338 397
#
# _framework density 20.365853999999999
#
# number of rings (size 3 to 8) (size 9 to 14) (size 15 to 20)
#    0.000    1.000    5.000    2.250    3.500    6.000 
#    0.000    0.000    0.000    0.000    0.000    0.000 
#    0.000    0.000    0.000    0.000    0.000    0.000 
#
# Total GULP energy -89380.964565 kJ/mol
# GULP energy per Si atom -5586.310285 kJ/mol
# Density = 2.031950 g / cm^3
# Si number density = 20.365854 Si / 1000 Ang^3
#
#
#
# Elastic Constant Matrix: (Units=GPa)
#
#
# Indices 1 2 3 4 5 6 
#
# 1 132.4826 34.7036 59.2978 -13.0713 -8.4460 -14.3232
# 2 34.7036 83.3480 27.5821 2.1841 -7.0068 -8.2785
# 3 59.2978 27.5821 136.0906 6.2312 -26.5611 -8.4863
# 4 -13.0713 2.1841 6.2312 28.2311 -1.4278 0.7250
# 5 -8.4460 -7.0068 -26.5611 -1.4278 38.4903 -1.2144
# 6 -14.3232 -8.2785 -8.4863 0.7250 -1.2144 32.3511
#
#
#
# Elastic Compliance Matrix: (Units=1/GPa)
#
#
# Indices 1 2 3 4 5 6 
#
# 1 0.011298 -0.003154 -0.004581 0.006367 -0.000931 0.002816
# 2 -0.003154 0.014002 -0.001010 -0.002315 0.001138 0.002016
# 3 -0.004581 -0.001010 0.011027 -0.004183 0.006295 0.000936
# 4 0.006367 -0.002315 -0.004183 0.039444 -0.000440 0.000229
# 5 -0.000931 0.001138 0.006295 -0.000440 0.030396 0.002681
# 6 0.002816 0.002016 0.000936 0.000229 0.002681 0.033014
#
#
# Mechanical properties :
#
#
# Convention : Reuss Voigt Hill
#
# Bulk Modulus (GPa) = 53.08582 66.12092 59.60337
# Shear Modulus (GPa) = 30.68423 35.17033 32.92728
#
# Velocity S-wave (km/s) = 3.88577 4.16014 4.02529
# Velocity P-wave (km/s) = 6.80110 7.45739 7.13679
#
# Compressibility (1/GPa) = 0.01883742
#
# Stress axis : x y z
#
# Youngs Moduli (GPa) = 88.51106 71.41978 90.68291
#
# Poissons Ratio (x) = 0.22522 0.41545
# Poissons Ratio (y) = 0.27912 0.09159
# Poissons Ratio (z) = 0.40550 0.07213
#
# Static dielectric constant tensor:
#      x y z
#    x 1.708580 0.005800 0.000060 
#    y 0.005800 1.742330 0.051520 
#    z 0.000060 0.051520 1.754430 
# 
# From -- ./inp_files/272390.got.cif
#   From: 2010.05.17/outbox.cif.g08.bks.cpg/sg2_137_cif.got.tgz:272390.got - 2010.06.03 11:33:40.
