data_PCOD9011824
_publ_section_title
;
Structure prediction by ZEFSAII (Michael W. Deem and Ramdas Pophale) SiO2 
 PCOD9011824
Probable space group: P -1
;
_chemical_formula_sum "Si O2"
_cell_formula_units_Z 15
_cell_length_a 16.508663
_cell_length_b 8.887766
_cell_length_c 19.409753
_cell_angle_alpha 41.793081
_cell_angle_beta 20.917410
_cell_angle_gamma 52.163212
_cell_volume 635.040881
_symmetry_space_group_name_H-M "P -1"
_symmetry_group_IT_number 2
_symmetry_cell_setting 'triclinic'
loop_
_space_group_symop_operation_xyz
x,y,z
-x,-y,-z
loop_
_atom_site_type_symbol
_atom_site_label
_atom_site_fract_x
_atom_site_fract_y
_atom_site_fract_z
Si Si1 0.200910 0.452781 0.479866
Si Si2 0.938219 0.337011 0.257546
Si Si3 0.049103 0.112555 0.115189
Si Si4 0.546805 0.166092 0.732839
Si Si5 0.500000 0.500000 0.500000
Si Si6 0.582545 0.143319 0.456114
Si Si7 0.397919 0.680626 0.853774
Si Si8 0.687295 0.363665 0.904440
O O1 0.342048 0.628724 0.368823
O O2 0.403264 0.448556 0.266031
O O3 0.969375 0.506234 0.615914
O O4 0.078020 0.172976 0.697718
O O5 0.771034 0.169748 0.506585
O O6 0.753833 0.447369 0.330256
O O7 0.042679 0.184161 0.175651
O O8 0.165077 0.539110 0.042057
O O9 0.872498 0.237041 0.181190
O O10 0.332961 0.199181 0.841980
O O11 0.414721 0.899831 0.959506
O O12 0.459305 0.324875 0.520464
O O13 0.500000 0.000000 0.500000
O O14 0.520513 0.942584 0.634213
O O15 0.319049 0.689276 0.990785
O O16 0.500000 0.500000 0.000000
#
# Coordination Sequence:
#
# PCOD9011824 Si02
#       8
#     2   2   2   2   1   2   2   2
#     4  10  21  40  67  95 123 173 219 267 332 396
#     4  11  22  40  64  93 132 176 221 272 334 392
#     4   9  21  39  60  92 127 172 220 268 330 390
#     4  11  21  39  69  90 125 175 215 265 333 399
#     4  10  24  36  58  98 132 172 228 276 332 396
#     4  10  23  41  65  98 138 180 229 283 338 402
#     4  11  23  44  66  94 135 178 219 276 334 400
#     4  11  25  44  68 100 132 169 222 279 335 401
#
# _framework density 23.620528
#
# number of rings (size 3 to 8) (size 9 to 14) (size 15 to 20)
#    0.000    1.600    2.667    2.400    3.733    2.667 
#    0.000    3.333    0.000    0.000    0.000    0.000 
#    0.000    0.000    0.000    0.000    0.000    0.000 
#
# Total GULP energy -83566.272558 kJ/mol
# GULP energy per Si atom -5571.084837 kJ/mol
# Density = 2.356677 g / cm^3
# Si number density = 23.620528 Si / 1000 Ang^3
#
#
#
# Elastic Constant Matrix: (Units=GPa)
#
#
# Indices 1 2 3 4 5 6 
#
# 1 44.2998 52.4855 24.2489 -3.3471 -20.5124 23.9897
# 2 52.4855 131.1615 36.3596 13.9902 -25.0426 17.0186
# 3 24.2489 36.3596 120.1602 14.9065 -41.1005 3.5369
# 4 -3.3471 13.9902 14.9065 51.9465 8.8658 -9.9435
# 5 -20.5124 -25.0426 -41.1005 8.8658 41.5378 7.3667
# 6 23.9897 17.0186 3.5369 -9.9435 7.3667 46.3841
#
#
#
# Elastic Compliance Matrix: (Units=1/GPa)
#
#
# Indices 1 2 3 4 5 6 
#
# 1 0.101837 -0.024201 0.008928 -0.009748 0.056462 -0.055528
# 2 -0.024201 0.016637 -0.000805 -0.004156 -0.002903 0.006044
# 3 0.008928 -0.000805 0.017058 -0.010684 0.025196 -0.011915
# 4 -0.009748 -0.004156 -0.010684 0.031086 -0.027800 0.018460
# 5 0.056462 -0.002903 0.025196 -0.027800 0.089993 -0.050310
# 6 -0.055528 0.006044 -0.011915 0.018460 -0.050310 0.060917
#
#
# Mechanical properties :
#
#
# Convention : Reuss Voigt Hill
#
# Bulk Modulus (GPa) = 9.67349 57.97885 33.82617
# Shear Modulus (GPa) = 13.01601 40.14217 26.57909
#
# Velocity S-wave (km/s) = 2.34998 4.12692 3.35812
# Velocity P-wave (km/s) = 3.38637 6.87808 5.42104
#
# Compressibility (1/GPa) = 0.10337531
#
# Stress axis : x y z
#
# Youngs Moduli (GPa) = 9.81964 60.10835 58.62240
#
# Poissons Ratio (x) = 1.45469 -0.52340
# Poissons Ratio (y) = 0.23765 0.04722
# Poissons Ratio (z) = -0.08767 0.04841
#
# Static dielectric constant tensor:
#      x y z
#    x 1.831920 0.029640 -0.212970 
#    y 0.029640 1.885390 0.134770 
#    z -0.212970 0.134770 1.622830 
# 
# From -- ./inp_files/504581.got.cif
#   From: 2010.05.17/outbox.cif.g08.bks.cpg/sg2_253_cif.got.tgz:504581.got - 2010.06.03 11:33:40.
