data_PCOD9011505
_publ_section_title
;
Structure prediction by ZEFSAII (Michael W. Deem and Ramdas Pophale) SiO2 
 PCOD9011505
Probable space group: P -1
;
_chemical_formula_sum "Si O2"
_cell_formula_units_Z 16
_cell_length_a 8.638400
_cell_length_b 11.501286
_cell_length_c 23.122118
_cell_angle_alpha 161.280190
_cell_angle_beta 115.005263
_cell_angle_gamma 66.660240
_cell_volume 668.104726
_symmetry_space_group_name_H-M "P -1"
_symmetry_group_IT_number 2
_symmetry_cell_setting 'triclinic'
loop_
_space_group_symop_operation_xyz
x,y,z
-x,-y,-z
loop_
_atom_site_type_symbol
_atom_site_label
_atom_site_fract_x
_atom_site_fract_y
_atom_site_fract_z
Si Si1 0.195637 0.678089 0.324165
Si Si2 0.456603 0.140843 0.122461
Si Si3 0.279199 0.146887 0.900298
Si Si4 0.596697 0.123772 0.324576
Si Si5 0.316384 0.170757 0.474627
Si Si6 0.717872 0.083875 0.774393
Si Si7 0.984980 0.350157 0.324966
Si Si8 0.147109 0.944736 0.562646
O O1 0.263493 0.277624 0.157892
O O2 0.231440 0.917089 0.500143
O O3 0.297022 0.847926 0.365538
O O4 0.995825 0.747425 0.314232
O O5 0.564796 0.506564 0.329577
O O6 0.531091 0.843580 0.037828
O O7 0.500000 0.000000 0.000000
O O8 0.303603 0.898721 0.730462
O O9 0.152663 0.977740 0.848851
O O10 0.209140 0.524629 0.045857
O O11 0.500000 0.500000 0.500000
O O12 0.725149 0.030270 0.352116
O O13 0.430535 0.864229 0.177806
O O14 0.124248 0.329282 0.512504
O O15 0.366281 0.050726 0.362341
O O16 0.855682 0.806268 0.689104
O O17 0.050497 0.551515 0.372538
#
# Coordination Sequence:
#
# PCOD9011505 Si02
#       8
#     2   2   2   2   2   2   2   2
#     4  10  21  40  66  93 131 176 223 274 326 395
#     4  11  23  41  64  95 134 174 226 273 330 398
#     4  11  26  41  63 101 135 174 219 273 335 395
#     4  12  23  41  67  97 134 173 219 274 338 392
#     4  10  22  39  68  95 124 176 227 268 332 395
#     4  12  23  41  67  98 137 171 218 277 333 396
#     4  10  22  40  66  96 134 169 217 271 336 393
#     4  10  22  39  68  99 130 173 227 273 329 403
#
# _framework density 23.948340000000002
#
# number of rings (size 3 to 8) (size 9 to 14) (size 15 to 20)
#    0.000    1.250    1.250    5.250    3.500    1.000 
#    4.500    0.000    0.000    9.000    0.000    0.000 
#    0.000    0.000    0.000    0.000    0.000    0.000 
#
# Total GULP energy -89345.599977 kJ/mol
# GULP energy per Si atom -5584.099999 kJ/mol
# Density = 2.389383 g / cm^3
# Si number density = 23.948340 Si / 1000 Ang^3
#
#
#
# Elastic Constant Matrix: (Units=GPa)
#
#
# Indices 1 2 3 4 5 6 
#
# 1 75.4353 41.2715 13.4305 3.3371 -8.7121 -9.9344
# 2 41.2715 149.3926 11.9766 6.4738 -22.0273 -30.2167
# 3 13.4305 11.9766 51.1315 4.5767 -16.7819 -10.1084
# 4 3.3371 6.4738 4.5767 32.0175 9.5023 -4.8579
# 5 -8.7121 -22.0273 -16.7819 9.5023 31.5220 9.8119
# 6 -9.9344 -30.2167 -10.1084 -4.8579 9.8119 48.6936
#
#
#
# Elastic Compliance Matrix: (Units=1/GPa)
#
#
# Indices 1 2 3 4 5 6 
#
# 1 0.016136 -0.004198 -0.003261 -0.000335 -0.000109 -0.000002
# 2 -0.004198 0.009540 0.001964 -0.003033 0.006249 0.003909
# 3 -0.003261 0.001964 0.026519 -0.008479 0.016562 0.001875
# 4 -0.000335 -0.003033 -0.008479 0.039685 -0.020023 0.004283
# 5 -0.000109 0.006249 0.016562 -0.020023 0.052562 -0.005295
# 6 -0.000002 0.003909 0.001875 0.004283 -0.005295 0.024846
#
#
# Mechanical properties :
#
#
# Convention : Reuss Voigt Hill
#
# Bulk Modulus (GPa) = 24.26966 45.47959 34.87462
# Shear Modulus (GPa) = 25.77139 36.39867 31.08503
#
# Velocity S-wave (km/s) = 3.28399 3.90280 3.60669
# Velocity P-wave (km/s) = 4.95335 6.27224 5.65140
#
# Compressibility (1/GPa) = 0.04120371
#
# Stress axis : x y z
#
# Youngs Moduli (GPa) = 61.97365 104.82576 37.70826
#
# Poissons Ratio (x) = 0.44007 0.12297
# Poissons Ratio (y) = 0.26017 -0.07404
# Poissons Ratio (z) = 0.20210 -0.20583
#
# Static dielectric constant tensor:
#      x y z
#    x 1.964300 -0.011480 0.080520 
#    y -0.011480 1.916570 0.032630 
#    z 0.080520 0.032630 1.958670 
# 
# From -- ./inp_files/607784.got.cif
#   From: 2010.05.17/outbox.cif.g08.bks.cpg/sg2_304_cif.got.tgz:607784.got - 2010.06.03 11:33:40.
