data_PCOD9011286
_publ_section_title
;
Structure prediction by ZEFSAII (Michael W. Deem and Ramdas Pophale) SiO2 
 PCOD9011286
Probable space group: P -1
;
_chemical_formula_sum "Si O2"
_cell_formula_units_Z 16
_cell_length_a 11.068010
_cell_length_b 16.635740
_cell_length_c 8.994262
_cell_angle_alpha 100.867395
_cell_angle_beta 108.926161
_cell_angle_gamma 142.023291
_cell_volume 622.929106
_symmetry_space_group_name_H-M "P -1"
_symmetry_group_IT_number 2
_symmetry_cell_setting 'triclinic'
loop_
_space_group_symop_operation_xyz
x,y,z
-x,-y,-z
loop_
_atom_site_type_symbol
_atom_site_label
_atom_site_fract_x
_atom_site_fract_y
_atom_site_fract_z
Si Si1 0.546283 0.462856 0.867932
Si Si2 0.164556 0.989613 0.245352
Si Si3 0.379236 0.004767 0.600173
Si Si4 0.824406 0.703828 0.789019
Si Si5 0.952087 0.926244 0.610323
Si Si6 0.033672 0.440547 0.887133
Si Si7 0.232899 0.739765 0.562976
Si Si8 0.416922 0.088488 0.971138
O O1 0.798760 0.632427 0.899471
O O2 0.226030 0.260457 0.576153
O O3 0.500000 0.500000 0.000000
O O4 0.664223 0.441085 0.947245
O O5 0.163569 0.931368 0.374175
O O6 0.241105 0.123964 0.383251
O O7 0.446760 0.116852 0.310284
O O8 0.879612 0.818976 0.951649
O O9 0.235323 0.835384 0.543840
O O10 0.456658 0.093233 0.816312
O O11 0.719046 0.202976 0.722371
O O12 0.500000 0.500000 0.500000
O O13 0.126033 0.868292 0.859806
O O14 0.253352 0.081484 0.885791
O O15 0.000000 0.000000 0.500000
O O16 0.013506 0.449543 0.707199
O O17 0.000000 0.500000 0.000000
O O18 0.269607 0.750144 0.756108
#
# Coordination Sequence:
#
# PCOD9011286 Si02
#       8
#     2   2   2   2   2   2   2   2
#     4  12  26  45  73 103 140 181 233 288 343 410
#     4  10  21  40  65  96 131 182 233 268 340 413
#     4  11  21  43  72  94 131 180 235 276 327 423
#     4  11  23  42  62 105 140 179 223 294 348 396
#     4  12  24  42  70  97 138 183 229 276 341 425
#     4  11  24  44  70 101 137 179 231 282 345 408
#     4  10  22  39  67  96 127 176 226 279 331 400
#     4  11  24  42  70 102 137 175 235 276 347 404
#
# _framework density 25.685106000000001
#
# number of rings (size 3 to 8) (size 9 to 14) (size 15 to 20)
#    0.000    1.000    2.500    6.375    1.750    2.000 
#    2.250    0.625    0.000    0.000    0.000    0.000 
#    0.000    0.000    0.000    0.000    0.000    0.000 
#
# Total GULP energy -89114.219602 kJ/mol
# GULP energy per Si atom -5569.638725 kJ/mol
# Density = 2.562665 g / cm^3
# Si number density = 25.685106 Si / 1000 Ang^3
#
#
#
# Elastic Constant Matrix: (Units=GPa)
#
#
# Indices 1 2 3 4 5 6 
#
# 1 107.5433 -10.5795 44.6786 -13.0541 -15.1377 -10.2128
# 2 -10.5795 98.7839 13.1837 -15.5818 6.8869 -1.8389
# 3 44.6786 13.1837 187.4039 -31.4579 -12.9413 -3.1641
# 4 -13.0541 -15.5818 -31.4579 39.4996 0.1830 0.8892
# 5 -15.1377 6.8869 -12.9413 0.1830 32.2284 -0.3601
# 6 -10.2128 -1.8389 -3.1641 0.8892 -0.3601 30.4995
#
#
#
# Elastic Compliance Matrix: (Units=1/GPa)
#
#
# Indices 1 2 3 4 5 6 
#
# 1 0.011624 0.001729 -0.002068 0.002772 0.004286 0.003752
# 2 0.001729 0.011247 -0.000547 0.004558 -0.001825 0.001046
# 3 -0.002068 -0.000547 0.006741 0.004464 0.001825 -0.000135
# 4 0.002772 0.004558 0.004464 0.031559 0.001950 0.000769
# 5 0.004286 -0.001825 0.001825 0.001950 0.034174 0.001861
# 6 0.003752 0.001046 -0.000135 0.000769 0.001861 0.034092
#
#
# Mechanical properties :
#
#
# Convention : Reuss Voigt Hill
#
# Bulk Modulus (GPa) = 35.91948 54.25518 45.08733
# Shear Modulus (GPa) = 35.58995 43.54206 39.56600
#
# Velocity S-wave (km/s) = 3.72644 4.12178 3.92908
# Velocity P-wave (km/s) = 5.70351 6.61975 6.17864
#
# Compressibility (1/GPa) = 0.02784005
#
# Stress axis : x y z
#
# Youngs Moduli (GPa) = 86.02868 88.91359 148.35328
#
# Poissons Ratio (x) = -0.15376 0.30683
# Poissons Ratio (y) = -0.14877 0.08112
# Poissons Ratio (z) = 0.17793 0.04862
#
# Static dielectric constant tensor:
#      x y z
#    x 2.134070 -0.071360 -0.004620 
#    y -0.071360 2.160280 0.057960 
#    z -0.004620 0.057960 2.195150 
# 
# From -- ./inp_files/278017.got.cif
#   From: 2010.05.17/outbox.cif.g08.bks.cpg/sg2_140_cif.got.tgz:278017.got - 2010.06.03 11:33:40.
