data_PCOD9011628
_publ_section_title
;
Structure prediction by ZEFSAII (Michael W. Deem and Ramdas Pophale) SiO2 
 PCOD9011628
Probable space group: P -1
;
_chemical_formula_sum "Si O2"
_cell_formula_units_Z 16
_cell_length_a 23.429196
_cell_length_b 23.011968
_cell_length_c 5.178801
_cell_angle_alpha 84.298886
_cell_angle_beta 84.944592
_cell_angle_gamma 12.371140
_cell_volume 594.722365
_symmetry_space_group_name_H-M "P -1"
_symmetry_group_IT_number 2
_symmetry_cell_setting 'triclinic'
loop_
_space_group_symop_operation_xyz
x,y,z
-x,-y,-z
loop_
_atom_site_type_symbol
_atom_site_label
_atom_site_fract_x
_atom_site_fract_y
_atom_site_fract_z
Si Si1 0.760642 0.246155 0.190993
Si Si2 0.807107 0.650214 0.779627
Si Si3 0.328815 0.100519 0.106818
Si Si4 0.774171 0.921367 0.645937
Si Si5 0.926483 0.308918 0.998184
Si Si6 0.726837 0.609220 0.645035
Si Si7 0.388066 0.779325 0.888844
Si Si8 0.431210 0.663456 0.410753
O O1 0.700945 0.365261 0.320779
O O2 0.500000 0.500000 0.000000
O O3 0.259326 0.783620 0.566292
O O4 0.000000 0.000000 0.000000
O O5 0.768806 0.756967 0.692623
O O6 0.684762 0.720081 0.628973
O O7 0.106107 0.335771 0.873807
O O8 0.625734 0.822339 0.031906
O O9 0.327964 0.031900 0.166127
O O10 0.035348 0.636364 0.536726
O O11 0.532264 0.167955 0.435975
O O12 0.869153 0.884947 0.763550
O O13 0.837804 0.464064 0.910720
O O14 0.125856 0.080120 0.817825
O O15 0.651402 0.548151 0.005158
O O16 0.471277 0.667592 0.633005
O O17 0.305207 0.817060 0.135249
#
# Coordination Sequence:
#
# PCOD9011628 Si02
#       8
#     2   2   2   2   2   2   2   2
#     4  11  26  50  87 125 171 212 263 327 396 473
#     4  10  21  40  66  97 137 180 232 307 394 479
#     4  10  21  40  66  97 137 180 232 307 394 479
#     4  12  26  44  73 102 138 190 253 317 393 474
#     4  12  30  50  71 107 150 206 260 332 388 456
#     4  12  26  44  73 102 138 190 253 317 393 474
#     4  12  30  49  82 110 169 210 276 330 390 466
#     4  11  28  54  80 128 162 222 267 326 400 472
#
# _framework density 26.903310999999999
#
# number of rings (size 3 to 8) (size 9 to 14) (size 15 to 20)
#    0.000    0.750    2.500    3.000    8.750    5.000 
#    0.000    0.000    0.000    0.000    0.000    0.000 
#    0.000    0.000    0.000    0.000    0.000    0.000 
#
# Total GULP energy -89506.277273 kJ/mol
# GULP energy per Si atom -5594.142330 kJ/mol
# Density = 2.684208 g / cm^3
# Si number density = 26.903311 Si / 1000 Ang^3
#
#
#
# Elastic Constant Matrix: (Units=GPa)
#
#
# Indices 1 2 3 4 5 6 
#
# 1 99.0798 28.4175 43.7806 12.5934 12.7343 16.7764
# 2 28.4175 169.4218 36.4434 9.2170 -2.7091 -2.5501
# 3 43.7806 36.4434 138.7704 14.3377 3.2689 20.3745
# 4 12.5934 9.2170 14.3377 45.7031 5.5756 7.5938
# 5 12.7343 -2.7091 3.2689 5.5756 53.9621 9.1344
# 6 16.7764 -2.5501 20.3745 7.5938 9.1344 42.9411
#
#
#
# Elastic Compliance Matrix: (Units=1/GPa)
#
#
# Indices 1 2 3 4 5 6 
#
# 1 0.012836 -0.001502 -0.003015 -0.001526 -0.002270 -0.002921
# 2 -0.001502 0.006537 -0.001418 -0.000807 0.000569 0.001669
# 3 -0.003015 -0.001418 0.009111 -0.001309 0.000758 -0.003159
# 4 -0.001526 -0.000807 -0.001309 0.023508 -0.001581 -0.002651
# 5 -0.002270 0.000569 0.000758 -0.001581 0.019783 -0.003368
# 6 -0.002921 0.001669 -0.003159 -0.002651 -0.003368 0.027212
#
#
# Mechanical properties :
#
#
# Convention : Reuss Voigt Hill
#
# Bulk Modulus (GPa) = 60.18950 69.39500 64.79225
# Shear Modulus (GPa) = 42.95662 48.42995 45.69329
#
# Velocity S-wave (km/s) = 4.00021 4.24742 4.12567
# Velocity P-wave (km/s) = 6.61488 7.06430 6.84328
#
# Compressibility (1/GPa) = 0.01661419
#
# Stress axis : x y z
#
# Youngs Moduli (GPa) = 77.90459 152.96390 109.75595
#
# Poissons Ratio (x) = 0.22970 0.33096
# Poissons Ratio (y) = 0.11699 0.15566
# Poissons Ratio (z) = 0.23491 0.21695
#
# Static dielectric constant tensor:
#      x y z
#    x 2.284990 0.013890 -0.010610 
#    y 0.013890 2.007520 -0.020360 
#    z -0.010610 -0.020360 2.181360 
# 
# From -- ./inp_files/127783.got.cif
#   From: 2010.05.17/outbox.cif.g08.bks.cpg/sg2_64_cif.got.tgz:127783.got - 2010.06.03 11:33:40.
