data_PCOD9011258
_publ_section_title
;
Structure prediction by ZEFSAII (Michael W. Deem and Ramdas Pophale) SiO2 
 PCOD9011258
Probable space group: P -1
;
_chemical_formula_sum "Si O2"
_cell_formula_units_Z 14
_cell_length_a 6.119175
_cell_length_b 7.034872
_cell_length_c 19.363006
_cell_angle_alpha 129.543979
_cell_angle_beta 104.792373
_cell_angle_gamma 68.681742
_cell_volume 598.454729
_symmetry_space_group_name_H-M "P -1"
_symmetry_group_IT_number 2
_symmetry_cell_setting 'triclinic'
loop_
_space_group_symop_operation_xyz
x,y,z
-x,-y,-z
loop_
_atom_site_type_symbol
_atom_site_label
_atom_site_fract_x
_atom_site_fract_y
_atom_site_fract_z
Si Si1 0.013453 0.893794 0.052678
Si Si2 0.641494 0.296530 0.519505
Si Si3 0.645360 0.955264 0.787235
Si Si4 0.064438 0.930211 0.275403
Si Si5 0.075522 0.249900 0.636155
Si Si6 0.219908 0.309435 0.905967
Si Si7 0.657367 0.428060 0.325744
O O1 0.781377 0.863672 0.066098
O O2 0.132175 0.058029 0.150009
O O3 0.169904 0.600215 0.991460
O O4 0.000000 0.000000 0.000000
O O5 0.500000 0.500000 0.500000
O O6 0.455377 0.342075 0.577714
O O7 0.882027 0.340803 0.581025
O O8 0.739287 0.016989 0.430704
O O9 0.542397 0.715803 0.736878
O O10 0.448025 0.201644 0.854224
O O11 0.713020 0.998781 0.723985
O O12 0.062776 0.804677 0.320487
O O13 0.987937 0.742123 0.170547
O O14 0.860925 0.197809 0.321895
O O15 0.224382 0.457028 0.700300
#
# Coordination Sequence:
#
# PCOD9011258 Si02
#       7
#     2   2   2   2   2   2   2
#     4  10  21  40  65  95 133 173 223 275 334 397
#     4  11  24  46  71 102 136 178 231 288 342 406
#     4  10  22  42  68  97 137 179 217 281 339 400
#     4  10  22  43  66  96 137 178 227 283 334 406
#     4  11  25  45  72 102 133 184 230 282 345 410
#     4   9  21  39  63  95 131 170 223 278 327 396
#     4  11  23  44  66  99 138 173 230 284 341 409
#
# _framework density 23.393581999999999
#
# number of rings (size 3 to 8) (size 9 to 14) (size 15 to 20)
#    0.000    1.714    1.429    1.714    0.000    8.000 
#    7.714    7.143    0.000    0.000    0.000    0.000 
#    0.000    0.000    0.000    0.000    0.000    0.000 
#
# Total GULP energy -78226.114954 kJ/mol
# GULP energy per Si atom -5587.579640 kJ/mol
# Density = 2.334034 g / cm^3
# Si number density = 23.393582 Si / 1000 Ang^3
#
#
#
# Elastic Constant Matrix: (Units=GPa)
#
#
# Indices 1 2 3 4 5 6 
#
# 1 122.8040 73.5569 50.6492 6.2088 -15.8873 26.4989
# 2 73.5569 130.9886 49.5204 -9.5285 5.8540 23.4297
# 3 50.6492 49.5204 80.8137 1.8465 -14.3615 16.8421
# 4 6.2088 -9.5285 1.8465 30.9176 -2.9948 -8.1312
# 5 -15.8873 5.8540 -14.3615 -2.9948 42.6673 9.3974
# 6 26.4989 23.4297 16.8421 -8.1312 9.3974 46.0480
#
#
#
# Elastic Compliance Matrix: (Units=1/GPa)
#
#
# Indices 1 2 3 4 5 6 
#
# 1 0.017059 -0.008093 -0.002619 -0.007001 0.007755 -0.007560
# 2 -0.008093 0.014804 -0.005738 0.006321 -0.006918 0.001752
# 3 -0.002619 -0.005738 0.019936 -0.003007 0.007392 -0.004904
# 4 -0.007001 0.006321 -0.003007 0.037976 -0.003894 0.009413
# 5 0.007755 -0.006918 0.007392 -0.003894 0.031876 -0.010839
# 6 -0.007560 0.001752 -0.004904 0.009413 -0.010839 0.030844
#
#
# Mechanical properties :
#
#
# Convention : Reuss Voigt Hill
#
# Bulk Modulus (GPa) = 52.91254 75.78435 64.34844
# Shear Modulus (GPa) = 26.08314 34.65188 30.36751
#
# Velocity S-wave (km/s) = 3.34274 3.85288 3.60684
# Velocity P-wave (km/s) = 6.12911 7.22901 6.70167
#
# Compressibility (1/GPa) = 0.01889911
#
# Stress axis : x y z
#
# Youngs Moduli (GPa) = 58.61875 67.54944 50.16057
#
# Poissons Ratio (x) = 0.54669 0.13136
# Poissons Ratio (y) = 0.47442 0.28782
# Poissons Ratio (z) = 0.15351 0.38760
#
# Static dielectric constant tensor:
#      x y z
#    x 1.947670 0.014910 0.004090 
#    y 0.014910 1.868790 -0.015180 
#    z 0.004090 -0.015180 1.892850 
# 
# From -- ./inp_files/11581.got.cif
#   From: 2010.05.17/outbox.cif.g08.bks.cpg/sg2_6_cif.got.tgz:11581.got - 2010.06.03 11:33:40.
