data_PCOD9011145
_publ_section_title
;
Structure prediction by ZEFSAII (Michael W. Deem and Ramdas Pophale) SiO2 
 PCOD9011145
Probable space group: P -1
;
_chemical_formula_sum "Si O2"
_cell_formula_units_Z 16
_cell_length_a 16.351321
_cell_length_b 8.443402
_cell_length_c 8.780239
_cell_angle_alpha 52.907546
_cell_angle_beta 133.555024
_cell_angle_gamma 125.418410
_cell_volume 671.966471
_symmetry_space_group_name_H-M "P -1"
_symmetry_group_IT_number 2
_symmetry_cell_setting 'triclinic'
loop_
_space_group_symop_operation_xyz
x,y,z
-x,-y,-z
loop_
_atom_site_type_symbol
_atom_site_label
_atom_site_fract_x
_atom_site_fract_y
_atom_site_fract_z
Si Si1 0.845161 0.106814 0.676940
Si Si2 0.273436 0.510692 0.930247
Si Si3 0.078034 0.154321 0.798649
Si Si4 0.861565 0.465405 0.687806
Si Si5 0.080649 0.801153 0.804807
Si Si6 0.502316 0.671826 0.258473
Si Si7 0.328739 0.916796 0.898300
Si Si8 0.740097 0.666241 0.662704
O O1 0.800079 0.286511 0.593393
O O2 0.966762 0.216388 0.683787
O O3 0.777230 0.911517 0.599333
O O4 0.880614 0.979580 0.938539
O O5 0.409910 0.513734 0.120349
O O6 0.284806 0.753687 0.795973
O O7 0.221087 0.436969 0.076650
O O8 0.191113 0.350066 0.805044
O O9 0.038556 0.989348 0.709595
O O10 0.788645 0.594150 0.613044
O O11 0.979002 0.634273 0.679603
O O12 0.899389 0.333219 0.947268
O O13 0.208969 0.899513 0.841943
O O14 0.420190 0.801517 0.157393
O O15 0.598877 0.594431 0.517697
O O16 0.592061 0.854994 0.167889
#
# Coordination Sequence:
#
# PCOD9011145 Si02
#       8
#     2   2   2   2   2   2   2   2
#     4   9  18  28  47  80 112 131 160 217 262 305
#     4   9  17  31  54  76  97 137 174 211 253 296
#     4   9  16  28  48  79 107 128 173 215 252 305
#     4  10  18  29  52  83 107 133 167 214 265 304
#     4  10  17  29  52  79 106 133 174 215 252 310
#     4   9  20  34  54  71 105 139 177 212 254 308
#     4   9  18  35  53  74  94 145 178 209 254 303
#     4  11  18  33  54  82 106 134 170 213 265 306
#
# _framework density 23.810713
#
# number of rings (size 3 to 8) (size 9 to 14) (size 15 to 20)
#    0.750    1.750    2.500    1.125    3.500    0.000 
#    0.000    2.500    2.750    6.750    0.000    0.000 
#    0.000    0.000    0.000    0.000    0.000    0.000 
#
# Total GULP energy -89172.191226 kJ/mol
# GULP energy per Si atom -5573.261952 kJ/mol
# Density = 2.375652 g / cm^3
# Si number density = 23.810713 Si / 1000 Ang^3
#
#
#
# Elastic Constant Matrix: (Units=GPa)
#
#
# Indices 1 2 3 4 5 6 
#
# 1 78.7029 42.5080 12.9456 17.7539 18.4240 -14.6877
# 2 42.5080 136.4144 25.0301 35.5217 6.3940 -23.6331
# 3 12.9456 25.0301 47.3821 11.9491 -0.7842 -12.4860
# 4 17.7539 35.5217 11.9491 45.6184 10.7636 6.7072
# 5 18.4240 6.3940 -0.7842 10.7636 30.5268 0.9997
# 6 -14.6877 -23.6331 -12.4860 6.7072 0.9997 37.3798
#
#
#
# Elastic Compliance Matrix: (Units=1/GPa)
#
#
# Indices 1 2 3 4 5 6 
#
# 1 0.018740 -0.003479 -0.001315 -0.002725 -0.009834 0.005477
# 2 -0.003479 0.012380 -0.001016 -0.009800 0.002680 0.007808
# 3 -0.001315 -0.001016 0.026438 -0.007931 0.004188 0.008983
# 4 -0.002725 -0.009800 -0.007931 0.037242 -0.009102 -0.016355
# 5 -0.009834 0.002680 0.004188 -0.009102 0.041457 -0.000246
# 6 0.005477 0.007808 0.008983 -0.016355 -0.000246 0.039782
#
#
# Mechanical properties :
#
#
# Convention : Reuss Voigt Hill
#
# Bulk Modulus (GPa) = 21.76839 47.05186 34.41012
# Shear Modulus (GPa) = 24.63397 34.83939 29.73668
#
# Velocity S-wave (km/s) = 3.21997 3.82931 3.53778
# Velocity P-wave (km/s) = 4.79441 6.27337 5.58308
#
# Compressibility (1/GPa) = 0.04593818
#
# Stress axis : x y z
#
# Youngs Moduli (GPa) = 53.36122 80.77487 37.82501
#
# Poissons Ratio (x) = 0.28102 0.04972
# Poissons Ratio (y) = 0.18565 0.03843
# Poissons Ratio (z) = 0.07015 0.08208
#
# Static dielectric constant tensor:
#      x y z
#    x 1.920590 0.060810 -0.097300 
#    y 0.060810 1.954800 -0.055470 
#    z -0.097300 -0.055470 2.079550 
# 
# From -- ./inp_files/268251.got.cif
#   From: 2010.05.17/outbox.cif.g08.bks.cpg/sg2_135_cif.got.tgz:268251.got - 2010.06.03 11:33:40.
