data_PCOD9011034
_publ_section_title
;
Structure prediction by ZEFSAII (Michael W. Deem and Ramdas Pophale) SiO2 
 PCOD9011034
Probable space group: P -1
;
_chemical_formula_sum "Si O2"
_cell_formula_units_Z 16
_cell_length_a 5.989128
_cell_length_b 14.693719
_cell_length_c 15.392613
_cell_angle_alpha 40.240568
_cell_angle_beta 61.228283
_cell_angle_gamma 69.660678
_cell_volume 766.560536
_symmetry_space_group_name_H-M "P -1"
_symmetry_group_IT_number 2
_symmetry_cell_setting 'triclinic'
loop_
_space_group_symop_operation_xyz
x,y,z
-x,-y,-z
loop_
_atom_site_type_symbol
_atom_site_label
_atom_site_fract_x
_atom_site_fract_y
_atom_site_fract_z
Si Si1 0.799477 0.814874 0.858150
Si Si2 0.620477 0.007601 0.600623
Si Si3 0.868138 0.409698 0.514494
Si Si4 0.242244 0.067834 0.031213
Si Si5 0.687468 0.688672 0.286694
Si Si6 0.177630 0.163317 0.667098
Si Si7 0.331191 0.788849 0.699718
Si Si8 0.683639 0.511383 0.043765
O O1 0.751183 0.937193 0.708812
O O2 0.720686 0.865767 0.929477
O O3 0.099912 0.787555 0.813123
O O4 0.650120 0.669170 0.968968
O O5 0.551398 0.883266 0.635570
O O6 0.371305 0.078951 0.634384
O O7 0.755143 0.131790 0.428848
O O8 0.800332 0.533027 0.370667
O O9 0.611541 0.337729 0.654433
O O10 0.000000 0.500000 0.500000
O O11 0.038286 0.280461 0.550594
O O12 0.184390 0.194638 0.884253
O O13 0.022175 0.948452 0.171075
O O14 0.500000 0.000000 0.000000
O O15 0.701021 0.749796 0.337847
O O16 0.402832 0.629061 0.785272
O O17 0.500000 0.500000 0.000000
O O18 0.000000 0.500000 0.000000
#
# Coordination Sequence:
#
# PCOD9011034 Si02
#       8
#     2   2   2   2   2   2   2   2
#     4  11  23  42  65  91 135 170 216 279 331 403
#     4  11  22  39  67  92 128 163 215 270 339 394
#     4   9  20  41  61  85 125 165 214 264 320 383
#     4  12  23  40  62  97 131 172 220 264 333 398
#     4  10  21  40  65  86 129 175 213 268 322 391
#     4  11  22  40  62  94 127 167 217 275 324 391
#     4  10  22  43  64  95 124 169 217 273 337 401
#     4  10  21  43  69  95 133 176 225 284 343 406
#
# _framework density 20.872453
#
# number of rings (size 3 to 8) (size 9 to 14) (size 15 to 20)
#    0.000    1.500    3.750    1.500    0.000    0.000 
#    6.750    2.500    0.000    0.000    0.000    0.000 
#    0.000    0.000    0.000    0.000    0.000    0.000 
#
# Total GULP energy -89180.832992 kJ/mol
# GULP energy per Si atom -5573.802062 kJ/mol
# Density = 2.082495 g / cm^3
# Si number density = 20.872453 Si / 1000 Ang^3
#
#
#
# Elastic Constant Matrix: (Units=GPa)
#
#
# Indices 1 2 3 4 5 6 
#
# 1 58.5449 25.2593 3.3066 -6.4547 -4.3507 3.6169
# 2 25.2593 56.4613 49.4750 -2.0141 -7.6496 3.4472
# 3 3.3066 49.4750 95.4466 -21.1519 6.5414 -5.1178
# 4 -6.4547 -2.0141 -21.1519 36.8429 0.2672 -0.2277
# 5 -4.3507 -7.6496 6.5414 0.2672 38.0485 -4.7643
# 6 3.6169 3.4472 -5.1178 -0.2277 -4.7643 35.6290
#
#
#
# Elastic Compliance Matrix: (Units=1/GPa)
#
#
# Indices 1 2 3 4 5 6 
#
# 1 0.029483 -0.028682 0.017305 0.013580 -0.005259 0.001651
# 2 -0.028682 0.069524 -0.042334 -0.025701 0.017185 -0.007762
# 3 0.017305 -0.042334 0.038038 0.022685 -0.012445 0.006284
# 4 0.013580 -0.025701 0.022685 0.041216 -0.007347 0.003647
# 5 -0.005259 0.017185 -0.012445 -0.007347 0.031483 0.001247
# 6 0.001651 -0.007762 0.006284 0.003647 0.001247 0.029743
#
#
# Mechanical properties :
#
#
# Convention : Reuss Voigt Hill
#
# Bulk Modulus (GPa) = 33.75820 40.72609 37.24215
# Shear Modulus (GPa) = 14.01412 30.93153 22.47282
#
# Velocity S-wave (km/s) = 2.59398 3.85376 3.28483
# Velocity P-wave (km/s) = 5.01800 6.27345 5.68052
#
# Compressibility (1/GPa) = 0.02962243
#
# Stress axis : x y z
#
# Youngs Moduli (GPa) = 33.91793 14.38361 26.28933
#
# Poissons Ratio (x) = 0.41255 -0.45492
# Poissons Ratio (y) = 0.97284 1.11292
# Poissons Ratio (z) = -0.58693 0.60891
#
# Static dielectric constant tensor:
#      x y z
#    x 1.837630 -0.047160 0.002550 
#    y -0.047160 1.756430 -0.010320 
#    z 0.002550 -0.010320 1.780970 
# 
# From -- ./inp_files/96908.got.cif
#   From: 2010.05.17/outbox.cif.g08.bks.cpg/sg2_49_cif.got.tgz:96908.got - 2010.06.03 11:33:40.
