data_PCOD9011574
_publ_section_title
;
Structure prediction by ZEFSAII (Michael W. Deem and Ramdas Pophale) SiO2 
 PCOD9011574
Probable space group: P -1
;
_chemical_formula_sum "Si O2"
_cell_formula_units_Z 16
_cell_length_a 22.652452
_cell_length_b 9.211815
_cell_length_c 4.911024
_cell_angle_alpha 111.827019
_cell_angle_beta 129.711447
_cell_angle_gamma 57.458482
_cell_volume 663.945067
_symmetry_space_group_name_H-M "P -1"
_symmetry_group_IT_number 2
_symmetry_cell_setting 'triclinic'
loop_
_space_group_symop_operation_xyz
x,y,z
-x,-y,-z
loop_
_atom_site_type_symbol
_atom_site_label
_atom_site_fract_x
_atom_site_fract_y
_atom_site_fract_z
Si Si1 0.303528 0.088154 0.201279
Si Si2 0.162984 0.808452 0.247363
Si Si3 0.933543 0.183926 0.535872
Si Si4 0.581034 0.291119 0.878126
Si Si5 0.922572 0.518503 0.478312
Si Si6 0.609435 0.476951 0.582301
Si Si7 0.804062 0.873425 0.583795
Si Si8 0.257436 0.447821 0.258913
O O1 0.232415 0.079480 0.188836
O O2 0.308722 0.265555 0.429968
O O3 0.379233 0.901370 0.260680
O O4 0.269266 0.135954 0.826184
O O5 0.082502 0.831612 0.206930
O O6 0.233447 0.633506 0.456701
O O7 0.178032 0.978128 0.406339
O O8 0.148135 0.783420 0.869142
O O9 0.950845 0.347864 0.626231
O O10 0.000000 0.000000 0.500000
O O11 0.599731 0.414701 0.808184
O O12 0.479788 0.368069 0.656131
O O13 0.618110 0.318375 0.294999
O O14 0.884740 0.692234 0.667451
O O15 0.000000 0.500000 0.500000
O O16 0.837557 0.536221 0.074901
O O17 0.683537 0.537542 0.798102
#
# Coordination Sequence:
#
# PCOD9011574 Si02
#       8
#     2   2   2   2   2   2   2   2
#     4  11  22  38  61  92 127 159 201 246 308 366
#     4  11  22  39  61  85 115 154 203 248 306 364
#     4  11  23  40  60  85 114 151 203 258 308 359
#     4  10  21  40  66  96 125 162 200 250 304 373
#     4  10  23  43  63  89 126 166 211 259 310 362
#     4  10  22  40  65  94 127 161 205 248 305 367
#     4  11  23  40  63  90 122 162 203 254 309 364
#     4  10  23  40  62  91 124 164 204 255 306 363
#
# _framework density 24.098379000000001
#
# number of rings (size 3 to 8) (size 9 to 14) (size 15 to 20)
#    0.000    1.500    0.000    4.875    0.000    7.500 
#    0.000    5.625    0.000    8.250    0.000    0.000 
#    0.000    0.000    0.000    0.000    0.000    0.000 
#
# Total GULP energy -89353.329099 kJ/mol
# GULP energy per Si atom -5584.583069 kJ/mol
# Density = 2.404353 g / cm^3
# Si number density = 24.098379 Si / 1000 Ang^3
#
#
#
# Elastic Constant Matrix: (Units=GPa)
#
#
# Indices 1 2 3 4 5 6 
#
# 1 146.1390 55.7849 21.5074 2.9968 8.1501 -2.9525
# 2 55.7849 223.9695 -3.3735 9.9147 13.0443 -10.6161
# 3 21.5074 -3.3735 65.0922 -3.5108 -0.2038 -6.0909
# 4 2.9968 9.9147 -3.5108 19.5084 -4.3299 1.0565
# 5 8.1501 13.0443 -0.2038 -4.3299 40.2296 -1.9991
# 6 -2.9525 -10.6161 -6.0909 1.0565 -1.9991 44.7893
#
#
#
# Elastic Compliance Matrix: (Units=1/GPa)
#
#
# Indices 1 2 3 4 5 6 
#
# 1 0.008091 -0.001965 -0.002865 -0.000995 -0.001141 -0.000349
# 2 -0.001965 0.005229 0.000890 -0.002597 -0.001512 0.001225
# 3 -0.002865 0.000890 0.016735 0.003059 0.000818 0.002262
# 4 -0.000995 -0.002597 0.003059 0.054883 0.006904 -0.001252
# 5 -0.001141 -0.001512 0.000818 0.006904 0.026360 0.000691
# 6 -0.000349 0.001225 0.002262 -0.001252 0.000691 0.022962
#
#
# Mechanical properties :
#
#
# Convention : Reuss Voigt Hill
#
# Bulk Modulus (GPa) = 45.09565 64.78203 54.93884
# Shear Modulus (GPa) = 33.43767 44.99093 39.21430
#
# Velocity S-wave (km/s) = 3.72902 4.32553 4.03831
# Velocity P-wave (km/s) = 6.10693 7.20331 6.67766
#
# Compressibility (1/GPa) = 0.02217509
#
# Stress axis : x y z
#
# Youngs Moduli (GPa) = 123.58824 191.25292 59.75539
#
# Poissons Ratio (x) = 0.37573 0.17121
# Poissons Ratio (y) = 0.24280 -0.05318
# Poissons Ratio (z) = 0.35411 -0.17019
#
# Static dielectric constant tensor:
#      x y z
#    x 1.887700 -0.027170 0.027790 
#    y -0.027170 2.035490 0.041470 
#    z 0.027790 0.041470 2.037960 
# 
# From -- ./inp_files/117294.got.cif
#   From: 2010.05.17/outbox.cif.g08.bks.cpg/sg2_59_cif.got.tgz:117294.got - 2010.06.03 11:33:40.
