data_PCOD9011501
_publ_section_title
;
Structure prediction by ZEFSAII (Michael W. Deem and Ramdas Pophale) SiO2 
 PCOD9011501
Probable space group: P -1
;
_chemical_formula_sum "Si O2"
_cell_formula_units_Z 8
_cell_length_a 7.546597
_cell_length_b 5.157548
_cell_length_c 9.174970
_cell_angle_alpha 89.999485
_cell_angle_beta 109.920048
_cell_angle_gamma 115.316237
_cell_volume 299.005177
_symmetry_space_group_name_H-M "P -1"
_symmetry_group_IT_number 2
_symmetry_cell_setting 'triclinic'
loop_
_space_group_symop_operation_xyz
x,y,z
-x,-y,-z
loop_
_atom_site_type_symbol
_atom_site_label
_atom_site_fract_x
_atom_site_fract_y
_atom_site_fract_z
Si Si1 0.037838 0.972401 0.836609
Si Si2 0.598253 0.675578 0.766200
Si Si3 0.250561 0.714447 0.038256
Si Si4 0.879621 0.672776 0.406699
O O1 0.098721 0.259795 0.761372
O O2 0.802968 0.736898 0.724052
O O3 0.219718 0.867851 0.882824
O O4 0.000000 0.000000 0.000000
O O5 0.624877 0.473996 0.901211
O O6 0.369422 0.501563 0.635086
O O7 0.639338 0.000035 0.825817
O O8 0.000000 0.500000 0.000000
O O9 0.000000 0.500000 0.500000
O O10 0.000000 0.000000 0.500000
#
# Coordination Sequence:
#
# PCOD9011501 Si02
#       4
#     2   2   2   2
#     4   9  22  43  70  98 128 167 222 274 326 392
#     4  10  21  40  66  93 131 171 211 271 329 378
#     4   9  18  36  66  99 122 157 216 273 323 379
#     4  12  28  44  63  97 137 177 221 265 323 396
#
# _framework density 26.755389999999998
#
# number of rings (size 3 to 8) (size 9 to 14) (size 15 to 20)
#    0.000    2.000    0.000    3.750    0.000   19.000 
#    0.000    0.000    0.000    0.000    0.000    0.000 
#    0.000    0.000    0.000    0.000    0.000    0.000 
#
# Total GULP energy -44636.744545 kJ/mol
# GULP energy per Si atom -5579.593068 kJ/mol
# Density = 2.669449 g / cm^3
# Si number density = 26.755390 Si / 1000 Ang^3
#
#
#
# Elastic Constant Matrix: (Units=GPa)
#
#
# Indices 1 2 3 4 5 6 
#
# 1 41.4907 26.5426 27.0981 8.7927 20.1662 -14.9275
# 2 26.5426 187.0613 49.0719 11.8517 21.1346 -36.7083
# 3 27.0981 49.0719 126.9114 -2.2019 29.6666 -9.7995
# 4 8.7927 11.8517 -2.2019 71.5586 3.6112 20.0447
# 5 20.1662 21.1346 29.6666 3.6112 52.9220 -3.8351
# 6 -14.9275 -36.7083 -9.7995 20.0447 -3.8351 58.0169
#
#
#
# Elastic Compliance Matrix: (Units=1/GPa)
#
#
# Indices 1 2 3 4 5 6 
#
# 1 0.037775 -0.000444 -0.004811 -0.007111 -0.010281 0.010403
# 2 -0.000444 0.007196 -0.002123 -0.002521 -0.000988 0.004886
# 3 -0.004811 -0.002123 0.010428 0.001914 -0.003419 -0.001707
# 4 -0.007111 -0.002521 0.001914 0.017871 0.000755 -0.009226
# 5 -0.010281 -0.000988 -0.003419 0.000755 0.024895 -0.002463
# 6 0.010403 0.004886 -0.001707 -0.009226 -0.002463 0.025741
#
#
# Mechanical properties :
#
#
# Convention : Reuss Voigt Hill
#
# Bulk Modulus (GPa) = 24.60473 62.32096 43.46285
# Shear Modulus (GPa) = 32.84957 53.34955 43.09956
#
# Velocity S-wave (km/s) = 3.50776 4.47024 4.01792
# Velocity P-wave (km/s) = 5.06182 7.07018 6.14856
#
# Compressibility (1/GPa) = 0.04064259
#
# Stress axis : x y z
#
# Youngs Moduli (GPa) = 26.47280 138.96588 95.89353
#
# Poissons Ratio (x) = 0.06176 0.46131
# Poissons Ratio (y) = 0.01177 0.20358
# Poissons Ratio (z) = 0.12735 0.29503
#
# Static dielectric constant tensor:
#      x y z
#    x -12.487390 -6.958190 22.274740 
#    y -6.958190 -1.027750 10.484820 
#    z 22.274740 10.484820 -31.612660 
# 
# From -- ./inp_files/371707.got.cif
#   From: 2010.05.17/outbox.cif.g08.bks.cpg/sg2_186_cif.got.tgz:371707.got - 2010.06.03 11:33:40.
