data_PCOD9011794
_publ_section_title
;
Structure prediction by ZEFSAII (Michael W. Deem and Ramdas Pophale) SiO2 
 PCOD9011794
Probable space group: P -1
;
_chemical_formula_sum "Si O2"
_cell_formula_units_Z 14
_cell_length_a 6.816696
_cell_length_b 8.642077
_cell_length_c 19.248745
_cell_angle_alpha 131.346738
_cell_angle_beta 118.768797
_cell_angle_gamma 95.859444
_cell_volume 574.438154
_symmetry_space_group_name_H-M "P -1"
_symmetry_group_IT_number 2
_symmetry_cell_setting 'triclinic'
loop_
_space_group_symop_operation_xyz
x,y,z
-x,-y,-z
loop_
_atom_site_type_symbol
_atom_site_label
_atom_site_fract_x
_atom_site_fract_y
_atom_site_fract_z
Si Si1 0.903376 0.234047 0.488925
Si Si2 0.829227 0.391940 0.778074
Si Si3 0.949921 0.869175 0.876141
Si Si4 0.449918 0.669699 0.937217
Si Si5 0.664996 0.357605 0.892763
Si Si6 0.565261 0.188481 0.292064
Si Si7 0.032307 0.842855 0.369655
O O1 0.678011 0.234558 0.404472
O O2 0.834386 0.132342 0.525986
O O3 0.193449 0.543402 0.628127
O O4 0.983640 0.057306 0.417027
O O5 0.181408 0.605631 0.915385
O O6 0.790649 0.558498 0.768388
O O7 0.647094 0.321592 0.794761
O O8 0.792765 0.152833 0.663211
O O9 0.745313 0.890796 0.800028
O O10 0.000000 0.000000 0.000000
O O11 0.272400 0.033133 0.947850
O O12 0.585501 0.540870 0.953273
O O13 0.267600 0.466864 0.780608
O O14 0.465088 0.069620 0.809008
O O15 0.000000 0.500000 0.000000
#
# Coordination Sequence:
#
# PCOD9011794 Si02
#       7
#     2   2   2   2   2   2   2
#     4  10  21  43  66  95 128 175 220 268 325 370
#     4  10  24  40  66  99 125 173 219 255 331 392
#     4  12  21  40  65  99 130 166 214 270 325 390
#     4  10  21  40  67  93 128 166 210 268 324 381
#     4  12  22  43  65  98 133 167 212 269 330 391
#     4  11  23  37  66  94 129 170 212 266 326 381
#     4   9  21  42  69  90 123 175 221 260 315 388
#
# _framework density 24.371641
#
# number of rings (size 3 to 8) (size 9 to 14) (size 15 to 20)
#    0.857    0.571    4.286    1.286    0.000    0.571 
#    0.000    7.143    0.000    0.000    0.000    0.000 
#    0.000    0.000    0.000    0.000    0.000    0.000 
#
# Total GULP energy -78162.310444 kJ/mol
# GULP energy per Si atom -5583.022175 kJ/mol
# Density = 2.431617 g / cm^3
# Si number density = 24.371641 Si / 1000 Ang^3
#
#
#
# Elastic Constant Matrix: (Units=GPa)
#
#
# Indices 1 2 3 4 5 6 
#
# 1 90.4271 40.9994 8.6266 -8.3334 7.8181 7.3532
# 2 40.9994 116.8854 30.7123 1.3549 7.4312 -14.1452
# 3 8.6266 30.7123 68.8387 -5.2107 13.2366 0.4232
# 4 -8.3334 1.3549 -5.2107 60.4036 -3.5294 9.5550
# 5 7.8181 7.4312 13.2366 -3.5294 44.2980 -7.5464
# 6 7.3532 -14.1452 0.4232 9.5550 -7.5464 30.2965
#
#
#
# Elastic Compliance Matrix: (Units=1/GPa)
#
#
# Indices 1 2 3 4 5 6 
#
# 1 0.015318 -0.006839 0.002122 0.003665 -0.003423 -0.008949
# 2 -0.006839 0.013567 -0.005892 -0.003151 0.002074 0.009587
# 3 0.002122 -0.005892 0.018195 0.002573 -0.005593 -0.005725
# 4 0.003665 -0.003151 0.002573 0.018647 -0.000848 -0.008489
# 5 -0.003423 0.002074 -0.005593 -0.000848 0.025899 0.008595
# 6 -0.008949 0.009587 -0.005725 -0.008489 0.008595 0.044553
#
#
# Mechanical properties :
#
#
# Convention : Reuss Voigt Hill
#
# Bulk Modulus (GPa) = 38.66541 48.53643 43.60092
# Shear Modulus (GPa) = 30.11727 40.05382 35.08554
#
# Velocity S-wave (km/s) = 3.51914 4.05836 3.79833
# Velocity P-wave (km/s) = 5.69314 6.47447 6.09633
#
# Compressibility (1/GPa) = 0.02586291
#
# Stress axis : x y z
#
# Youngs Moduli (GPa) = 65.28194 73.70722 54.96003
#
# Poissons Ratio (x) = 0.50405 -0.11662
# Poissons Ratio (y) = 0.44643 0.32384
# Poissons Ratio (z) = -0.13853 0.43430
#
# Static dielectric constant tensor:
#      x y z
#    x 1.899350 0.004790 0.021670 
#    y 0.004790 1.961770 -0.054650 
#    z 0.021670 -0.054650 2.051810 
# 
# From -- ./inp_files/579816.got.cif
#   From: 2010.05.17/outbox.cif.g08.bks.cpg/sg2_290_cif.got.tgz:579816.got - 2010.06.03 11:33:40.
