data_PCOD9011256
_publ_section_title
;
Structure prediction by ZEFSAII (Michael W. Deem and Ramdas Pophale) SiO2 
 PCOD9011256
Probable space group: P -1
;
_chemical_formula_sum "Si O2"
_cell_formula_units_Z 14
_cell_length_a 5.248966
_cell_length_b 23.074198
_cell_length_c 5.426198
_cell_angle_alpha 99.350084
_cell_angle_beta 120.907287
_cell_angle_gamma 76.514301
_cell_volume 547.610299
_symmetry_space_group_name_H-M "P -1"
_symmetry_group_IT_number 2
_symmetry_cell_setting 'triclinic'
loop_
_space_group_symop_operation_xyz
x,y,z
-x,-y,-z
loop_
_atom_site_type_symbol
_atom_site_label
_atom_site_fract_x
_atom_site_fract_y
_atom_site_fract_z
Si Si1 0.913167 0.069551 0.548328
Si Si2 0.657350 0.679908 0.011834
Si Si3 0.386066 0.568826 0.745605
Si Si4 0.698743 0.276942 0.636442
Si Si5 0.202157 0.550167 0.136097
Si Si6 0.705440 0.861435 0.524486
Si Si7 0.863266 0.831910 0.082715
O O1 0.013714 0.105626 0.387646
O O2 0.111380 0.098044 0.868081
O O3 0.575978 0.090635 0.490410
O O4 0.000000 0.000000 0.500000
O O5 0.644173 0.609142 0.922440
O O6 0.460100 0.709479 0.698887
O O7 0.982614 0.698891 0.177072
O O8 0.508576 0.697188 0.217506
O O9 0.215472 0.584413 0.418283
O O10 0.469174 0.496304 0.736471
O O11 0.186930 0.584616 0.898075
O O12 0.823023 0.207038 0.700611
O O13 0.000000 0.500000 0.000000
O O14 0.648333 0.830794 0.212091
O O15 0.789512 0.815700 0.759613
#
# Coordination Sequence:
#
# PCOD9011256 Si02
#       7
#     2   2   2   2   2   2   2
#     4  10  24  42  66 100 134 175 220 281 345 415
#     4  12  28  47  74 107 142 190 239 301 350 423
#     4  10  23  39  63  97 132 176 228 279 347 410
#     4  12  28  48  74 104 142 190 243 297 359 415
#     4  10  21  40  65  95 131 176 221 279 344 420
#     4  10  24  39  67  95 132 175 218 280 336 420
#     4  10  26  42  71  94 136 176 231 283 345 417
#
# _framework density 25.565622000000001
#
# number of rings (size 3 to 8) (size 9 to 14) (size 15 to 20)
#    0.857    0.571    0.000    3.429   10.000    1.143 
#    0.000    0.000    0.000    0.000    0.000    0.000 
#    0.000    0.000    0.000    0.000    0.000    0.000 
#
# Total GULP energy -78170.330539 kJ/mol
# GULP energy per Si atom -5583.595038 kJ/mol
# Density = 2.550743 g / cm^3
# Si number density = 25.565622 Si / 1000 Ang^3
#
#
#
# Elastic Constant Matrix: (Units=GPa)
#
#
# Indices 1 2 3 4 5 6 
#
# 1 154.1205 13.3607 63.2703 5.9120 -32.1287 0.9237
# 2 13.3607 94.8697 -0.5634 12.2823 -11.1206 -3.6010
# 3 63.2703 -0.5634 164.0808 -1.0891 -34.9808 -1.6146
# 4 5.9120 12.2823 -1.0891 27.1306 5.3630 9.4686
# 5 -32.1287 -11.1206 -34.9808 5.3630 52.0122 7.9463
# 6 0.9237 -3.6010 -1.6146 9.4686 7.9463 37.4805
#
#
#
# Elastic Compliance Matrix: (Units=1/GPa)
#
#
# Indices 1 2 3 4 5 6 
#
# 1 0.008417 -0.000491 -0.002467 -0.002248 0.003757 -0.000590
# 2 -0.000491 0.011936 0.000889 -0.006661 0.003197 0.002202
# 3 -0.002467 0.000889 0.007909 -0.000241 0.004058 -0.000313
# 4 -0.002248 -0.006661 -0.000241 0.045298 -0.006000 -0.010766
# 5 0.003757 0.003197 0.004058 -0.006000 0.026134 -0.003635
# 6 -0.000590 0.002202 -0.000313 -0.010766 -0.003635 0.030384
#
#
# Mechanical properties :
#
#
# Convention : Reuss Voigt Hill
#
# Bulk Modulus (GPa) = 41.45093 62.80069 52.12581
# Shear Modulus (GPa) = 35.14766 45.79154 40.46960
#
# Velocity S-wave (km/s) = 3.71185 4.23677 3.98297
# Velocity P-wave (km/s) = 5.88381 6.96789 6.44867
#
# Compressibility (1/GPa) = 0.02412491
#
# Stress axis : x y z
#
# Youngs Moduli (GPa) = 118.81190 83.78014 126.43143
#
# Poissons Ratio (x) = 0.04114 0.31191
# Poissons Ratio (y) = 0.05834 -0.11245
# Poissons Ratio (z) = 0.29311 -0.07451
#
# Static dielectric constant tensor:
#      x y z
#    x 2.331000 0.009180 -0.277290 
#    y 0.009180 2.090820 -0.080000 
#    z -0.277290 -0.080000 2.466460 
# 
# From -- ./inp_files/12490.got.cif
#   From: 2010.05.17/outbox.cif.g08.bks.cpg/sg2_7_cif.got.tgz:12490.got - 2010.06.03 11:33:40.
