data_PCOD9011046
_publ_section_title
;
Structure prediction by ZEFSAII (Michael W. Deem and Ramdas Pophale) SiO2 
 PCOD9011046
Probable space group: P -1
;
_chemical_formula_sum "Si O2"
_cell_formula_units_Z 16
_cell_length_a 6.993462
_cell_length_b 7.424503
_cell_length_c 23.446377
_cell_angle_alpha 56.386653
_cell_angle_beta 38.383386
_cell_angle_gamma 57.950821
_cell_volume 618.411118
_symmetry_space_group_name_H-M "P -1"
_symmetry_group_IT_number 2
_symmetry_cell_setting 'triclinic'
loop_
_space_group_symop_operation_xyz
x,y,z
-x,-y,-z
loop_
_atom_site_type_symbol
_atom_site_label
_atom_site_fract_x
_atom_site_fract_y
_atom_site_fract_z
Si Si1 0.885626 0.567190 0.846212
Si Si2 0.746443 0.159795 0.017779
Si Si3 0.670499 0.427903 0.811012
Si Si4 0.973401 0.572435 0.373879
Si Si5 0.241873 0.131677 0.019944
Si Si6 0.377081 0.142429 0.411850
Si Si7 0.626517 0.243965 0.451779
Si Si8 0.700332 0.167546 0.230099
O O1 0.847735 0.382975 0.933687
O O2 0.912491 0.437468 0.803435
O O3 0.165976 0.672123 0.785120
O O4 0.571934 0.756494 0.886029
O O5 0.535567 0.105005 0.012718
O O6 0.976410 0.918623 0.979984
O O7 0.377672 0.335791 0.923142
O O8 0.560386 0.677746 0.772804
O O9 0.810473 0.312619 0.739703
O O10 0.769119 0.452477 0.399464
O O11 0.730445 0.715784 0.447748
O O12 0.171412 0.372834 0.399267
O O13 0.979160 0.095462 0.133704
O O14 0.609479 0.197860 0.397443
O O15 0.545002 0.026037 0.335864
O O16 0.204371 0.968922 0.515061
#
# Coordination Sequence:
#
# PCOD9011046 Si02
#       8
#     2   2   2   2   2   2   2   2
#     4  11  21  38  55  78 116 150 193 246 283 335
#     4  11  22  36  56  79 108 155 203 241 286 334
#     4  11  23  39  60  87 119 159 200 241 294 350
#     4  10  22  39  62  91 120 152 196 244 295 357
#     4  12  21  37  57  82 119 157 198 239 286 342
#     4  10  22  39  62  91 120 152 196 244 295 357
#     4  10  21  40  65  88 118 154 193 242 307 352
#     4  11  23  39  60  87 119 159 200 241 294 350
#
# _framework density 25.872755999999999
#
# number of rings (size 3 to 8) (size 9 to 14) (size 15 to 20)
#    0.000    1.250    2.500    4.125    1.750    0.000 
#    0.000    0.000    0.000   10.500    0.000    0.000 
#    0.000    0.000    0.000    0.000    0.000    0.000 
#
# Total GULP energy -89284.607127 kJ/mol
# GULP energy per Si atom -5580.287945 kJ/mol
# Density = 2.581387 g / cm^3
# Si number density = 25.872756 Si / 1000 Ang^3
#
#
#
# Elastic Constant Matrix: (Units=GPa)
#
#
# Indices 1 2 3 4 5 6 
#
# 1 116.5037 27.3418 33.7126 9.8005 27.5511 -4.3423
# 2 27.3418 70.0219 27.9605 9.7957 11.3483 -6.8127
# 3 33.7126 27.9605 143.7009 22.3868 44.3211 6.3316
# 4 9.8005 9.7957 22.3868 34.7367 3.8828 -3.0022
# 5 27.5511 11.3483 44.3211 3.8828 44.8780 0.6933
# 6 -4.3423 -6.8127 6.3316 -3.0022 0.6933 55.5390
#
#
#
# Elastic Compliance Matrix: (Units=1/GPa)
#
#
# Indices 1 2 3 4 5 6 
#
# 1 0.010796 -0.003043 0.000069 -0.001545 -0.005800 0.000452
# 2 -0.003043 0.016896 -0.002331 -0.002240 0.000060 0.001978
# 3 0.000069 -0.002331 0.011574 -0.005819 -0.010353 -0.001785
# 4 -0.001545 -0.002240 -0.005819 0.033293 0.004350 0.002013
# 5 -0.005800 0.000060 -0.010353 0.004350 0.035668 0.000524
# 6 0.000452 0.001978 -0.001785 0.002013 0.000524 0.018589
#
#
# Mechanical properties :
#
#
# Convention : Reuss Voigt Hill
#
# Bulk Modulus (GPa) = 34.89548 56.47294 45.68421
# Shear Modulus (GPa) = 34.01863 43.11150 38.56507
#
# Velocity S-wave (km/s) = 3.63001 4.08645 3.86497
# Velocity P-wave (km/s) = 5.57548 6.64379 6.13294
#
# Compressibility (1/GPa) = 0.02865701
#
# Stress axis : x y z
#
# Youngs Moduli (GPa) = 92.62736 59.18520 86.39772
#
# Poissons Ratio (x) = 0.18010 -0.00595
# Poissons Ratio (y) = 0.28187 0.20135
# Poissons Ratio (z) = -0.00638 0.13793
#
# Static dielectric constant tensor:
#      x y z
#    x 2.293940 -0.023810 0.020670 
#    y -0.023810 2.047360 0.043030 
#    z 0.020670 0.043030 2.034740 
# 
# From -- ./inp_files/606356.got.cif
#   From: 2010.05.17/outbox.cif.g08.bks.cpg/sg2_304_cif.got.tgz:606356.got - 2010.06.03 11:33:40.
