data_PCOD9011112
_publ_section_title
;
Structure prediction by ZEFSAII (Michael W. Deem and Ramdas Pophale) SiO2 
 PCOD9011112
Probable space group: P -1
;
_chemical_formula_sum "Si O2"
_cell_formula_units_Z 16
_cell_length_a 10.206487
_cell_length_b 12.879393
_cell_length_c 9.810451
_cell_angle_alpha 131.902254
_cell_angle_beta 137.362725
_cell_angle_gamma 64.539603
_cell_volume 645.309432
_symmetry_space_group_name_H-M "P -1"
_symmetry_group_IT_number 2
_symmetry_cell_setting 'triclinic'
loop_
_space_group_symop_operation_xyz
x,y,z
-x,-y,-z
loop_
_atom_site_type_symbol
_atom_site_label
_atom_site_fract_x
_atom_site_fract_y
_atom_site_fract_z
Si Si1 0.268514 0.256196 0.610334
Si Si2 0.767474 0.995694 0.803612
Si Si3 0.189338 0.734774 0.786608
Si Si4 0.104811 0.719036 0.206853
Si Si5 0.344419 0.455382 0.614216
Si Si6 0.414707 0.837634 0.773825
Si Si7 0.219630 0.208608 0.125093
Si Si8 0.752014 0.564762 0.982266
O O1 0.300594 0.095743 0.460884
O O2 0.396599 0.356998 0.691577
O O3 0.285947 0.326405 0.831768
O O4 0.041780 0.264648 0.404125
O O5 0.706103 0.900407 0.806467
O O6 0.729241 0.154443 0.938189
O O7 0.000000 0.000000 0.000000
O O8 0.240452 0.579073 0.706578
O O9 0.291911 0.787612 0.769509
O O10 0.271566 0.795343 0.499207
O O11 0.926246 0.642826 0.094714
O O12 0.178213 0.588772 0.067504
O O13 0.996234 0.829264 0.132890
O O14 0.209166 0.353608 0.323043
O O15 0.532209 0.514323 0.722521
O O16 0.612914 0.769944 0.840535
O O17 0.500000 0.000000 0.000000
#
# Coordination Sequence:
#
# PCOD9011112 Si02
#       8
#     2   2   2   2   2   2   2   2
#     4  10  21  40  65  91 135 175 218 275 329 392
#     4   9  21  41  65  89 129 177 222 269 323 396
#     4  11  21  40  64  93 129 176 223 266 338 384
#     4  11  25  41  68  99 137 171 219 279 331 394
#     4  11  23  38  68  99 131 174 224 273 329 397
#     4  12  24  43  67  95 139 175 219 274 324 404
#     4  11  23  43  68 100 129 177 222 269 337 390
#     4  11  22  41  63 101 138 168 218 281 333 388
#
# _framework density 24.794308000000001
#
# number of rings (size 3 to 8) (size 9 to 14) (size 15 to 20)
#    0.000    1.250    3.750    2.250    1.750    3.500 
#    0.000    1.875    0.000    0.000    0.000    0.000 
#    0.000    0.000    0.000    0.000    0.000    0.000 
#
# Total GULP energy -89410.033678 kJ/mol
# GULP energy per Si atom -5588.127105 kJ/mol
# Density = 2.473788 g / cm^3
# Si number density = 24.794308 Si / 1000 Ang^3
#
#
#
# Elastic Constant Matrix: (Units=GPa)
#
#
# Indices 1 2 3 4 5 6 
#
# 1 97.9923 7.3140 19.8679 15.0457 1.3050 -3.2400
# 2 7.3140 44.3989 33.4547 19.3623 -9.9065 -15.5016
# 3 19.8679 33.4547 127.3105 13.8473 -13.9181 -17.2790
# 4 15.0457 19.3623 13.8473 42.7691 -15.0366 2.9271
# 5 1.3050 -9.9065 -13.9181 -15.0366 52.4317 12.7976
# 6 -3.2400 -15.5016 -17.2790 2.9271 12.7976 34.8740
#
#
#
# Elastic Compliance Matrix: (Units=1/GPa)
#
#
# Indices 1 2 3 4 5 6 
#
# 1 0.011339 0.002082 -0.001654 -0.005453 -0.002511 0.002539
# 2 0.002082 0.041822 -0.007076 -0.020173 -0.004345 0.018565
# 3 -0.001654 -0.007076 0.010184 0.000893 0.001379 0.001166
# 4 -0.005453 -0.020173 0.000893 0.039499 0.011975 -0.016741
# 5 -0.002511 -0.004345 0.001379 0.011975 0.024957 -0.011645
# 6 0.002539 0.018565 0.001166 -0.016741 -0.011645 0.043419
#
#
# Mechanical properties :
#
#
# Convention : Reuss Voigt Hill
#
# Bulk Modulus (GPa) = 19.97985 43.44167 31.71076
# Shear Modulus (GPa) = 24.85114 39.95263 32.40189
#
# Velocity S-wave (km/s) = 3.16933 4.01853 3.61893
# Velocity P-wave (km/s) = 4.63343 6.25223 5.50268
#
# Compressibility (1/GPa) = 0.05005043
#
# Stress axis : x y z
#
# Youngs Moduli (GPa) = 88.18827 23.91106 98.19124
#
# Poissons Ratio (x) = -0.04979 0.16237
# Poissons Ratio (y) = -0.18362 0.69480
# Poissons Ratio (z) = 0.14583 0.16919
#
# Static dielectric constant tensor:
#      x y z
#    x 1.991780 0.058470 -0.025310 
#    y 0.058470 2.050830 0.011630 
#    z -0.025310 0.011630 1.993570 
# 
# From -- ./inp_files/434338.got.cif
#   From: 2010.05.17/outbox.cif.g08.bks.cpg/sg2_218_cif.got.tgz:434338.got - 2010.06.03 11:33:40.
