data_PCOD9011392
_publ_section_title
;
Structure prediction by ZEFSAII (Michael W. Deem and Ramdas Pophale) SiO2 
 PCOD9011392
Probable space group: P -1
;
_chemical_formula_sum "Si O2"
_cell_formula_units_Z 16
_cell_length_a 23.119740
_cell_length_b 8.609356
_cell_length_c 20.570790
_cell_angle_alpha 44.431124
_cell_angle_beta 161.649472
_cell_angle_gamma 145.766645
_cell_volume 665.052055
_symmetry_space_group_name_H-M "P -1"
_symmetry_group_IT_number 2
_symmetry_cell_setting 'triclinic'
loop_
_space_group_symop_operation_xyz
x,y,z
-x,-y,-z
loop_
_atom_site_type_symbol
_atom_site_label
_atom_site_fract_x
_atom_site_fract_y
_atom_site_fract_z
Si Si1 0.592701 0.659257 0.298709
Si Si2 0.274246 0.740113 0.693235
Si Si3 0.286886 0.008956 0.164891
Si Si4 0.252721 0.922234 0.339227
Si Si5 0.968905 0.294436 0.269380
Si Si6 0.564016 0.007093 0.809749
Si Si7 0.398876 0.134782 0.889728
Si Si8 0.170804 0.359014 0.140170
O O1 0.364067 0.318851 0.179891
O O2 0.595449 0.688536 0.214818
O O3 0.836407 0.712358 0.554012
O O4 0.619251 0.923960 0.278600
O O5 0.000000 0.500000 0.500000
O O6 0.307105 0.737804 0.652007
O O7 0.419270 0.680782 0.910429
O O8 0.480000 0.985628 0.408920
O O9 0.355213 0.063479 0.145481
O O10 0.992802 0.733461 0.942277
O O11 0.104332 0.642757 0.314726
O O12 0.273813 0.195271 0.298728
O O13 0.059008 0.780502 0.114181
O O14 0.859745 0.123739 0.272342
O O15 0.750202 0.131509 0.031950
O O16 0.609716 0.293816 0.747118
O O17 0.500000 0.000000 0.000000
#
# Coordination Sequence:
#
# PCOD9011392 Si02
#       8
#     2   2   2   2   2   2   2   2
#     4  10  22  38  62  92 113 163 209 250 307 366
#     4  10  23  42  62  87 127 163 203 254 313 367
#     4  11  23  39  63  97 127 159 210 255 304 373
#     4   9  21  37  63  94 118 166 209 253 304 372
#     4   9  19  38  59  87 126 155 203 259 305 369
#     4  10  23  42  58  92 129 160 201 254 312 370
#     4   9  19  34  60  85 118 156 205 252 299 364
#     4  10  21  40  66  87 129 165 204 254 314 359
#
# _framework density 24.058264999999999
#
# number of rings (size 3 to 8) (size 9 to 14) (size 15 to 20)
#    0.000    2.250    0.000    1.125    8.750    6.500 
#    2.250    2.500    0.000    0.000    0.000    0.000 
#    0.000    0.000    0.000    0.000    0.000    0.000 
#
# Total GULP energy -89294.342349 kJ/mol
# GULP energy per Si atom -5580.896397 kJ/mol
# Density = 2.400351 g / cm^3
# Si number density = 24.058265 Si / 1000 Ang^3
#
#
#
# Elastic Constant Matrix: (Units=GPa)
#
#
# Indices 1 2 3 4 5 6 
#
# 1 94.8477 6.1010 3.0308 1.9210 1.6217 23.8028
# 2 6.1010 62.4607 16.5341 -12.3918 -5.6723 4.6387
# 3 3.0308 16.5341 53.1876 -4.4004 4.9969 11.2908
# 4 1.9210 -12.3918 -4.4004 25.6938 2.8639 6.6336
# 5 1.6217 -5.6723 4.9969 2.8639 25.1585 4.5833
# 6 23.8028 4.6387 11.2908 6.6336 4.5833 38.3311
#
#
#
# Elastic Compliance Matrix: (Units=1/GPa)
#
#
# Indices 1 2 3 4 5 6 
#
# 1 0.012619 -0.000747 0.001360 0.001068 0.000147 -0.008349
# 2 -0.000747 0.019894 -0.005357 0.008814 0.005049 -0.002494
# 3 0.001360 -0.005357 0.022602 0.003509 -0.004932 -0.006871
# 4 0.001068 0.008814 0.003509 0.046665 -0.002163 -0.010581
# 5 0.000147 0.005049 -0.004932 -0.002163 0.042831 -0.003997
# 6 -0.008349 -0.002494 -0.006871 -0.010581 -0.003997 0.035908
#
#
# Mechanical properties :
#
#
# Convention : Reuss Voigt Hill
#
# Bulk Modulus (GPa) = 21.91771 29.09196 25.50483
# Shear Modulus (GPa) = 24.36475 30.15868 27.26172
#
# Velocity S-wave (km/s) = 3.18581 3.54442 3.36989
# Velocity P-wave (km/s) = 4.76052 5.37300 5.07600
#
# Compressibility (1/GPa) = 0.04562521
#
# Stress axis : x y z
#
# Youngs Moduli (GPa) = 79.24653 50.26745 44.24463
#
# Poissons Ratio (x) = 0.03756 -0.06017
# Poissons Ratio (y) = 0.05922 0.23703
# Poissons Ratio (z) = -0.10778 0.26929
#
# Static dielectric constant tensor:
#      x y z
#    x 2.005380 -0.000050 0.010700 
#    y -0.000050 1.947750 0.046470 
#    z 0.010700 0.046470 2.012980 
# 
# From -- ./inp_files/222972.got.cif
#   From: 2010.05.17/outbox.cif.g08.bks.cpg/sg2_112_cif.got.tgz:222972.got - 2010.06.03 11:33:40.
