data_PCOD9011935
_publ_section_title
;
Structure prediction by ZEFSAII (Michael W. Deem and Ramdas Pophale) SiO2 
 PCOD9011935
Probable space group: P -1
;
_chemical_formula_sum "Si O2"
_cell_formula_units_Z 16
_cell_length_a 10.456125
_cell_length_b 9.470552
_cell_length_c 12.757372
_cell_angle_alpha 125.981363
_cell_angle_beta 111.420606
_cell_angle_gamma 111.050422
_cell_volume 616.666016
_symmetry_space_group_name_H-M "P -1"
_symmetry_group_IT_number 2
_symmetry_cell_setting 'triclinic'
loop_
_space_group_symop_operation_xyz
x,y,z
-x,-y,-z
loop_
_atom_site_type_symbol
_atom_site_label
_atom_site_fract_x
_atom_site_fract_y
_atom_site_fract_z
Si Si1 0.553445 0.751114 0.142206
Si Si2 0.758541 0.228764 0.324722
Si Si3 0.913441 0.982970 0.079349
Si Si4 0.452577 0.633931 0.724095
Si Si5 0.171536 0.068220 0.505018
Si Si6 0.870148 0.473247 0.070433
Si Si7 0.159533 0.461136 0.134294
Si Si8 0.680066 0.406047 0.540834
O O1 0.690029 0.220252 0.418865
O O2 0.647408 0.838878 0.325607
O O3 0.500000 0.500000 0.000000
O O4 0.347284 0.663211 0.008687
O O5 0.725211 0.990905 0.216738
O O6 0.635791 0.256099 0.232816
O O7 0.000000 0.500000 0.500000
O O8 0.962935 0.376066 0.091173
O O9 0.681079 0.830837 0.926712
O O10 0.890721 0.773578 0.035908
O O11 0.481567 0.659018 0.616179
O O12 0.289563 0.328545 0.582786
O O13 0.049134 0.791426 0.289615
O O14 0.000000 0.000000 0.500000
O O15 0.800542 0.383732 0.888034
O O16 0.327734 0.596911 0.337585
O O17 0.902183 0.707156 0.700765
O O18 0.000000 0.000000 0.000000
#
# Coordination Sequence:
#
# PCOD9011935 Si02
#       8
#     2   2   2   2   2   2   2   2
#     4  12  26  46  75 105 146 195 246 305 374 446
#     4  10  24  45  70 105 149 189 248 305 363 433
#     4  10  21  40  67  99 140 189 241 293 369 430
#     4  10  24  42  70 105 144 192 247 301 370 441
#     4  12  24  46  74 105 145 197 248 308 373 438
#     4  11  25  45  71 105 149 188 251 296 371 439
#     4  10  22  42  70 102 143 194 232 309 350 441
#     4   9  22  43  69  98 152 185 243 299 368 435
#
# _framework density 25.945975000000001
#
# number of rings (size 3 to 8) (size 9 to 14) (size 15 to 20)
#    0.750    0.750    1.250    3.000    3.500    3.000 
#    0.000   18.750    0.000    0.000    0.000    0.000 
#    0.000    0.000    0.000    0.000    0.000    0.000 
#
# Total GULP energy -89310.841620 kJ/mol
# GULP energy per Si atom -5581.927601 kJ/mol
# Density = 2.588692 g / cm^3
# Si number density = 25.945975 Si / 1000 Ang^3
#
#
#
# Elastic Constant Matrix: (Units=GPa)
#
#
# Indices 1 2 3 4 5 6 
#
# 1 77.1930 20.2048 14.9203 3.7490 6.0277 -29.9846
# 2 20.2048 124.8742 50.2463 -1.6235 0.1738 -26.6407
# 3 14.9203 50.2463 137.6920 -7.0844 -4.4434 -12.4323
# 4 3.7490 -1.6235 -7.0844 49.6517 3.5082 -4.0656
# 5 6.0277 0.1738 -4.4434 3.5082 33.7116 -3.6229
# 6 -29.9846 -26.6407 -12.4323 -4.0656 -3.6229 42.4103
#
#
#
# Elastic Compliance Matrix: (Units=1/GPa)
#
#
# Indices 1 2 3 4 5 6 
#
# 1 0.018091 0.000096 -0.000961 -0.000346 -0.001997 0.012365
# 2 0.000096 0.010565 -0.003326 0.000331 0.000075 0.005768
# 3 -0.000961 -0.003326 0.008676 0.001115 0.001215 -0.000015
# 4 -0.000346 0.000331 0.001115 0.020631 -0.001712 0.002121
# 5 -0.001997 0.000075 0.001215 -0.001712 0.030512 0.001434
# 6 0.012365 0.005768 -0.000015 0.002121 0.001434 0.036266
#
#
# Mechanical properties :
#
#
# Convention : Reuss Voigt Hill
#
# Bulk Modulus (GPa) = 34.54202 56.72244 45.63223
# Shear Modulus (GPa) = 35.02045 42.11391 38.56718
#
# Velocity S-wave (km/s) = 3.67787 4.03319 3.85962
# Velocity P-wave (km/s) = 5.60157 6.60288 6.12273
#
# Compressibility (1/GPa) = 0.02895025
#
# Stress axis : x y z
#
# Youngs Moduli (GPa) = 55.27572 94.64840 115.26648
#
# Poissons Ratio (x) = -0.00907 0.11078
# Poissons Ratio (y) = -0.00530 0.38334
# Poissons Ratio (z) = 0.05313 0.31477
#
# Static dielectric constant tensor:
#      x y z
#    x 2.403960 -0.037550 -0.150590 
#    y -0.037550 2.190960 0.122130 
#    z -0.150590 0.122130 2.132580 
# 
# From -- ./inp_files/447868.got.cif
#   From: 2010.05.17/outbox.cif.g08.bks.cpg/sg2_224_cif.got.tgz:447868.got - 2010.06.03 11:33:40.
