data_PCOD9011440
_publ_section_title
;
Structure prediction by ZEFSAII (Michael W. Deem and Ramdas Pophale) SiO2 
 PCOD9011440
Probable space group: P -1
;
_chemical_formula_sum "Si O2"
_cell_formula_units_Z 16
_cell_length_a 16.716727
_cell_length_b 12.524803
_cell_length_c 22.838201
_cell_angle_alpha 28.353093
_cell_angle_beta 20.407015
_cell_angle_gamma 39.218010
_cell_volume 754.768773
_symmetry_space_group_name_H-M "P -1"
_symmetry_group_IT_number 2
_symmetry_cell_setting 'triclinic'
loop_
_space_group_symop_operation_xyz
x,y,z
-x,-y,-z
loop_
_atom_site_type_symbol
_atom_site_label
_atom_site_fract_x
_atom_site_fract_y
_atom_site_fract_z
Si Si1 0.416241 0.563696 0.411192
Si Si2 0.890792 0.969032 0.405246
Si Si3 0.400874 0.074063 0.701102
Si Si4 0.201857 0.018103 0.986696
Si Si5 0.100893 0.350008 0.547013
Si Si6 0.802982 0.543113 0.070572
Si Si7 0.715951 0.144088 0.239906
Si Si8 0.282273 0.790033 0.282224
O O1 0.325920 0.318653 0.628668
O O2 0.565202 0.463273 0.310123
O O3 0.295355 0.717126 0.377171
O O4 0.589312 0.758564 0.240507
O O5 0.683288 0.084196 0.511329
O O6 0.795475 0.810128 0.489602
O O7 0.026144 0.840218 0.419689
O O8 0.115622 0.179846 0.126809
O O9 0.325987 0.923857 0.766007
O O10 0.267204 0.950602 0.910394
O O11 0.128885 0.802899 0.185301
O O12 0.953450 0.078825 0.125693
O O13 0.278358 0.545556 0.370873
O O14 0.000000 0.500000 0.500000
O O15 0.776473 0.412861 0.090002
O O16 0.000000 0.500000 0.000000
O O17 0.500000 0.000000 0.500000
O O18 0.500000 0.000000 0.000000
#
# Coordination Sequence:
#
# PCOD9011440 Si02
#       8
#     2   2   2   2   2   2   2   2
#     4  12  22  39  65  96 133 171 215 267 328 376
#     4  11  22  41  63  97 126 169 222 266 318 381
#     4  12  26  40  65  97 135 176 210 266 332 384
#     4  12  24  43  62  96 138 169 212 266 332 392
#     4  10  21  40  66  91 124 169 217 267 315 379
#     4  12  19  36  65  98 127 161 223 280 311 366
#     4  12  23  37  64  96 127 165 218 274 318 376
#     4  11  23  38  65  98 126 161 218 277 320 369
#
# _framework density 21.198544999999999
#
# number of rings (size 3 to 8) (size 9 to 14) (size 15 to 20)
#    0.000    0.500    6.250    3.000    1.750    0.000 
#    0.000    3.125    0.000    1.500    0.000    0.000 
#    0.000    0.000    0.000    0.000    0.000    0.000 
#
# Total GULP energy -89134.238307 kJ/mol
# GULP energy per Si atom -5570.889894 kJ/mol
# Density = 2.115030 g / cm^3
# Si number density = 21.198545 Si / 1000 Ang^3
#
#
#
# Elastic Constant Matrix: (Units=GPa)
#
#
# Indices 1 2 3 4 5 6 
#
# 1 133.0956 39.5066 14.3703 -3.3380 -3.0476 -6.1062
# 2 39.5066 58.2778 17.9204 -16.1487 1.5979 4.9598
# 3 14.3703 17.9204 32.4436 -17.0020 4.9920 7.3868
# 4 -3.3380 -16.1487 -17.0020 29.4554 3.6466 -8.9268
# 5 -3.0476 1.5979 4.9920 3.6466 39.2266 -4.2225
# 6 -6.1062 4.9598 7.3868 -8.9268 -4.2225 44.8308
#
#
#
# Elastic Compliance Matrix: (Units=1/GPa)
#
#
# Indices 1 2 3 4 5 6 
#
# 1 0.010082 -0.007204 -0.003700 -0.004586 0.002197 0.002074
# 2 -0.007204 0.026829 -0.005475 0.010648 -0.002067 -0.001122
# 3 -0.003700 -0.005475 0.051695 0.026366 -0.009532 -0.004064
# 4 -0.004586 0.010648 0.026366 0.056912 -0.008969 0.004341
# 5 0.002197 -0.002067 -0.009532 -0.008969 0.028113 0.002960
# 6 0.002074 -0.001122 -0.004064 0.004341 0.002960 0.024525
#
#
# Mechanical properties :
#
#
# Convention : Reuss Voigt Hill
#
# Bulk Modulus (GPa) = 17.90579 40.82353 29.36466
# Shear Modulus (GPa) = 20.03767 32.83722 26.43745
#
# Velocity S-wave (km/s) = 3.07781 3.94004 3.53531
# Velocity P-wave (km/s) = 4.59299 6.32441 5.52692
#
# Compressibility (1/GPa) = 0.05584785
#
# Stress axis : x y z
#
# Youngs Moduli (GPa) = 99.18924 37.27281 19.34441
#
# Poissons Ratio (x) = 0.26853 0.07157
# Poissons Ratio (y) = 0.71459 0.10590
# Poissons Ratio (z) = 0.36699 0.20405
#
# Static dielectric constant tensor:
#      x y z
#    x 1.885120 -0.067990 -0.002430 
#    y -0.067990 1.768280 -0.004030 
#    z -0.002430 -0.004030 1.778780 
# 
# From -- ./inp_files/613168.got.cif
#   From: 2010.05.17/outbox.cif.g08.bks.cpg/sg2_307_cif.got.tgz:613168.got - 2010.06.03 11:33:40.
