data_PCOD9011484
_publ_section_title
;
Structure prediction by ZEFSAII (Michael W. Deem and Ramdas Pophale) SiO2 
 PCOD9011484
Probable space group: P -1
;
_chemical_formula_sum "Si O2"
_cell_formula_units_Z 12
_cell_length_a 6.611318
_cell_length_b 9.528328
_cell_length_c 13.078617
_cell_angle_alpha 57.482463
_cell_angle_beta 43.276454
_cell_angle_gamma 65.320291
_cell_volume 475.756806
_symmetry_space_group_name_H-M "P -1"
_symmetry_group_IT_number 2
_symmetry_cell_setting 'triclinic'
loop_
_space_group_symop_operation_xyz
x,y,z
-x,-y,-z
loop_
_atom_site_type_symbol
_atom_site_label
_atom_site_fract_x
_atom_site_fract_y
_atom_site_fract_z
Si Si1 0.729525 0.633984 0.567231
Si Si2 0.815036 0.729120 0.882061
Si Si3 0.068854 0.914379 0.379632
Si Si4 0.361782 0.190243 0.682870
Si Si5 0.740414 0.130490 0.891058
Si Si6 0.189741 0.424221 0.842228
O O1 0.624392 0.714648 0.466314
O O2 0.455841 0.531585 0.745749
O O3 0.000000 0.500000 0.500000
O O4 0.809312 0.790969 0.548152
O O5 0.936491 0.560784 0.851222
O O6 0.966601 0.894218 0.718796
O O7 0.458472 0.757271 0.002815
O O8 0.891389 0.695580 0.987538
O O9 0.330826 0.905458 0.368175
O O10 0.185106 0.815625 0.272694
O O11 0.299204 0.323119 0.743317
O O12 0.065159 0.085539 0.831511
O O13 0.500000 0.000000 0.000000
#
# Coordination Sequence:
#
# PCOD9011484 Si02
#       6
#     2   2   2   2   2   2
#     4  11  22  41  66  93 122 163 218 264 299 370
#     4  10  22  41  59  94 134 162 201 262 321 362
#     4  10  21  40  66  93 121 165 214 259 305 369
#     4  11  21  38  70  90 117 170 218 250 311 378
#     4   9  19  37  59  90 122 154 206 257 300 361
#     4  11  22  39  65  92 129 170 203 255 322 373
#
# _framework density 25.222971999999999
#
# number of rings (size 3 to 8) (size 9 to 14) (size 15 to 20)
#    0.000    1.667    3.333    1.500    0.000    4.000 
#    6.000    0.833    0.000    0.000    0.000    0.000 
#    0.000    0.000    0.000    0.000    0.000    0.000 
#
# Total GULP energy -66970.944426 kJ/mol
# GULP energy per Si atom -5580.912035 kJ/mol
# Density = 2.516556 g / cm^3
# Si number density = 25.222972 Si / 1000 Ang^3
#
#
#
# Elastic Constant Matrix: (Units=GPa)
#
#
# Indices 1 2 3 4 5 6 
#
# 1 122.9562 44.9413 36.1428 -26.0087 -17.2084 -8.4039
# 2 44.9413 112.5086 35.3490 -30.7619 8.8764 -3.8096
# 3 36.1428 35.3490 72.4083 -28.1645 -9.7950 1.4775
# 4 -26.0087 -30.7619 -28.1645 45.0694 2.3885 4.9235
# 5 -17.2084 8.8764 -9.7950 2.3885 29.8507 -11.8488
# 6 -8.4039 -3.8096 1.4775 4.9235 -11.8488 31.5052
#
#
#
# Elastic Compliance Matrix: (Units=1/GPa)
#
#
# Indices 1 2 3 4 5 6 
#
# 1 0.012693 -0.004543 -0.002239 0.001548 0.010440 0.006626
# 2 -0.004543 0.014059 -0.003677 0.005646 -0.010045 -0.004000
# 3 -0.002239 -0.003677 0.021079 0.009241 0.005408 -0.001441
# 4 0.001548 0.005646 0.009241 0.033457 -0.002637 -0.005558
# 5 0.010440 -0.010045 0.005408 -0.002637 0.053105 0.021701
# 6 0.006626 -0.004000 -0.001441 -0.005558 0.021701 0.042122
#
#
# Mechanical properties :
#
#
# Convention : Reuss Voigt Hill
#
# Bulk Modulus (GPa) = 37.15660 60.08216 48.61938
# Shear Modulus (GPa) = 24.22450 34.04772 29.13611
#
# Velocity S-wave (km/s) = 3.10242 3.67804 3.40243
# Velocity P-wave (km/s) = 5.25324 6.47375 5.89517
#
# Compressibility (1/GPa) = 0.02691312
#
# Stress axis : x y z
#
# Youngs Moduli (GPa) = 78.78442 71.12970 47.44099
#
# Poissons Ratio (x) = 0.32312 0.10621
# Poissons Ratio (y) = 0.35790 0.17445
# Poissons Ratio (z) = 0.17638 0.26155
#
# Static dielectric constant tensor:
#      x y z
#    x 2.035730 0.003460 -0.086290 
#    y 0.003460 2.090930 -0.000160 
#    z -0.086290 -0.000160 2.178180 
# 
# From -- ./inp_files/482060.got.cif
#   From: 2010.05.17/outbox.cif.g08.bks.cpg/sg2_242_cif.got.tgz:482060.got - 2010.06.03 11:33:40.
