data_PCOD9011718
_publ_section_title
;
Structure prediction by ZEFSAII (Michael W. Deem and Ramdas Pophale) SiO2 
 PCOD9011718
Probable space group: P -1
;
_chemical_formula_sum "Si O2"
_cell_formula_units_Z 16
_cell_length_a 5.334700
_cell_length_b 11.076668
_cell_length_c 24.404392
_cell_angle_alpha 149.881645
_cell_angle_beta 54.561595
_cell_angle_gamma 119.609383
_cell_volume 589.459039
_symmetry_space_group_name_H-M "P -1"
_symmetry_group_IT_number 2
_symmetry_cell_setting 'triclinic'
loop_
_space_group_symop_operation_xyz
x,y,z
-x,-y,-z
loop_
_atom_site_type_symbol
_atom_site_label
_atom_site_fract_x
_atom_site_fract_y
_atom_site_fract_z
Si Si1 0.419760 0.313737 0.017442
Si Si2 0.727095 0.187307 0.501906
Si Si3 0.166228 0.610163 0.597837
Si Si4 0.740170 0.151220 0.723356
Si Si5 0.234251 0.553793 0.691340
Si Si6 0.323969 0.048413 0.236128
Si Si7 0.370338 0.656574 0.299762
Si Si8 0.736636 0.218201 0.052072
O O1 0.301188 0.587470 0.142086
O O2 0.664618 0.293409 0.028062
O O3 0.094137 0.169576 0.001413
O O4 0.606826 0.205580 0.900298
O O5 0.400954 0.292155 0.563992
O O6 0.703246 0.217664 0.583332
O O7 0.943893 0.388161 0.526730
O O8 0.908661 0.941991 0.368521
O O9 0.500000 0.500000 0.500000
O O10 0.123742 0.637867 0.678885
O O11 0.022583 0.847011 0.681488
O O12 0.597769 0.978914 0.720250
O O13 0.591059 0.170415 0.689393
O O14 0.926665 0.503680 0.743408
O O15 0.485483 0.758516 0.748876
O O16 0.624704 0.446948 0.192001
O O17 0.500000 0.000000 0.000000
#
# Coordination Sequence:
#
# PCOD9011718 Si02
#       8
#     2   2   2   2   2   2   2   2
#     4  11  27  47  70 110 145 193 247 298 363 439
#     4  10  22  41  71  98 143 187 238 299 367 426
#     4  10  21  40  67 106 134 180 246 300 357 427
#     4  11  24  47  64 105 147 192 238 291 370 443
#     4  10  22  41  70 101 136 177 249 296 363 421
#     4  11  24  44  74  99 144 192 238 303 362 427
#     4  10  24  42  68 105 140 184 241 304 363 431
#     4  11  25  46  77 106 145 191 250 304 361 428
#
# _framework density 27.143530999999999
#
# number of rings (size 3 to 8) (size 9 to 14) (size 15 to 20)
#    0.000    1.500    0.000    3.375   10.500    2.500 
#   18.000    3.125    0.000    0.000    0.000    0.000 
#    0.000    0.000    0.000    0.000    0.000    0.000 
#
# Total GULP energy -89453.988206 kJ/mol
# GULP energy per Si atom -5590.874263 kJ/mol
# Density = 2.708175 g / cm^3
# Si number density = 27.143531 Si / 1000 Ang^3
#
#
#
# Elastic Constant Matrix: (Units=GPa)
#
#
# Indices 1 2 3 4 5 6 
#
# 1 103.5296 20.8611 29.2040 -2.5556 -8.1087 -10.7143
# 2 20.8611 116.1659 37.7341 -2.5497 -2.5728 -21.5786
# 3 29.2040 37.7341 206.3317 0.2602 -6.1362 -19.6551
# 4 -2.5556 -2.5497 0.2602 29.3967 -2.1379 0.2870
# 5 -8.1087 -2.5728 -6.1362 -2.1379 37.7220 -4.6628
# 6 -10.7143 -21.5786 -19.6551 0.2870 -4.6628 39.1641
#
#
#
# Elastic Compliance Matrix: (Units=1/GPa)
#
#
# Indices 1 2 3 4 5 6 
#
# 1 0.010594 -0.001115 -0.001033 0.000984 0.002341 0.002037
# 2 -0.001115 0.010126 -0.001215 0.000810 0.000888 0.004764
# 3 -0.001033 -0.001215 0.005416 -0.000203 0.000795 0.001862
# 4 0.000984 0.000810 -0.000203 0.034333 0.002257 0.000631
# 5 0.002341 0.000888 0.000795 0.002257 0.027929 0.004837
# 6 0.002037 0.004764 0.001862 0.000631 0.004837 0.030222
#
#
# Mechanical properties :
#
#
# Convention : Reuss Voigt Hill
#
# Bulk Modulus (GPa) = 51.52070 66.84728 59.18399
# Shear Modulus (GPa) = 37.93214 43.80510 40.86862
#
# Velocity S-wave (km/s) = 3.74232 4.02161 3.88448
# Velocity P-wave (km/s) = 6.13966 6.80039 6.47845
#
# Compressibility (1/GPa) = 0.01940967
#
# Stress axis : x y z
#
# Youngs Moduli (GPa) = 94.39700 98.75934 184.62963
#
# Poissons Ratio (x) = 0.11012 0.19074
# Poissons Ratio (y) = 0.10526 0.22428
# Poissons Ratio (z) = 0.09752 0.11997
#
# Static dielectric constant tensor:
#      x y z
#    x 2.183460 0.100460 0.066010 
#    y 0.100460 2.217270 0.049020 
#    z 0.066010 0.049020 2.105300 
# 
# From -- ./inp_files/609172.got.cif
#   From: 2010.05.17/outbox.cif.g08.bks.cpg/sg2_305_cif.got.tgz:609172.got - 2010.06.03 11:33:40.
