data_PCOD9011266
_publ_section_title
;
Structure prediction by ZEFSAII (Michael W. Deem and Ramdas Pophale) SiO2 
 PCOD9011266
Probable space group: P -1
;
_chemical_formula_sum "Si O2"
_cell_formula_units_Z 12
_cell_length_a 16.642664
_cell_length_b 9.647466
_cell_length_c 17.057882
_cell_angle_alpha 41.094439
_cell_angle_beta 162.829632
_cell_angle_gamma 139.949946
_cell_volume 516.671440
_symmetry_space_group_name_H-M "P -1"
_symmetry_group_IT_number 2
_symmetry_cell_setting 'triclinic'
loop_
_space_group_symop_operation_xyz
x,y,z
-x,-y,-z
loop_
_atom_site_type_symbol
_atom_site_label
_atom_site_fract_x
_atom_site_fract_y
_atom_site_fract_z
Si Si1 0.684306 0.566069 0.902171
Si Si2 0.496064 0.373340 0.967535
Si Si3 0.936370 0.074678 0.497614
Si Si4 0.311963 0.801073 0.365368
Si Si5 0.318004 0.678129 0.262202
Si Si6 0.104759 0.714237 0.891698
O O1 0.428655 0.605539 0.594901
O O2 0.615777 0.547211 0.937227
O O3 0.731205 0.339258 0.008036
O O4 0.978040 0.745232 0.089596
O O5 0.687016 0.197097 0.218462
O O6 0.500000 0.500000 0.000000
O O7 0.198687 0.242670 0.711068
O O8 0.903697 0.860639 0.612767
O O9 0.000000 0.000000 0.500000
O O10 0.412717 0.836320 0.354753
O O11 0.500000 0.000000 0.500000
O O12 0.500000 0.500000 0.500000
O O13 0.037676 0.524486 0.104831
O O14 0.275250 0.801177 0.091351
#
# Coordination Sequence:
#
# PCOD9011266 Si02
#       6
#     2   2   2   2   2   2
#     4  11  23  44  71  93 143 182 223 292 354 414
#     4  12  28  49  69 107 146 189 234 298 370 416
#     4  12  26  45  78 104 137 186 253 292 342 438
#     4  11  24  42  68 100 135 182 231 275 352 427
#     4  10  21  40  65  95 140 173 222 292 346 406
#     4  10  23  40  68 102 131 179 234 286 348 403
#
# _framework density 23.225591000000001
#
# number of rings (size 3 to 8) (size 9 to 14) (size 15 to 20)
#    0.000    1.000    3.333    2.500    4.667    1.333 
#    3.000    0.000    0.000    0.000    0.000    0.000 
#    0.000    0.000    0.000    0.000    0.000    0.000 
#
# Total GULP energy -66981.438466 kJ/mol
# GULP energy per Si atom -5581.786539 kJ/mol
# Density = 2.317273 g / cm^3
# Si number density = 23.225591 Si / 1000 Ang^3
#
#
#
# Elastic Constant Matrix: (Units=GPa)
#
#
# Indices 1 2 3 4 5 6 
#
# 1 163.9047 35.1829 35.3603 13.1993 -30.8458 -35.6328
# 2 35.1829 64.5297 6.8891 11.5025 -10.4389 -17.8543
# 3 35.3603 6.8891 99.4669 -4.0578 -12.0671 3.2894
# 4 13.1993 11.5025 -4.0578 42.1513 0.6720 -10.0717
# 5 -30.8458 -10.4389 -12.0671 0.6720 36.3836 7.3448
# 6 -35.6328 -17.8543 3.2894 -10.0717 7.3448 40.5836
#
#
#
# Elastic Compliance Matrix: (Units=1/GPa)
#
#
# Indices 1 2 3 4 5 6 
#
# 1 0.009720 -0.002072 -0.002930 -0.001276 0.005371 0.006572
# 2 -0.002072 0.019193 -0.000602 -0.003404 0.002529 0.005371
# 3 -0.002930 -0.000602 0.011547 0.001252 0.001919 -0.003810
# 4 -0.001276 -0.003404 0.001252 0.026258 -0.003004 0.004341
# 5 0.005371 0.002529 0.001919 -0.003004 0.033692 -0.001170
# 6 0.006572 0.005371 -0.003810 0.004341 -0.001170 0.034371
#
#
# Mechanical properties :
#
#
# Convention : Reuss Voigt Hill
#
# Bulk Modulus (GPa) = 34.18694 53.64066 43.91380
# Shear Modulus (GPa) = 32.10482 40.52165 36.31323
#
# Velocity S-wave (km/s) = 3.72197 4.18149 3.95840
# Velocity P-wave (km/s) = 5.76387 6.81607 6.31193
#
# Compressibility (1/GPa) = 0.02925093
#
# Stress axis : x y z
#
# Youngs Moduli (GPa) = 102.87808 52.10345 86.60490
#
# Poissons Ratio (x) = 0.10798 0.25373
# Poissons Ratio (y) = 0.21320 0.05216
# Poissons Ratio (z) = 0.30140 0.03138
#
# Static dielectric constant tensor:
#      x y z
#    x 1.996510 -0.019490 -0.069510 
#    y -0.019490 2.020910 0.159250 
#    z -0.069510 0.159250 1.817040 
# 
# From -- ./inp_files/49371.got.cif
#   From: 2010.05.17/outbox.cif.g08.bks.cpg/sg2_25_cif.got.tgz:49371.got - 2010.06.03 11:33:40.
