data_PCOD9011246
_publ_section_title
;
Structure prediction by ZEFSAII (Michael W. Deem and Ramdas Pophale) SiO2 
 PCOD9011246
Probable space group: P -1
;
_chemical_formula_sum "Si O2"
_cell_formula_units_Z 16
_cell_length_a 16.457410
_cell_length_b 10.059261
_cell_length_c 15.406322
_cell_angle_alpha 101.492349
_cell_angle_beta 20.681372
_cell_angle_gamma 90.745234
_cell_volume 763.934144
_symmetry_space_group_name_H-M "P -1"
_symmetry_group_IT_number 2
_symmetry_cell_setting 'triclinic'
loop_
_space_group_symop_operation_xyz
x,y,z
-x,-y,-z
loop_
_atom_site_type_symbol
_atom_site_label
_atom_site_fract_x
_atom_site_fract_y
_atom_site_fract_z
Si Si1 0.557273 0.967941 0.541170
Si Si2 0.081388 0.720021 0.563975
Si Si3 0.055332 0.894413 0.773312
Si Si4 0.422382 0.540785 0.905308
Si Si5 0.292783 0.372629 0.666216
Si Si6 0.731885 0.642702 0.827811
Si Si7 0.440285 0.578818 0.430776
Si Si8 0.779333 0.182714 0.740979
O O1 0.757541 0.031567 0.378442
O O2 0.500000 0.000000 0.500000
O O3 0.706124 0.782394 0.382951
O O4 0.262335 0.023075 0.883175
O O5 0.106520 0.842851 0.614980
O O6 0.258739 0.547603 0.407822
O O7 0.137727 0.742947 0.411294
O O8 0.789501 0.746071 0.851056
O O9 0.172329 0.731085 0.687561
O O10 0.384715 0.494568 0.840577
O O11 0.370086 0.446737 0.020503
O O12 0.260647 0.721481 0.117654
O O13 0.400150 0.443876 0.495766
O O14 0.452725 0.354477 0.592540
O O15 0.000000 0.500000 0.000000
O O16 0.000000 0.500000 0.500000
O O17 0.522798 0.758768 0.981097
O O18 0.000000 0.000000 0.500000
#
# Coordination Sequence:
#
# PCOD9011246 Si02
#       8
#     2   2   2   2   2   2   2   2
#     4  12  25  44  71  99 138 180 230 290 350 414
#     4  10  22  41  67  92 129 175 231 274 335 415
#     4  11  26  43  71 106 132 180 239 289 343 411
#     4  10  21  40  65  95 128 174 230 277 333 415
#     4  11  25  44  67  94 139 183 226 283 357 416
#     4  11  19  39  69  92 123 178 234 275 334 410
#     4  10  24  42  68  99 135 180 234 285 342 423
#     4  11  23  39  61  96 138 174 214 287 348 406
#
# _framework density 20.944212
#
# number of rings (size 3 to 8) (size 9 to 14) (size 15 to 20)
#    0.000    1.250    3.750    1.875    8.750    2.500 
#    0.000    0.000    0.000    0.000    0.000    0.000 
#    0.000    0.000    0.000    0.000    0.000    0.000 
#
# Total GULP energy -89070.529010 kJ/mol
# GULP energy per Si atom -5566.908063 kJ/mol
# Density = 2.089654 g / cm^3
# Si number density = 20.944212 Si / 1000 Ang^3
#
#
#
# Elastic Constant Matrix: (Units=GPa)
#
#
# Indices 1 2 3 4 5 6 
#
# 1 76.9644 49.9533 26.6306 3.8855 6.6813 11.8581
# 2 49.9533 96.9184 37.7179 20.7385 -2.7813 26.7035
# 3 26.6306 37.7179 109.6377 19.1262 1.9038 7.6283
# 4 3.8855 20.7385 19.1262 31.7836 3.9046 -3.2743
# 5 6.6813 -2.7813 1.9038 3.9046 26.6767 -2.6092
# 6 11.8581 26.7035 7.6283 -3.2743 -2.6092 33.0275
#
#
#
# Elastic Compliance Matrix: (Units=1/GPa)
#
#
# Indices 1 2 3 4 5 6 
#
# 1 0.022481 -0.013964 -0.002407 0.009196 -0.007863 0.004065
# 2 -0.013964 0.027007 -0.001736 -0.017578 0.007289 -0.017588
# 3 -0.002407 -0.001736 0.011319 -0.005515 0.000337 -0.000867
# 4 0.009196 -0.017578 -0.005515 0.047923 -0.009171 0.016211
# 5 -0.007863 0.007289 0.000337 -0.009171 0.041457 -0.000782
# 6 0.004065 -0.017588 -0.000867 0.016211 -0.000782 0.044784
#
#
# Mechanical properties :
#
#
# Convention : Reuss Voigt Hill
#
# Bulk Modulus (GPa) = 40.66024 56.90268 48.78146
# Shear Modulus (GPa) = 20.88695 29.57881 25.23288
#
# Velocity S-wave (km/s) = 3.16138 3.76209 3.47474
# Velocity P-wave (km/s) = 5.72551 6.78961 6.28014
#
# Compressibility (1/GPa) = 0.02459405
#
# Stress axis : x y z
#
# Youngs Moduli (GPa) = 44.48188 37.02740 88.34355
#
# Poissons Ratio (x) = 0.51704 0.21267
# Poissons Ratio (y) = 0.62113 0.15334
# Poissons Ratio (z) = 0.10708 0.06427
#
# Static dielectric constant tensor:
#      x y z
#    x 1.949410 0.031120 -0.075680 
#    y 0.031120 1.710620 0.011180 
#    z -0.075680 0.011180 1.920360 
# 
# From -- ./inp_files/322610.got.cif
#   From: 2010.05.17/outbox.cif.g08.bks.cpg/sg2_162_cif.got.tgz:322610.got - 2010.06.03 11:33:40.
