data_PCOD9011135
_publ_section_title
;
Structure prediction by ZEFSAII (Michael W. Deem and Ramdas Pophale) SiO2 
 PCOD9011135
Probable space group: P -1
;
_chemical_formula_sum "Si O2"
_cell_formula_units_Z 16
_cell_length_a 6.571763
_cell_length_b 6.375195
_cell_length_c 24.540887
_cell_angle_alpha 123.121615
_cell_angle_beta 126.306952
_cell_angle_gamma 69.907881
_cell_volume 693.623962
_symmetry_space_group_name_H-M "P -1"
_symmetry_group_IT_number 2
_symmetry_cell_setting 'triclinic'
loop_
_space_group_symop_operation_xyz
x,y,z
-x,-y,-z
loop_
_atom_site_type_symbol
_atom_site_label
_atom_site_fract_x
_atom_site_fract_y
_atom_site_fract_z
Si Si1 0.647213 0.664039 0.119993
Si Si2 0.117905 0.721290 0.983314
Si Si3 0.438874 0.963636 0.365022
Si Si4 0.920321 0.961646 0.773977
Si Si5 0.631395 0.619305 0.749501
Si Si6 0.350951 0.542541 0.151984
Si Si7 0.751706 0.282373 0.384876
Si Si8 0.652842 0.684893 0.511694
O O1 0.780131 0.430704 0.075760
O O2 0.600495 0.582806 0.162871
O O3 0.814898 0.907425 0.173482
O O4 0.368993 0.721444 0.059560
O O5 0.868822 0.567640 0.936093
O O6 0.000000 0.000000 0.000000
O O7 0.682555 0.059718 0.384263
O O8 0.445668 0.050437 0.441044
O O9 0.210260 0.098991 0.313112
O O10 0.387837 0.673917 0.308520
O O11 0.876459 0.736482 0.776934
O O12 0.750415 0.188428 0.805336
O O13 0.622669 0.630774 0.814914
O O14 0.394530 0.749456 0.699287
O O15 0.644895 0.540534 0.432490
O O16 0.047593 0.307198 0.429121
O O17 0.500000 0.500000 0.500000
#
# Coordination Sequence:
#
# PCOD9011135 Si02
#       8
#     2   2   2   2   2   2   2   2
#     4  10  22  45  70  93 131 177 211 274 336 374
#     4  10  23  44  67 100 129 169 220 271 324 401
#     4   9  19  37  58  90 126 157 210 266 307 372
#     4   9  21  41  62  91 132 168 213 267 318 386
#     4  10  21  40  65  92 130 166 209 266 315 379
#     4  10  22  42  64  95 131 163 213 271 318 387
#     4   9  19  38  61  86 122 168 206 254 322 372
#     4   9  18  37  61  85 123 165 206 260 314 370
#
# _framework density 23.067253999999998
#
# number of rings (size 3 to 8) (size 9 to 14) (size 15 to 20)
#    0.000    2.500    0.000    0.375    1.750    4.000 
#    6.750   18.125    0.000    0.000    0.000    0.000 
#    0.000    0.000    0.000    0.000    0.000    0.000 
#
# Total GULP energy -89241.796558 kJ/mol
# GULP energy per Si atom -5577.612285 kJ/mol
# Density = 2.301475 g / cm^3
# Si number density = 23.067254 Si / 1000 Ang^3
#
#
#
# Elastic Constant Matrix: (Units=GPa)
#
#
# Indices 1 2 3 4 5 6 
#
# 1 140.1786 65.7342 50.8470 6.8771 26.7390 35.8988
# 2 65.7342 87.4342 39.4080 14.4623 4.6012 18.5973
# 3 50.8470 39.4080 107.5202 7.0810 24.4417 31.6765
# 4 6.8771 14.4623 7.0810 44.4525 -1.2382 -5.1769
# 5 26.7390 4.6012 24.4417 -1.2382 33.3208 6.7971
# 6 35.8988 18.5973 31.6765 -5.1769 6.7971 40.7744
#
#
#
# Elastic Compliance Matrix: (Units=1/GPa)
#
#
# Indices 1 2 3 4 5 6 
#
# 1 0.015348 -0.009595 0.001061 -0.000677 -0.010088 -0.008365
# 2 -0.009595 0.020982 -0.004970 -0.004225 0.008118 0.000849
# 3 0.001061 -0.004970 0.015894 -0.002482 -0.009943 -0.009672
# 4 -0.000677 -0.004225 -0.002482 0.025283 0.002406 0.007261
# 5 -0.010088 0.008118 -0.009943 0.002406 0.043141 0.006017
# 6 -0.008365 0.000849 -0.009672 0.007261 0.006017 0.038935
#
#
# Mechanical properties :
#
#
# Convention : Reuss Voigt Hill
#
# Bulk Modulus (GPa) = 39.65815 71.90125 55.77970
# Shear Modulus (GPa) = 25.64146 35.65245 30.64695
#
# Velocity S-wave (km/s) = 3.33768 3.93566 3.64894
# Velocity P-wave (km/s) = 5.66420 7.20351 6.47973
#
# Compressibility (1/GPa) = 0.02521550
#
# Stress axis : x y z
#
# Youngs Moduli (GPa) = 65.15466 47.66014 62.91808
#
# Poissons Ratio (x) = 0.45730 -0.06674
# Poissons Ratio (y) = 0.62515 0.31270
# Poissons Ratio (z) = -0.06911 0.23687
#
# Static dielectric constant tensor:
#      x y z
#    x 1.858820 0.011580 -0.023870 
#    y 0.011580 1.924080 -0.010600 
#    z -0.023870 -0.010600 1.903010 
# 
# From -- ./inp_files/614986.got.cif
#   From: 2010.05.17/outbox.cif.g08.bks.cpg/sg2_308_cif.got.tgz:614986.got - 2010.06.03 11:33:40.
