data_PCOD9011445
_publ_section_title
;
Structure prediction by ZEFSAII (Michael W. Deem and Ramdas Pophale) SiO2 
 PCOD9011445
Probable space group: P -1
;
_chemical_formula_sum "Si O2"
_cell_formula_units_Z 16
_cell_length_a 19.202425
_cell_length_b 5.318120
_cell_length_c 15.458496
_cell_angle_alpha 88.872290
_cell_angle_beta 21.664811
_cell_angle_gamma 93.361850
_cell_volume 569.883741
_symmetry_space_group_name_H-M "P -1"
_symmetry_group_IT_number 2
_symmetry_cell_setting 'triclinic'
loop_
_space_group_symop_operation_xyz
x,y,z
-x,-y,-z
loop_
_atom_site_type_symbol
_atom_site_label
_atom_site_fract_x
_atom_site_fract_y
_atom_site_fract_z
Si Si1 0.135936 0.401089 0.011583
Si Si2 0.172457 0.856958 0.317547
Si Si3 0.277328 0.193004 0.408275
Si Si4 0.513655 0.759549 0.114589
Si Si5 0.976674 0.415766 0.670492
Si Si6 0.782567 0.574257 0.342211
Si Si7 0.611282 0.857757 0.185215
Si Si8 0.520235 0.789194 0.548578
O O1 0.088299 0.500707 0.161811
O O2 0.961975 0.435795 0.149596
O O3 0.208309 0.146182 0.959983
O O4 0.338513 0.562396 0.740536
O O5 0.180131 0.691099 0.221337
O O6 0.120156 0.649479 0.454893
O O7 0.000000 0.000000 0.500000
O O8 0.358674 0.085309 0.109113
O O9 0.426849 0.458920 0.207487
O O10 0.214654 0.254753 0.576545
O O11 0.094761 0.196229 0.558710
O O12 0.356544 0.932860 0.316950
O O13 0.651014 0.803524 0.040776
O O14 0.582252 0.360932 0.572654
O O15 0.737188 0.749146 0.313793
O O16 0.541744 0.114743 0.286959
O O17 0.500000 0.000000 0.500000
#
# Coordination Sequence:
#
# PCOD9011445 Si02
#       8
#     2   2   2   2   2   2   2   2
#     4  10  22  42  67  92 123 174 217 272 331 397
#     4  11  25  39  60  90 131 172 217 279 329 399
#     4  10  23  42  66  95 124 177 221 281 326 398
#     4  11  23  41  69  90 132 171 226 274 339 383
#     4  10  24  42  62  91 128 167 227 270 334 395
#     4   9  21  41  62  93 131 163 225 267 329 392
#     4  10  21  40  66  91 126 171 218 267 331 395
#     4  11  23  40  64  97 132 168 211 271 334 402
#
# _framework density 28.075901999999999
#
# number of rings (size 3 to 8) (size 9 to 14) (size 15 to 20)
#    0.000    1.750    1.250    1.500    8.750    4.500 
#    6.750    1.250    0.000    0.000    0.000    0.000 
#    0.000    0.000    0.000    0.000    0.000    0.000 
#
# Total GULP energy -89551.963855 kJ/mol
# GULP energy per Si atom -5596.997741 kJ/mol
# Density = 2.801200 g / cm^3
# Si number density = 28.075902 Si / 1000 Ang^3
#
#
#
# Elastic Constant Matrix: (Units=GPa)
#
#
# Indices 1 2 3 4 5 6 
#
# 1 156.4717 40.4179 47.5547 10.1029 -29.4150 -20.3401
# 2 40.4179 92.2263 31.8279 7.8481 -25.4862 -18.1157
# 3 47.5547 31.8279 115.6137 22.5231 -27.0445 -27.2734
# 4 10.1029 7.8481 22.5231 67.8639 -13.5729 -4.1914
# 5 -29.4150 -25.4862 -27.0445 -13.5729 49.3585 20.1247
# 6 -20.3401 -18.1157 -27.2734 -4.1914 20.1247 63.1108
#
#
#
# Elastic Compliance Matrix: (Units=1/GPa)
#
#
# Indices 1 2 3 4 5 6 
#
# 1 0.008071 -0.002065 -0.002145 0.000272 0.002523 0.000295
# 2 -0.002065 0.013788 -0.001655 0.000250 0.004590 0.001130
# 3 -0.002145 -0.001655 0.011776 -0.002744 0.002345 0.002993
# 4 0.000272 0.000250 -0.002744 0.016250 0.003718 -0.001133
# 5 0.002523 0.004590 0.002345 0.003718 0.028803 -0.005794
# 6 0.000295 0.001130 0.002993 -0.001133 -0.005794 0.019330
#
#
# Mechanical properties :
#
#
# Convention : Reuss Voigt Hill
#
# Bulk Modulus (GPa) = 45.64735 67.10143 56.37439
# Shear Modulus (GPa) = 42.71658 52.36737 47.54198
#
# Velocity S-wave (km/s) = 3.90483 4.32349 4.11948
# Velocity P-wave (km/s) = 6.05179 6.99109 6.53833
#
# Compressibility (1/GPa) = 0.02190707
#
# Stress axis : x y z
#
# Youngs Moduli (GPa) = 123.89662 72.52620 84.91626
#
# Poissons Ratio (x) = 0.14977 0.18210
# Poissons Ratio (y) = 0.25585 0.14052
# Poissons Ratio (z) = 0.26570 0.12002
#
# Static dielectric constant tensor:
#      x y z
#    x 2.243680 -0.027120 0.044210 
#    y -0.027120 2.239420 -0.003150 
#    z 0.044210 -0.003150 2.203090 
# 
# From -- ./inp_files/56573.got.cif
#   From: 2010.05.17/outbox.cif.g08.bks.cpg/sg2_29_cif.got.tgz:56573.got - 2010.06.03 11:33:40.
