data_PCOD9011198
_publ_section_title
;
Structure prediction by ZEFSAII (Michael W. Deem and Ramdas Pophale) SiO2 
 PCOD9011198
Probable space group: P -1
;
_chemical_formula_sum "Si O2"
_cell_formula_units_Z 14
_cell_length_a 8.242799
_cell_length_b 6.612934
_cell_length_c 20.243797
_cell_angle_alpha 140.513614
_cell_angle_beta 106.473533
_cell_angle_gamma 60.240513
_cell_volume 599.172083
_symmetry_space_group_name_H-M "P -1"
_symmetry_group_IT_number 2
_symmetry_cell_setting 'triclinic'
loop_
_space_group_symop_operation_xyz
x,y,z
-x,-y,-z
loop_
_atom_site_type_symbol
_atom_site_label
_atom_site_fract_x
_atom_site_fract_y
_atom_site_fract_z
Si Si1 0.726052 0.556840 0.354790
Si Si2 0.418586 0.766105 0.118756
Si Si3 0.286649 0.644337 0.846857
Si Si4 0.920358 0.577092 0.809333
Si Si5 0.162782 0.428978 0.054132
Si Si6 0.071359 0.626526 0.378597
Si Si7 0.454324 0.582648 0.439296
O O1 0.672320 0.467479 0.253417
O O2 0.631887 0.434219 0.371779
O O3 0.953247 0.430393 0.344948
O O4 0.640033 0.983991 0.464084
O O5 0.584765 0.668857 0.166882
O O6 0.269443 0.661895 0.110681
O O7 0.293378 0.145657 0.165995
O O8 0.500000 0.500000 0.000000
O O9 0.068210 0.740044 0.860809
O O10 0.301143 0.004278 0.956482
O O11 0.923170 0.471506 0.857869
O O12 0.980870 0.299646 0.686191
O O13 0.000000 0.500000 0.000000
O O14 0.297156 0.451852 0.369704
O O15 0.000000 0.000000 0.500000
O O16 0.500000 0.500000 0.500000
#
# Coordination Sequence:
#
# PCOD9011198 Si02
#       7
#     2   2   2   2   2   2   2
#     4   9  22  42  61  92 129 166 210 272 324 384
#     4  12  25  40  66  95 129 177 215 266 329 384
#     4  11  23  44  64  93 135 165 220 272 322 397
#     4  11  24  45  66  95 133 171 219 274 324 392
#     4  12  24  43  65  93 131 173 212 269 327 386
#     4   9  21  43  65  92 132 169 213 274 329 384
#     4  10  21  40  65  94 125 165 216 266 323 392
#
# _framework density 23.365573999999999
#
# number of rings (size 3 to 8) (size 9 to 14) (size 15 to 20)
#    0.000    1.429    2.857    1.714    4.000    0.571 
#    7.714    0.000    0.000    0.000    0.000    0.000 
#    0.000    0.000    0.000    0.000    0.000    0.000 
#
# Total GULP energy -78233.099024 kJ/mol
# GULP energy per Si atom -5588.078502 kJ/mol
# Density = 2.331239 g / cm^3
# Si number density = 23.365574 Si / 1000 Ang^3
#
#
#
# Elastic Constant Matrix: (Units=GPa)
#
#
# Indices 1 2 3 4 5 6 
#
# 1 148.2949 44.6242 42.0772 -40.8592 -11.3568 15.4133
# 2 44.6242 82.8069 21.5022 -32.5386 -5.8321 -3.1051
# 3 42.0772 21.5022 105.2838 -36.4177 -19.3185 10.8772
# 4 -40.8592 -32.5386 -36.4177 52.3152 2.7862 -11.0423
# 5 -11.3568 -5.8321 -19.3185 2.7862 39.1985 -14.7978
# 6 15.4133 -3.1051 10.8772 -11.0423 -14.7978 36.0616
#
#
#
# Elastic Compliance Matrix: (Units=1/GPa)
#
#
# Indices 1 2 3 4 5 6 
#
# 1 0.009496 -0.003351 -0.001509 0.003708 0.000242 -0.002657
# 2 -0.003351 0.018638 0.001560 0.011507 0.004795 0.008058
# 3 -0.001509 0.001560 0.014217 0.009816 0.006998 0.002368
# 4 0.003708 0.011507 0.009816 0.038023 0.009437 0.011960
# 5 0.000242 0.004795 0.006998 0.009437 0.034888 0.015404
# 6 -0.002657 0.008058 0.002368 0.011960 0.015404 0.038829
#
#
# Mechanical properties :
#
#
# Convention : Reuss Voigt Hill
#
# Bulk Modulus (GPa) = 27.97027 61.42140 44.69583
# Shear Modulus (GPa) = 28.96705 40.72720 34.84712
#
# Velocity S-wave (km/s) = 3.52480 4.17951 3.86604
# Velocity P-wave (km/s) = 5.34438 7.04523 6.25290
#
# Compressibility (1/GPa) = 0.03575225
#
# Stress axis : x y z
#
# Youngs Moduli (GPa) = 105.30297 53.65241 70.33639
#
# Poissons Ratio (x) = 0.17980 0.10615
# Poissons Ratio (y) = 0.35289 -0.10975
# Poissons Ratio (z) = 0.15893 -0.08372
#
# Static dielectric constant tensor:
#      x y z
#    x 1.943570 -0.023840 -0.011850 
#    y -0.023840 1.931730 0.040630 
#    z -0.011850 0.040630 1.927710 
# 
# From -- ./inp_files/134130.got.cif
#   From: 2010.05.17/outbox.cif.g08.bks.cpg/sg2_68_cif.got.tgz:134130.got - 2010.06.03 11:33:40.
