data_PCOD9011627
_publ_section_title
;
Structure prediction by ZEFSAII (Michael W. Deem and Ramdas Pophale) SiO2 
 PCOD9011627
Probable space group: P -1
;
_chemical_formula_sum "Si O2"
_cell_formula_units_Z 16
_cell_length_a 5.969447
_cell_length_b 19.188335
_cell_length_c 21.952730
_cell_angle_alpha 19.850313
_cell_angle_beta 111.182096
_cell_angle_gamma 100.337364
_cell_volume 686.406502
_symmetry_space_group_name_H-M "P -1"
_symmetry_group_IT_number 2
_symmetry_cell_setting 'triclinic'
loop_
_space_group_symop_operation_xyz
x,y,z
-x,-y,-z
loop_
_atom_site_type_symbol
_atom_site_label
_atom_site_fract_x
_atom_site_fract_y
_atom_site_fract_z
Si Si1 0.055734 0.644486 0.334432
Si Si2 0.417242 0.526109 0.873085
Si Si3 0.035315 0.501744 0.215198
Si Si4 0.995959 0.143690 0.184589
Si Si5 0.702617 0.744067 0.101461
Si Si6 0.587393 0.226672 0.664799
Si Si7 0.374191 0.684167 0.544748
Si Si8 0.706076 0.696872 0.837324
O O1 0.324149 0.460074 0.473501
O O2 0.142453 0.818724 0.232324
O O3 0.000000 0.500000 0.500000
O O4 0.809141 0.749655 0.175017
O O5 0.154435 0.603558 0.740230
O O6 0.484643 0.726097 0.739927
O O7 0.362589 0.414164 0.019824
O O8 0.688017 0.312934 0.041611
O O9 0.943617 0.614584 0.180561
O O10 0.361034 0.312428 0.404552
O O11 0.979957 0.709570 0.990817
O O12 0.219137 0.116462 0.280435
O O13 0.089678 0.882513 0.384556
O O14 0.563651 0.582468 0.221631
O O15 0.526749 0.012987 0.841291
O O16 0.642784 0.261308 0.572765
O O17 0.000000 0.500000 0.000000
#
# Coordination Sequence:
#
# PCOD9011627 Si02
#       8
#     2   2   2   2   2   2   2   2
#     4  11  24  46  70  98 130 178 228 281 337 407
#     4   9  18  36  65  98 133 182 228 279 344 397
#     4  11  23  41  63  98 137 179 225 281 341 408
#     4  10  21  40  66  97 137 180 227 285 341 400
#     4  12  25  42  69  97 133 182 222 279 344 404
#     4  11  25  46  67  96 136 174 226 280 339 407
#     4  12  25  42  67 101 137 178 229 277 343 412
#     4   8  16  34  64  96 133 182 227 278 340 397
#
# _framework density 23.309799999999999
#
# number of rings (size 3 to 8) (size 9 to 14) (size 15 to 20)
#    0.000    1.500    3.750    1.125    0.000    5.500 
#    0.000    0.625    0.000   30.750    0.000    0.000 
#    0.000    0.000    0.000    0.000    0.000    0.000 
#
# Total GULP energy -89427.275120 kJ/mol
# GULP energy per Si atom -5589.204695 kJ/mol
# Density = 2.325675 g / cm^3
# Si number density = 23.309800 Si / 1000 Ang^3
#
#
#
# Elastic Constant Matrix: (Units=GPa)
#
#
# Indices 1 2 3 4 5 6 
#
# 1 87.3895 53.1625 20.5827 7.0737 -5.5292 4.1479
# 2 53.1625 126.6685 43.7588 5.4423 -0.8973 2.3507
# 3 20.5827 43.7588 28.4457 -4.2004 -12.8863 -9.7369
# 4 7.0737 5.4423 -4.2004 28.8044 -1.1841 -2.8731
# 5 -5.5292 -0.8973 -12.8863 -1.1841 28.6660 9.9323
# 6 4.1479 2.3507 -9.7369 -2.8731 9.9323 40.8302
#
#
#
# Elastic Compliance Matrix: (Units=1/GPa)
#
#
# Indices 1 2 3 4 5 6 
#
# 1 0.016168 -0.004320 -0.006380 -0.004387 0.001148 -0.003503
# 2 -0.004320 0.034320 -0.068902 -0.017845 -0.027092 -0.012633
# 3 -0.006380 -0.068902 0.200437 0.050675 0.075802 0.037540
# 4 -0.004387 -0.017845 0.050675 0.048571 0.019111 0.012327
# 5 0.001148 -0.027092 0.075802 0.019111 0.067590 0.004423
# 6 -0.003503 -0.012633 0.037540 0.012327 0.004423 0.034319
#
#
# Mechanical properties :
#
#
# Convention : Reuss Voigt Hill
#
# Bulk Modulus (GPa) = 10.90270 53.05685 31.97977
# Shear Modulus (GPa) = 8.45763 27.99344 18.22554
#
# Velocity S-wave (km/s) = 1.90689 3.46920 2.79925
# Velocity P-wave (km/s) = 3.08800 6.23363 4.91904
#
# Compressibility (1/GPa) = 0.09172042
#
# Stress axis : x y z
#
# Youngs Moduli (GPa) = 61.85204 29.13779 4.98909
#
# Poissons Ratio (x) = 0.12587 0.03183
# Poissons Ratio (y) = 0.26719 0.34376
# Poissons Ratio (z) = 0.39463 2.00765
#
# Static dielectric constant tensor:
#      x y z
#    x 1.880650 0.056410 -0.011670 
#    y 0.056410 1.908590 0.000860 
#    z -0.011670 0.000860 1.842300 
# 
# From -- ./inp_files/605123.got.cif
#   From: 2010.05.17/outbox.cif.g08.bks.cpg/sg2_303_cif.got.tgz:605123.got - 2010.06.03 11:33:40.
