data_PCOD9011837
_publ_section_title
;
Structure prediction by ZEFSAII (Michael W. Deem and Ramdas Pophale) SiO2 
 PCOD9011837
Probable space group: P -1
;
_chemical_formula_sum "Si O2"
_cell_formula_units_Z 14
_cell_length_a 11.657135
_cell_length_b 12.529918
_cell_length_c 7.828466
_cell_angle_alpha 113.398891
_cell_angle_beta 70.196236
_cell_angle_gamma 56.364340
_cell_volume 595.946209
_symmetry_space_group_name_H-M "P -1"
_symmetry_group_IT_number 2
_symmetry_cell_setting 'triclinic'
loop_
_space_group_symop_operation_xyz
x,y,z
-x,-y,-z
loop_
_atom_site_type_symbol
_atom_site_label
_atom_site_fract_x
_atom_site_fract_y
_atom_site_fract_z
Si Si1 0.900439 0.369919 0.097054
Si Si2 0.355591 0.584224 0.966004
Si Si3 0.105274 0.972667 0.194010
Si Si4 0.377256 0.973534 0.569104
Si Si5 0.361211 0.240065 0.383456
Si Si6 0.260654 0.716377 0.642489
Si Si7 0.622208 0.051080 0.815202
O O1 0.775369 0.431098 0.026683
O O2 0.835076 0.544172 0.313990
O O3 0.831963 0.327289 0.247019
O O4 0.138850 0.176951 0.829144
O O5 0.218731 0.850695 0.883320
O O6 0.514571 0.471148 0.656597
O O7 0.500000 0.500000 0.000000
O O8 0.182060 0.036120 0.263789
O O9 0.874424 0.150048 0.369600
O O10 0.560856 0.783016 0.857586
O O11 0.415680 0.876457 0.311767
O O12 0.500000 0.000000 0.500000
O O13 0.468067 0.856836 0.624196
O O14 0.655804 0.886672 0.691636
O O15 0.813641 0.187034 0.820558
#
# Coordination Sequence:
#
# PCOD9011837 Si02
#       7
#     2   2   2   2   2   2   2
#     4  11  23  43  69  94 134 180 218 276 340 394
#     4  11  25  39  62 102 131 168 225 270 330 402
#     4  10  21  41  64  89 133 171 215 269 332 397
#     4  10  24  43  64  99 134 177 227 275 337 393
#     4  10  22  43  66  94 135 175 227 277 334 395
#     4  10  22  42  66  93 131 177 218 270 338 396
#     4  10  21  40  67  95 129 179 223 274 332 400
#
# _framework density 23.492052000000001
#
# number of rings (size 3 to 8) (size 9 to 14) (size 15 to 20)
#    0.000    1.714    0.000    4.286    4.000    5.143 
#    0.000   14.286    0.000    0.000    0.000    0.000 
#    0.000    0.000    0.000    0.000    0.000    0.000 
#
# Total GULP energy -78261.652361 kJ/mol
# GULP energy per Si atom -5590.118026 kJ/mol
# Density = 2.343858 g / cm^3
# Si number density = 23.492052 Si / 1000 Ang^3
#
#
#
# Elastic Constant Matrix: (Units=GPa)
#
#
# Indices 1 2 3 4 5 6 
#
# 1 77.2647 19.0950 24.6918 -3.8184 6.4630 -15.8134
# 2 19.0950 82.7991 33.4520 0.1888 11.2430 -31.3746
# 3 24.6918 33.4520 108.6697 -3.4276 -5.2480 -14.7165
# 4 -3.8184 0.1888 -3.4276 41.9545 -10.8137 2.3197
# 5 6.4630 11.2430 -5.2480 -10.8137 35.8096 -3.6919
# 6 -15.8134 -31.3746 -14.7165 2.3197 -3.6919 31.9121
#
#
#
# Elastic Compliance Matrix: (Units=1/GPa)
#
#
# Indices 1 2 3 4 5 6 
#
# 1 0.015278 0.000374 -0.002853 0.000136 -0.002601 0.006312
# 2 0.000374 0.022077 -0.004708 -0.003234 -0.006688 0.019180
# 3 -0.002853 -0.004708 0.011507 0.001801 0.004184 -0.000383
# 4 0.000136 -0.003234 0.001801 0.026486 0.008926 -0.003174
# 5 -0.002601 -0.006688 0.004184 0.008926 0.033524 -0.002705
# 6 0.006312 0.019180 -0.000383 -0.003174 -0.002705 0.053062
#
#
# Mechanical properties :
#
#
# Convention : Reuss Voigt Hill
#
# Bulk Modulus (GPa) = 28.99697 47.02345 38.01021
# Shear Modulus (GPa) = 26.62342 34.70156 30.66249
#
# Velocity S-wave (km/s) = 3.37010 3.84756 3.61671
# Velocity P-wave (km/s) = 5.24533 6.30860 5.80138
#
# Compressibility (1/GPa) = 0.03448636
#
# Stress axis : x y z
#
# Youngs Moduli (GPa) = 65.45364 45.29609 86.90489
#
# Poissons Ratio (x) = -0.01693 0.24795
# Poissons Ratio (y) = -0.02447 0.40919
# Poissons Ratio (z) = 0.18674 0.21327
#
# Static dielectric constant tensor:
#      x y z
#    x 2.123300 -0.020980 -0.065560 
#    y -0.020980 1.983530 -0.045380 
#    z -0.065560 -0.045380 1.892420 
# 
# From -- ./inp_files/317284.got.cif
#   From: 2010.05.17/outbox.cif.g08.bks.cpg/sg2_159_cif.got.tgz:317284.got - 2010.06.03 11:33:40.
