data_PCOD9011838
_publ_section_title
;
Structure prediction by ZEFSAII (Michael W. Deem and Ramdas Pophale) SiO2 
 PCOD9011838
Probable space group: P -1
;
_chemical_formula_sum "Si O2"
_cell_formula_units_Z 16
_cell_length_a 14.714988
_cell_length_b 14.886344
_cell_length_c 11.119905
_cell_angle_alpha 41.412812
_cell_angle_beta 28.909837
_cell_angle_gamma 39.338882
_cell_volume 725.016743
_symmetry_space_group_name_H-M "P -1"
_symmetry_group_IT_number 2
_symmetry_cell_setting 'triclinic'
loop_
_space_group_symop_operation_xyz
x,y,z
-x,-y,-z
loop_
_atom_site_type_symbol
_atom_site_label
_atom_site_fract_x
_atom_site_fract_y
_atom_site_fract_z
Si Si1 0.540662 0.653178 0.133987
Si Si2 0.196614 0.104392 0.575278
Si Si3 0.032539 0.108929 0.013532
Si Si4 0.292669 0.671573 0.701251
Si Si5 0.593591 0.806596 0.153039
Si Si6 0.064280 0.427334 0.369094
Si Si7 0.356547 0.962552 0.985335
Si Si8 0.952108 0.593571 0.081606
O O1 0.538532 0.492939 0.326200
O O2 0.643595 0.717294 0.058459
O O3 0.696352 0.610443 0.886734
O O4 0.355287 0.799804 0.170431
O O5 0.056883 0.266889 0.533811
O O6 0.425836 0.059639 0.306650
O O7 0.181989 0.106415 0.734687
O O8 0.086632 0.997547 0.767874
O O9 0.852473 0.266749 0.077896
O O10 0.170240 0.054829 0.026095
O O11 0.379299 0.793806 0.441995
O O12 0.128029 0.659875 0.810966
O O13 0.732279 0.709804 0.196270
O O14 0.631868 0.955857 0.984574
O O15 0.000000 0.500000 0.500000
O O16 0.965529 0.516876 0.272892
O O17 0.000000 0.500000 0.000000
#
# Coordination Sequence:
#
# PCOD9011838 Si02
#       8
#     2   2   2   2   2   2   2   2
#     4  10  23  40  61  92 132 161 209 269 314 372
#     4  10  22  41  62  90 130 170 209 267 318 376
#     4  11  22  40  65  91 125 170 220 255 317 391
#     4  11  22  40  63  94 124 167 213 267 314 375
#     4  12  22  40  65  93 126 171 212 261 321 380
#     4  10  21  40  67  95 130 168 210 265 324 374
#     4  11  23  40  63  91 126 168 210 263 324 377
#     4  11  22  40  67  96 126 171 217 260 316 386
#
# _framework density 22.068456000000001
#
# number of rings (size 3 to 8) (size 9 to 14) (size 15 to 20)
#    0.000    1.250    5.000    2.625    0.000    1.000 
#    0.000    0.625    0.000    6.750    0.000    0.000 
#    0.000    0.000    0.000    0.000    0.000    0.000 
#
# Total GULP energy -89098.164874 kJ/mol
# GULP energy per Si atom -5568.635305 kJ/mol
# Density = 2.201823 g / cm^3
# Si number density = 22.068456 Si / 1000 Ang^3
#
#
#
# Elastic Constant Matrix: (Units=GPa)
#
#
# Indices 1 2 3 4 5 6 
#
# 1 89.1783 28.0335 4.9086 4.8487 12.9654 1.3712
# 2 28.0335 115.0816 16.2087 -9.2462 12.6324 15.1333
# 3 4.9086 16.2087 45.2161 -0.4295 5.7868 7.1769
# 4 4.8487 -9.2462 -0.4295 27.4431 6.0153 0.2349
# 5 12.9654 12.6324 5.7868 6.0153 29.7858 0.9271
# 6 1.3712 15.1333 7.1769 0.2349 0.9271 38.4489
#
#
#
# Elastic Compliance Matrix: (Units=1/GPa)
#
#
# Indices 1 2 3 4 5 6 
#
# 1 0.012839 -0.003015 0.000024 -0.002448 -0.003846 0.000832
# 2 -0.003015 0.011099 -0.002522 0.005102 -0.003819 -0.003729
# 3 0.000024 -0.002522 0.024018 0.000333 -0.003568 -0.003407
# 4 -0.002448 0.005102 0.000333 0.040654 -0.009310 -0.002007
# 5 -0.003846 -0.003819 -0.003568 -0.009310 0.039396 0.001413
# 6 0.000832 -0.003729 -0.003407 -0.002007 0.001413 0.028061
#
#
# Mechanical properties :
#
#
# Convention : Reuss Voigt Hill
#
# Bulk Modulus (GPa) = 27.07830 38.64198 32.86014
# Shear Modulus (GPa) = 27.87018 32.49057 30.18037
#
# Velocity S-wave (km/s) = 3.55758 3.84117 3.70209
# Velocity P-wave (km/s) = 5.40111 6.10089 5.76163
#
# Compressibility (1/GPa) = 0.03692993
#
# Stress axis : x y z
#
# Youngs Moduli (GPa) = 77.88509 90.10154 41.63508
#
# Poissons Ratio (x) = 0.27165 -0.00099
# Poissons Ratio (y) = 0.23481 0.10501
# Poissons Ratio (z) = -0.00186 0.22725
#
# Static dielectric constant tensor:
#      x y z
#    x 1.814470 0.003240 0.055110 
#    y 0.003240 1.971520 -0.056750 
#    z 0.055110 -0.056750 1.854640 
# 
# From -- ./inp_files/454456.got.cif
#   From: 2010.05.17/outbox.cif.g08.bks.cpg/sg2_228_cif.got.tgz:454456.got - 2010.06.03 11:33:40.
