data_PCOD9011514
_publ_section_title
;
Structure prediction by ZEFSAII (Michael W. Deem and Ramdas Pophale) SiO2 
 PCOD9011514
Probable space group: P -1
;
_chemical_formula_sum "Si O2"
_cell_formula_units_Z 16
_cell_length_a 19.005284
_cell_length_b 25.966465
_cell_length_c 16.311347
_cell_angle_alpha 18.307840
_cell_angle_beta 151.705711
_cell_angle_gamma 162.163453
_cell_volume 751.606711
_symmetry_space_group_name_H-M "P -1"
_symmetry_group_IT_number 2
_symmetry_cell_setting 'triclinic'
loop_
_space_group_symop_operation_xyz
x,y,z
-x,-y,-z
loop_
_atom_site_type_symbol
_atom_site_label
_atom_site_fract_x
_atom_site_fract_y
_atom_site_fract_z
Si Si1 0.488875 0.767535 0.274342
Si Si2 0.042971 0.400056 0.264720
Si Si3 0.679417 0.501630 0.182543
Si Si4 0.122998 0.107969 0.749589
Si Si5 0.736597 0.321698 0.657927
Si Si6 0.616121 0.570169 0.632256
Si Si7 0.309109 0.715053 0.818237
Si Si8 0.721561 0.289922 0.397255
O O1 0.314011 0.624527 0.232832
O O2 0.334167 0.643218 0.385530
O O3 0.628877 0.717747 0.492010
O O4 0.651649 0.065231 0.979619
O O5 0.988516 0.166756 0.535500
O O6 0.892552 0.331275 0.292365
O O7 0.000000 0.500000 0.000000
O O8 0.616024 0.311147 0.474096
O O9 0.693286 0.415571 0.241031
O O10 0.500000 0.500000 0.000000
O O11 0.933618 0.800569 0.015103
O O12 0.337058 0.283559 0.769605
O O13 0.270602 0.247220 0.606590
O O14 0.011173 0.543041 0.583127
O O15 0.751154 0.517158 0.861926
O O16 0.341988 0.723589 0.741891
O O17 0.540526 0.987316 0.688497
#
# Coordination Sequence:
#
# PCOD9011514 Si02
#       8
#     2   2   2   2   2   2   2   2
#     4  10  24  42  67  94 127 172 214 261 322 377
#     4  11  21  40  69  96 128 164 214 265 314 373
#     4  12  27  42  65  96 129 168 212 264 321 378
#     4  10  22  40  62  97 125 162 215 254 321 378
#     4  11  24  46  64  91 133 173 212 258 325 386
#     4  10  21  40  66  94 124 164 214 268 310 371
#     4  11  23  41  67  94 127 167 216 266 314 379
#     4  11  25  44  63  94 129 172 213 256 329 383
#
# _framework density 21.287728999999999
#
# number of rings (size 3 to 8) (size 9 to 14) (size 15 to 20)
#    0.000    1.250    2.500    2.625    5.250    0.000 
#    0.000    3.125    0.000    0.000    0.000    0.000 
#    0.000    0.000    0.000    0.000    0.000    0.000 
#
# Total GULP energy -89325.736029 kJ/mol
# GULP energy per Si atom -5582.858502 kJ/mol
# Density = 2.123928 g / cm^3
# Si number density = 21.287729 Si / 1000 Ang^3
#
#
#
# Elastic Constant Matrix: (Units=GPa)
#
#
# Indices 1 2 3 4 5 6 
#
# 1 135.7728 17.2566 50.4511 2.8716 34.3863 2.3862
# 2 17.2566 34.7193 7.3805 5.4025 7.2047 10.2331
# 3 50.4511 7.3805 63.8922 -2.6473 22.6956 7.1124
# 4 2.8716 5.4025 -2.6473 13.7264 1.5295 2.8482
# 5 34.3863 7.2047 22.6956 1.5295 38.2153 3.3973
# 6 2.3862 10.2331 7.1124 2.8482 3.3973 30.8599
#
#
#
# Elastic Compliance Matrix: (Units=1/GPa)
#
#
# Indices 1 2 3 4 5 6 
#
# 1 0.012103 -0.003666 -0.007448 -0.002461 -0.005933 0.002877
# 2 -0.003666 0.035788 0.000266 -0.010860 -0.002248 -0.010395
# 3 -0.007448 0.000266 0.025373 0.008353 -0.008287 -0.005219
# 4 -0.002461 -0.010860 0.008353 0.080718 -0.003467 -0.005202
# 5 -0.005933 -0.002248 -0.008287 -0.003467 0.037048 -0.000644
# 6 0.002877 -0.010395 -0.005219 -0.005202 -0.000644 0.037383
#
#
# Mechanical properties :
#
#
# Convention : Reuss Voigt Hill
#
# Bulk Modulus (GPa) = 19.39165 42.72896 31.06030
# Shear Modulus (GPa) = 18.70576 27.18004 22.94290
#
# Velocity S-wave (km/s) = 2.96752 3.57710 3.28648
# Velocity P-wave (km/s) = 4.56844 6.09726 5.38736
#
# Compressibility (1/GPa) = 0.05156859
#
# Stress axis : x y z
#
# Youngs Moduli (GPa) = 82.62513 27.94221 39.41267
#
# Poissons Ratio (x) = 0.10243 0.29354
# Poissons Ratio (y) = 0.30290 -0.01050
# Poissons Ratio (z) = 0.61539 -0.00744
#
# Static dielectric constant tensor:
#      x y z
#    x 1.766220 -0.011370 0.002180 
#    y -0.011370 1.803730 0.006740 
#    z 0.002180 0.006740 1.778080 
# 
# From -- ./inp_files/539281.got.cif
#   From: 2010.05.17/outbox.cif.g08.bks.cpg/sg2_270_cif.got.tgz:539281.got - 2010.06.03 11:33:40.
