data_PCOD9011740
_publ_section_title
;
Structure prediction by ZEFSAII (Michael W. Deem and Ramdas Pophale) SiO2 
 PCOD9011740
Probable space group: P -1
;
_chemical_formula_sum "Si O2"
_cell_formula_units_Z 16
_cell_length_a 9.613971
_cell_length_b 11.932585
_cell_length_c 27.645844
_cell_angle_alpha 145.391021
_cell_angle_beta 151.822686
_cell_angle_gamma 47.627249
_cell_volume 834.729285
_symmetry_space_group_name_H-M "P -1"
_symmetry_group_IT_number 2
_symmetry_cell_setting 'triclinic'
loop_
_space_group_symop_operation_xyz
x,y,z
-x,-y,-z
loop_
_atom_site_type_symbol
_atom_site_label
_atom_site_fract_x
_atom_site_fract_y
_atom_site_fract_z
Si Si1 0.356749 0.376791 0.704816
Si Si2 0.539042 0.041840 0.708479
Si Si3 0.051849 0.346150 0.003064
Si Si4 0.708347 0.556287 0.713822
Si Si5 0.368844 0.925421 0.724056
Si Si6 0.269693 0.648756 0.990884
Si Si7 0.274646 0.616189 0.445727
Si Si8 0.336285 0.186234 0.525562
O O1 0.420562 0.227274 0.713961
O O2 0.389708 0.266155 0.625240
O O3 0.020893 0.403838 0.619616
O O4 0.595813 0.586372 0.854276
O O5 0.892734 0.125701 0.857124
O O6 0.391046 0.979112 0.692754
O O7 0.440996 0.848556 0.576211
O O8 0.000000 0.500000 0.000000
O O9 0.873813 0.379150 0.009172
O O10 0.538295 0.741802 0.720325
O O11 0.805318 0.481547 0.665418
O O12 0.480321 0.370899 0.601471
O O13 0.996572 0.611325 0.856204
O O14 0.020597 0.875255 0.613540
O O15 0.545686 0.124232 0.875158
O O16 0.500000 0.500000 0.000000
O O17 0.500000 0.500000 0.500000
O O18 0.500000 0.000000 0.500000
#
# Coordination Sequence:
#
# PCOD9011740 Si02
#       8
#     2   2   2   2   2   2   2   2
#     4  11  22  41  67  93 129 169 221 273 326 385
#     4  10  21  40  67  90 126 166 222 263 320 380
#     4   9  21  40  65  91 127 162 210 268 330 370
#     4  12  25  43  66  94 140 172 217 269 338 398
#     4  11  24  43  65  94 133 178 211 271 335 392
#     4  11  24  42  70  97 130 169 225 274 325 393
#     4  12  24  42  65  97 130 174 221 263 324 398
#     4  12  24  40  66 100 130 169 226 277 329 385
#
# _framework density 19.167891000000001
#
# number of rings (size 3 to 8) (size 9 to 14) (size 15 to 20)
#    0.000    1.000    3.750    2.625    7.000    0.000 
#    0.000    0.625    0.000    0.000    0.000    0.000 
#    0.000    0.000    0.000    0.000    0.000    0.000 
#
# Total GULP energy -89381.417976 kJ/mol
# GULP energy per Si atom -5586.338624 kJ/mol
# Density = 1.912426 g / cm^3
# Si number density = 19.167891 Si / 1000 Ang^3
#
#
#
# Elastic Constant Matrix: (Units=GPa)
#
#
# Indices 1 2 3 4 5 6 
#
# 1 51.3040 -13.1048 -4.5887 -7.8774 -4.6687 -14.1437
# 2 -13.1048 3.5155 -44.2550 -4.3479 6.1562 -41.6019
# 3 -4.5887 -44.2550 80.1586 -7.1492 10.5160 -42.8521
# 4 -7.8774 -4.3479 -7.1492 31.5029 2.3836 -3.2530
# 5 -4.6687 6.1562 10.5160 2.3836 38.2237 -2.7265
# 6 -14.1437 -41.6019 -42.8521 -3.2530 -2.7265 19.5929
#
#
#
# Elastic Compliance Matrix: (Units=1/GPa)
#
#
# Indices 1 2 3 4 5 6 
#
# 1 0.018057 -0.004597 -0.003088 0.002655 0.003447 -0.002559
# 2 -0.004597 0.002339 -0.007066 -0.003937 0.000222 -0.014430
# 3 -0.003088 -0.007066 0.005496 -0.000989 -0.001084 -0.005528
# 4 0.002655 -0.003937 -0.000989 0.031348 -0.000977 -0.003538
# 5 0.003447 0.000222 -0.001084 -0.000977 0.027207 0.004214
# 6 -0.002559 -0.014430 -0.005528 -0.003538 0.004214 0.006460
#
#
# Mechanical properties :
#
#
# Convention : Reuss Voigt Hill
#
# Bulk Modulus (GPa) = -276.94999 1.23122 -137.85939
# Shear Modulus (GPa) = 41.94417 30.99233 36.46825
#
# Velocity S-wave (km/s) = 4.68295 4.02542 4.36658
# Velocity P-wave (km/s) = 10.74989 4.71689 6.83048
#
# Compressibility (1/GPa) = -0.00361076
#
# Stress axis : x y z
#
# Youngs Moduli (GPa) = 55.37991 427.54766 181.95117
#
# Poissons Ratio (x) = 1.96547 0.56184
# Poissons Ratio (y) = 0.25459 1.28574
# Poissons Ratio (z) = 0.17101 3.02123
#
# Static dielectric constant tensor:
#      x y z
#    x 1.656060 0.006830 -0.007450 
#    y 0.006830 1.627480 -0.001060 
#    z -0.007450 -0.001060 1.708110 
# 
# From -- ./inp_files/179282.got.cif
#   From: 2010.05.17/outbox.cif.g08.bks.cpg/sg2_90_cif.got.tgz:179282.got - 2010.06.03 11:33:40.
