data_PCOD9011037
_publ_section_title
;
Structure prediction by ZEFSAII (Michael W. Deem and Ramdas Pophale) SiO2 
 PCOD9011037
Probable space group: P -1
;
_chemical_formula_sum "Si O2"
_cell_formula_units_Z 15
_cell_length_a 21.859812
_cell_length_b 11.083457
_cell_length_c 9.926162
_cell_angle_alpha 112.517867
_cell_angle_beta 144.860721
_cell_angle_gamma 44.167901
_cell_volume 830.912618
_symmetry_space_group_name_H-M "P -1"
_symmetry_group_IT_number 2
_symmetry_cell_setting 'triclinic'
loop_
_space_group_symop_operation_xyz
x,y,z
-x,-y,-z
loop_
_atom_site_type_symbol
_atom_site_label
_atom_site_fract_x
_atom_site_fract_y
_atom_site_fract_z
Si Si1 0.195161 0.053810 0.128569
Si Si2 0.000000 0.500000 0.000000
Si Si3 0.377335 0.731942 0.843375
Si Si4 0.265251 0.592280 0.123505
Si Si5 0.601688 0.289089 0.438349
Si Si6 0.990007 0.007497 0.647370
Si Si7 0.748059 0.660500 0.844268
Si Si8 0.592421 0.075233 0.797892
O O1 0.126089 0.260348 0.117004
O O2 0.289451 0.911567 0.365697
O O3 0.320947 0.937237 0.179804
O O4 0.049096 0.092778 0.843270
O O5 0.090159 0.475921 0.012448
O O6 0.402388 0.741640 0.737232
O O7 0.193661 0.853338 0.584674
O O8 0.500000 0.500000 0.000000
O O9 0.402981 0.831504 0.029072
O O10 0.420581 0.454505 0.244863
O O11 0.315829 0.646426 0.356768
O O12 0.240597 0.472639 0.090881
O O13 0.112005 0.791280 0.848220
O O14 0.000000 0.000000 0.500000
O O15 0.593919 0.779956 0.517414
O O16 0.693669 0.845727 0.900507
#
# Coordination Sequence:
#
# PCOD9011037 Si02
#       8
#     2   1   2   2   2   2   2   2
#     4  10  21  41  63  90 125 164 204 251 305 371
#     4  10  24  36  64  96 118 156 216 258 288 364
#     4  12  25  38  60  95 125 161 202 264 305 365
#     4  10  21  40  65  87 122 170 202 251 312 368
#     4  10  22  38  64  93 123 157 211 254 303 372
#     4  11  23  39  61  90 130 158 205 257 315 359
#     4  10  21  41  67  89 119 168 210 248 305 376
#     4  10  21  42  64  87 123 167 205 248 308 370
#
# _framework density 18.052441000000002
#
# number of rings (size 3 to 8) (size 9 to 14) (size 15 to 20)
#    0.000    1.600    2.667    1.600    7.467    1.067 
#    0.000    2.667    0.000    0.000    0.000    0.000 
#    0.000    0.000    0.000    0.000    0.000    0.000 
#
# Total GULP energy -83501.434529 kJ/mol
# GULP energy per Si atom -5566.762302 kJ/mol
# Density = 1.801135 g / cm^3
# Si number density = 18.052441 Si / 1000 Ang^3
#
#
#
# Elastic Constant Matrix: (Units=GPa)
#
#
# Indices 1 2 3 4 5 6 
#
# 1 100.5033 57.6154 32.5373 7.8372 -17.2027 1.7393
# 2 57.6154 100.3398 47.0434 10.7001 -16.3549 -11.5021
# 3 32.5373 47.0434 85.1899 -2.1576 -4.5703 -8.3194
# 4 7.8372 10.7001 -2.1576 20.0347 -5.4694 -3.8276
# 5 -17.2027 -16.3549 -4.5703 -5.4694 29.0187 -0.6909
# 6 1.7393 -11.5021 -8.3194 -3.8276 -0.6909 37.3670
#
#
#
# Elastic Compliance Matrix: (Units=1/GPa)
#
#
# Indices 1 2 3 4 5 6 
#
# 1 0.016004 -0.007770 -0.001994 -0.001840 0.004359 -0.003689
# 2 -0.007770 0.019795 -0.007484 -0.006367 0.004272 0.004215
# 3 -0.001994 -0.007484 0.016941 0.006634 -0.001429 0.002214
# 4 -0.001840 -0.006367 0.006634 0.057852 0.007404 0.005666
# 5 0.004359 0.004272 -0.001429 0.007404 0.040678 0.002304
# 6 -0.003689 0.004215 0.002214 0.005666 0.002304 0.029347
#
#
# Mechanical properties :
#
#
# Convention : Reuss Voigt Hill
#
# Bulk Modulus (GPa) = 54.81859 62.26946 58.54403
# Shear Modulus (GPa) = 22.60468 27.20654 24.90561
#
# Velocity S-wave (km/s) = 3.54244 3.88633 3.71836
# Velocity P-wave (km/s) = 6.86761 7.39639 7.13690
#
# Compressibility (1/GPa) = 0.01824199
#
# Stress axis : x y z
#
# Youngs Moduli (GPa) = 62.48620 50.51759 59.03010
#
# Poissons Ratio (x) = 0.39254 0.11773
# Poissons Ratio (y) = 0.48554 0.44177
# Poissons Ratio (z) = 0.12462 0.37806
#
# Static dielectric constant tensor:
#      x y z
#    x 1.633010 0.014470 0.015960 
#    y 0.014470 1.616610 0.009880 
#    z 0.015960 0.009880 1.601750 
# 
# From -- ./inp_files/171257.got.cif
#   From: 2010.05.17/outbox.cif.g08.bks.cpg/sg2_86_cif.got.tgz:171257.got - 2010.06.03 11:33:40.
