data_PCOD9011028
_publ_section_title
;
Structure prediction by ZEFSAII (Michael W. Deem and Ramdas Pophale) SiO2 
 PCOD9011028
Probable space group: P -1
;
_chemical_formula_sum "Si O2"
_cell_formula_units_Z 14
_cell_length_a 8.655435
_cell_length_b 8.577161
_cell_length_c 9.103747
_cell_angle_alpha 114.455771
_cell_angle_beta 73.127061
_cell_angle_gamma 92.843419
_cell_volume 586.797907
_symmetry_space_group_name_H-M "P -1"
_symmetry_group_IT_number 2
_symmetry_cell_setting 'triclinic'
loop_
_space_group_symop_operation_xyz
x,y,z
-x,-y,-z
loop_
_atom_site_type_symbol
_atom_site_label
_atom_site_fract_x
_atom_site_fract_y
_atom_site_fract_z
Si Si1 0.361671 0.608392 0.166409
Si Si2 0.211539 0.361504 0.327529
Si Si3 0.109667 0.329415 0.666473
Si Si4 0.364280 0.179661 0.750111
Si Si5 0.951829 0.704377 0.929560
Si Si6 0.442555 0.072268 0.203264
Si Si7 0.858800 0.137278 0.820086
O O1 0.248197 0.522002 0.278590
O O2 0.463029 0.743444 0.274687
O O3 0.262817 0.694053 0.093112
O O4 0.500000 0.500000 0.000000
O O5 0.128728 0.383331 0.515005
O O6 0.094872 0.260987 0.213116
O O7 0.391944 0.271890 0.273585
O O8 0.276757 0.230791 0.641446
O O9 0.045569 0.511683 0.833661
O O10 0.987993 0.183532 0.679431
O O11 0.424162 0.997027 0.740405
O O12 0.225775 0.271455 0.932883
O O13 0.053479 0.841988 0.040134
O O14 0.261352 0.005272 0.245197
O O15 0.500000 0.000000 0.000000
#
# Coordination Sequence:
#
# PCOD9011028 Si02
#       7
#     2   2   2   2   2   2   2
#     4  11  18  36  62  89 114 159 202 250 296 342
#     4  12  24  36  64  91 129 154 200 254 300 359
#     4  11  23  39  61  94 124 157 200 250 308 354
#     4  10  21  40  65  85 121 162 205 246 296 360
#     4  11  20  39  64  93 114 158 204 252 292 351
#     4  11  23  42  63  91 118 160 208 247 296 363
#     4  10  22  38  66  85 120 162 202 245 302 358
#
# _framework density 23.858298999999999
#
# number of rings (size 3 to 8) (size 9 to 14) (size 15 to 20)
#    0.000    1.143    4.286    3.857    0.000    2.286 
#    0.000    0.000    0.000    0.000    0.000    0.000 
#    0.000    0.000    0.000    0.000    0.000    0.000 
#
# Total GULP energy -77956.492876 kJ/mol
# GULP energy per Si atom -5568.320920 kJ/mol
# Density = 2.380400 g / cm^3
# Si number density = 23.858299 Si / 1000 Ang^3
#
#
#
# Elastic Constant Matrix: (Units=GPa)
#
#
# Indices 1 2 3 4 5 6 
#
# 1 125.3652 25.8831 11.4848 -7.3418 8.5249 -27.3007
# 2 25.8831 52.8015 5.4013 -5.5255 11.3486 -34.3404
# 3 11.4848 5.4013 96.0723 -23.0984 7.1629 -5.6480
# 4 -7.3418 -5.5255 -23.0984 29.9494 -10.9907 1.6439
# 5 8.5249 11.3486 7.1629 -10.9907 27.0986 -7.9259
# 6 -27.3007 -34.3404 -5.6480 1.6439 -7.9259 48.8803
#
#
#
# Elastic Compliance Matrix: (Units=1/GPa)
#
#
# Indices 1 2 3 4 5 6 
#
# 1 0.009318 -0.001881 -0.000465 0.001212 -0.000442 0.003717
# 2 -0.001881 0.037146 0.000822 0.003183 -0.006896 0.023916
# 3 -0.000465 0.000822 0.012910 0.010286 0.001039 0.001632
# 4 0.001212 0.003183 0.010286 0.047995 0.016545 0.005170
# 5 -0.000442 -0.006896 0.001039 0.016545 0.046976 0.002089
# 6 0.003717 0.023916 0.001632 0.005170 0.002089 0.039689
#
#
# Mechanical properties :
#
#
# Convention : Reuss Voigt Hill
#
# Bulk Modulus (GPa) = 17.75422 39.97528 28.86475
# Shear Modulus (GPa) = 23.16340 36.61700 29.89020
#
# Velocity S-wave (km/s) = 3.11927 3.92186 3.54336
# Velocity P-wave (km/s) = 4.52004 6.10735 5.37264
#
# Compressibility (1/GPa) = 0.05632463
#
# Stress axis : x y z
#
# Youngs Moduli (GPa) = 107.31799 26.92073 77.46111
#
# Poissons Ratio (x) = 0.05064 0.03604
# Poissons Ratio (y) = 0.20188 -0.06365
# Poissons Ratio (z) = 0.04993 -0.02212
#
# Static dielectric constant tensor:
#      x y z
#    x 2.038170 0.031620 0.011390 
#    y 0.031620 2.066710 0.101710 
#    z 0.011390 0.101710 1.999300 
# 
# From -- ./inp_files/159504.got.cif
#   From: 2010.05.17/outbox.cif.g08.bks.cpg/sg2_80_cif.got.tgz:159504.got - 2010.06.03 11:33:40.
