data_PCOD9011240
_publ_section_title
;
Structure prediction by ZEFSAII (Michael W. Deem and Ramdas Pophale) SiO2 
 PCOD9011240
Probable space group: P -1
;
_chemical_formula_sum "Si O2"
_cell_formula_units_Z 14
_cell_length_a 5.135720
_cell_length_b 9.989482
_cell_length_c 15.435749
_cell_angle_alpha 120.662465
_cell_angle_beta 103.463077
_cell_angle_gamma 56.832537
_cell_volume 569.028300
_symmetry_space_group_name_H-M "P -1"
_symmetry_group_IT_number 2
_symmetry_cell_setting 'triclinic'
loop_
_space_group_symop_operation_xyz
x,y,z
-x,-y,-z
loop_
_atom_site_type_symbol
_atom_site_label
_atom_site_fract_x
_atom_site_fract_y
_atom_site_fract_z
Si Si1 0.628129 0.686308 0.287331
Si Si2 0.253783 0.153511 0.806801
Si Si3 0.716791 0.281463 0.948758
Si Si4 0.074575 0.576743 0.447639
Si Si5 0.498394 0.758300 0.737754
Si Si6 0.134507 0.708458 0.845093
Si Si7 0.177248 0.028063 0.445514
O O1 0.821452 0.735014 0.251569
O O2 0.626324 0.508829 0.201275
O O3 0.802063 0.631685 0.374351
O O4 0.296673 0.869220 0.332199
O O5 0.520063 0.187661 0.877987
O O6 0.986483 0.226009 0.881369
O O7 0.381778 0.940732 0.733658
O O8 0.500000 0.500000 0.000000
O O9 0.854017 0.220735 0.035925
O O10 0.379098 0.421477 0.370899
O O11 0.000000 0.500000 0.500000
O O12 0.040544 0.766630 0.533216
O O13 0.249122 0.777794 0.796288
O O14 0.800119 0.733567 0.805173
O O15 0.500000 0.000000 0.500000
O O16 0.000000 0.000000 0.500000
#
# Coordination Sequence:
#
# PCOD9011240 Si02
#       7
#     2   2   2   2   2   2   2
#     4  10  23  42  68  98 134 179 227 273 333 396
#     4  12  26  43  69 101 137 178 226 278 328 405
#     4  12  26  43  72 101 135 175 231 274 334 395
#     4  10  22  43  69  97 135 175 221 278 336 398
#     4  11  25  44  67 101 138 176 221 276 341 391
#     4  11  24  44  69  97 138 178 222 278 333 394
#     4  10  21  40  65  95 127 169 219 268 322 390
#
# _framework density 24.603345000000001
#
# number of rings (size 3 to 8) (size 9 to 14) (size 15 to 20)
#    0.000    1.143    1.429    3.857    4.000    5.714 
#    0.000   20.000    0.000    0.000    0.000    0.000 
#    0.000    0.000    0.000    0.000    0.000    0.000 
#
# Total GULP energy -78467.907619 kJ/mol
# GULP energy per Si atom -5604.850544 kJ/mol
# Density = 2.454735 g / cm^3
# Si number density = 24.603345 Si / 1000 Ang^3
#
#
#
# Elastic Constant Matrix: (Units=GPa)
#
#
# Indices 1 2 3 4 5 6 
#
# 1 138.4973 23.9568 33.9184 -2.2547 -20.5277 13.4317
# 2 23.9568 158.2792 44.0717 1.4010 -8.0661 25.4869
# 3 33.9184 44.0717 104.8246 -13.5851 -19.8731 2.7161
# 4 -2.2547 1.4010 -13.5851 48.2341 3.5375 -1.3863
# 5 -20.5277 -8.0661 -19.8731 3.5375 41.9067 -10.4909
# 6 13.4317 25.4869 2.7161 -1.3863 -10.4909 45.2281
#
#
#
# Elastic Compliance Matrix: (Units=1/GPa)
#
#
# Indices 1 2 3 4 5 6 
#
# 1 0.008322 -0.000286 -0.002080 -0.000430 0.002676 -0.001578
# 2 -0.000286 0.008042 -0.003590 -0.001292 -0.001332 -0.004580
# 3 -0.002080 -0.003590 0.013022 0.003401 0.004958 0.003113
# 4 -0.000430 -0.001292 0.003401 0.021770 -0.000376 0.001232
# 5 0.002676 -0.001332 0.004958 -0.000376 0.028889 0.006348
# 6 -0.001578 -0.004580 0.003113 0.001232 0.006348 0.026483
#
#
# Mechanical properties :
#
#
# Convention : Reuss Voigt Hill
#
# Bulk Modulus (GPa) = 57.22794 67.27722 62.25258
# Shear Modulus (GPa) = 40.23689 47.05071 43.64380
#
# Velocity S-wave (km/s) = 4.04842 4.37781 4.21634
# Velocity P-wave (km/s) = 6.72040 7.27721 7.00434
#
# Compressibility (1/GPa) = 0.01747398
#
# Stress axis : x y z
#
# Youngs Moduli (GPa) = 120.16461 124.35007 76.79341
#
# Poissons Ratio (x) = 0.03559 0.15972
# Poissons Ratio (y) = 0.03439 0.27567
# Poissons Ratio (z) = 0.24993 0.44638
#
# Static dielectric constant tensor:
#      x y z
#    x 1.897740 -0.040210 0.047540 
#    y -0.040210 1.956800 0.055070 
#    z 0.047540 0.055070 1.992230 
# 
# From -- ./inp_files/89720.got.cif
#   From: 2010.05.17/outbox.cif.g08.bks.cpg/sg2_45_cif.got.tgz:89720.got - 2010.06.03 11:33:40.
