data_PCOD9011890
_publ_section_title
;
Structure prediction by ZEFSAII (Michael W. Deem and Ramdas Pophale) SiO2 
 PCOD9011890
Probable space group: P -1
;
_chemical_formula_sum "Si O2"
_cell_formula_units_Z 16
_cell_length_a 13.891886
_cell_length_b 8.457870
_cell_length_c 13.432068
_cell_angle_alpha 62.750831
_cell_angle_beta 147.070348
_cell_angle_gamma 118.650249
_cell_volume 747.787504
_symmetry_space_group_name_H-M "P -1"
_symmetry_group_IT_number 2
_symmetry_cell_setting 'triclinic'
loop_
_space_group_symop_operation_xyz
x,y,z
-x,-y,-z
loop_
_atom_site_type_symbol
_atom_site_label
_atom_site_fract_x
_atom_site_fract_y
_atom_site_fract_z
Si Si1 0.254587 0.554853 0.442146
Si Si2 0.118032 0.000636 0.503999
Si Si3 0.435879 0.243421 0.792506
Si Si4 0.377110 0.294911 0.957763
Si Si5 0.065755 0.272010 0.211032
Si Si6 0.337992 0.886351 0.115754
Si Si7 0.456191 0.288687 0.487640
Si Si8 0.983308 0.348130 0.612943
O O1 0.355950 0.404360 0.623860
O O2 0.130288 0.468540 0.264523
O O3 0.418054 0.709471 0.499980
O O4 0.131676 0.615176 0.403168
O O5 0.103626 0.826951 0.474396
O O6 0.318539 0.060609 0.699275
O O7 0.059642 0.144738 0.338562
O O8 0.000000 0.000000 0.500000
O O9 0.392658 0.243538 0.870367
O O10 0.630713 0.226156 0.925914
O O11 0.185179 0.329604 0.818656
O O12 0.500000 0.500000 0.000000
O O13 0.384208 0.104522 0.076058
O O14 0.239144 0.242952 0.305026
O O15 0.870969 0.202413 0.012644
O O16 0.469842 0.828019 0.329883
O O17 0.500000 0.500000 0.500000
O O18 0.000000 0.500000 0.500000
#
# Coordination Sequence:
#
# PCOD9011890 Si02
#       8
#     2   2   2   2   2   2   2   2
#     4  10  22  42  67 102 133 177 228 287 344 406
#     4  11  19  39  66  94 126 173 234 270 331 417
#     4  11  22  43  67  97 132 178 227 283 345 406
#     4  12  28  42  61 104 144 178 225 283 358 412
#     4  10  21  40  67  97 132 178 236 273 338 406
#     4  12  23  42  71  98 137 182 235 285 336 409
#     4  10  21  44  69  99 138 177 240 284 334 413
#     4  12  23  40  68  94 136 179 223 282 352 410
#
# _framework density 21.396453999999999
#
# number of rings (size 3 to 8) (size 9 to 14) (size 15 to 20)
#    0.000    1.000    7.500    1.125    3.500    2.000 
#    0.000    1.250    0.000    0.000    0.000    0.000 
#    0.000    0.000    0.000    0.000    0.000    0.000 
#
# Total GULP energy -89156.774293 kJ/mol
# GULP energy per Si atom -5572.298393 kJ/mol
# Density = 2.134775 g / cm^3
# Si number density = 21.396454 Si / 1000 Ang^3
#
#
#
# Elastic Constant Matrix: (Units=GPa)
#
#
# Indices 1 2 3 4 5 6 
#
# 1 166.4030 50.6325 38.5967 -2.9161 39.3368 8.0865
# 2 50.6325 100.9074 51.6831 0.4298 12.5482 6.0927
# 3 38.5967 51.6831 74.3904 -4.9510 30.8018 1.9241
# 4 -2.9161 0.4298 -4.9510 39.0132 3.3643 -2.8803
# 5 39.3368 12.5482 30.8018 3.3643 36.6440 -3.9792
# 6 8.0865 6.0927 1.9241 -2.8803 -3.9792 27.5401
#
#
#
# Elastic Compliance Matrix: (Units=1/GPa)
#
#
# Indices 1 2 3 4 5 6 
#
# 1 0.009921 -0.005247 0.004063 0.002153 -0.012864 -0.003670
# 2 -0.005247 0.019331 -0.016401 -0.003826 0.013140 -0.000092
# 3 0.004063 -0.016401 0.035628 0.007307 -0.029753 -0.003588
# 4 0.002153 -0.003826 0.007307 0.027676 -0.009552 0.001218
# 5 -0.012864 0.013140 -0.029753 -0.009552 0.063697 0.011153
# 6 -0.003670 -0.000092 -0.003588 0.001218 0.011153 0.039398
#
#
# Mechanical properties :
#
#
# Convention : Reuss Voigt Hill
#
# Bulk Modulus (GPa) = 33.65952 69.28061 51.47007
# Shear Modulus (GPa) = 20.77062 34.02536 27.39799
#
# Velocity S-wave (km/s) = 3.11907 3.99210 3.58228
# Velocity P-wave (km/s) = 5.36069 7.32795 6.42012
#
# Compressibility (1/GPa) = 0.02970927
#
# Stress axis : x y z
#
# Youngs Moduli (GPa) = 100.79926 51.73073 28.06772
#
# Poissons Ratio (x) = 0.27141 -0.11403
# Poissons Ratio (y) = 0.52885 0.46034
# Poissons Ratio (z) = -0.40950 0.84844
#
# Static dielectric constant tensor:
#      x y z
#    x 1.862720 0.042230 0.050250 
#    y 0.042230 1.773610 0.038070 
#    z 0.050250 0.038070 1.828150 
# 
# From -- ./inp_files/529489.got.cif
#   From: 2010.05.17/outbox.cif.g08.bks.cpg/sg2_265_cif.got.tgz:529489.got - 2010.06.03 11:33:40.
