data_PCOD9011399
_publ_section_title
;
Structure prediction by ZEFSAII (Michael W. Deem and Ramdas Pophale) SiO2 
 PCOD9011399
Probable space group: P -1
;
_chemical_formula_sum "Si O2"
_cell_formula_units_Z 16
_cell_length_a 9.002889
_cell_length_b 16.198376
_cell_length_c 15.708638
_cell_angle_alpha 25.393624
_cell_angle_beta 91.576622
_cell_angle_gamma 74.536125
_cell_volume 720.047074
_symmetry_space_group_name_H-M "P -1"
_symmetry_group_IT_number 2
_symmetry_cell_setting 'triclinic'
loop_
_space_group_symop_operation_xyz
x,y,z
-x,-y,-z
loop_
_atom_site_type_symbol
_atom_site_label
_atom_site_fract_x
_atom_site_fract_y
_atom_site_fract_z
Si Si1 0.826512 0.730357 0.529972
Si Si2 0.486552 0.561439 0.344438
Si Si3 0.724330 0.038201 0.724427
Si Si4 0.571884 0.215780 0.360150
Si Si5 0.183530 0.698984 0.092215
Si Si6 0.243099 0.416188 0.775027
Si Si7 0.825592 0.698562 0.745998
Si Si8 0.517250 0.338616 0.987188
O O1 0.770660 0.568904 0.646307
O O2 0.924208 0.618064 0.729412
O O3 0.001116 0.657300 0.539171
O O4 0.636813 0.031861 0.270150
O O5 0.500000 0.500000 0.500000
O O6 0.592463 0.300575 0.533923
O O7 0.257117 0.754460 0.124149
O O8 0.612718 0.641601 0.245848
O O9 0.656884 0.093108 0.572417
O O10 0.719871 0.834948 0.960511
O O11 0.953926 0.909005 0.861912
O O12 0.356694 0.296939 0.267139
O O13 0.721354 0.987606 0.506723
O O14 0.557044 0.460253 0.125917
O O15 0.320537 0.664690 0.051935
O O16 0.322694 0.475674 0.798403
O O17 0.000000 0.500000 0.000000
#
# Coordination Sequence:
#
# PCOD9011399 Si02
#       8
#     2   2   2   2   2   2   2   2
#     4  11  22  40  64  90 123 165 210 253 303 366
#     4  11  23  41  63  95 129 159 201 255 314 373
#     4  11  21  42  66  87 126 162 211 252 305 372
#     4  11  23  38  64  91 123 168 208 257 306 360
#     4  10  21  40  66  89 121 170 199 250 313 367
#     4  10  22  38  64  93 118 165 205 250 307 369
#     4  11  23  40  61  91 128 166 209 255 308 359
#     4  11  21  37  63  89 122 159 214 251 304 362
#
# _framework density 22.220772
#
# number of rings (size 3 to 8) (size 9 to 14) (size 15 to 20)
#    0.000    1.250    3.750    3.750    0.000    2.500 
#    0.000    3.750    0.000    0.000    0.000    0.000 
#    0.000    0.000    0.000    0.000    0.000    0.000 
#
# Total GULP energy -89294.373147 kJ/mol
# GULP energy per Si atom -5580.898322 kJ/mol
# Density = 2.217020 g / cm^3
# Si number density = 22.220772 Si / 1000 Ang^3
#
#
#
# Elastic Constant Matrix: (Units=GPa)
#
#
# Indices 1 2 3 4 5 6 
#
# 1 112.9584 15.3726 17.9636 5.6492 13.2188 -5.6673
# 2 15.3726 56.8547 5.9335 19.1034 8.3864 -3.5203
# 3 17.9636 5.9335 72.1777 -4.8030 13.4514 5.6081
# 4 5.6492 19.1034 -4.8030 34.1001 8.8465 -6.0806
# 5 13.2188 8.3864 13.4514 8.8465 37.8597 3.8531
# 6 -5.6673 -3.5203 5.6081 -6.0806 3.8531 19.3889
#
#
#
# Elastic Compliance Matrix: (Units=1/GPa)
#
#
# Indices 1 2 3 4 5 6 
#
# 1 0.009950 -0.002030 -0.002040 0.000633 -0.002844 0.003894
# 2 -0.002030 0.022646 -0.002077 -0.012391 -0.000712 0.000375
# 3 -0.002040 -0.002077 0.016067 0.004577 -0.005287 -0.003134
# 4 0.000633 -0.012391 0.004577 0.041461 -0.009971 0.011596
# 5 -0.002844 -0.000712 -0.005287 -0.009971 0.032694 -0.009056
# 6 0.003894 0.000375 -0.003134 0.011596 -0.009056 0.059125
#
#
# Mechanical properties :
#
#
# Convention : Reuss Voigt Hill
#
# Bulk Modulus (GPa) = 27.49622 35.61446 31.55534
# Shear Modulus (GPa) = 24.22956 31.78448 28.00702
#
# Velocity S-wave (km/s) = 3.30570 3.78616 3.55406
# Velocity P-wave (km/s) = 5.19338 5.93091 5.57436
#
# Compressibility (1/GPa) = 0.03636863
#
# Stress axis : x y z
#
# Youngs Moduli (GPa) = 100.50337 44.15760 62.24122
#
# Poissons Ratio (x) = 0.08963 0.12696
# Poissons Ratio (y) = 0.20399 0.12930
# Poissons Ratio (z) = 0.20501 0.09174
#
# Static dielectric constant tensor:
#      x y z
#    x 1.868240 -0.017860 -0.009630 
#    y -0.017860 1.787010 -0.016270 
#    z -0.009630 -0.016270 1.998110 
# 
# From -- ./inp_files/505055.got.cif
#   From: 2010.05.17/outbox.cif.g08.bks.cpg/sg2_253_cif.got.tgz:505055.got - 2010.06.03 11:33:40.
