data_PCOD9011282
_publ_section_title
;
Structure prediction by ZEFSAII (Michael W. Deem and Ramdas Pophale) SiO2 
 PCOD9011282
Probable space group: P -1
;
_chemical_formula_sum "Si O2"
_cell_formula_units_Z 15
_cell_length_a 13.059275
_cell_length_b 17.729720
_cell_length_c 10.681387
_cell_angle_alpha 31.933088
_cell_angle_beta 34.653543
_cell_angle_gamma 34.026208
_cell_volume 669.945710
_symmetry_space_group_name_H-M "P -1"
_symmetry_group_IT_number 2
_symmetry_cell_setting 'triclinic'
loop_
_space_group_symop_operation_xyz
x,y,z
-x,-y,-z
loop_
_atom_site_type_symbol
_atom_site_label
_atom_site_fract_x
_atom_site_fract_y
_atom_site_fract_z
Si Si1 0.884066 0.096658 0.328006
Si Si2 0.158066 0.428623 0.053794
Si Si3 0.644524 0.907316 0.788303
Si Si4 0.304997 0.844222 0.308375
Si Si5 0.000899 0.410573 0.495625
Si Si6 0.421338 0.143133 0.472761
Si Si7 0.348093 0.657482 0.000664
Si Si8 0.500000 0.500000 0.500000
O O1 0.775882 0.188719 0.432434
O O2 0.795810 0.213028 0.136476
O O3 0.814506 0.954540 0.598815
O O4 0.123093 0.006860 0.216658
O O5 0.252863 0.238945 0.204426
O O6 0.052425 0.481063 0.219985
O O7 0.335212 0.476897 0.785569
O O8 0.000000 0.500000 0.000000
O O9 0.493505 0.063636 0.646938
O O10 0.512128 0.862746 0.082125
O O11 0.363291 0.695873 0.367892
O O12 0.185789 0.240209 0.565360
O O13 0.000000 0.500000 0.500000
O O14 0.796710 0.394325 0.701273
O O15 0.524369 0.261337 0.177769
O O16 0.500000 0.000000 0.500000
O O17 0.500000 0.500000 0.000000
#
# Coordination Sequence:
#
# PCOD9011282 Si02
#       8
#     2   2   2   2   2   2   2   1
#     4  10  22  40  66  95 132 171 233 276 350 409
#     4  11  25  45  68 102 139 180 231 287 355 420
#     4  10  21  42  63  94 130 175 225 281 344 411
#     4  10  21  40  65  96 129 177 223 283 343 419
#     4  12  26  46  73 105 144 187 239 296 357 428
#     4  11  23  46  71  98 140 186 239 295 356 428
#     4  11  25  44  68 103 139 186 237 296 356 421
#     4  10  24  42  68  96 140 182 224 284 354 428
#
# _framework density 22.389875
#
# number of rings (size 3 to 8) (size 9 to 14) (size 15 to 20)
#    0.000    1.333    2.667    2.000    1.867    3.733 
#    4.800    0.000    0.000    0.000    0.000    0.000 
#    0.000    0.000    0.000    0.000    0.000    0.000 
#
# Total GULP energy -83556.920023 kJ/mol
# GULP energy per Si atom -5570.461335 kJ/mol
# Density = 2.233891 g / cm^3
# Si number density = 22.389875 Si / 1000 Ang^3
#
#
#
# Elastic Constant Matrix: (Units=GPa)
#
#
# Indices 1 2 3 4 5 6 
#
# 1 36.0387 14.4527 22.1546 9.6086 3.5227 10.0907
# 2 14.4527 114.0374 50.9213 14.6357 -14.7461 24.3906
# 3 22.1546 50.9213 131.9778 29.2195 -10.2104 6.4761
# 4 9.6086 14.6357 29.2195 41.8004 2.4283 -1.2853
# 5 3.5227 -14.7461 -10.2104 2.4283 36.6092 -3.3292
# 6 10.0907 24.3906 6.4761 -1.2853 -3.3292 23.7355
#
#
#
# Elastic Compliance Matrix: (Units=1/GPa)
#
#
# Indices 1 2 3 4 5 6 
#
# 1 0.037100 0.001078 -0.005036 -0.005566 -0.005681 -0.016604
# 2 0.001078 0.014183 -0.004056 -0.002997 0.003439 -0.013606
# 3 -0.005036 -0.004056 0.011201 -0.005302 0.002630 0.003335
# 4 -0.005566 -0.002997 -0.005302 0.030405 -0.003434 0.008057
# 5 -0.005681 0.003439 0.002630 -0.003434 0.030413 0.002243
# 6 -0.016604 -0.013606 0.003335 0.008057 0.002243 0.063012
#
#
# Mechanical properties :
#
#
# Convention : Reuss Voigt Hill
#
# Bulk Modulus (GPa) = 21.52606 50.79009 36.15807
# Shear Modulus (GPa) = 22.95384 33.39739 28.17562
#
# Velocity S-wave (km/s) = 3.20533 3.86635 3.55125
# Velocity P-wave (km/s) = 4.83052 6.53186 5.74452
#
# Compressibility (1/GPa) = 0.04645533
#
# Stress axis : x y z
#
# Youngs Moduli (GPa) = 26.95418 70.50716 89.27670
#
# Poissons Ratio (x) = -0.07600 0.44962
# Poissons Ratio (y) = -0.02906 0.36211
# Poissons Ratio (z) = 0.13575 0.28598
#
# Static dielectric constant tensor:
#      x y z
#    x 1.739440 -0.215370 0.244170 
#    y -0.215370 1.350130 0.428230 
#    z 0.244170 0.428230 1.354550 
# 
# From -- ./inp_files/456615.got.cif
#   From: 2010.05.17/outbox.cif.g08.bks.cpg/sg2_229_cif.got.tgz:456615.got - 2010.06.03 11:33:40.
