data_PCOD9011507
_publ_section_title
;
Structure prediction by ZEFSAII (Michael W. Deem and Ramdas Pophale) SiO2 
 PCOD9011507
Probable space group: P -1
;
_chemical_formula_sum "Si O2"
_cell_formula_units_Z 16
_cell_length_a 8.259386
_cell_length_b 20.390382
_cell_length_c 7.123555
_cell_angle_alpha 59.447777
_cell_angle_beta 123.426338
_cell_angle_gamma 137.618346
_cell_volume 663.855967
_symmetry_space_group_name_H-M "P -1"
_symmetry_group_IT_number 2
_symmetry_cell_setting 'triclinic'
loop_
_space_group_symop_operation_xyz
x,y,z
-x,-y,-z
loop_
_atom_site_type_symbol
_atom_site_label
_atom_site_fract_x
_atom_site_fract_y
_atom_site_fract_z
Si Si1 0.772198 0.981165 0.681584
Si Si2 0.002286 0.106186 0.196611
Si Si3 0.984080 0.410686 0.196894
Si Si4 0.712221 0.106466 0.723535
Si Si5 0.281459 0.395862 0.104957
Si Si6 0.358910 0.247269 0.510797
Si Si7 0.424939 0.219686 0.012860
Si Si8 0.890096 0.309339 0.642873
O O1 0.986158 0.978748 0.738740
O O2 0.576217 0.952270 0.433370
O O3 0.815742 0.066072 0.711505
O O4 0.620947 0.883055 0.863298
O O5 0.100653 0.147737 0.405502
O O6 0.233689 0.198386 0.083755
O O7 0.762821 0.089864 0.990098
O O8 0.011774 0.403280 0.447644
O O9 0.182891 0.412117 0.204890
O O10 0.706273 0.310363 0.116729
O O11 0.000000 0.500000 0.000000
O O12 0.856857 0.222618 0.632286
O O13 0.372567 0.335635 0.311729
O O14 0.500000 0.500000 0.000000
O O15 0.053920 0.336709 0.893690
O O16 0.363565 0.242181 0.744112
O O17 0.606055 0.263047 0.580182
#
# Coordination Sequence:
#
# PCOD9011507 Si02
#       8
#     2   2   2   2   2   2   2   2
#     4   9  21  38  64 100 133 176 221 267 326 386
#     4  10  21  40  66  93 136 172 220 265 333 381
#     4  12  26  45  71  96 132 175 217 272 336 392
#     4  11  19  38  71  95 130 184 217 265 328 392
#     4  12  30  44  69 101 128 174 226 270 333 396
#     4  12  23  43  67  96 132 172 218 274 326 388
#     4  10  23  41  65  97 133 172 216 277 326 384
#     4  12  24  46  71  92 139 175 216 274 331 386
#
# _framework density 24.101613
#
# number of rings (size 3 to 8) (size 9 to 14) (size 15 to 20)
#    0.750    0.250    6.250    1.125    3.500    1.500 
#    0.000    1.250    2.750    0.000    0.000    0.000 
#    0.000    0.000    0.000    0.000    0.000    0.000 
#
# Total GULP energy -89576.700084 kJ/mol
# GULP energy per Si atom -5598.543755 kJ/mol
# Density = 2.404676 g / cm^3
# Si number density = 24.101613 Si / 1000 Ang^3
#
#
#
# Elastic Constant Matrix: (Units=GPa)
#
#
# Indices 1 2 3 4 5 6 
#
# 1 51.0412 20.5748 7.9950 -5.8736 12.9705 -1.5250
# 2 20.5748 77.9946 9.1347 -26.7446 15.6337 -11.4489
# 3 7.9950 9.1347 156.8338 -10.2234 19.0106 -1.6939
# 4 -5.8736 -26.7446 -10.2234 43.7712 1.7340 7.0423
# 5 12.9705 15.6337 19.0106 1.7340 44.5955 -3.8477
# 6 -1.5250 -11.4489 -1.6939 7.0423 -3.8477 40.8622
#
#
#
# Elastic Compliance Matrix: (Units=1/GPa)
#
#
# Indices 1 2 3 4 5 6 
#
# 1 0.022929 -0.005114 -0.000277 0.000255 -0.004862 -0.001090
# 2 -0.005114 0.019496 0.000583 0.011135 -0.005784 0.002832
# 3 -0.000277 0.000583 0.006872 0.002084 -0.003153 -0.000218
# 4 0.000255 0.011135 0.002084 0.030854 -0.006299 -0.002695
# 5 -0.004862 -0.005784 -0.003153 -0.006299 0.027606 0.001752
# 6 -0.001090 0.002832 -0.000218 -0.002695 0.001752 0.025846
#
#
# Mechanical properties :
#
#
# Convention : Reuss Voigt Hill
#
# Bulk Modulus (GPa) = 25.20114 40.14207 32.67160
# Shear Modulus (GPa) = 31.95993 42.39012 37.17503
#
# Velocity S-wave (km/s) = 3.64545 4.19836 3.93164
# Velocity P-wave (km/s) = 5.31017 6.33981 5.84770
#
# Compressibility (1/GPa) = 0.03968075
#
# Stress axis : x y z
#
# Youngs Moduli (GPa) = 43.61235 51.29322 145.51705
#
# Poissons Ratio (x) = 0.26232 0.04028
# Poissons Ratio (y) = 0.22304 -0.08481
# Poissons Ratio (z) = 0.01207 -0.02989
#
# Static dielectric constant tensor:
#      x y z
#    x 1.907410 0.022760 -0.010570 
#    y 0.022760 1.948010 -0.021440 
#    z -0.010570 -0.021440 1.948040 
# 
# From -- ./inp_files/52803.got.cif
#   From: 2010.05.17/outbox.cif.g08.bks.cpg/sg2_27_cif.got.tgz:52803.got - 2010.06.03 11:33:40.
