data_PCOD9011669
_publ_section_title
;
Structure prediction by ZEFSAII (Michael W. Deem and Ramdas Pophale) SiO2 
 PCOD9011669
Probable space group: P -1
;
_chemical_formula_sum "Si O2"
_cell_formula_units_Z 16
_cell_length_a 10.109599
_cell_length_b 18.072094
_cell_length_c 5.586368
_cell_angle_alpha 99.216626
_cell_angle_beta 44.717588
_cell_angle_gamma 106.929073
_cell_volume 685.356068
_symmetry_space_group_name_H-M "P -1"
_symmetry_group_IT_number 2
_symmetry_cell_setting 'triclinic'
loop_
_space_group_symop_operation_xyz
x,y,z
-x,-y,-z
loop_
_atom_site_type_symbol
_atom_site_label
_atom_site_fract_x
_atom_site_fract_y
_atom_site_fract_z
Si Si1 0.813013 0.533421 0.766154
Si Si2 0.922224 0.834199 0.530593
Si Si3 0.194430 0.807731 0.520562
Si Si4 0.609659 0.007475 0.611696
Si Si5 0.443978 0.424991 0.270573
Si Si6 0.115809 0.087863 0.864269
Si Si7 0.815725 0.688026 0.079074
Si Si8 0.459719 0.274972 0.921176
O O1 0.688193 0.529587 0.681937
O O2 0.000000 0.500000 0.500000
O O3 0.643595 0.483708 0.133849
O O4 0.871525 0.624557 0.799052
O O5 0.963352 0.884880 0.267367
O O6 0.098534 0.799409 0.372951
O O7 0.879657 0.875577 0.856243
O O8 0.721342 0.771090 0.708271
O O9 0.260272 0.901638 0.517331
O O10 0.372318 0.769431 0.308789
O O11 0.011735 0.756944 0.886517
O O12 0.500000 0.000000 0.500000
O O13 0.680232 0.927838 0.478031
O O14 0.500000 0.000000 0.000000
O O15 0.291985 0.367794 0.605397
O O16 0.521892 0.363605 0.973723
O O17 0.000000 0.000000 0.000000
O O18 0.648282 0.721981 0.191275
#
# Coordination Sequence:
#
# PCOD9011669 Si02
#       8
#     2   2   2   2   2   2   2   2
#     4  10  21  40  66  99 136 177 222 274 336 409
#     4  11  26  44  71  99 135 181 232 290 356 417
#     4  11  24  45  67  96 134 178 232 286 345 425
#     4  12  27  46  69 103 134 179 239 294 355 425
#     4  10  22  40  65  96 137 177 222 281 334 409
#     4  12  24  45  68  94 135 175 225 295 357 411
#     4  10  23  42  65 100 133 178 227 278 345 406
#     4  10  23  43  62  93 136 176 224 278 345 404
#
# _framework density 23.345528999999999
#
# number of rings (size 3 to 8) (size 9 to 14) (size 15 to 20)
#    0.000    1.250    1.250    3.750    5.250    1.500 
#    9.000    0.000    0.000    0.000    0.000    0.000 
#    0.000    0.000    0.000    0.000    0.000    0.000 
#
# Total GULP energy -89137.600419 kJ/mol
# GULP energy per Si atom -5571.100026 kJ/mol
# Density = 2.329239 g / cm^3
# Si number density = 23.345529 Si / 1000 Ang^3
#
#
#
# Elastic Constant Matrix: (Units=GPa)
#
#
# Indices 1 2 3 4 5 6 
#
# 1 130.2730 65.1381 71.9050 7.7925 -15.6988 -30.0888
# 2 65.1381 157.7802 50.7401 -11.9790 -7.1185 -0.3527
# 3 71.9050 50.7401 108.7206 -21.8672 3.3809 -15.2773
# 4 7.7925 -11.9790 -21.8672 57.0101 -8.7821 -6.5207
# 5 -15.6988 -7.1185 3.3809 -8.7821 44.0051 4.5513
# 6 -30.0888 -0.3527 -15.2773 -6.5207 4.5513 56.7374
#
#
#
# Elastic Compliance Matrix: (Units=1/GPa)
#
#
# Indices 1 2 3 4 5 6 
#
# 1 0.017612 -0.004202 -0.010238 -0.005871 0.004649 0.005510
# 2 -0.004202 0.008627 -0.001249 0.001728 0.000581 -0.002359
# 3 -0.010238 -0.001249 0.018304 0.007649 -0.003804 0.000675
# 4 -0.005871 0.001728 0.007649 0.022081 0.001865 0.001345
# 5 0.004649 0.000581 -0.003804 0.001865 0.025179 -0.000361
# 6 0.005510 -0.002359 0.000675 0.001345 -0.000361 0.020898
#
#
# Mechanical properties :
#
#
# Convention : Reuss Voigt Hill
#
# Bulk Modulus (GPa) = 75.96665 85.81557 80.89111
# Shear Modulus (GPa) = 33.67737 45.48325 39.58031
#
# Velocity S-wave (km/s) = 3.80223 4.41870 4.12201
# Velocity P-wave (km/s) = 7.20324 7.92918 7.57491
#
# Compressibility (1/GPa) = 0.01316367
#
# Stress axis : x y z
#
# Youngs Moduli (GPa) = 56.77789 115.92161 54.63323
#
# Poissons Ratio (x) = 0.48714 0.55936
# Poissons Ratio (y) = 0.23860 0.06823
# Poissons Ratio (z) = 0.58132 0.14476
#
# Static dielectric constant tensor:
#      x y z
#    x 1.855130 0.074760 0.081700 
#    y 0.074760 1.916890 -0.042850 
#    z 0.081700 -0.042850 1.880180 
# 
# From -- ./inp_files/47728.got.cif
#   From: 2010.05.17/outbox.cif.g08.bks.cpg/sg2_24_cif.got.tgz:47728.got - 2010.06.03 11:33:40.
