data_PCOD9011068
_publ_section_title
;
Structure prediction by ZEFSAII (Michael W. Deem and Ramdas Pophale) SiO2 
 PCOD9011068
Probable space group: P -1
;
_chemical_formula_sum "Si O2"
_cell_formula_units_Z 15
_cell_length_a 13.542779
_cell_length_b 9.216677
_cell_length_c 8.366698
_cell_angle_alpha 83.356489
_cell_angle_beta 44.192410
_cell_angle_gamma 76.769203
_cell_volume 706.839732
_symmetry_space_group_name_H-M "P -1"
_symmetry_group_IT_number 2
_symmetry_cell_setting 'triclinic'
loop_
_space_group_symop_operation_xyz
x,y,z
-x,-y,-z
loop_
_atom_site_type_symbol
_atom_site_label
_atom_site_fract_x
_atom_site_fract_y
_atom_site_fract_z
Si Si1 0.806378 0.708330 0.964353
Si Si2 0.721077 0.205539 0.381523
Si Si3 0.359709 0.463770 0.574811
Si Si4 0.000000 0.500000 0.500000
Si Si5 0.992152 0.070389 0.245195
Si Si6 0.523024 0.922288 0.153423
Si Si7 0.569181 0.213323 0.213197
Si Si8 0.147128 0.783943 0.283876
O O1 0.912814 0.598108 0.738921
O O2 0.890289 0.827553 0.928852
O O3 0.732650 0.619445 0.191633
O O4 0.675548 0.806470 0.001129
O O5 0.732539 0.375236 0.387903
O O6 0.873876 0.093667 0.240492
O O7 0.603472 0.159063 0.639998
O O8 0.655627 0.206027 0.280578
O O9 0.500000 0.500000 0.500000
O O10 0.430121 0.348829 0.370174
O O11 0.094929 0.630506 0.348020
O O12 0.900458 0.140169 0.500267
O O13 0.067100 0.903624 0.230071
O O14 0.524717 0.056621 0.257708
O O15 0.500000 0.000000 0.000000
O O16 0.682103 0.236696 0.943535
#
# Coordination Sequence:
#
# PCOD9011068 Si02
#       8
#     2   2   2   1   2   2   2   2
#     4  11  22  45  67  94 137 175 217 278 328 388
#     4  11  24  41  68  98 131 173 224 271 329 397
#     4  10  21  41  68  95 136 174 218 273 334 383
#     4  10  22  36  68  94 126 180 210 264 334 384
#     4  10  23  42  65  94 131 177 214 275 328 389
#     4  12  25  42  69  99 131 173 228 274 324 395
#     4  11  22  43  68  96 130 177 218 275 330 389
#     4  10  21  40  65  89 138 168 220 263 334 381
#
# _framework density 21.221218
#
# number of rings (size 3 to 8) (size 9 to 14) (size 15 to 20)
#    0.000    1.333    4.000    2.800    3.733    1.067 
#    4.800    1.333    0.000    0.000    0.000    0.000 
#    0.000    0.000    0.000    0.000    0.000    0.000 
#
# Total GULP energy -83616.996740 kJ/mol
# GULP energy per Si atom -5574.466449 kJ/mol
# Density = 2.117292 g / cm^3
# Si number density = 21.221218 Si / 1000 Ang^3
#
#
#
# Elastic Constant Matrix: (Units=GPa)
#
#
# Indices 1 2 3 4 5 6 
#
# 1 51.9017 16.3915 7.4289 -5.4118 -7.6242 -0.7750
# 2 16.3915 83.7100 24.2750 -9.8349 7.3304 6.1768
# 3 7.4289 24.2750 99.9068 -19.9455 -8.0606 -5.1109
# 4 -5.4118 -9.8349 -19.9455 42.1308 7.0998 -4.6967
# 5 -7.6242 7.3304 -8.0606 7.0998 18.7460 1.4217
# 6 -0.7750 6.1768 -5.1109 -4.6967 1.4217 16.2558
#
#
#
# Elastic Compliance Matrix: (Units=1/GPa)
#
#
# Indices 1 2 3 4 5 6 
#
# 1 0.022784 -0.005895 0.000873 0.000302 0.011630 0.002671
# 2 -0.005895 0.015962 -0.004200 0.002116 -0.010783 -0.006112
# 3 0.000873 -0.004200 0.012720 0.005044 0.005052 0.006652
# 4 0.000302 0.002116 0.005044 0.029572 -0.010514 0.010259
# 5 0.011630 -0.010783 0.005052 -0.010514 0.068658 -0.002802
# 6 0.002671 -0.006112 0.006652 0.010259 -0.002802 0.069267
#
#
# Mechanical properties :
#
#
# Convention : Reuss Voigt Hill
#
# Bulk Modulus (GPa) = 30.28246 36.85658 33.56952
# Shear Modulus (GPa) = 20.12774 27.92140 24.02457
#
# Velocity S-wave (km/s) = 3.08307 3.63124 3.36832
# Velocity P-wave (km/s) = 5.19371 5.91495 5.56603
#
# Compressibility (1/GPa) = 0.03302242
#
# Stress axis : x y z
#
# Youngs Moduli (GPa) = 43.89132 62.64790 78.61738
#
# Poissons Ratio (x) = 0.36928 -0.06866
# Poissons Ratio (y) = 0.25872 0.33022
# Poissons Ratio (z) = -0.03833 0.26314
#
# Static dielectric constant tensor:
#      x y z
#    x 1.780480 -0.008620 0.017710 
#    y -0.008620 1.755640 0.028660 
#    z 0.017710 0.028660 1.773070 
# 
# From -- ./inp_files/240053.got.cif
#   From: 2010.05.17/outbox.cif.g08.bks.cpg/sg2_121_cif.got.tgz:240053.got - 2010.06.03 11:33:40.
