data_PCOD9011804
_publ_section_title
;
Structure prediction by ZEFSAII (Michael W. Deem and Ramdas Pophale) SiO2 
 PCOD9011804
Probable space group: P -1
;
_chemical_formula_sum "Si O2"
_cell_formula_units_Z 16
_cell_length_a 22.450743
_cell_length_b 5.414869
_cell_length_c 18.569809
_cell_angle_alpha 51.420780
_cell_angle_beta 157.155501
_cell_angle_gamma 120.373740
_cell_volume 667.180760
_symmetry_space_group_name_H-M "P -1"
_symmetry_group_IT_number 2
_symmetry_cell_setting 'triclinic'
loop_
_space_group_symop_operation_xyz
x,y,z
-x,-y,-z
loop_
_atom_site_type_symbol
_atom_site_label
_atom_site_fract_x
_atom_site_fract_y
_atom_site_fract_z
Si Si1 0.912846 0.071592 0.313800
Si Si2 0.747175 0.582686 0.256678
Si Si3 0.584463 0.033792 0.184388
Si Si4 0.867886 0.508883 0.560337
Si Si5 0.101955 0.190634 0.982760
Si Si6 0.113008 0.530246 0.185171
Si Si7 0.553008 0.904623 0.332233
Si Si8 0.364417 0.406314 0.144285
O O1 0.031961 0.210898 0.371231
O O2 0.846130 0.752594 0.281300
O O3 0.758674 0.361414 0.087954
O O4 0.000000 0.000000 0.500000
O O5 0.674636 0.288478 0.203610
O O6 0.848427 0.463245 0.462190
O O7 0.595474 0.864816 0.060753
O O8 0.693144 0.672552 0.364605
O O9 0.567580 0.099757 0.239578
O O10 0.974675 0.196927 0.775043
O O11 0.991829 0.452516 0.863726
O O12 0.255804 0.270955 0.104919
O O13 0.151332 0.877864 0.145559
O O14 0.273300 0.267514 0.417611
O O15 0.000000 0.500000 0.000000
O O16 0.462172 0.630495 0.254265
O O17 0.465983 0.125962 0.259179
#
# Coordination Sequence:
#
# PCOD9011804 Si02
#       8
#     2   2   2   2   2   2   2   2
#     4   9  20  44  64 101 141 195 240 296 351 428
#     4  10  22  38  61  96 140 184 239 292 352 434
#     4  11  23  37  62 102 133 192 234 296 353 427
#     4  10  21  40  67  93 138 184 237 298 355 427
#     4  10  25  48  73 106 145 186 250 295 376 437
#     4  11  27  47  78 109 143 192 243 311 370 453
#     4  12  28  48  77 105 153 194 244 308 365 435
#     4  11  27  50  74 110 149 197 245 300 368 438
#
# _framework density 23.981508000000002
#
# number of rings (size 3 to 8) (size 9 to 14) (size 15 to 20)
#    0.000    1.500    2.500    0.375    8.750    5.500 
#   11.250    0.000    0.000    0.000    0.000    0.000 
#    0.000    0.000    0.000    0.000    0.000    0.000 
#
# Total GULP energy -89440.617468 kJ/mol
# GULP energy per Si atom -5590.038592 kJ/mol
# Density = 2.392693 g / cm^3
# Si number density = 23.981508 Si / 1000 Ang^3
#
#
#
# Elastic Constant Matrix: (Units=GPa)
#
#
# Indices 1 2 3 4 5 6 
#
# 1 110.4055 54.1451 53.9445 -6.8828 6.7438 10.9243
# 2 54.1451 99.6333 29.8232 13.0032 20.3613 -4.7735
# 3 53.9445 29.8232 151.3045 -3.9454 10.0785 -20.4347
# 4 -6.8828 13.0032 -3.9454 31.7187 -8.4705 1.2209
# 5 6.7438 20.3613 10.0785 -8.4705 42.0970 -3.5953
# 6 10.9243 -4.7735 -20.4347 1.2209 -3.5953 25.9247
#
#
#
# Elastic Compliance Matrix: (Units=1/GPa)
#
#
# Indices 1 2 3 4 5 6 
#
# 1 0.020503 -0.012182 -0.007177 0.010528 0.005049 -0.016335
# 2 -0.012182 0.020486 0.001937 -0.013951 -0.010404 0.009647
# 3 -0.007177 0.001937 0.010391 -0.001951 -0.001692 0.011429
# 4 0.010528 -0.013951 -0.001951 0.043224 0.013482 -0.008709
# 5 0.005049 -0.010404 -0.001692 0.013482 0.030949 -0.001720
# 6 -0.016335 0.009647 0.011429 -0.008709 -0.001720 0.056413
#
#
# Mechanical properties :
#
#
# Convention : Reuss Voigt Hill
#
# Bulk Modulus (GPa) = 60.46826 70.79654 65.63240
# Shear Modulus (GPa) = 22.48998 34.84345 28.66671
#
# Velocity S-wave (km/s) = 3.06568 3.81587 3.46116
# Velocity P-wave (km/s) = 6.14821 6.99999 6.58788
#
# Compressibility (1/GPa) = 0.01653760
#
# Stress axis : x y z
#
# Youngs Moduli (GPa) = 48.77415 48.81272 96.23435
#
# Poissons Ratio (x) = 0.59465 0.69063
# Poissons Ratio (y) = 0.59418 -0.18645
# Poissons Ratio (z) = 0.35003 -0.09457
#
# Static dielectric constant tensor:
#      x y z
#    x 2.059140 0.016010 -0.073260 
#    y 0.016010 2.034340 -0.028230 
#    z -0.073260 -0.028230 1.965580 
# 
# From -- ./inp_files/601748.got.cif
#   From: 2010.05.17/outbox.cif.g08.bks.cpg/sg2_301_cif.got.tgz:601748.got - 2010.06.03 11:33:40.
