data_PCOD9011517
_publ_section_title
;
Structure prediction by ZEFSAII (Michael W. Deem and Ramdas Pophale) SiO2 
 PCOD9011517
Probable space group: P -1
;
_chemical_formula_sum "Si O2"
_cell_formula_units_Z 14
_cell_length_a 9.370714
_cell_length_b 15.083241
_cell_length_c 5.016973
_cell_angle_alpha 92.540587
_cell_angle_beta 64.022374
_cell_angle_gamma 112.292643
_cell_volume 583.452838
_symmetry_space_group_name_H-M "P -1"
_symmetry_group_IT_number 2
_symmetry_cell_setting 'triclinic'
loop_
_space_group_symop_operation_xyz
x,y,z
-x,-y,-z
loop_
_atom_site_type_symbol
_atom_site_label
_atom_site_fract_x
_atom_site_fract_y
_atom_site_fract_z
Si Si1 0.873948 0.190760 0.649984
Si Si2 0.550333 0.106963 0.576622
Si Si3 0.852431 0.556602 0.820647
Si Si4 0.055483 0.096970 0.797969
Si Si5 0.611919 0.842527 0.777129
Si Si6 0.761748 0.724198 0.925001
Si Si7 0.907499 0.381496 0.872143
O O1 0.750225 0.150599 0.497987
O O2 0.822446 0.270140 0.846024
O O3 0.889114 0.110358 0.819252
O O4 0.069981 0.244858 0.397650
O O5 0.494569 0.164325 0.405051
O O6 0.500000 0.000000 0.500000
O O7 0.453346 0.108108 0.930977
O O8 0.729115 0.612886 0.991449
O O9 0.794249 0.444175 0.928584
O O10 0.927999 0.571003 0.460089
O O11 0.017265 0.607477 0.891061
O O12 0.188107 0.094947 0.460188
O O13 0.167352 0.196113 0.885671
O O14 0.000000 0.000000 0.000000
O O15 0.615599 0.745247 0.889641
#
# Coordination Sequence:
#
# PCOD9011517 Si02
#       7
#     2   2   2   2   2   2   2
#     4  10  24  39  65  95 125 166 211 266 305 372
#     4  12  28  45  63  87 127 174 219 254 314 371
#     4   9  17  31  60  93 123 154 191 259 314 374
#     4  11  24  41  67  94 125 164 215 267 310 368
#     4  11  26  46  63  88 126 171 208 262 316 375
#     4  10  21  40  66  94 125 157 213 255 320 363
#     4   9  17  33  56  93 127 150 197 254 322 358
#
# _framework density 23.995083000000001
#
# number of rings (size 3 to 8) (size 9 to 14) (size 15 to 20)
#    0.000    1.714    2.857    0.429    6.000    1.143 
#    0.000    2.143    0.000    1.714    0.000    0.000 
#    0.000    0.000    0.000    0.000    0.000    0.000 
#
# Total GULP energy -78302.966009 kJ/mol
# GULP energy per Si atom -5593.069001 kJ/mol
# Density = 2.394047 g / cm^3
# Si number density = 23.995083 Si / 1000 Ang^3
#
#
#
# Elastic Constant Matrix: (Units=GPa)
#
#
# Indices 1 2 3 4 5 6 
#
# 1 126.0702 48.9857 3.8255 -3.3579 39.7273 -30.7732
# 2 48.9857 112.5634 8.2636 19.0069 12.2890 -34.5342
# 3 3.8255 8.2636 96.8891 14.6143 13.1635 -4.6180
# 4 -3.3579 19.0069 14.6143 26.8365 1.1296 5.1158
# 5 39.7273 12.2890 13.1635 1.1296 35.5417 -2.8082
# 6 -30.7732 -34.5342 -4.6180 5.1158 -2.8082 42.3600
#
#
#
# Elastic Compliance Matrix: (Units=1/GPa)
#
#
# Indices 1 2 3 4 5 6 
#
# 1 0.016950 -0.003527 0.002047 0.002706 -0.017928 0.008146
# 2 -0.003527 0.017377 0.001940 -0.016370 -0.001181 0.013715
# 3 0.002047 0.001940 0.012557 -0.008621 -0.006940 0.005019
# 4 0.002706 -0.016370 -0.008621 0.057424 0.002495 -0.019090
# 5 -0.017928 -0.001181 -0.006940 0.002495 0.050148 -0.011720
# 6 0.008146 0.013715 0.005019 -0.019090 -0.011720 0.042782
#
#
# Mechanical properties :
#
#
# Convention : Reuss Voigt Hill
#
# Bulk Modulus (GPa) = 20.91791 50.85246 35.88518
# Shear Modulus (GPa) = 23.55682 39.24418 31.40050
#
# Velocity S-wave (km/s) = 3.13666 4.04853 3.62141
# Velocity P-wave (km/s) = 4.67490 6.56453 5.69858
#
# Compressibility (1/GPa) = 0.04780593
#
# Stress axis : x y z
#
# Youngs Moduli (GPa) = 58.99547 57.54703 79.63578
#
# Poissons Ratio (x) = 0.20298 -0.16305
# Poissons Ratio (y) = 0.20809 -0.15453
# Poissons Ratio (z) = -0.12079 -0.11167
#
# Static dielectric constant tensor:
#      x y z
#    x 1.926360 -0.059140 0.008280 
#    y -0.059140 1.992440 -0.019800 
#    z 0.008280 -0.019800 1.962210 
# 
# From -- ./inp_files/38507.got.cif
#   From: 2010.05.17/outbox.cif.g08.bks.cpg/sg2_20_cif.got.tgz:38507.got - 2010.06.03 11:33:40.
