data_PCOD9011820
_publ_section_title
;
Structure prediction by ZEFSAII (Michael W. Deem and Ramdas Pophale) SiO2 
 PCOD9011820
Probable space group: P -1
;
_chemical_formula_sum "Si O2"
_cell_formula_units_Z 12
_cell_length_a 13.343361
_cell_length_b 9.452354
_cell_length_c 7.252505
_cell_angle_alpha 50.623520
_cell_angle_beta 122.060839
_cell_angle_gamma 124.103926
_cell_volume 563.142403
_symmetry_space_group_name_H-M "P -1"
_symmetry_group_IT_number 2
_symmetry_cell_setting 'triclinic'
loop_
_space_group_symop_operation_xyz
x,y,z
-x,-y,-z
loop_
_atom_site_type_symbol
_atom_site_label
_atom_site_fract_x
_atom_site_fract_y
_atom_site_fract_z
Si Si1 0.767927 0.800948 0.708552
Si Si2 0.480460 0.557902 0.173620
Si Si3 0.449724 0.136597 0.718308
Si Si4 0.051666 0.448680 0.899514
Si Si5 0.154657 0.775994 0.418712
Si Si6 0.416613 0.729754 0.620123
O O1 0.646387 0.630174 0.815495
O O2 0.696557 0.881950 0.411882
O O3 0.832063 0.998747 0.722314
O O4 0.861560 0.682612 0.861184
O O5 0.482301 0.657861 0.287037
O O6 0.594973 0.481333 0.305572
O O7 0.477348 0.712087 0.888866
O O8 0.494530 0.127791 0.560652
O O9 0.500000 0.000000 0.000000
O O10 0.119940 0.644641 0.681622
O O11 0.944954 0.321804 0.758013
O O12 0.000000 0.500000 0.000000
O O13 0.287524 0.764736 0.492010
#
# Coordination Sequence:
#
# PCOD9011820 Si02
#       6
#     2   2   2   2   2   2
#     4  11  23  45  71  98 142 174 225 282 336 404
#     4  10  22  40  66 101 137 174 222 268 343 406
#     4  11  25  40  66 107 142 175 225 269 339 418
#     4  11  27  47  70  96 135 180 234 286 333 394
#     4  11  25  45  70 101 133 176 234 278 340 400
#     4  10  21  40  67  94 137 175 214 278 335 399
#
# _framework density 21.308997999999999
#
# number of rings (size 3 to 8) (size 9 to 14) (size 15 to 20)
#    0.000    1.333    1.667    3.500    4.667    8.000 
#    0.000    1.667    0.000    0.000    0.000    0.000 
#    0.000    0.000    0.000    0.000    0.000    0.000 
#
# Total GULP energy -66869.553296 kJ/mol
# GULP energy per Si atom -5572.462775 kJ/mol
# Density = 2.126050 g / cm^3
# Si number density = 21.308998 Si / 1000 Ang^3
#
#
#
# Elastic Constant Matrix: (Units=GPa)
#
#
# Indices 1 2 3 4 5 6 
#
# 1 126.5568 61.7097 60.8573 -5.4727 26.1646 -27.3958
# 2 61.7097 139.1635 51.0723 -22.8054 -5.2969 -9.0257
# 3 60.8573 51.0723 152.0278 -14.0604 24.8086 -15.9703
# 4 -5.4727 -22.8054 -14.0604 39.4534 -12.0843 3.0251
# 5 26.1646 -5.2969 24.8086 -12.0843 33.5977 0.2570
# 6 -27.3958 -9.0257 -15.9703 3.0251 0.2570 26.4192
#
#
#
# Elastic Compliance Matrix: (Units=1/GPa)
#
#
# Indices 1 2 3 4 5 6 
#
# 1 0.022587 -0.011543 -0.000212 -0.012556 -0.023930 0.021020
# 2 -0.011543 0.015793 -0.003680 0.012801 0.018880 -0.010448
# 3 -0.000212 -0.003680 0.009548 -0.001573 -0.008066 0.004553
# 4 -0.012556 0.012801 -0.001573 0.039955 0.027439 -0.014440
# 5 -0.023930 0.018880 -0.008066 0.027439 0.067408 -0.027038
# 6 0.021020 -0.010448 0.004553 -0.014440 -0.027038 0.060749
#
#
# Mechanical properties :
#
#
# Convention : Reuss Voigt Hill
#
# Bulk Modulus (GPa) = 58.62031 85.00295 71.81163
# Shear Modulus (GPa) = 19.79459 36.16798 27.98128
#
# Velocity S-wave (km/s) = 3.05114 4.12431 3.62763
# Velocity P-wave (km/s) = 6.32313 7.91563 7.16377
#
# Compressibility (1/GPa) = 0.01705893
#
# Stress axis : x y z
#
# Youngs Moduli (GPa) = 44.27415 63.31739 104.73729
#
# Poissons Ratio (x) = 0.73087 0.02218
# Poissons Ratio (y) = 0.51106 0.38539
# Poissons Ratio (z) = 0.00938 0.23298
#
# Static dielectric constant tensor:
#      x y z
#    x 1.773090 0.016530 -0.004810 
#    y 0.016530 1.825650 -0.027720 
#    z -0.004810 -0.027720 1.908550 
# 
# From -- ./inp_files/294329.got.cif
#   From: 2010.05.17/outbox.cif.g08.bks.cpg/sg2_148_cif.got.tgz:294329.got - 2010.06.03 11:33:40.
