data_PCOD9011281
_publ_section_title
;
Structure prediction by ZEFSAII (Michael W. Deem and Ramdas Pophale) SiO2 
 PCOD9011281
Probable space group: P -1
;
_chemical_formula_sum "Si O2"
_cell_formula_units_Z 16
_cell_length_a 8.914305
_cell_length_b 21.052101
_cell_length_c 8.770382
_cell_angle_alpha 59.410979
_cell_angle_beta 148.397435
_cell_angle_gamma 119.768236
_cell_volume 735.167949
_symmetry_space_group_name_H-M "P -1"
_symmetry_group_IT_number 2
_symmetry_cell_setting 'triclinic'
loop_
_space_group_symop_operation_xyz
x,y,z
-x,-y,-z
loop_
_atom_site_type_symbol
_atom_site_label
_atom_site_fract_x
_atom_site_fract_y
_atom_site_fract_z
Si Si1 0.598765 0.951693 0.283853
Si Si2 0.299328 0.347189 0.454852
Si Si3 0.840564 0.782904 0.936594
Si Si4 0.094569 0.558170 0.145841
Si Si5 0.829690 0.648005 0.316240
Si Si6 0.994841 0.951239 0.902976
Si Si7 0.285274 0.548483 0.837425
Si Si8 0.542125 0.216337 0.666056
O O1 0.863304 0.979446 0.594673
O O2 0.615776 0.868064 0.341868
O O3 0.325351 0.943485 0.168497
O O4 0.500000 0.000000 0.000000
O O5 0.067843 0.370145 0.106894
O O6 0.147113 0.342730 0.492931
O O7 0.434263 0.273001 0.622453
O O8 0.566962 0.414093 0.594776
O O9 0.844994 0.725099 0.146533
O O10 0.117421 0.784483 0.061377
O O11 0.835671 0.866955 0.888115
O O12 0.564910 0.759533 0.620911
O O13 0.962468 0.511619 0.231133
O O14 0.000000 0.500000 0.000000
O O15 0.087458 0.605946 0.525375
O O16 0.514035 0.599751 0.079713
O O17 0.000000 0.000000 0.000000
O O18 0.500000 0.500000 0.000000
#
# Coordination Sequence:
#
# PCOD9011281 Si02
#       8
#     2   2   2   2   2   2   2   2
#     4  10  21  40  65  96 132 166 213 266 310 376
#     4  12  24  40  65  88 119 162 205 253 316 373
#     4  10  23  41  62  89 129 162 201 258 306 373
#     4  12  23  43  62  85 120 158 202 262 314 362
#     4  12  24  43  60  90 123 156 207 258 309 370
#     4  10  21  40  65  96 129 172 214 254 320 380
#     4  12  27  41  61  90 117 158 208 259 312 370
#     4  10  23  41  62  92 123 165 205 247 317 374
#
# _framework density 21.763732999999998
#
# number of rings (size 3 to 8) (size 9 to 14) (size 15 to 20)
#    0.000    1.000    2.500    3.750    5.250    1.000 
#    0.000    2.500    0.000    0.000    0.000    0.000 
#    0.000    0.000    0.000    0.000    0.000    0.000 
#
# Total GULP energy -89357.913734 kJ/mol
# GULP energy per Si atom -5584.869608 kJ/mol
# Density = 2.171420 g / cm^3
# Si number density = 21.763733 Si / 1000 Ang^3
#
#
#
# Elastic Constant Matrix: (Units=GPa)
#
#
# Indices 1 2 3 4 5 6 
#
# 1 50.7532 48.2777 1.6276 -8.0962 5.6307 -5.9993
# 2 48.2777 92.3899 25.2266 -18.2092 -11.5857 -19.2674
# 3 1.6276 25.2266 105.0649 -9.3757 6.3879 0.8027
# 4 -8.0962 -18.2092 -9.3757 38.1468 8.2738 -6.1154
# 5 5.6307 -11.5857 6.3879 8.2738 32.3971 -6.1616
# 6 -5.9993 -19.2674 0.8027 -6.1154 -6.1616 37.2530
#
#
#
# Elastic Compliance Matrix: (Units=1/GPa)
#
#
# Indices 1 2 3 4 5 6 
#
# 1 0.061803 -0.043317 0.011442 -0.000763 -0.031730 -0.018071
# 2 -0.043317 0.046756 -0.011818 0.007683 0.029093 0.023535
# 3 0.011442 -0.011818 0.012956 0.001222 -0.010231 -0.006040
# 4 -0.000763 0.007683 0.001222 0.032241 -0.003986 0.008458
# 5 -0.031730 0.029093 -0.010231 -0.003986 0.053306 0.018320
# 6 -0.018071 0.023535 -0.006040 0.008458 0.018320 0.040654
#
#
# Mechanical properties :
#
#
# Convention : Reuss Voigt Hill
#
# Bulk Modulus (GPa) = 29.30069 44.27466 36.78768
# Shear Modulus (GPa) = 14.43098 33.09779 23.76439
#
# Velocity S-wave (km/s) = 2.57782 3.90394 3.30802
# Velocity P-wave (km/s) = 4.72784 6.38032 5.61520
#
# Compressibility (1/GPa) = 0.03412889
#
# Stress axis : x y z
#
# Youngs Moduli (GPa) = 16.18054 21.38760 77.18725
#
# Poissons Ratio (x) = 0.92644 -0.88320
# Poissons Ratio (y) = 0.70089 0.91223
# Poissons Ratio (z) = -0.18514 0.25277
#
# Static dielectric constant tensor:
#      x y z
#    x 1.803590 -0.020120 -0.017190 
#    y -0.020120 1.832580 -0.009040 
#    z -0.017190 -0.009040 1.835670 
# 
# From -- ./inp_files/223552.got.cif
#   From: 2010.05.17/outbox.cif.g08.bks.cpg/sg2_112_cif.got.tgz:223552.got - 2010.06.03 11:33:40.
