data_PCOD9011986
_publ_section_title
;
Structure prediction by ZEFSAII (Michael W. Deem and Ramdas Pophale) SiO2 
 PCOD9011986
Probable space group: P -1
;
_chemical_formula_sum "Si O2"
_cell_formula_units_Z 14
_cell_length_a 22.456456
_cell_length_b 5.338027
_cell_length_c 8.482509
_cell_angle_alpha 89.220970
_cell_angle_beta 33.556157
_cell_angle_gamma 97.691207
_cell_volume 542.271881
_symmetry_space_group_name_H-M "P -1"
_symmetry_group_IT_number 2
_symmetry_cell_setting 'triclinic'
loop_
_space_group_symop_operation_xyz
x,y,z
-x,-y,-z
loop_
_atom_site_type_symbol
_atom_site_label
_atom_site_fract_x
_atom_site_fract_y
_atom_site_fract_z
Si Si1 0.839843 0.320083 0.742792
Si Si2 0.922588 0.057294 0.813203
Si Si3 0.601549 0.897672 0.218061
Si Si4 0.975130 0.696610 0.923327
Si Si5 0.717002 0.622660 0.163371
Si Si6 0.603198 0.902300 0.847987
Si Si7 0.711921 0.449522 0.491525
O O1 0.893254 0.308762 0.800694
O O2 0.933248 0.329257 0.408899
O O3 0.726230 0.095871 0.962278
O O4 0.793178 0.570259 0.853028
O O5 0.973277 0.000777 0.870643
O O6 0.000000 0.000000 0.500000
O O7 0.799441 0.860306 0.070537
O O8 0.500000 0.000000 0.500000
O O9 0.609917 0.673447 0.321716
O O10 0.586848 0.837516 0.067869
O O11 0.842121 0.582662 0.216426
O O12 0.000000 0.500000 0.000000
O O13 0.684480 0.398188 0.366805
O O14 0.694696 0.178025 0.622796
O O15 0.639788 0.653885 0.697854
O O16 0.500000 0.000000 0.000000
#
# Coordination Sequence:
#
# PCOD9011986 Si02
#       7
#     2   2   2   2   2   2   2
#     4  10  22  43  68 100 141 185 243 298 359 434
#     4   8  18  36  59  92 130 181 228 284 340 423
#     4  11  26  45  73 104 138 188 249 307 364 434
#     4  10  21  40  68 102 145 186 236 293 367 433
#     4  10  23  41  71 100 140 188 247 292 368 427
#     4  12  28  51  76 108 150 191 245 305 371 435
#     4  11  27  48  75 109 149 197 240 300 371 441
#
# _framework density 25.817307
#
# number of rings (size 3 to 8) (size 9 to 14) (size 15 to 20)
#    0.000    1.714    0.000    2.143   12.000    5.714 
#    5.143    1.429    0.000    0.000    0.000    0.000 
#    0.000    0.000    0.000    0.000    0.000    0.000 
#
# Total GULP energy -77948.578589 kJ/mol
# GULP energy per Si atom -5567.755613 kJ/mol
# Density = 2.575855 g / cm^3
# Si number density = 25.817307 Si / 1000 Ang^3
#
#
#
# Elastic Constant Matrix: (Units=GPa)
#
#
# Indices 1 2 3 4 5 6 
#
# 1 101.6632 35.1365 22.8974 4.8161 -12.0724 -56.4678
# 2 35.1365 89.7540 35.0924 17.4790 1.8604 -27.1170
# 3 22.8974 35.0924 117.7009 16.1407 -6.2337 -9.5369
# 4 4.8161 17.4790 16.1407 59.5489 -6.6580 -5.3233
# 5 -12.0724 1.8604 -6.2337 -6.6580 41.3814 -7.8057
# 6 -56.4678 -27.1170 -9.5369 -5.3233 -7.8057 60.9839
#
#
#
# Elastic Compliance Matrix: (Units=1/GPa)
#
#
# Indices 1 2 3 4 5 6 
#
# 1 0.026355 -0.002911 -0.001986 0.002879 0.012637 0.024667
# 2 -0.002911 0.015180 -0.003376 -0.003262 -0.002002 0.002986
# 3 -0.001986 -0.003376 0.009992 -0.001672 0.000457 -0.001865
# 4 0.002879 -0.003262 -0.001672 0.018738 0.004343 0.003145
# 5 0.012637 -0.002002 0.000457 0.004343 0.031597 0.015305
# 6 0.024667 0.002986 -0.001865 0.003145 0.015305 0.042508
#
#
# Mechanical properties :
#
#
# Convention : Reuss Voigt Hill
#
# Bulk Modulus (GPa) = 28.58788 55.04118 41.81453
# Shear Modulus (GPa) = 28.97286 46.78229 37.87757
#
# Velocity S-wave (km/s) = 3.35360 4.26144 3.83448
# Velocity P-wave (km/s) = 5.10810 6.75122 5.98630
#
# Compressibility (1/GPa) = 0.03497985
#
# Stress axis : x y z
#
# Youngs Moduli (GPa) = 37.94324 65.87610 100.08503
#
# Poissons Ratio (x) = 0.19176 0.19878
# Poissons Ratio (y) = 0.11045 0.33793
# Poissons Ratio (z) = 0.07536 0.22242
#
# Static dielectric constant tensor:
#      x y z
#    x 2.078810 0.024150 0.018440 
#    y 0.024150 2.259210 -0.067560 
#    z 0.018440 -0.067560 2.131650 
# 
# From -- ./inp_files/351010.got.cif
#   From: 2010.05.17/outbox.cif.g08.bks.cpg/sg2_176_cif.got.tgz:351010.got - 2010.06.03 11:33:40.
