data_PCOD9011755
_publ_section_title
;
Structure prediction by ZEFSAII (Michael W. Deem and Ramdas Pophale) SiO2 
 PCOD9011755
Probable space group: P -1
;
_chemical_formula_sum "Si O2"
_cell_formula_units_Z 16
_cell_length_a 18.178794
_cell_length_b 12.233980
_cell_length_c 8.957464
_cell_angle_alpha 130.813043
_cell_angle_beta 63.752647
_cell_angle_gamma 150.874661
_cell_volume 687.601285
_symmetry_space_group_name_H-M "P -1"
_symmetry_group_IT_number 2
_symmetry_cell_setting 'triclinic'
loop_
_space_group_symop_operation_xyz
x,y,z
-x,-y,-z
loop_
_atom_site_type_symbol
_atom_site_label
_atom_site_fract_x
_atom_site_fract_y
_atom_site_fract_z
Si Si1 0.319440 0.799175 0.457690
Si Si2 0.449137 0.272053 0.913954
Si Si3 0.705854 0.374483 0.270465
Si Si4 0.988052 0.570246 0.228293
Si Si5 0.866670 0.110094 0.050663
Si Si6 0.379372 0.717269 0.066530
Si Si7 0.969799 0.171606 0.332857
Si Si8 0.933276 0.933271 0.665020
O O1 0.279806 0.678672 0.221613
O O2 0.158667 0.507683 0.433237
O O3 0.500000 0.000000 0.500000
O O4 0.357621 0.023692 0.659770
O O5 0.583889 0.375642 0.962542
O O6 0.315714 0.114561 0.014575
O O7 0.500000 0.500000 0.000000
O O8 0.841489 0.457289 0.226602
O O9 0.758040 0.590488 0.514653
O O10 0.547526 0.055617 0.186038
O O11 0.690553 0.407779 0.145741
O O12 0.964713 0.405446 0.219202
O O13 0.098608 0.844478 0.475662
O O14 0.000000 0.500000 0.000000
O O15 0.880950 0.063226 0.160462
O O16 0.919776 0.077224 0.849603
O O17 0.972116 0.010006 0.240922
O O18 0.000000 0.000000 0.500000
#
# Coordination Sequence:
#
# PCOD9011755 Si02
#       8
#     2   2   2   2   2   2   2   2
#     4  10  21  40  67  91 127 168 220 259 318 384
#     4  11  24  39  61  97 131 162 205 274 333 368
#     4  10  22  44  66  88 127 171 226 253 317 401
#     4  11  22  40  66  94 127 165 210 273 325 374
#     4  12  24  41  65  95 134 162 215 280 322 378
#     4  10  22  42  68  91 121 177 221 261 310 400
#     4  11  24  42  66  96 127 172 224 259 320 399
#     4  11  25  42  62  93 132 173 210 261 335 390
#
# _framework density 23.269299
#
# number of rings (size 3 to 8) (size 9 to 14) (size 15 to 20)
#    0.000    1.250    2.500    4.500    8.750    1.000 
#    0.000    1.875    0.000    0.000    0.000    0.000 
#    0.000    0.000    0.000    0.000    0.000    0.000 
#
# Total GULP energy -89274.484374 kJ/mol
# GULP energy per Si atom -5579.655273 kJ/mol
# Density = 2.321634 g / cm^3
# Si number density = 23.269299 Si / 1000 Ang^3
#
#
#
# Elastic Constant Matrix: (Units=GPa)
#
#
# Indices 1 2 3 4 5 6 
#
# 1 114.8340 22.7880 37.3923 0.2667 -12.9749 -21.4078
# 2 22.7880 49.2247 19.4667 -1.6759 -8.8719 -1.8815
# 3 37.3923 19.4667 98.8553 -19.0211 -16.1830 3.5398
# 4 0.2667 -1.6759 -19.0211 42.7250 -5.5805 0.5968
# 5 -12.9749 -8.8719 -16.1830 -5.5805 52.4452 0.8297
# 6 -21.4078 -1.8815 3.5398 0.5968 0.8297 35.6693
#
#
#
# Elastic Compliance Matrix: (Units=1/GPa)
#
#
# Indices 1 2 3 4 5 6 
#
# 1 0.012453 -0.003601 -0.004608 -0.002290 0.000683 0.007764
# 2 -0.003601 0.023493 -0.002889 -0.000045 0.002198 -0.000686
# 3 -0.004608 -0.002889 0.014522 0.006923 0.003661 -0.004560
# 4 -0.002290 -0.000045 0.006923 0.027123 0.004490 -0.002622
# 5 0.000683 0.002198 0.003661 0.004490 0.021222 -0.000406
# 6 0.007764 -0.000686 -0.004560 -0.002622 -0.000406 0.033165
#
#
# Mechanical properties :
#
#
# Convention : Reuss Voigt Hill
#
# Bulk Modulus (GPa) = 35.36899 46.91201 41.14050
# Shear Modulus (GPa) = 30.56287 38.38570 34.47429
#
# Velocity S-wave (km/s) = 3.62808 4.06597 3.85325
# Velocity P-wave (km/s) = 5.72568 6.49977 6.12497
#
# Compressibility (1/GPa) = 0.02827335
#
# Stress axis : x y z
#
# Youngs Moduli (GPa) = 80.30107 42.56648 68.85968
#
# Poissons Ratio (x) = 0.15327 0.31731
# Poissons Ratio (y) = 0.28914 0.19891
# Poissons Ratio (z) = 0.37003 0.12296
#
# Static dielectric constant tensor:
#      x y z
#    x 1.884250 0.012260 0.065070 
#    y 0.012260 1.969920 0.006140 
#    z 0.065070 0.006140 1.922720 
# 
# From -- ./inp_files/314485.got.cif
#   From: 2010.05.17/outbox.cif.g08.bks.cpg/sg2_158_cif.got.tgz:314485.got - 2010.06.03 11:33:40.
