data_PCOD9011400
_publ_section_title
;
Structure prediction by ZEFSAII (Michael W. Deem and Ramdas Pophale) SiO2 
 PCOD9011400
Probable space group: P -1
;
_chemical_formula_sum "Si O2"
_cell_formula_units_Z 16
_cell_length_a 11.371820
_cell_length_b 8.546071
_cell_length_c 12.962034
_cell_angle_alpha 90.725317
_cell_angle_beta 93.849381
_cell_angle_gamma 144.824584
_cell_volume 719.041925
_symmetry_space_group_name_H-M "P -1"
_symmetry_group_IT_number 2
_symmetry_cell_setting 'triclinic'
loop_
_space_group_symop_operation_xyz
x,y,z
-x,-y,-z
loop_
_atom_site_type_symbol
_atom_site_label
_atom_site_fract_x
_atom_site_fract_y
_atom_site_fract_z
Si Si1 0.622132 0.325083 0.660112
Si Si2 0.255473 0.176787 0.585345
Si Si3 0.784463 0.950507 0.212612
Si Si4 0.618926 0.271043 0.063355
Si Si5 0.272128 0.754957 0.720041
Si Si6 0.147739 0.318046 0.112447
Si Si7 0.583798 0.646115 0.896870
Si Si8 0.857195 0.607994 0.468962
O O1 0.454870 0.280979 0.616206
O O2 0.745641 0.503533 0.773870
O O3 0.767668 0.451614 0.571924
O O4 0.495261 0.032518 0.683943
O O5 0.280948 0.386636 0.562635
O O6 0.124439 0.039117 0.683798
O O7 0.093779 0.921817 0.496101
O O8 0.782907 0.127957 0.249413
O O9 0.908356 0.080802 0.115542
O O10 0.572221 0.624832 0.184917
O O11 0.737209 0.345017 0.172832
O O12 0.454189 0.213084 0.101267
O O13 0.755197 0.497061 0.981827
O O14 0.500000 0.000000 0.000000
O O15 0.155440 0.534084 0.622666
O O16 0.194986 0.184756 0.109451
O O17 0.500000 0.500000 0.000000
#
# Coordination Sequence:
#
# PCOD9011400 Si02
#       8
#     2   2   2   2   2   2   2   2
#     4  11  21  41  65  92 123 171 209 256 314 377
#     4  10  22  40  64  89 126 163 208 264 311 371
#     4  11  22  42  65  91 130 167 210 259 311 376
#     4  11  22  42  66  94 130 164 207 258 314 374
#     4  11  23  40  64  93 132 167 205 264 316 366
#     4  11  22  41  69  91 125 172 213 251 312 377
#     4  10  21  40  66  89 122 166 209 257 310 365
#     4  11  23  41  63  96 124 164 212 262 318 368
#
# _framework density 22.251832
#
# number of rings (size 3 to 8) (size 9 to 14) (size 15 to 20)
#    0.000    1.250    5.000    2.250    0.000    4.500 
#    2.250    2.500    0.000    0.000    0.000    0.000 
#    0.000    0.000    0.000    0.000    0.000    0.000 
#
# Total GULP energy -89142.364074 kJ/mol
# GULP energy per Si atom -5571.397755 kJ/mol
# Density = 2.220119 g / cm^3
# Si number density = 22.251832 Si / 1000 Ang^3
#
#
#
# Elastic Constant Matrix: (Units=GPa)
#
#
# Indices 1 2 3 4 5 6 
#
# 1 64.1717 27.9659 34.9620 -1.2174 -18.2726 -15.6162
# 2 27.9659 57.2825 31.5760 3.6272 -16.8558 -12.8950
# 3 34.9620 31.5760 139.2778 2.5094 -11.8517 -16.7690
# 4 -1.2174 3.6272 2.5094 46.9404 -7.8692 -5.8339
# 5 -18.2726 -16.8558 -11.8517 -7.8692 36.6764 4.4672
# 6 -15.6162 -12.8950 -16.7690 -5.8339 4.4672 24.1659
#
#
#
# Elastic Compliance Matrix: (Units=1/GPa)
#
#
# Indices 1 2 3 4 5 6 
#
# 1 0.024681 -0.005954 -0.003001 0.003891 0.008193 0.010115
# 2 -0.005954 0.025483 -0.002911 0.000009 0.007023 0.006435
# 3 -0.003001 -0.002911 0.008897 -0.000040 -0.000298 0.002727
# 4 0.003891 0.000009 -0.000040 0.023294 0.006076 0.006992
# 5 0.008193 0.007023 -0.000298 0.006076 0.035323 0.003772
# 6 0.010115 0.006435 0.002727 0.006992 0.003772 0.054233
#
#
# Mechanical properties :
#
#
# Convention : Reuss Voigt Hill
#
# Bulk Modulus (GPa) = 28.30450 49.97108 39.13779
# Shear Modulus (GPa) = 24.10596 32.63840 28.37218
#
# Velocity S-wave (km/s) = 3.29496 3.83400 3.57466
# Velocity P-wave (km/s) = 5.21760 6.48886 5.88764
#
# Compressibility (1/GPa) = 0.03533007
#
# Stress axis : x y z
#
# Youngs Moduli (GPa) = 40.51692 39.24190 112.40175
#
# Poissons Ratio (x) = 0.23364 0.33730
# Poissons Ratio (y) = 0.24124 0.32715
# Poissons Ratio (z) = 0.12158 0.11422
#
# Static dielectric constant tensor:
#      x y z
#    x 1.933960 -0.039210 -0.016680 
#    y -0.039210 2.592210 0.352910 
#    z -0.016680 0.352910 2.068460 
# 
# From -- ./inp_files/417391.got.cif
#   From: 2010.05.17/outbox.cif.g08.bks.cpg/sg2_209_cif.got.tgz:417391.got - 2010.06.03 11:33:40.
