data_PCOD9011235
_publ_section_title
;
Structure prediction by ZEFSAII (Michael W. Deem and Ramdas Pophale) SiO2 
 PCOD9011235
Probable space group: P -1
;
_chemical_formula_sum "Si O2"
_cell_formula_units_Z 14
_cell_length_a 13.760163
_cell_length_b 18.245847
_cell_length_c 9.391400
_cell_angle_alpha 65.797990
_cell_angle_beta 76.792980
_cell_angle_gamma 20.230309
_cell_volume 646.075540
_symmetry_space_group_name_H-M "P -1"
_symmetry_group_IT_number 2
_symmetry_cell_setting 'triclinic'
loop_
_space_group_symop_operation_xyz
x,y,z
-x,-y,-z
loop_
_atom_site_type_symbol
_atom_site_label
_atom_site_fract_x
_atom_site_fract_y
_atom_site_fract_z
Si Si1 0.297311 0.569930 0.178443
Si Si2 0.869735 0.740923 0.546475
Si Si3 0.797067 0.657642 0.090143
Si Si4 0.053255 0.843559 0.801264
Si Si5 0.877736 0.287159 0.399048
Si Si6 0.099683 0.273479 0.788144
Si Si7 0.649003 0.298804 0.554063
O O1 0.356699 0.537206 0.351101
O O2 0.094023 0.827016 0.461445
O O3 0.194881 0.557507 0.201640
O O4 0.039895 0.822485 0.982261
O O5 0.925237 0.790923 0.536547
O O6 0.923505 0.689625 0.400734
O O7 0.119738 0.491036 0.744580
O O8 0.500000 0.000000 0.500000
O O9 0.900301 0.648372 0.174760
O O10 0.000000 0.500000 0.000000
O O11 0.426119 0.968810 0.937096
O O12 0.367474 0.659523 0.822442
O O13 0.078300 0.752217 0.753211
O O14 0.770428 0.117509 0.629049
O O15 0.504741 0.586353 0.330527
#
# Coordination Sequence:
#
# PCOD9011235 Si02
#       7
#     2   2   2   2   2   2   2
#     4  10  21  40  65  95 126 165 220 256 321 391
#     4  12  25  45  68  99 132 175 225 269 331 393
#     4  11  26  46  67  97 130 172 222 275 328 386
#     4  10  23  41  63  97 131 170 211 268 324 379
#     4  10  22  40  66  93 132 165 217 266 316 390
#     4  11  25  46  67  93 136 173 220 276 324 395
#     4  10  21  44  63  93 132 172 209 268 327 373
#
# _framework density 21.669293
#
# number of rings (size 3 to 8) (size 9 to 14) (size 15 to 20)
#    0.000    1.429    2.857    2.143    4.000    2.286 
#    0.000   12.857    0.000    0.000    0.000    0.000 
#    0.000    0.000    0.000    0.000    0.000    0.000 
#
# Total GULP energy -78043.443420 kJ/mol
# GULP energy per Si atom -5574.531673 kJ/mol
# Density = 2.161997 g / cm^3
# Si number density = 21.669293 Si / 1000 Ang^3
#
#
#
# Elastic Constant Matrix: (Units=GPa)
#
#
# Indices 1 2 3 4 5 6 
#
# 1 126.4522 27.5133 39.5587 14.6624 8.1621 8.6051
# 2 27.5133 70.1500 38.3117 11.5446 0.9432 22.5255
# 3 39.5587 38.3117 121.0702 15.0384 -1.9488 20.3063
# 4 14.6624 11.5446 15.0384 17.0720 1.8854 2.0639
# 5 8.1621 0.9432 -1.9488 1.8854 21.0100 2.1605
# 6 8.6051 22.5255 20.3063 2.0639 2.1605 26.1772
#
#
#
# Elastic Compliance Matrix: (Units=1/GPa)
#
#
# Indices 1 2 3 4 5 6 
#
# 1 0.009760 -0.002133 -0.002138 -0.004779 -0.003564 0.000957
# 2 -0.002133 0.023591 -0.002655 -0.009974 0.002160 -0.016931
# 3 -0.002138 -0.002655 0.011593 -0.006233 0.003178 -0.005776
# 4 -0.004779 -0.009974 -0.006233 0.074409 -0.005940 0.009612
# 5 -0.003564 0.002160 0.003178 -0.005940 0.050416 -0.006845
# 6 0.000957 -0.016931 -0.005776 0.009612 -0.006845 0.056744
#
#
# Mechanical properties :
#
#
# Convention : Reuss Voigt Hill
#
# Bulk Modulus (GPa) = 32.16353 58.71555 45.43954
# Shear Modulus (GPa) = 19.94199 27.00443 23.47321
#
# Velocity S-wave (km/s) = 3.03692 3.53400 3.29484
# Velocity P-wave (km/s) = 5.21270 6.61870 5.95733
#
# Compressibility (1/GPa) = 0.03109112
#
# Stress axis : x y z
#
# Youngs Moduli (GPa) = 102.45687 42.38974 86.26212
#
# Poissons Ratio (x) = 0.09042 0.18446
# Poissons Ratio (y) = 0.21855 0.22900
# Poissons Ratio (z) = 0.21909 0.11253
#
# Static dielectric constant tensor:
#      x y z
#    x 1.797840 -0.014720 -0.005670 
#    y -0.014720 1.801060 -0.027950 
#    z -0.005670 -0.027950 1.846170 
# 
# From -- ./inp_files/317610.got.cif
#   From: 2010.05.17/outbox.cif.g08.bks.cpg/sg2_159_cif.got.tgz:317610.got - 2010.06.03 11:33:40.
