data_PCOD9011607
_publ_section_title
;
Structure prediction by ZEFSAII (Michael W. Deem and Ramdas Pophale) SiO2 
 PCOD9011607
Probable space group: P -1
;
_chemical_formula_sum "Si O2"
_cell_formula_units_Z 16
_cell_length_a 8.699002
_cell_length_b 9.476560
_cell_length_c 12.070556
_cell_angle_alpha 57.207910
_cell_angle_beta 109.733327
_cell_angle_gamma 114.355329
_cell_volume 753.508194
_symmetry_space_group_name_H-M "P -1"
_symmetry_group_IT_number 2
_symmetry_cell_setting 'triclinic'
loop_
_space_group_symop_operation_xyz
x,y,z
-x,-y,-z
loop_
_atom_site_type_symbol
_atom_site_label
_atom_site_fract_x
_atom_site_fract_y
_atom_site_fract_z
Si Si1 0.621097 0.398331 0.628770
Si Si2 0.111606 0.194020 0.905953
Si Si3 0.806377 0.189841 0.216275
Si Si4 0.093962 0.690284 0.390934
Si Si5 0.604938 0.888888 0.137482
Si Si6 0.311285 0.475011 0.007743
Si Si7 0.208907 0.322660 0.280384
Si Si8 0.159512 0.959991 0.491504
O O1 0.500000 0.500000 0.500000
O O2 0.717870 0.309779 0.602598
O O3 0.516829 0.260224 0.752175
O O4 0.764620 0.547139 0.665365
O O5 0.282902 0.182429 0.891329
O O6 0.173321 0.325430 0.968060
O O7 0.004434 0.268270 0.758336
O O8 0.000000 0.000000 0.000000
O O9 0.732570 0.343657 0.094146
O O10 0.759095 0.134170 0.355654
O O11 0.010158 0.258580 0.228444
O O12 0.735604 0.021186 0.194815
O O13 0.102132 0.835292 0.425446
O O14 0.000000 0.500000 0.500000
O O15 0.500000 0.000000 0.000000
O O16 0.500000 0.500000 0.000000
O O17 0.305574 0.421243 0.156589
O O18 0.267663 0.152419 0.397652
O O19 0.000000 0.000000 0.500000
#
# Coordination Sequence:
#
# PCOD9011607 Si02
#       8
#     2   2   2   2   2   2   2   2
#     4  12  26  45  67  99 137 176 219 278 341 393
#     4  12  24  43  68  97 129 173 227 275 323 398
#     4  11  23  43  67  92 126 173 216 259 323 399
#     4  12  24  42  69 100 131 175 227 274 326 401
#     4  12  25  44  66  97 137 175 215 277 341 390
#     4  12  25  41  62  95 131 167 213 271 326 380
#     4  11  23  44  68  93 128 174 218 264 325 398
#     4  10  21  40  66  97 125 161 215 274 321 379
#
# _framework density 21.234010000000001
#
# number of rings (size 3 to 8) (size 9 to 14) (size 15 to 20)
#    0.000    0.500    0.000   10.875    0.000    2.000 
#    0.000    1.875    0.000    0.000    0.000    0.000 
#    0.000    0.000    0.000    0.000    0.000    0.000 
#
# Total GULP energy -89586.872867 kJ/mol
# GULP energy per Si atom -5599.179554 kJ/mol
# Density = 2.118568 g / cm^3
# Si number density = 21.234010 Si / 1000 Ang^3
#
#
#
# Elastic Constant Matrix: (Units=GPa)
#
#
# Indices 1 2 3 4 5 6 
#
# 1 96.9642 -2.4096 30.6524 -12.5982 -6.7768 -8.3720
# 2 -2.4096 114.3284 4.2353 5.2077 -11.1475 -8.8242
# 3 30.6524 4.2353 136.6275 -29.5281 -15.9385 0.7028
# 4 -12.5982 5.2077 -29.5281 53.5005 2.1858 -2.5773
# 5 -6.7768 -11.1475 -15.9385 2.1858 19.4135 6.6088
# 6 -8.3720 -8.8242 0.7028 -2.5773 6.6088 33.3407
#
#
#
# Elastic Compliance Matrix: (Units=1/GPa)
#
#
# Indices 1 2 3 4 5 6 
#
# 1 0.011559 0.000621 -0.002115 0.001575 0.001477 0.002940
# 2 0.000621 0.009428 -0.000036 -0.000928 0.005176 0.001554
# 3 -0.002115 -0.000036 0.009606 0.004423 0.007256 -0.001840
# 4 0.001575 -0.000928 0.004423 0.021643 0.000667 0.001598
# 5 0.001477 0.005176 0.007256 0.000667 0.064687 -0.011183
# 6 0.002940 0.001554 -0.001840 0.001598 -0.011183 0.033522
#
#
# Mechanical properties :
#
#
# Convention : Reuss Voigt Hill
#
# Bulk Modulus (GPa) = 36.31954 45.87515 41.09735
# Shear Modulus (GPa) = 30.73438 42.28039 36.50739
#
# Velocity S-wave (km/s) = 3.80862 4.46709 4.15093
# Velocity P-wave (km/s) = 6.04006 6.94679 6.50923
#
# Compressibility (1/GPa) = 0.02753339
#
# Stress axis : x y z
#
# Youngs Moduli (GPa) = 86.51364 106.06587 104.09623
#
# Poissons Ratio (x) = -0.06588 0.22015
# Poissons Ratio (y) = -0.05374 0.00379
# Poissons Ratio (z) = 0.18296 0.00386
#
# Static dielectric constant tensor:
#      x y z
#    x 1.732470 -0.004080 -0.010220 
#    y -0.004080 1.784860 0.011070 
#    z -0.010220 0.011070 1.766880 
# 
# From -- ./inp_files/209557.got.cif
#   From: 2010.05.17/outbox.cif.g08.bks.cpg/sg2_105_cif.got.tgz:209557.got - 2010.06.03 11:33:40.
