data_PCOD9011992
_publ_section_title
;
Structure prediction by ZEFSAII (Michael W. Deem and Ramdas Pophale) SiO2 
 PCOD9011992
Probable space group: P -1
;
_chemical_formula_sum "Si O2"
_cell_formula_units_Z 16
_cell_length_a 17.106077
_cell_length_b 11.246995
_cell_length_c 7.431058
_cell_angle_alpha 96.961168
_cell_angle_beta 45.930688
_cell_angle_gamma 129.706199
_cell_volume 641.168010
_symmetry_space_group_name_H-M "P -1"
_symmetry_group_IT_number 2
_symmetry_cell_setting 'triclinic'
loop_
_space_group_symop_operation_xyz
x,y,z
-x,-y,-z
loop_
_atom_site_type_symbol
_atom_site_label
_atom_site_fract_x
_atom_site_fract_y
_atom_site_fract_z
Si Si1 0.525066 0.010523 0.178078
Si Si2 0.173017 0.571594 0.268217
Si Si3 0.328347 0.118845 0.118750
Si Si4 0.756057 0.888036 0.376752
Si Si5 0.926304 0.776608 0.612871
Si Si6 0.871994 0.720398 0.256037
Si Si7 0.185829 0.600867 0.682430
Si Si8 0.372692 0.311639 0.785531
O O1 0.338154 0.824796 0.530022
O O2 0.626776 0.973586 0.035604
O O3 0.500000 0.000000 0.000000
O O4 0.656774 0.228110 0.060160
O O5 0.131990 0.401466 0.252632
O O6 0.202071 0.599634 0.441164
O O7 0.000000 0.500000 0.500000
O O8 0.357576 0.155420 0.290516
O O9 0.433402 0.308308 0.875306
O O10 0.125337 0.968080 0.380244
O O11 0.776903 0.763167 0.361086
O O12 0.676431 0.836363 0.298730
O O13 0.943669 0.108252 0.107775
O O14 0.901408 0.755167 0.432120
O O15 0.799443 0.761965 0.905960
O O16 0.803636 0.527674 0.287823
O O17 0.000000 0.500000 0.000000
O O18 0.500000 0.500000 0.500000
#
# Coordination Sequence:
#
# PCOD9011992 Si02
#       8
#     2   2   2   2   2   2   2   2
#     4  10  24  45  70 103 138 185 241 292 359 424
#     4  10  21  42  71  99 132 186 235 284 363 416
#     4  12  24  46  77  98 147 187 230 301 352 422
#     4  11  24  40  73 102 136 185 236 284 356 427
#     4  11  21  45  72  98 142 188 231 292 354 423
#     4  10  21  40  68 103 135 184 239 282 352 431
#     4  10  24  42  68  97 138 181 237 296 347 420
#     4  12  28  45  66 110 145 181 239 291 356 428
#
# _framework density 24.954457000000001
#
# number of rings (size 3 to 8) (size 9 to 14) (size 15 to 20)
#    0.000    1.250    3.750    1.875    5.250    4.500 
#    0.000    0.625    0.000    0.000    0.000    0.000 
#    0.000    0.000    0.000    0.000    0.000    0.000 
#
# Total GULP energy -89574.843270 kJ/mol
# GULP energy per Si atom -5598.427704 kJ/mol
# Density = 2.489766 g / cm^3
# Si number density = 24.954457 Si / 1000 Ang^3
#
#
#
# Elastic Constant Matrix: (Units=GPa)
#
#
# Indices 1 2 3 4 5 6 
#
# 1 65.6375 15.4668 40.6816 -3.4179 11.9299 -12.2727
# 2 15.4668 99.3785 54.7306 -33.4966 6.6027 -26.4423
# 3 40.6816 54.7306 152.2504 -26.4974 4.4111 -12.3243
# 4 -3.4179 -33.4966 -26.4974 50.4084 2.3500 12.8741
# 5 11.9299 6.6027 4.4111 2.3500 42.4046 5.4625
# 6 -12.2727 -26.4423 -12.3243 12.8741 5.4625 36.0700
#
#
#
# Elastic Compliance Matrix: (Units=1/GPa)
#
#
# Indices 1 2 3 4 5 6 
#
# 1 0.021021 0.001805 -0.005795 -0.002232 -0.006536 0.008282
# 2 0.001805 0.017747 -0.004678 0.007065 -0.004488 0.010184
# 3 -0.005795 -0.004678 0.009924 0.002438 0.001593 -0.003122
# 4 -0.002232 0.007065 0.002438 0.026775 -0.001688 -0.004048
# 5 -0.006536 -0.004488 0.001593 -0.001688 0.027140 -0.008477
# 6 0.008282 0.010184 -0.003122 -0.004048 -0.008477 0.039670
#
#
# Mechanical properties :
#
#
# Convention : Reuss Voigt Hill
#
# Bulk Modulus (GPa) = 31.89042 59.89160 45.89101
# Shear Modulus (GPa) = 29.40071 39.53574 34.46823
#
# Velocity S-wave (km/s) = 3.43618 3.98466 3.72054
# Velocity P-wave (km/s) = 5.34325 6.72477 6.07342
#
# Compressibility (1/GPa) = 0.03135738
#
# Stress axis : x y z
#
# Youngs Moduli (GPa) = 47.57035 56.34733 100.77047
#
# Poissons Ratio (x) = -0.10173 0.58392
# Poissons Ratio (y) = -0.08588 0.47142
# Poissons Ratio (z) = 0.27565 0.26360
#
# Static dielectric constant tensor:
#      x y z
#    x 2.059170 0.055770 0.010740 
#    y 0.055770 1.986790 -0.029870 
#    z 0.010740 -0.029870 1.949960 
# 
# From -- ./inp_files/346162.got.cif
#   From: 2010.05.17/outbox.cif.g08.bks.cpg/sg2_174_cif.got.tgz:346162.got - 2010.06.03 11:33:40.
