data_PCOD9011912
_publ_section_title
;
Structure prediction by ZEFSAII (Michael W. Deem and Ramdas Pophale) SiO2 
 PCOD9011912
Probable space group: P -1
;
_chemical_formula_sum "Si O2"
_cell_formula_units_Z 15
_cell_length_a 10.914520
_cell_length_b 7.745818
_cell_length_c 11.315032
_cell_angle_alpha 87.703180
_cell_angle_beta 54.869392
_cell_angle_gamma 119.752897
_cell_volume 603.562087
_symmetry_space_group_name_H-M "P -1"
_symmetry_group_IT_number 2
_symmetry_cell_setting 'triclinic'
loop_
_space_group_symop_operation_xyz
x,y,z
-x,-y,-z
loop_
_atom_site_type_symbol
_atom_site_label
_atom_site_fract_x
_atom_site_fract_y
_atom_site_fract_z
Si Si1 0.547934 0.122160 0.718186
Si Si2 0.909934 0.268995 0.378721
Si Si3 0.619419 0.543611 0.550155
Si Si4 0.655393 0.362641 0.873352
Si Si5 0.155969 0.738786 0.848015
Si Si6 0.032356 0.965849 0.263044
Si Si7 0.396735 0.286613 0.207027
Si Si8 0.000000 0.000000 0.000000
O O1 0.751863 0.188088 0.567490
O O2 0.545613 0.308293 0.649911
O O3 0.536648 0.147568 0.862858
O O4 0.369573 0.883452 0.777121
O O5 0.828979 0.278007 0.299507
O O6 0.957064 0.100887 0.341022
O O7 0.118970 0.509035 0.272815
O O8 0.500000 0.500000 0.500000
O O9 0.593032 0.673570 0.660264
O O10 0.849048 0.706326 0.392516
O O11 0.617279 0.525515 0.836132
O O12 0.585862 0.336047 0.045827
O O13 0.000000 0.500000 0.000000
O O14 0.081278 0.877934 0.908812
O O15 0.213455 0.065721 0.247303
O O16 0.074521 0.002890 0.098515
#
# Coordination Sequence:
#
# PCOD9011912 Si02
#       8
#     2   2   2   2   2   2   2   1
#     4  11  23  44  66  97 136 175 225 279 351 412
#     4  10  22  42  64  97 135 175 219 280 349 412
#     4  11  23  37  65 100 133 175 228 284 342 408
#     4   9  19  39  68  92 128 177 222 280 342 408
#     4  11  25  44  68  99 139 185 225 287 345 406
#     4  10  21  40  67  98 135 181 226 283 342 414
#     4   9  19  38  63  96 133 173 228 281 341 411
#     4  10  22  42  70 102 134 176 242 280 336 418
#
# _framework density 24.852454000000002
#
# number of rings (size 3 to 8) (size 9 to 14) (size 15 to 20)
#    0.000    1.867    0.000    3.600    1.867    7.467 
#    4.800    0.667    0.000    0.000    0.000    0.000 
#    0.000    0.000    0.000    0.000    0.000    0.000 
#
# Total GULP energy -83744.400875 kJ/mol
# GULP energy per Si atom -5582.960058 kJ/mol
# Density = 2.479589 g / cm^3
# Si number density = 24.852454 Si / 1000 Ang^3
#
#
#
# Elastic Constant Matrix: (Units=GPa)
#
#
# Indices 1 2 3 4 5 6 
#
# 1 90.6460 44.1809 47.4485 7.3929 16.2487 9.5145
# 2 44.1809 82.8122 45.2239 4.6908 2.4205 24.8507
# 3 47.4485 45.2239 118.8608 20.0936 -3.1544 23.7172
# 4 7.3929 4.6908 20.0936 48.0518 11.9445 3.6858
# 5 16.2487 2.4205 -3.1544 11.9445 38.7106 3.6632
# 6 9.5145 24.8507 23.7172 3.6858 3.6632 34.1091
#
#
#
# Elastic Compliance Matrix: (Units=1/GPa)
#
#
# Indices 1 2 3 4 5 6 
#
# 1 0.019367 -0.008525 -0.006330 0.002382 -0.009411 0.005964
# 2 -0.008525 0.021365 -0.002320 0.000347 0.003076 -0.011943
# 3 -0.006330 -0.002320 0.014287 -0.005862 0.006393 -0.006531
# 4 0.002382 0.000347 -0.005862 0.025081 -0.009376 0.001455
# 5 -0.009411 0.003076 0.006393 -0.009376 0.033635 -0.006661
# 6 0.005964 -0.011943 -0.006531 0.001455 -0.006661 0.041455
#
#
# Mechanical properties :
#
#
# Convention : Reuss Voigt Hill
#
# Bulk Modulus (GPa) = 48.38190 62.89174 55.63682
# Shear Modulus (GPa) = 25.45452 34.53867 29.99660
#
# Velocity S-wave (km/s) = 3.20382 3.73198 3.47794
# Velocity P-wave (km/s) = 5.76159 6.62806 6.20996
#
# Compressibility (1/GPa) = 0.02066889
#
# Stress axis : x y z
#
# Youngs Moduli (GPa) = 51.63306 46.80605 69.99566
#
# Poissons Ratio (x) = 0.39903 0.44308
# Poissons Ratio (y) = 0.44019 0.16236
# Poissons Ratio (z) = 0.32684 0.10857
#
# Static dielectric constant tensor:
#      x y z
#    x 1.983190 -0.023040 0.020640 
#    y -0.023040 1.954880 -0.066020 
#    z 0.020640 -0.066020 1.973090 
# 
# From -- ./inp_files/279778.got.cif
#   From: 2010.05.17/outbox.cif.g08.bks.cpg/sg2_140_cif.got.tgz:279778.got - 2010.06.03 11:33:40.
