data_PCOD9011938
_publ_section_title
;
Structure prediction by ZEFSAII (Michael W. Deem and Ramdas Pophale) SiO2 
 PCOD9011938
Probable space group: P -1
;
_chemical_formula_sum "Si O2"
_cell_formula_units_Z 16
_cell_length_a 11.093030
_cell_length_b 7.846981
_cell_length_c 12.797290
_cell_angle_alpha 118.451005
_cell_angle_beta 103.477201
_cell_angle_gamma 117.840444
_cell_volume 701.810678
_symmetry_space_group_name_H-M "P -1"
_symmetry_group_IT_number 2
_symmetry_cell_setting 'triclinic'
loop_
_space_group_symop_operation_xyz
x,y,z
-x,-y,-z
loop_
_atom_site_type_symbol
_atom_site_label
_atom_site_fract_x
_atom_site_fract_y
_atom_site_fract_z
Si Si1 0.246515 0.100056 0.534034
Si Si2 0.212918 0.038523 0.066739
Si Si3 0.639009 0.041504 0.110192
Si Si4 0.783491 0.477499 0.575378
Si Si5 0.486498 0.107301 0.724976
Si Si6 0.841006 0.556098 0.842730
Si Si7 0.675195 0.786479 0.643446
Si Si8 0.107522 0.386407 0.582728
O O1 0.403543 0.187599 0.658491
O O2 0.267642 0.053902 0.405095
O O3 0.217611 0.302490 0.585774
O O4 0.076526 0.842932 0.476730
O O5 0.188984 0.243247 0.109391
O O6 0.325320 0.117685 0.215347
O O7 0.289256 0.048926 0.976267
O O8 0.035066 0.745603 0.969450
O O9 0.790462 0.347734 0.255198
O O10 0.563072 0.907879 0.169188
O O11 0.500000 0.000000 0.000000
O O12 0.825767 0.455925 0.693291
O O13 0.791120 0.717990 0.657075
O O14 0.901002 0.563057 0.525698
O O15 0.608124 0.188853 0.421237
O O16 0.685913 0.312345 0.807449
O O17 0.500000 0.500000 0.500000
#
# Coordination Sequence:
#
# PCOD9011938 Si02
#       8
#     2   2   2   2   2   2   2   2
#     4  10  21  40  68 100 124 167 232 266 319 372
#     4  10  24  43  66  93 133 180 209 265 344 386
#     4  11  27  45  64  93 139 177 210 269 338 395
#     4   9  20  38  65  92 131 167 212 268 322 381
#     4  11  24  40  70 100 127 171 220 277 316 392
#     4  10  22  42  65 101 129 168 224 273 320 388
#     4  10  21  40  69  88 124 173 215 269 320 393
#     4   9  22  41  64  96 133 175 215 266 323 399
#
# _framework density 22.798172000000001
#
# number of rings (size 3 to 8) (size 9 to 14) (size 15 to 20)
#    0.000    2.000    0.000    1.875   10.500    2.500 
#    2.250    1.250    0.000    0.000    0.000    0.000 
#    0.000    0.000    0.000    0.000    0.000    0.000 
#
# Total GULP energy -89430.008556 kJ/mol
# GULP energy per Si atom -5589.375535 kJ/mol
# Density = 2.274628 g / cm^3
# Si number density = 22.798172 Si / 1000 Ang^3
#
#
#
# Elastic Constant Matrix: (Units=GPa)
#
#
# Indices 1 2 3 4 5 6 
#
# 1 66.8242 22.0963 26.3867 -8.3591 -16.6772 0.4923
# 2 22.0963 130.7608 56.6609 -6.0424 -6.7724 23.4060
# 3 26.3867 56.6609 147.6781 -22.5853 -15.0105 21.2863
# 4 -8.3591 -6.0424 -22.5853 30.0990 8.9787 3.8917
# 5 -16.6772 -6.7724 -15.0105 8.9787 36.7827 2.0057
# 6 0.4923 23.4060 21.2863 3.8917 2.0057 36.8391
#
#
#
# Elastic Compliance Matrix: (Units=1/GPa)
#
#
# Indices 1 2 3 4 5 6 
#
# 1 0.018213 -0.002203 -0.001816 0.001010 0.006770 0.001730
# 2 -0.002203 0.010080 -0.002802 -0.000074 -0.000009 -0.004748
# 3 -0.001816 -0.002802 0.010015 0.006651 0.001384 -0.004760
# 4 0.001010 -0.000074 0.006651 0.041441 -0.006530 -0.007832
# 5 0.006770 -0.000009 0.001384 -0.006530 0.032521 -0.001965
# 6 0.001730 -0.004748 -0.004760 -0.007832 -0.001965 0.033823
#
#
# Mechanical properties :
#
#
# Convention : Reuss Voigt Hill
#
# Bulk Modulus (GPa) = 40.54072 61.72789 51.13430
# Shear Modulus (GPa) = 29.76965 36.75209 33.26087
#
# Velocity S-wave (km/s) = 3.61749 4.01941 3.82373
# Velocity P-wave (km/s) = 5.93880 6.97678 6.47861
#
# Compressibility (1/GPa) = 0.02466656
#
# Stress axis : x y z
#
# Youngs Moduli (GPa) = 54.90449 99.20829 99.85208
#
# Poissons Ratio (x) = 0.21859 0.18130
# Poissons Ratio (y) = 0.12098 0.27975
# Poissons Ratio (z) = 0.09969 0.27795
#
# Static dielectric constant tensor:
#      x y z
#    x 1.989970 -0.070140 0.010790 
#    y -0.070140 1.864870 0.007510 
#    z 0.010790 0.007510 1.846940 
# 
# From -- ./inp_files/419754.got.cif
#   From: 2010.05.17/outbox.cif.g08.bks.cpg/sg2_210_cif.got.tgz:419754.got - 2010.06.03 11:33:40.
