data_PCOD9011511
_publ_section_title
;
Structure prediction by ZEFSAII (Michael W. Deem and Ramdas Pophale) SiO2 
 PCOD9011511
Probable space group: P -1
;
_chemical_formula_sum "Si O2"
_cell_formula_units_Z 14
_cell_length_a 12.872351
_cell_length_b 23.652569
_cell_length_c 19.638586
_cell_angle_alpha 159.200603
_cell_angle_beta 32.727347
_cell_angle_gamma 159.864848
_cell_volume 697.648536
_symmetry_space_group_name_H-M "P -1"
_symmetry_group_IT_number 2
_symmetry_cell_setting 'triclinic'
loop_
_space_group_symop_operation_xyz
x,y,z
-x,-y,-z
loop_
_atom_site_type_symbol
_atom_site_label
_atom_site_fract_x
_atom_site_fract_y
_atom_site_fract_z
Si Si1 0.444078 0.824496 0.780550
Si Si2 0.141799 0.475145 0.951530
Si Si3 0.174826 0.749413 0.578609
Si Si4 0.418211 0.116494 0.376061
Si Si5 0.701156 0.150304 0.626150
Si Si6 0.329390 0.361633 0.510718
Si Si7 0.370435 0.400757 0.247165
O O1 0.522116 0.933843 0.784700
O O2 0.657548 0.816523 0.678668
O O3 0.092499 0.519027 0.620273
O O4 0.500000 0.000000 0.000000
O O5 0.488991 0.642214 0.926835
O O6 0.154123 0.581027 0.134287
O O7 0.910199 0.170808 0.739995
O O8 0.000000 0.500000 0.000000
O O9 0.318422 0.744572 0.556223
O O10 0.990476 0.778909 0.747070
O O11 0.463973 0.971665 0.619162
O O12 0.455648 0.323834 0.566032
O O13 0.983198 0.209167 0.532406
O O14 0.500000 0.000000 0.500000
O O15 0.500000 0.500000 0.500000
O O16 0.516402 0.562961 0.697694
#
# Coordination Sequence:
#
# PCOD9011511 Si02
#       7
#     2   2   2   2   2   2   2
#     4  10  23  40  66  93 122 172 212 252 320 377
#     4  12  23  40  66  93 122 172 211 258 311 387
#     4  10  21  42  65  90 131 161 205 273 305 369
#     4  10  21  41  65  92 128 158 210 267 309 371
#     4  12  25  42  60  95 132 164 211 264 317 364
#     4  10  21  41  65  89 130 168 202 260 314 373
#     4  10  21  40  66  94 122 166 212 255 322 364
#
# _framework density 20.067409999999999
#
# number of rings (size 3 to 8) (size 9 to 14) (size 15 to 20)
#    0.000    1.714    2.857    3.857    4.000    1.714 
#    5.143    0.714    0.000    0.000    0.000    0.000 
#    0.000    0.000    0.000    0.000    0.000    0.000 
#
# Total GULP energy -78062.779668 kJ/mol
# GULP energy per Si atom -5575.912833 kJ/mol
# Density = 2.002174 g / cm^3
# Si number density = 20.067410 Si / 1000 Ang^3
#
#
#
# Elastic Constant Matrix: (Units=GPa)
#
#
# Indices 1 2 3 4 5 6 
#
# 1 116.8909 41.0526 31.2658 -12.2633 4.7820 9.5237
# 2 41.0526 150.2124 54.1914 -9.4923 -12.8064 3.9170
# 3 31.2658 54.1914 85.7209 -16.9338 12.5623 10.9170
# 4 -12.2633 -9.4923 -16.9338 38.1456 -9.4337 -3.8131
# 5 4.7820 -12.8064 12.5623 -9.4337 23.1733 9.7306
# 6 9.5237 3.9170 10.9170 -3.8131 9.7306 30.8274
#
#
#
# Elastic Compliance Matrix: (Units=1/GPa)
#
#
# Indices 1 2 3 4 5 6 
#
# 1 0.010084 -0.002081 -0.001692 0.001565 -0.000936 -0.001763
# 2 -0.002081 0.011086 -0.007477 0.001557 0.011957 -0.001699
# 3 -0.001692 -0.007477 0.019614 0.003048 -0.012721 -0.001081
# 4 0.001565 0.001557 0.003048 0.031347 0.012401 -0.001798
# 5 -0.000936 0.011957 -0.012721 0.012401 0.069028 -0.016980
# 6 -0.001763 -0.001699 -0.001081 -0.001798 -0.016980 0.038719
#
#
# Mechanical properties :
#
#
# Convention : Reuss Voigt Hill
#
# Bulk Modulus (GPa) = 54.69202 67.31599 61.00400
# Shear Modulus (GPa) = 23.98395 33.51688 28.75042
#
# Velocity S-wave (km/s) = 3.46087 4.09126 3.78920
# Velocity P-wave (km/s) = 6.57902 7.47901 7.04341
#
# Compressibility (1/GPa) = 0.01828420
#
# Stress axis : x y z
#
# Youngs Moduli (GPa) = 99.16304 90.20773 50.98375
#
# Poissons Ratio (x) = 0.18768 0.08626
# Poissons Ratio (y) = 0.20631 0.38123
# Poissons Ratio (z) = 0.16778 0.67452
#
# Static dielectric constant tensor:
#      x y z
#    x 1.680530 -0.014910 -0.003940 
#    y -0.014910 1.759920 0.022170 
#    z -0.003940 0.022170 1.762040 
# 
# From -- ./inp_files/393021.got.cif
#   From: 2010.05.17/outbox.cif.g08.bks.cpg/sg2_197_cif.got.tgz:393021.got - 2010.06.03 11:33:40.
