data_PCOD9011040
_publ_section_title
;
Structure prediction by ZEFSAII (Michael W. Deem and Ramdas Pophale) SiO2 
 PCOD9011040
Probable space group: P -1
;
_chemical_formula_sum "Si O2"
_cell_formula_units_Z 14
_cell_length_a 25.218380
_cell_length_b 8.589217
_cell_length_c 9.058280
_cell_angle_alpha 46.990435
_cell_angle_beta 146.355375
_cell_angle_gamma 142.518716
_cell_volume 660.138812
_symmetry_space_group_name_H-M "P -1"
_symmetry_group_IT_number 2
_symmetry_cell_setting 'triclinic'
loop_
_space_group_symop_operation_xyz
x,y,z
-x,-y,-z
loop_
_atom_site_type_symbol
_atom_site_label
_atom_site_fract_x
_atom_site_fract_y
_atom_site_fract_z
Si Si1 0.269275 0.913328 0.988120
Si Si2 0.477894 0.694009 0.744389
Si Si3 0.224186 0.754420 0.314041
Si Si4 0.690293 0.462515 0.810304
Si Si5 0.477306 0.066772 0.743835
Si Si6 0.149232 0.193730 0.567096
Si Si7 0.108042 0.019198 0.927713
O O1 0.213924 0.073231 0.722680
O O2 0.214787 0.756932 0.113521
O O3 0.264338 0.725409 0.974194
O O4 0.405655 0.115079 0.200404
O O5 0.370680 0.563236 0.470542
O O6 0.469657 0.864321 0.739194
O O7 0.500000 0.500000 0.000000
O O8 0.214379 0.499018 0.506831
O O9 0.349322 0.005405 0.484838
O O10 0.128420 0.791759 0.134936
O O11 0.586399 0.341476 0.766972
O O12 0.796906 0.743374 0.909683
O O13 0.500000 0.000000 0.000000
O O14 0.134932 0.116939 0.756397
O O15 0.022257 0.073127 0.284607
#
# Coordination Sequence:
#
# PCOD9011040 Si02
#       7
#     2   2   2   2   2   2   2
#     4  10  21  40  65  87 126 165 206 258 312 374
#     4  11  22  39  63  92 131 168 202 260 320 376
#     4  11  20  40  63  90 124 166 208 258 309 374
#     4  11  22  42  60  98 132 160 205 263 320 374
#     4  11  22  37  62  95 125 164 207 250 317 382
#     4  10  22  43  64  91 119 174 215 253 315 368
#     4  10  24  40  63  91 130 162 212 265 306 374
#
# _framework density 21.207660000000001
#
# number of rings (size 3 to 8) (size 9 to 14) (size 15 to 20)
#    0.000    1.429    2.857    3.000    2.000    2.286 
#    0.000    0.714    0.000    0.000    0.000    0.000 
#    0.000    0.000    0.000    0.000    0.000    0.000 
#
# Total GULP energy -78254.704914 kJ/mol
# GULP energy per Si atom -5589.621780 kJ/mol
# Density = 2.115939 g / cm^3
# Si number density = 21.207660 Si / 1000 Ang^3
#
#
#
# Elastic Constant Matrix: (Units=GPa)
#
#
# Indices 1 2 3 4 5 6 
#
# 1 49.8053 14.7139 45.9333 5.4337 12.2686 -2.4032
# 2 14.7139 74.6046 28.2366 -1.8454 13.0565 -7.4841
# 3 45.9333 28.2366 103.7111 -0.5772 26.8592 -12.9209
# 4 5.4337 -1.8454 -0.5772 48.7641 -0.3615 1.3149
# 5 12.2686 13.0565 26.8592 -0.3615 38.7539 -11.1237
# 6 -2.4032 -7.4841 -12.9209 1.3149 -11.1237 15.0263
#
#
#
# Elastic Compliance Matrix: (Units=1/GPa)
#
#
# Indices 1 2 3 4 5 6 
#
# 1 0.036077 -0.001687 -0.016156 -0.004008 -0.002749 -0.010647
# 2 -0.001687 0.015400 -0.002492 0.000624 -0.001813 0.003861
# 3 -0.016156 -0.002492 0.020000 0.001651 -0.005200 0.009379
# 4 -0.004008 0.000624 0.001651 0.021019 -0.000133 -0.000848
# 5 -0.002749 -0.001813 -0.005200 -0.000133 0.037107 0.021667
# 6 -0.010647 0.003861 0.009379 -0.000848 0.021667 0.090949
#
#
# Mechanical properties :
#
#
# Convention : Reuss Voigt Hill
#
# Bulk Modulus (GPa) = 32.45825 45.09871 38.77848
# Shear Modulus (GPa) = 18.41685 29.79135 24.10410
#
# Velocity S-wave (km/s) = 2.95007 3.75206 3.37497
# Velocity P-wave (km/s) = 5.19057 6.33104 5.78896
#
# Compressibility (1/GPa) = 0.03080881
#
# Stress axis : x y z
#
# Youngs Moduli (GPa) = 27.71824 64.93591 49.99889
#
# Poissons Ratio (x) = 0.10952 0.80779
# Poissons Ratio (y) = 0.04675 0.12458
# Poissons Ratio (z) = 0.44782 0.16180
#
# Static dielectric constant tensor:
#      x y z
#    x 1.783050 0.021490 0.022500 
#    y 0.021490 1.761950 -0.013790 
#    z 0.022500 -0.013790 1.765640 
# 
# From -- ./inp_files/175719.got.cif
#   From: 2010.05.17/outbox.cif.g08.bks.cpg/sg2_88_cif.got.tgz:175719.got - 2010.06.03 11:33:40.
