data_PCOD9011345
_publ_section_title
;
Structure prediction by ZEFSAII (Michael W. Deem and Ramdas Pophale) SiO2 
 PCOD9011345
Probable space group: P -1
;
_chemical_formula_sum "Si O2"
_cell_formula_units_Z 16
_cell_length_a 12.894050
_cell_length_b 9.594218
_cell_length_c 7.288454
_cell_angle_alpha 73.429988
_cell_angle_beta 59.200774
_cell_angle_gamma 93.979100
_cell_volume 716.457556
_symmetry_space_group_name_H-M "P -1"
_symmetry_group_IT_number 2
_symmetry_cell_setting 'triclinic'
loop_
_space_group_symop_operation_xyz
x,y,z
-x,-y,-z
loop_
_atom_site_type_symbol
_atom_site_label
_atom_site_fract_x
_atom_site_fract_y
_atom_site_fract_z
Si Si1 0.033890 0.215938 0.551740
Si Si2 0.211958 0.299942 0.662772
Si Si3 0.706781 0.284230 0.025188
Si Si4 0.550204 0.654701 0.787847
Si Si5 0.144548 0.514962 0.897529
Si Si6 0.741865 0.903837 0.754156
Si Si7 0.198323 0.996118 0.947711
Si Si8 0.200645 0.748200 0.447616
O O1 0.119249 0.329876 0.577189
O O2 0.129522 0.142557 0.385017
O O3 0.944643 0.279813 0.475015
O O4 0.933678 0.093638 0.810201
O O5 0.353960 0.364836 0.449023
O O6 0.177480 0.363956 0.860039
O O7 0.187811 0.119661 0.764649
O O8 0.568972 0.294094 0.192988
O O9 0.805735 0.426012 0.971416
O O10 0.738816 0.133052 0.125282
O O11 0.726074 0.279954 0.790155
O O12 0.632561 0.782462 0.798993
O O13 0.500000 0.500000 0.000000
O O14 0.213960 0.642302 0.641114
O O15 0.000000 0.500000 0.000000
O O16 0.756494 0.074710 0.609590
O O17 0.724140 0.914878 0.984256
#
# Coordination Sequence:
#
# PCOD9011345 Si02
#       8
#     2   2   2   2   2   2   2   2
#     4   9  19  38  68  92 133 169 212 271 330 390
#     4  11  25  40  63 103 128 176 219 271 332 387
#     4  10  25  46  65  95 134 178 220 275 324 384
#     4  11  25  45  68  91 132 177 222 273 328 388
#     4  12  27  40  68 102 136 173 212 277 340 390
#     4   9  21  39  67  95 122 181 214 265 332 388
#     4  10  21  40  66 100 132 164 223 271 325 398
#     4  10  22  43  64  98 130 171 223 266 330 400
#
# _framework density 22.332097000000001
#
# number of rings (size 3 to 8) (size 9 to 14) (size 15 to 20)
#    0.000    2.000    0.000    4.125    8.750    6.000 
#    2.250    0.000    0.000    0.000    0.000    0.000 
#    0.000    0.000    0.000    0.000    0.000    0.000 
#
# Total GULP energy -89501.550072 kJ/mol
# GULP energy per Si atom -5593.846879 kJ/mol
# Density = 2.228127 g / cm^3
# Si number density = 22.332097 Si / 1000 Ang^3
#
#
#
# Elastic Constant Matrix: (Units=GPa)
#
#
# Indices 1 2 3 4 5 6 
#
# 1 72.6101 33.5269 23.2331 -4.9436 -26.8454 2.9145
# 2 33.5269 104.6792 19.8231 15.4549 -17.6057 -3.5696
# 3 23.2331 19.8231 62.1353 2.9798 -12.5577 -7.9125
# 4 -4.9436 15.4549 2.9798 31.0513 -7.1134 5.9294
# 5 -26.8454 -17.6057 -12.5577 -7.1134 41.2139 -4.8225
# 6 2.9145 -3.5696 -7.9125 5.9294 -4.8225 18.5068
#
#
#
# Elastic Compliance Matrix: (Units=1/GPa)
#
#
# Indices 1 2 3 4 5 6 
#
# 1 0.024660 -0.006747 -0.006247 0.012365 0.012407 -0.008584
# 2 -0.006747 0.013386 -0.000425 -0.008821 0.000420 0.006398
# 3 -0.006247 -0.000425 0.020853 -0.004440 0.002736 0.011953
# 4 0.012365 -0.008821 -0.004440 0.044288 0.008528 -0.017514
# 5 0.012407 0.000420 0.002736 0.008528 0.035511 0.005818
# 6 -0.008584 0.006398 0.011953 -0.017514 0.005818 0.068858
#
#
# Mechanical properties :
#
#
# Convention : Reuss Voigt Hill
#
# Bulk Modulus (GPa) = 31.19027 43.62121 37.40574
# Shear Modulus (GPa) = 20.40160 29.01051 24.70606
#
# Velocity S-wave (km/s) = 3.02579 3.60814 3.32972
# Velocity P-wave (km/s) = 5.11899 6.07731 5.61862
#
# Compressibility (1/GPa) = 0.03206128
#
# Stress axis : x y z
#
# Youngs Moduli (GPa) = 40.55217 74.70752 47.95438
#
# Poissons Ratio (x) = 0.50403 0.29956
# Poissons Ratio (y) = 0.27359 0.02038
# Poissons Ratio (z) = 0.25332 0.03175
#
# Static dielectric constant tensor:
#      x y z
#    x 1.828770 0.003720 0.035360 
#    y 0.003720 1.832270 -0.001570 
#    z 0.035360 -0.001570 1.827210 
# 
# From -- ./inp_files/295140.got.cif
#   From: 2010.05.17/outbox.cif.g08.bks.cpg/sg2_148_cif.got.tgz:295140.got - 2010.06.03 11:33:40.
