data_PCOD9011363
_publ_section_title
;
Structure prediction by ZEFSAII (Michael W. Deem and Ramdas Pophale) SiO2 
 PCOD9011363
Probable space group: P -1
;
_chemical_formula_sum "Si O2"
_cell_formula_units_Z 16
_cell_length_a 11.620148
_cell_length_b 5.337319
_cell_length_c 12.795338
_cell_angle_alpha 94.023865
_cell_angle_beta 124.292714
_cell_angle_gamma 84.544673
_cell_volume 652.523053
_symmetry_space_group_name_H-M "P -1"
_symmetry_group_IT_number 2
_symmetry_cell_setting 'triclinic'
loop_
_space_group_symop_operation_xyz
x,y,z
-x,-y,-z
loop_
_atom_site_type_symbol
_atom_site_label
_atom_site_fract_x
_atom_site_fract_y
_atom_site_fract_z
Si Si1 0.351873 0.648617 0.461393
Si Si2 0.663486 0.542622 0.322836
Si Si3 0.921712 0.271795 0.999176
Si Si4 0.078906 0.351423 0.265142
Si Si5 0.711726 0.029022 0.751451
Si Si6 0.933855 0.769229 0.513645
Si Si7 0.617865 0.288347 0.096605
Si Si8 0.559570 0.064180 0.862377
O O1 0.500000 0.500000 0.500000
O O2 0.347044 0.632648 0.585302
O O3 0.192604 0.559510 0.351863
O O4 0.356533 0.880580 0.389913
O O5 0.769742 0.753605 0.409545
O O6 0.713154 0.414630 0.234593
O O7 0.518433 0.692933 0.224808
O O8 0.778067 0.248099 0.860871
O O9 0.000000 0.500000 0.000000
O O10 0.932496 0.363501 0.128117
O O11 0.000000 0.000000 0.000000
O O12 0.049840 0.220093 0.354592
O O13 0.170750 0.170300 0.231817
O O14 0.620644 0.908582 0.790843
O O15 0.000000 0.500000 0.500000
O O16 0.000000 0.000000 0.500000
O O17 0.546008 0.091302 0.129471
O O18 0.500000 0.500000 0.000000
O O19 0.664324 0.143786 0.010003
#
# Coordination Sequence:
#
# PCOD9011363 Si02
#       8
#     2   2   2   2   2   2   2   2
#     4  11  22  38  63 100 140 179 222 275 357 422
#     4  10  23  41  67  96 135 183 225 293 341 422
#     4  10  21  42  66  94 135 180 224 283 339 404
#     4  10  25  43  66  99 136 179 231 293 340 417
#     4  11  23  39  69 102 136 178 226 284 361 418
#     4  11  28  48  70  97 135 187 244 288 344 408
#     4   9  21  41  62  90 138 176 228 276 341 408
#     4  10  21  40  66 101 137 177 224 285 355 422
#
# _framework density 24.520208
#
# number of rings (size 3 to 8) (size 9 to 14) (size 15 to 20)
#    0.000    1.750    2.500    0.000    7.000    2.500 
#    4.500    0.000    0.000    0.000    0.000    0.000 
#    0.000    0.000    0.000    0.000    0.000    0.000 
#
# Total GULP energy -89088.106312 kJ/mol
# GULP energy per Si atom -5568.006644 kJ/mol
# Density = 2.446440 g / cm^3
# Si number density = 24.520208 Si / 1000 Ang^3
#
#
#
# Elastic Constant Matrix: (Units=GPa)
#
#
# Indices 1 2 3 4 5 6 
#
# 1 81.7421 16.4509 39.1691 -5.4598 -24.8835 16.3545
# 2 16.4509 71.8702 35.7437 -2.6870 -9.9439 17.5674
# 3 39.1691 35.7437 190.1698 1.7004 -35.0598 31.8417
# 4 -5.4598 -2.6870 1.7004 30.1890 8.6535 0.6384
# 5 -24.8835 -9.9439 -35.0598 8.6535 61.4701 1.1436
# 6 16.3545 17.5674 31.8417 0.6384 1.1436 34.5108
#
#
#
# Elastic Compliance Matrix: (Units=1/GPa)
#
#
# Indices 1 2 3 4 5 6 
#
# 1 0.015996 -0.000725 -0.001039 0.001393 0.005690 -0.006467
# 2 -0.000725 0.016786 -0.001610 0.001177 0.001464 -0.006786
# 3 -0.001039 -0.001610 0.007465 -0.001758 0.003930 -0.005674
# 4 0.001393 0.001177 -0.001758 0.035069 -0.005183 -0.000114
# 5 0.005690 0.001464 0.003930 -0.005183 0.021922 -0.007698
# 6 -0.006467 -0.006786 -0.005674 -0.000114 -0.007698 0.040988
#
#
# Mechanical properties :
#
#
# Convention : Reuss Voigt Hill
#
# Bulk Modulus (GPa) = 29.85082 58.50103 44.17593
# Shear Modulus (GPa) = 32.02240 42.06188 37.04214
#
# Velocity S-wave (km/s) = 3.61773 4.14623 3.89096
# Velocity P-wave (km/s) = 5.44527 6.84337 6.18396
#
# Compressibility (1/GPa) = 0.03349991
#
# Stress axis : x y z
#
# Youngs Moduli (GPa) = 62.51406 59.57365 133.95261
#
# Poissons Ratio (x) = 0.04317 0.13920
# Poissons Ratio (y) = 0.04530 0.21568
# Poissons Ratio (z) = 0.06496 0.09592
#
# Static dielectric constant tensor:
#      x y z
#    x 2.060360 -0.000640 0.100380 
#    y -0.000640 1.937270 0.037460 
#    z 0.100380 0.037460 2.076550 
# 
# From -- ./inp_files/370276.got.cif
#   From: 2010.05.17/outbox.cif.g08.bks.cpg/sg2_186_cif.got.tgz:370276.got - 2010.06.03 11:33:40.
