data_PCOD9011529
_publ_section_title
;
Structure prediction by ZEFSAII (Michael W. Deem and Ramdas Pophale) SiO2 
 PCOD9011529
Probable space group: P -1
;
_chemical_formula_sum "Si O2"
_cell_formula_units_Z 10
_cell_length_a 6.871100
_cell_length_b 10.172166
_cell_length_c 14.018347
_cell_angle_alpha 152.879421
_cell_angle_beta 63.918729
_cell_angle_gamma 121.881194
_cell_volume 378.100390
_symmetry_space_group_name_H-M "P -1"
_symmetry_group_IT_number 2
_symmetry_cell_setting 'triclinic'
loop_
_space_group_symop_operation_xyz
x,y,z
-x,-y,-z
loop_
_atom_site_type_symbol
_atom_site_label
_atom_site_fract_x
_atom_site_fract_y
_atom_site_fract_z
Si Si1 0.689834 0.242555 0.410973
Si Si2 0.512492 0.021355 0.897463
Si Si3 0.025294 0.201340 0.931447
Si Si4 0.212124 0.879272 0.366942
Si Si5 0.211101 0.421376 0.220231
O O1 0.821171 0.545393 0.638760
O O2 0.433981 0.126183 0.434887
O O3 0.646435 0.246576 0.309646
O O4 0.808493 0.990868 0.246502
O O5 0.424632 0.305801 0.078683
O O6 0.778744 0.075069 0.855153
O O7 0.500000 0.000000 0.000000
O O8 0.143071 0.561348 0.116784
O O9 0.008581 0.217073 0.062476
O O10 0.257488 0.754550 0.379536
O O11 0.000000 0.000000 0.500000
#
# Coordination Sequence:
#
# PCOD9011529 Si02
#       5
#     2   2   2   2   2
#     4  11  22  40  67  95 127 163 202 253 318 371
#     4  11  25  44  63  89 126 168 215 257 300 362
#     4   9  23  39  62  93 125 161 207 252 311 364
#     4  10  21  40  66  94 132 158 197 257 316 379
#     4   9  23  41  60  96 126 157 207 252 307 376
#
# _framework density 26.448001000000001
#
# number of rings (size 3 to 8) (size 9 to 14) (size 15 to 20)
#    1.200    0.800    0.000    2.400    2.800    4.800 
#    0.000    2.000    0.000    0.000    0.000    0.000 
#    0.000    0.000    0.000    0.000    0.000    0.000 
#
# Total GULP energy -55940.583110 kJ/mol
# GULP energy per Si atom -5594.058311 kJ/mol
# Density = 2.638780 g / cm^3
# Si number density = 26.448001 Si / 1000 Ang^3
#
#
#
# Elastic Constant Matrix: (Units=GPa)
#
#
# Indices 1 2 3 4 5 6 
#
# 1 198.8894 32.6370 77.9834 -5.3894 -0.5468 -7.1088
# 2 32.6370 72.7203 22.0727 -11.4432 -2.7022 -13.1790
# 3 77.9834 22.0727 163.8317 -12.1773 18.9273 -5.4302
# 4 -5.3894 -11.4432 -12.1773 40.4567 -9.5852 4.0588
# 5 -0.5468 -2.7022 18.9273 -9.5852 77.5511 -5.0654
# 6 -7.1088 -13.1790 -5.4302 4.0588 -5.0654 41.0627
#
#
#
# Elastic Compliance Matrix: (Units=1/GPa)
#
#
# Indices 1 2 3 4 5 6 
#
# 1 0.006506 -0.002043 -0.002923 -0.000459 0.000645 0.000209
# 2 -0.002043 0.016493 -0.000983 0.004013 0.001597 0.004610
# 3 -0.002923 -0.000983 0.007932 0.001297 -0.001839 -0.000128
# 4 -0.000459 0.004013 0.001297 0.027007 0.003099 -0.000907
# 5 0.000645 0.001597 -0.001839 0.003099 0.013904 0.001790
# 6 0.000209 0.004610 -0.000128 -0.000907 0.001790 0.026162
#
#
# Mechanical properties :
#
#
# Convention : Reuss Voigt Hill
#
# Bulk Modulus (GPa) = 52.54151 77.86974 65.20562
# Shear Modulus (GPa) = 43.01142 51.99733 47.50437
#
# Velocity S-wave (km/s) = 4.03707 4.43879 4.24269
# Velocity P-wave (km/s) = 6.45288 7.46840 6.97914
#
# Compressibility (1/GPa) = 0.01903257
#
# Stress axis : x y z
#
# Youngs Moduli (GPa) = 153.69859 60.63198 126.06456
#
# Poissons Ratio (x) = 0.12388 0.36854
# Poissons Ratio (y) = 0.31402 0.12392
# Poissons Ratio (z) = 0.44933 0.05960
#
# Static dielectric constant tensor:
#      x y z
#    x 2.026390 -0.031900 0.061920 
#    y -0.031900 2.133370 -0.027050 
#    z 0.061920 -0.027050 2.087600 
# 
# From -- ./inp_files/19391.got.cif
#   From: 2010.05.17/outbox.cif.g08.bks.cpg/sg2_10_cif.got.tgz:19391.got - 2010.06.03 11:33:40.
