data_PCOD9011684
_publ_section_title
;
Structure prediction by ZEFSAII (Michael W. Deem and Ramdas Pophale) SiO2 
 PCOD9011684
Probable space group: P -1
;
_chemical_formula_sum "Si O2"
_cell_formula_units_Z 16
_cell_length_a 22.967140
_cell_length_b 5.058159
_cell_length_c 5.376669
_cell_angle_alpha 89.021550
_cell_angle_beta 89.120135
_cell_angle_gamma 65.388210
_cell_volume 567.763217
_symmetry_space_group_name_H-M "P -1"
_symmetry_group_IT_number 2
_symmetry_cell_setting 'triclinic'
loop_
_space_group_symop_operation_xyz
x,y,z
-x,-y,-z
loop_
_atom_site_type_symbol
_atom_site_label
_atom_site_fract_x
_atom_site_fract_y
_atom_site_fract_z
Si Si1 0.134990 0.886642 0.946750
Si Si2 0.552809 0.607510 0.583203
Si Si3 0.797284 0.436968 0.562043
Si Si4 0.700493 0.181850 0.558599
Si Si5 0.016389 0.231395 0.197695
Si Si6 0.103998 0.376537 0.575681
Si Si7 0.409868 0.233809 0.916838
Si Si8 0.677534 0.093785 0.059767
O O1 0.125781 0.199729 0.834615
O O2 0.169344 0.698867 0.705090
O O3 0.063047 0.943799 0.048321
O O4 0.178655 0.751268 0.183622
O O5 0.500000 0.500000 0.500000
O O6 0.622962 0.336932 0.577282
O O7 0.559512 0.803478 0.356263
O O8 0.547645 0.741752 0.856166
O O9 0.728030 0.425043 0.543906
O O10 0.833695 0.648102 0.574755
O O11 0.716037 0.990210 0.312901
O O12 0.717981 0.995317 0.810852
O O13 0.065772 0.247503 0.403806
O O14 0.951912 0.307277 0.360623
O O15 0.000000 0.500000 0.000000
O O16 0.350767 0.555308 0.924695
O O17 0.380718 0.000553 0.953088
#
# Coordination Sequence:
#
# PCOD9011684 Si02
#       8
#     2   2   2   2   2   2   2   2
#     4  11  24  44  63 103 127 176 228 275 341 414
#     4  10  21  42  70 103 137 179 231 288 353 421
#     4  12  26  43  68  95 136 180 233 276 355 417
#     4  10  23  45  61  98 133 174 231 289 345 424
#     4   9  20  43  67  98 138 173 226 288 345 402
#     4  10  23  45  67  97 140 175 226 294 338 413
#     4  10  21  40  67 100 133 179 223 288 351 420
#     4  10  21  44  67  95 137 176 235 279 351 420
#
# _framework density 28.180759999999999
#
# number of rings (size 3 to 8) (size 9 to 14) (size 15 to 20)
#    0.000    1.750    1.250    1.875    3.500    1.000 
#   13.500   15.000    0.000    0.000    0.000    0.000 
#    0.000    0.000    0.000    0.000    0.000    0.000 
#
# Total GULP energy -89504.905347 kJ/mol
# GULP energy per Si atom -5594.056584 kJ/mol
# Density = 2.811662 g / cm^3
# Si number density = 28.180760 Si / 1000 Ang^3
#
#
#
# Elastic Constant Matrix: (Units=GPa)
#
#
# Indices 1 2 3 4 5 6 
#
# 1 156.0016 19.9286 23.2428 -25.0288 -15.9039 18.4556
# 2 19.9286 57.5650 22.1438 -12.6132 1.3935 17.9820
# 3 23.2428 22.1438 229.6236 -11.5889 -3.7274 10.6400
# 4 -25.0288 -12.6132 -11.5889 43.1916 0.6068 -15.1605
# 5 -15.9039 1.3935 -3.7274 0.6068 40.5863 -7.1847
# 6 18.4556 17.9820 10.6400 -15.1605 -7.1847 40.7329
#
#
#
# Elastic Compliance Matrix: (Units=1/GPa)
#
#
# Indices 1 2 3 4 5 6 
#
# 1 0.007612 -0.001517 -0.000360 0.003523 0.002793 -0.000881
# 2 -0.001517 0.021567 -0.001485 0.002203 -0.002946 -0.008145
# 3 -0.000360 -0.001485 0.004572 0.000537 0.000300 -0.000123
# 4 0.003523 0.002203 0.000537 0.028925 0.002424 0.008485
# 5 0.002793 -0.002946 0.000300 0.002424 0.026815 0.005589
# 6 -0.000881 -0.008145 -0.000123 0.008485 0.005589 0.032721
#
#
# Mechanical properties :
#
#
# Convention : Reuss Voigt Hill
#
# Bulk Modulus (GPa) = 37.00231 63.75783 50.38007
# Shear Modulus (GPa) = 36.24597 50.09380 43.16989
#
# Velocity S-wave (km/s) = 3.59025 4.22072 3.91819
# Velocity P-wave (km/s) = 5.50866 6.81369 6.19563
#
# Compressibility (1/GPa) = 0.02702534
#
# Stress axis : x y z
#
# Youngs Moduli (GPa) = 131.37429 46.36784 218.70738
#
# Poissons Ratio (x) = 0.07034 0.07878
# Poissons Ratio (y) = 0.19930 0.32488
# Poissons Ratio (z) = 0.04732 0.06888
#
# Static dielectric constant tensor:
#      x y z
#    x 2.220540 0.003690 0.046550 
#    y 0.003690 2.482190 0.078090 
#    z 0.046550 0.078090 2.274090 
# 
# From -- ./inp_files/114787.got.cif
#   From: 2010.05.17/outbox.cif.g08.bks.cpg/sg2_58_cif.got.tgz:114787.got - 2010.06.03 11:33:40.
