data_PCOD9011221
_publ_section_title
;
Structure prediction by ZEFSAII (Michael W. Deem and Ramdas Pophale) SiO2 
 PCOD9011221
Probable space group: P -1
;
_chemical_formula_sum "Si O2"
_cell_formula_units_Z 14
_cell_length_a 5.013032
_cell_length_b 21.015348
_cell_length_c 21.488113
_cell_angle_alpha 166.586841
_cell_angle_beta 87.698392
_cell_angle_gamma 92.035507
_cell_volume 524.648343
_symmetry_space_group_name_H-M "P -1"
_symmetry_group_IT_number 2
_symmetry_cell_setting 'triclinic'
loop_
_space_group_symop_operation_xyz
x,y,z
-x,-y,-z
loop_
_atom_site_type_symbol
_atom_site_label
_atom_site_fract_x
_atom_site_fract_y
_atom_site_fract_z
Si Si1 0.637304 0.833111 0.066615
Si Si2 0.969648 0.173065 0.567461
Si Si3 0.191701 0.261158 0.246115
Si Si4 0.016422 0.410668 0.266116
Si Si5 0.301244 0.250722 0.758479
Si Si6 0.654198 0.895073 0.779845
Si Si7 0.502404 0.713596 0.402299
O O1 0.877497 0.649596 0.861014
O O2 0.445672 0.580598 0.845395
O O3 0.568331 0.036385 0.203173
O O4 0.633896 0.047413 0.326801
O O5 0.716375 0.335356 0.696048
O O6 0.220539 0.176131 0.521826
O O7 0.859776 0.871423 0.297822
O O8 0.087946 0.287664 0.740048
O O9 0.244509 0.350795 0.259929
O O10 0.000000 0.500000 0.500000
O O11 0.410682 0.213244 0.253058
O O12 0.000000 0.000000 0.000000
O O13 0.866684 0.692867 0.551562
O O14 0.801452 0.178622 0.058407
O O15 0.500000 0.000000 0.500000
O O16 0.500000 0.500000 0.000000
#
# Coordination Sequence:
#
# PCOD9011221 Si02
#       7
#     2   2   2   2   2   2   2
#     4  12  28  43  68 103 138 208 260 306 378 456
#     4  11  28  54  78 120 162 201 256 316 380 451
#     4   8  16  33  60  93 126 175 231 312 401 454
#     4  10  21  40  65  94 137 181 244 320 387 459
#     4  11  26  50  87 123 155 200 249 317 382 449
#     4  10  21  40  65  94 137 181 244 320 387 459
#     4  12  30  47  76 107 158 210 256 310 376 456
#
# _framework density 26.684538
#
# number of rings (size 3 to 8) (size 9 to 14) (size 15 to 20)
#    0.000    1.429    1.429    1.714    8.000    5.143 
#    0.000    0.000    0.000   12.000    0.000    0.000 
#    0.000    0.000    0.000    0.000    0.000    0.000 
#
# Total GULP energy -78376.909651 kJ/mol
# GULP energy per Si atom -5598.350689 kJ/mol
# Density = 2.662380 g / cm^3
# Si number density = 26.684538 Si / 1000 Ang^3
#
#
#
# Elastic Constant Matrix: (Units=GPa)
#
#
# Indices 1 2 3 4 5 6 
#
# 1 124.7963 38.4414 53.8306 9.5545 0.6634 6.0061
# 2 38.4414 100.2677 47.4648 6.7818 -6.5569 9.5431
# 3 53.8306 47.4648 174.9502 17.3232 9.5923 0.7166
# 4 9.5545 6.7818 17.3232 29.2315 -1.6044 4.3161
# 5 0.6634 -6.5569 9.5923 -1.6044 33.7218 6.5564
# 6 6.0061 9.5431 0.7166 4.3161 6.5564 34.0811
#
#
#
# Elastic Compliance Matrix: (Units=1/GPa)
#
#
# Indices 1 2 3 4 5 6 
#
# 1 0.009899 -0.002578 -0.002227 -0.001192 0.000043 -0.000833
# 2 -0.002578 0.013006 -0.002992 0.000420 0.004227 -0.003991
# 3 -0.002227 -0.002992 0.007751 -0.003676 -0.003341 0.002176
# 4 -0.001192 0.000420 -0.003676 0.037692 0.003988 -0.005371
# 5 0.000043 0.004227 -0.003341 0.003988 0.033172 -0.008008
# 6 -0.000833 -0.003991 0.002176 -0.005371 -0.008008 0.032781
#
#
# Mechanical properties :
#
#
# Convention : Reuss Voigt Hill
#
# Bulk Modulus (GPa) = 66.39657 75.49863 70.94760
# Shear Modulus (GPa) = 32.27519 36.75872 34.51695
#
# Velocity S-wave (km/s) = 3.48157 3.71553 3.60045
# Velocity P-wave (km/s) = 6.41076 6.83823 6.62794
#
# Compressibility (1/GPa) = 0.01506102
#
# Stress axis : x y z
#
# Youngs Moduli (GPa) = 101.01954 76.88723 129.01056
#
# Poissons Ratio (x) = 0.19822 0.28734
# Poissons Ratio (y) = 0.26044 0.38604
# Poissons Ratio (z) = 0.22500 0.23007
#
# Static dielectric constant tensor:
#      x y z
#    x 2.127070 -0.062800 -0.025750 
#    y -0.062800 2.226890 -0.028090 
#    z -0.025750 -0.028090 2.073840 
# 
# From -- ./inp_files/605218.got.cif
#   From: 2010.05.17/outbox.cif.g08.bks.cpg/sg2_303_cif.got.tgz:605218.got - 2010.06.03 11:33:40.
