data_PCOD9011520
_publ_section_title
;
Structure prediction by ZEFSAII (Michael W. Deem and Ramdas Pophale) SiO2 
 PCOD9011520
Probable space group: P -1
;
_chemical_formula_sum "Si O2"
_cell_formula_units_Z 12
_cell_length_a 8.975625
_cell_length_b 7.365932
_cell_length_c 16.393652
_cell_angle_alpha 51.449838
_cell_angle_beta 37.774322
_cell_angle_gamma 50.139467
_cell_volume 493.707691
_symmetry_space_group_name_H-M "P -1"
_symmetry_group_IT_number 2
_symmetry_cell_setting 'triclinic'
loop_
_space_group_symop_operation_xyz
x,y,z
-x,-y,-z
loop_
_atom_site_type_symbol
_atom_site_label
_atom_site_fract_x
_atom_site_fract_y
_atom_site_fract_z
Si Si1 0.904836 0.911767 0.323975
Si Si2 0.350864 0.743019 0.788156
Si Si3 0.477101 0.354001 0.436042
Si Si4 0.246748 0.502358 0.059024
Si Si5 0.332064 0.198908 0.765430
Si Si6 0.390323 0.961059 0.145256
O O1 0.778863 0.704838 0.411436
O O2 0.899801 0.087946 0.199189
O O3 0.708032 0.098673 0.418994
O O4 0.185258 0.818996 0.262658
O O5 0.523747 0.634659 0.665924
O O6 0.438657 0.942896 0.744525
O O7 0.299124 0.556092 0.926919
O O8 0.543241 0.590811 0.371843
O O9 0.222215 0.238370 0.161891
O O10 0.974510 0.699762 0.140384
O O11 0.500000 0.500000 0.000000
O O12 0.403944 0.143146 0.844842
O O13 0.500000 0.000000 0.000000
#
# Coordination Sequence:
#
# PCOD9011520 Si02
#       6
#     2   2   2   2   2   2
#     4   9  21  44  65  93 134 164 214 271 318 374
#     4  10  21  40  66  94 127 171 213 263 320 381
#     4   9  21  43  67  91 135 165 213 274 311 378
#     4  12  24  40  61  96 137 161 213 277 310 377
#     4  12  24  41  67  96 128 171 221 259 324 388
#     4  12  25  40  69  97 127 176 211 261 335 381
#
# _framework density 24.305880999999999
#
# number of rings (size 3 to 8) (size 9 to 14) (size 15 to 20)
#    1.000    0.333    3.333    2.500    2.333    3.333 
#    0.000    0.833    3.667    0.000    0.000    0.000 
#    0.000    0.000    0.000    0.000    0.000    0.000 
#
# Total GULP energy -67005.191456 kJ/mol
# GULP energy per Si atom -5583.765955 kJ/mol
# Density = 2.425056 g / cm^3
# Si number density = 24.305881 Si / 1000 Ang^3
#
#
#
# Elastic Constant Matrix: (Units=GPa)
#
#
# Indices 1 2 3 4 5 6 
#
# 1 120.0356 26.7532 34.8129 7.5477 -12.0143 -27.3218
# 2 26.7532 63.2651 23.3599 -18.7248 -6.6284 -17.4403
# 3 34.8129 23.3599 99.2541 -6.1444 -10.1213 -19.2225
# 4 7.5477 -18.7248 -6.1444 32.2287 2.2544 -2.6513
# 5 -12.0143 -6.6284 -10.1213 2.2544 52.3518 -9.9573
# 6 -27.3218 -17.4403 -19.2225 -2.6513 -9.9573 37.7404
#
#
#
# Elastic Compliance Matrix: (Units=1/GPa)
#
#
# Indices 1 2 3 4 5 6 
#
# 1 0.011816 -0.003615 -0.002033 -0.004961 0.003285 0.006366
# 2 -0.003615 0.026033 -0.001397 0.016345 0.003544 0.010784
# 3 -0.002033 -0.001397 0.012521 0.002287 0.002653 0.005121
# 4 -0.004961 0.016345 0.002287 0.042736 0.001136 0.008428
# 5 0.003285 0.003544 0.002653 0.001136 0.022956 0.011504
# 6 0.006366 0.010784 0.005121 0.008428 0.011504 0.042325
#
#
# Mechanical properties :
#
#
# Convention : Reuss Voigt Hill
#
# Bulk Modulus (GPa) = 27.56370 50.26742 38.91556
# Shear Modulus (GPa) = 27.08995 37.63944 32.36469
#
# Velocity S-wave (km/s) = 3.34210 3.93946 3.65301
# Velocity P-wave (km/s) = 5.12424 6.43572 5.81706
#
# Compressibility (1/GPa) = 0.03627960
#
# Stress axis : x y z
#
# Youngs Moduli (GPa) = 84.63074 38.41271 79.86763
#
# Poissons Ratio (x) = 0.13888 0.16234
# Poissons Ratio (y) = 0.30597 0.11158
# Poissons Ratio (z) = 0.17203 0.05367
#
# Static dielectric constant tensor:
#      x y z
#    x 1.970620 0.066540 0.013340 
#    y 0.066540 1.991350 -0.014580 
#    z 0.013340 -0.014580 1.949390 
# 
# From -- ./inp_files/318624.got.cif
#   From: 2010.05.17/outbox.cif.g08.bks.cpg/sg2_160_cif.got.tgz:318624.got - 2010.06.03 11:33:40.
