data_PCOD9011675
_publ_section_title
;
Structure prediction by ZEFSAII (Michael W. Deem and Ramdas Pophale) SiO2 
 PCOD9011675
Probable space group: P -1
;
_chemical_formula_sum "Si O2"
_cell_formula_units_Z 14
_cell_length_a 12.276653
_cell_length_b 5.686652
_cell_length_c 8.162241
_cell_angle_alpha 69.890577
_cell_angle_beta 88.279558
_cell_angle_gamma 91.913706
_cell_volume 534.271120
_symmetry_space_group_name_H-M "P -1"
_symmetry_group_IT_number 2
_symmetry_cell_setting 'triclinic'
loop_
_space_group_symop_operation_xyz
x,y,z
-x,-y,-z
loop_
_atom_site_type_symbol
_atom_site_label
_atom_site_fract_x
_atom_site_fract_y
_atom_site_fract_z
Si Si1 0.616431 0.153020 0.956514
Si Si2 0.919481 0.651405 0.728863
Si Si3 0.415704 0.334014 0.356575
Si Si4 0.653744 0.353528 0.260536
Si Si5 0.275272 0.226745 0.085264
Si Si6 0.226272 0.350691 0.589741
Si Si7 0.971265 0.879817 0.202600
O O1 0.594995 0.389501 0.785968
O O2 0.731018 0.055468 0.906051
O O3 0.643613 0.195032 0.135332
O O4 0.500000 0.000000 0.000000
O O5 0.829597 0.633988 0.884214
O O6 0.847649 0.655078 0.567124
O O7 0.988419 0.406628 0.750283
O O8 0.981236 0.918492 0.711587
O O9 0.542422 0.293279 0.377151
O O10 0.356735 0.189562 0.243604
O O11 0.344947 0.287656 0.532611
O O12 0.752279 0.385950 0.377242
O O13 0.664245 0.624232 0.101105
O O14 0.157292 0.161132 0.751984
O O15 0.000000 0.000000 0.000000
#
# Coordination Sequence:
#
# PCOD9011675 Si02
#       7
#     2   2   2   2   2   2   2
#     4  11  19  39  69 101 146 203 253 301 356 432
#     4  11  27  50  80 111 151 190 245 315 382 444
#     4  10  21  40  66  99 152 192 246 304 365 439
#     4  11  21  40  65 104 148 194 246 301 356 453
#     4  10  21  40  70 103 141 196 248 300 365 425
#     4  11  26  47  69 108 154 197 237 305 395 438
#     4  12  27  55  82 110 143 190 259 316 371 450
#
# _framework density 26.203923
#
# number of rings (size 3 to 8) (size 9 to 14) (size 15 to 20)
#    0.000    1.143    2.857    3.429    6.000    0.000 
#    7.714    0.714    0.000    0.000    0.000    0.000 
#    0.000    0.000    0.000    0.000    0.000    0.000 
#
# Total GULP energy -78133.874034 kJ/mol
# GULP energy per Si atom -5580.991002 kJ/mol
# Density = 2.614428 g / cm^3
# Si number density = 26.203923 Si / 1000 Ang^3
#
#
#
# Elastic Constant Matrix: (Units=GPa)
#
#
# Indices 1 2 3 4 5 6 
#
# 1 137.2438 66.0865 53.4293 15.0658 -12.5146 33.1564
# 2 66.0865 131.7296 25.5433 24.3060 7.9871 11.2668
# 3 53.4293 25.5433 108.4317 7.9710 -20.7138 16.4125
# 4 15.0658 24.3060 7.9710 26.2756 15.0162 13.1077
# 5 -12.5146 7.9871 -20.7138 15.0162 51.2814 5.7967
# 6 33.1564 11.2668 16.4125 13.1077 5.7967 37.1403
#
#
#
# Elastic Compliance Matrix: (Units=1/GPa)
#
#
# Indices 1 2 3 4 5 6 
#
# 1 0.014272 -0.006128 -0.003387 0.001606 0.003791 -0.010544
# 2 -0.006128 0.012086 -0.000189 -0.009625 -0.001255 0.005481
# 3 -0.003387 -0.000189 0.012613 -0.003970 0.005684 -0.001979
# 4 0.001606 -0.009625 -0.003970 0.065536 -0.016954 -0.017242
# 5 0.003791 -0.001255 0.005684 -0.016954 0.028328 -0.003953
# 6 -0.010544 0.005481 -0.001979 -0.017242 -0.003953 0.042252
#
#
# Mechanical properties :
#
#
# Convention : Reuss Voigt Hill
#
# Bulk Modulus (GPa) = 51.11765 74.16926 62.64346
# Shear Modulus (GPa) = 24.87364 38.42918 31.65141
#
# Velocity S-wave (km/s) = 3.08431 3.83370 3.47924
# Velocity P-wave (km/s) = 5.67749 6.92549 6.33231
#
# Compressibility (1/GPa) = 0.01956271
#
# Stress axis : x y z
#
# Youngs Moduli (GPa) = 70.06623 82.74324 79.28273
#
# Poissons Ratio (x) = 0.50703 0.26853
# Poissons Ratio (y) = 0.42935 0.01502
# Poissons Ratio (z) = 0.23731 0.01567
#
# Static dielectric constant tensor:
#      x y z
#    x 2.065940 -0.002730 -0.000460 
#    y -0.002730 2.325540 0.057440 
#    z -0.000460 0.057440 2.030750 
# 
# From -- ./inp_files/286301.got.cif
#   From: 2010.05.17/outbox.cif.g08.bks.cpg/sg2_144_cif.got.tgz:286301.got - 2010.06.03 11:33:40.
