data_PCOD9011808
_publ_section_title
;
Structure prediction by ZEFSAII (Michael W. Deem and Ramdas Pophale) SiO2 
 PCOD9011808
Probable space group: P -1
;
_chemical_formula_sum "Si O2"
_cell_formula_units_Z 14
_cell_length_a 21.504992
_cell_length_b 12.092552
_cell_length_c 9.183299
_cell_angle_alpha 121.359869
_cell_angle_beta 140.952127
_cell_angle_gamma 30.879852
_cell_volume 688.791241
_symmetry_space_group_name_H-M "P -1"
_symmetry_group_IT_number 2
_symmetry_cell_setting 'triclinic'
loop_
_space_group_symop_operation_xyz
x,y,z
-x,-y,-z
loop_
_atom_site_type_symbol
_atom_site_label
_atom_site_fract_x
_atom_site_fract_y
_atom_site_fract_z
Si Si1 0.647392 0.250517 0.014258
Si Si2 0.295104 0.873170 0.499514
Si Si3 0.782469 0.863735 0.719561
Si Si4 0.310088 0.648540 0.130294
Si Si5 0.033247 0.117467 0.460513
Si Si6 0.103511 0.559631 0.315633
Si Si7 0.524536 0.816469 0.418660
O O1 0.642962 0.296131 0.868934
O O2 0.594220 0.156951 0.873372
O O3 0.500000 0.500000 0.000000
O O4 0.838316 0.083979 0.318304
O O5 0.286562 0.745933 0.308816
O O6 0.516309 0.641580 0.759703
O O7 0.204208 0.080386 0.370973
O O8 0.181949 0.996843 0.527536
O O9 0.844608 0.645868 0.692880
O O10 0.567207 0.111201 0.542742
O O11 0.919877 0.772139 0.028347
O O12 0.118472 0.798645 0.838268
O O13 0.925423 0.342416 0.514494
O O14 0.268100 0.434225 0.429363
O O15 0.500000 0.000000 0.500000
#
# Coordination Sequence:
#
# PCOD9011808 Si02
#       7
#     2   2   2   2   2   2   2
#     4  12  22  41  68  98 127 164 220 275 314 373
#     4  11  24  42  61  90 138 165 210 261 330 389
#     4  10  21  43  65  94 124 171 212 265 315 390
#     4  11  24  42  62  92 128 174 212 258 326 389
#     4  12  24  40  65  95 131 165 214 270 322 380
#     4  10  22  39  70  94 121 164 224 261 317 374
#     4  10  21  40  67  94 126 167 215 266 316 378
#
# _framework density 20.325461000000001
#
# number of rings (size 3 to 8) (size 9 to 14) (size 15 to 20)
#    0.000    1.143    4.286    1.714    0.000    2.857 
#    0.000    0.714    0.000    0.000    0.000    0.000 
#    0.000    0.000    0.000    0.000    0.000    0.000 
#
# Total GULP energy -77958.520287 kJ/mol
# GULP energy per Si atom -5568.465735 kJ/mol
# Density = 2.027920 g / cm^3
# Si number density = 20.325461 Si / 1000 Ang^3
#
#
#
# Elastic Constant Matrix: (Units=GPa)
#
#
# Indices 1 2 3 4 5 6 
#
# 1 75.2843 26.6808 15.1345 -9.3829 -6.6435 -15.3122
# 2 26.6808 78.6475 27.4808 -10.1221 6.5752 -24.7189
# 3 15.1345 27.4808 95.7603 -10.4393 11.9403 2.0897
# 4 -9.3829 -10.1221 -10.4393 26.7595 -3.9432 -5.3742
# 5 -6.6435 6.5752 11.9403 -3.9432 32.0895 -4.9477
# 6 -15.3122 -24.7189 2.0897 -5.3742 -4.9477 38.9545
#
#
#
# Elastic Compliance Matrix: (Units=1/GPa)
#
#
# Indices 1 2 3 4 5 6 
#
# 1 0.017598 -0.002607 -0.002325 0.006754 0.006984 0.007206
# 2 -0.002607 0.020469 -0.004935 0.007583 0.000083 0.013285
# 3 -0.002325 -0.004935 0.013039 0.000592 -0.005067 -0.005307
# 4 0.006754 0.007583 0.000592 0.046961 0.007691 0.014891
# 5 0.006984 0.000083 -0.005067 0.007691 0.036779 0.008802
# 6 0.007206 0.013285 -0.005307 0.014891 0.008802 0.040391
#
#
# Mechanical properties :
#
#
# Convention : Reuss Voigt Hill
#
# Bulk Modulus (GPa) = 31.87756 43.14271 37.51014
# Shear Modulus (GPa) = 24.33930 31.58709 27.96320
#
# Velocity S-wave (km/s) = 3.46421 3.94644 3.71316
# Velocity P-wave (km/s) = 5.63193 6.48366 6.07275
#
# Compressibility (1/GPa) = 0.03137003
#
# Stress axis : x y z
#
# Youngs Moduli (GPa) = 56.82399 48.85535 76.69472
#
# Poissons Ratio (x) = 0.12739 0.17830
# Poissons Ratio (y) = 0.14816 0.37852
# Poissons Ratio (z) = 0.13211 0.24112
#
# Static dielectric constant tensor:
#      x y z
#    x 1.712570 0.016140 0.031430 
#    y 0.016140 1.795830 0.004890 
#    z 0.031430 0.004890 1.731770 
# 
# From -- ./inp_files/270041.got.cif
#   From: 2010.05.17/outbox.cif.g08.bks.cpg/sg2_136_cif.got.tgz:270041.got - 2010.06.03 11:33:40.
