data_PCOD9011846
_publ_section_title
;
Structure prediction by ZEFSAII (Michael W. Deem and Ramdas Pophale) SiO2 
 PCOD9011846
Probable space group: P -1
;
_chemical_formula_sum "Si O2"
_cell_formula_units_Z 14
_cell_length_a 8.756607
_cell_length_b 8.798940
_cell_length_c 12.653405
_cell_angle_alpha 130.990045
_cell_angle_beta 137.626243
_cell_angle_gamma 59.046419
_cell_volume 495.120673
_symmetry_space_group_name_H-M "P -1"
_symmetry_group_IT_number 2
_symmetry_cell_setting 'triclinic'
loop_
_space_group_symop_operation_xyz
x,y,z
-x,-y,-z
loop_
_atom_site_type_symbol
_atom_site_label
_atom_site_fract_x
_atom_site_fract_y
_atom_site_fract_z
Si Si1 0.011853 0.707357 0.287618
Si Si2 0.010823 0.726364 0.856158
Si Si3 0.926215 0.222689 0.321768
Si Si4 0.714234 0.925685 0.382691
Si Si5 0.500000 0.500000 0.000000
Si Si6 0.529816 0.520091 0.279609
Si Si7 0.500000 0.000000 0.500000
Si Si8 0.185367 0.185675 0.984877
O O1 0.085605 0.490056 0.264586
O O2 0.759517 0.763140 0.238981
O O3 0.979270 0.724913 0.153498
O O4 0.175655 0.866061 0.494225
O O5 0.952503 0.773552 0.727336
O O6 0.279320 0.672455 0.963085
O O7 0.925953 0.846835 0.971911
O O8 0.784878 0.419904 0.377986
O O9 0.123112 0.152071 0.471983
O O10 0.760364 0.037211 0.137649
O O11 0.487689 0.968726 0.350083
O O12 0.496276 0.483742 0.861334
O O13 0.474117 0.749865 0.390859
O O14 0.372030 0.348867 0.165174
#
# Coordination Sequence:
#
# PCOD9011846 Si02
#       8
#     2   2   2   2   1   2   1   2
#     4  10  21  40  67  95 133 183 226 279 337 404
#     4  11  21  38  64 105 132 178 223 284 339 403
#     4  10  24  43  68 100 142 178 220 287 359 397
#     4  10  23  44  66  97 135 184 229 278 346 410
#     4  10  22  36  66 100 138 170 222 282 338 402
#     4  11  24  43  68 103 138 180 230 286 346 406
#     4  12  26  40  68 104 130 182 236 284 328 412
#     4  11  22  41  70 102 135 179 231 286 336 419
#
# _framework density 28.275935
#
# number of rings (size 3 to 8) (size 9 to 14) (size 15 to 20)
#    0.000    1.429    1.429    3.857    4.000    2.286 
#    0.000    4.286    0.000   10.286    0.000    0.000 
#    0.000    0.000    0.000    0.000    0.000    0.000 
#
# Total GULP energy -77934.972197 kJ/mol
# GULP energy per Si atom -5566.783728 kJ/mol
# Density = 2.821158 g / cm^3
# Si number density = 28.275935 Si / 1000 Ang^3
#
#
#
# Elastic Constant Matrix: (Units=GPa)
#
#
# Indices 1 2 3 4 5 6 
#
# 1 123.3806 14.2668 41.4814 -7.7249 -17.6774 2.3430
# 2 14.2668 98.3537 49.9440 15.5466 -2.2204 6.8337
# 3 41.4814 49.9440 156.6357 35.3209 -31.7270 -10.9150
# 4 -7.7249 15.5466 35.3209 66.9432 0.7678 -13.5151
# 5 -17.6774 -2.2204 -31.7270 0.7678 51.9768 -7.7587
# 6 2.3430 6.8337 -10.9150 -13.5151 -7.7587 39.3762
#
#
#
# Elastic Compliance Matrix: (Units=1/GPa)
#
#
# Indices 1 2 3 4 5 6 
#
# 1 0.009416 -0.000392 -0.002634 0.002540 0.001533 -0.000049
# 2 -0.000392 0.013100 -0.004686 -0.001525 -0.003111 -0.004686
# 3 -0.002634 -0.004686 0.011108 -0.004384 0.006314 0.003788
# 4 0.002540 -0.001525 -0.004384 0.018950 -0.001392 0.005128
# 5 0.001533 -0.003111 0.006314 -0.001392 0.024480 0.006545
# 6 -0.000049 -0.004686 0.003788 0.005128 0.006545 0.030312
#
#
# Mechanical properties :
#
#
# Convention : Reuss Voigt Hill
#
# Bulk Modulus (GPa) = 54.94668 65.52827 60.23747
# Shear Modulus (GPa) = 38.80331 49.83776 44.32053
#
# Velocity S-wave (km/s) = 3.70849 4.20283 3.96337
# Velocity P-wave (km/s) = 6.14912 6.83934 6.50339
#
# Compressibility (1/GPa) = 0.01819946
#
# Stress axis : x y z
#
# Youngs Moduli (GPa) = 106.20773 76.33467 90.02859
#
# Poissons Ratio (x) = 0.02989 0.23717
# Poissons Ratio (y) = 0.04159 0.42188
# Poissons Ratio (z) = 0.27979 0.35771
#
# Static dielectric constant tensor:
#      x y z
#    x 2.589320 -0.125220 0.065270 
#    y -0.125220 2.236250 0.037370 
#    z 0.065270 0.037370 2.122900 
# 
# From -- ./inp_files/245458.got.cif
#   From: 2010.05.17/outbox.cif.g08.bks.cpg/sg2_123_cif.got.tgz:245458.got - 2010.06.03 11:33:40.
