data_PCOD9011917
_publ_section_title
;
Structure prediction by ZEFSAII (Michael W. Deem and Ramdas Pophale) SiO2 
 PCOD9011917
Probable space group: P -1
;
_chemical_formula_sum "Si O2"
_cell_formula_units_Z 15
_cell_length_a 10.168064
_cell_length_b 18.485749
_cell_length_c 5.254341
_cell_angle_alpha 86.801191
_cell_angle_beta 89.380381
_cell_angle_gamma 146.074433
_cell_volume 547.453343
_symmetry_space_group_name_H-M "P -1"
_symmetry_group_IT_number 2
_symmetry_cell_setting 'triclinic'
loop_
_space_group_symop_operation_xyz
x,y,z
-x,-y,-z
loop_
_atom_site_type_symbol
_atom_site_label
_atom_site_fract_x
_atom_site_fract_y
_atom_site_fract_z
Si Si1 0.274067 0.898734 0.201019
Si Si2 0.469139 0.569973 0.552075
Si Si3 0.788257 0.986320 0.536014
Si Si4 0.084325 0.222018 0.172990
Si Si5 0.000000 0.000000 0.000000
Si Si6 0.031950 0.682735 0.534356
Si Si7 0.304231 0.679279 0.636776
Si Si8 0.460236 0.690748 0.136939
O O1 0.243849 0.805066 0.326588
O O2 0.305439 0.977644 0.383364
O O3 0.025974 0.805994 0.087001
O O4 0.500000 0.000000 0.000000
O O5 0.500000 0.500000 0.500000
O O6 0.186759 0.443386 0.604915
O O7 0.527728 0.646852 0.291431
O O8 0.648505 0.668597 0.760023
O O9 0.563535 0.833131 0.555445
O O10 0.946626 0.081952 0.266279
O O11 0.955867 0.028749 0.735233
O O12 0.022654 0.267091 0.326612
O O13 0.294706 0.153225 0.942211
O O14 0.124103 0.660780 0.710471
O O15 0.271040 0.634459 0.361114
O O16 0.331714 0.636987 0.877271
#
# Coordination Sequence:
#
# PCOD9011917 Si02
#       8
#     2   2   2   2   1   2   2   2
#     4  11  23  38  67 101 140 181 238 293 358 422
#     4  10  23  50  70  99 140 189 245 293 353 420
#     4  10  22  38  63  99 136 181 226 294 351 427
#     4  10  21  40  67  98 138 184 242 293 352 422
#     4  10  22  40  66  98 144 178 224 286 356 416
#     4  10  24  43  65 100 138 188 240 296 352 424
#     4  11  26  44  72 106 145 186 236 295 364 424
#     4  11  26  47  72 108 144 190 236 294 356 429
#
# _framework density 27.399595999999999
#
# number of rings (size 3 to 8) (size 9 to 14) (size 15 to 20)
#    0.000    1.600    1.333    1.600    9.333    8.000 
#    4.800    0.000    0.000    0.000    0.000    0.000 
#    0.000    0.000    0.000    0.000    0.000    0.000 
#
# Total GULP energy -83726.696693 kJ/mol
# GULP energy per Si atom -5581.779780 kJ/mol
# Density = 2.733723 g / cm^3
# Si number density = 27.399596 Si / 1000 Ang^3
#
#
#
# Elastic Constant Matrix: (Units=GPa)
#
#
# Indices 1 2 3 4 5 6 
#
# 1 110.3933 0.8412 28.5437 -7.9124 33.9548 8.1211
# 2 0.8412 105.1726 29.5387 -1.9444 4.6017 -8.0790
# 3 28.5437 29.5387 129.5136 -1.6675 19.1598 0.9348
# 4 -7.9124 -1.9444 -1.6675 35.8030 2.0842 11.5382
# 5 33.9548 4.6017 19.1598 2.0842 43.2908 -3.7716
# 6 8.1211 -8.0790 0.9348 11.5382 -3.7716 40.4598
#
#
#
# Elastic Compliance Matrix: (Units=1/GPa)
#
#
# Indices 1 2 3 4 5 6 
#
# 1 0.013434 0.000456 -0.001385 0.005175 -0.010661 -0.005043
# 2 0.000456 0.010356 -0.002450 -0.000098 -0.000191 0.002043
# 3 -0.001385 -0.002450 0.008999 0.000392 -0.002723 -0.000785
# 4 0.005175 -0.000098 0.000392 0.033069 -0.006784 -0.011130
# 5 -0.010661 -0.000191 -0.002723 -0.006784 0.033644 0.007235
# 6 -0.005043 0.002043 -0.000785 -0.011130 0.007235 0.030003
#
#
# Mechanical properties :
#
#
# Convention : Reuss Voigt Hill
#
# Bulk Modulus (GPa) = 38.41452 51.43630 44.92541
# Shear Modulus (GPa) = 34.49713 42.98776 38.74245
#
# Velocity S-wave (km/s) = 3.55214 3.96526 3.76437
# Velocity P-wave (km/s) = 5.55645 6.30696 5.94356
#
# Compressibility (1/GPa) = 0.02603183
#
# Stress axis : x y z
#
# Youngs Moduli (GPa) = 74.43737 96.56050 111.12604
#
# Poissons Ratio (x) = -0.04405 0.15387
# Poissons Ratio (y) = -0.03396 0.27228
# Poissons Ratio (z) = 0.10307 0.23659
#
# Static dielectric constant tensor:
#      x y z
#    x 2.107620 0.032440 -0.039760 
#    y 0.032440 2.093450 -0.032950 
#    z -0.039760 -0.032950 2.062390 
# 
# From -- ./inp_files/82563.got.cif
#   From: 2010.05.17/outbox.cif.g08.bks.cpg/sg2_42_cif.got.tgz:82563.got - 2010.06.03 11:33:40.
