data_PCOD9011534
_publ_section_title
;
Structure prediction by ZEFSAII (Michael W. Deem and Ramdas Pophale) SiO2 
 PCOD9011534
Probable space group: P -1
;
_chemical_formula_sum "Si O2"
_cell_formula_units_Z 14
_cell_length_a 13.822506
_cell_length_b 5.446661
_cell_length_c 9.189331
_cell_angle_alpha 124.112159
_cell_angle_beta 89.337401
_cell_angle_gamma 109.022059
_cell_volume 528.402965
_symmetry_space_group_name_H-M "P -1"
_symmetry_group_IT_number 2
_symmetry_cell_setting 'triclinic'
loop_
_space_group_symop_operation_xyz
x,y,z
-x,-y,-z
loop_
_atom_site_type_symbol
_atom_site_label
_atom_site_fract_x
_atom_site_fract_y
_atom_site_fract_z
Si Si1 0.103413 0.452943 0.350986
Si Si2 0.469984 0.231433 0.284403
Si Si3 0.752940 0.822107 0.027296
Si Si4 0.415768 0.210211 0.741143
Si Si5 0.884319 0.516144 0.319415
Si Si6 0.301573 0.806341 0.326361
Si Si7 0.036301 0.212756 0.872625
O O1 0.156208 0.466383 0.512784
O O2 0.182680 0.735445 0.347799
O O3 0.988822 0.459530 0.340915
O O4 0.067522 0.086538 0.182176
O O5 0.500000 0.500000 0.500000
O O6 0.511695 0.437019 0.205723
O O7 0.526744 0.984356 0.235899
O O8 0.349182 0.008800 0.248371
O O9 0.673977 0.760869 0.144823
O O10 0.855721 0.753312 0.044631
O O11 0.799979 0.209296 0.136401
O O12 0.699295 0.550199 0.816837
O O13 0.368457 0.992263 0.525841
O O14 0.930660 0.806068 0.302694
O O15 0.000000 0.500000 0.000000
#
# Coordination Sequence:
#
# PCOD9011534 Si02
#       7
#     2   2   2   2   2   2   2
#     4  10  21  40  66  94 133 181 229 281 351 422
#     4  10  24  49  76 103 144 181 237 296 359 414
#     4  11  25  42  68 100 140 181 235 285 356 420
#     4  11  25  50  72 105 144 184 231 304 348 423
#     4  10  21  42  62  96 137 177 228 287 348 418
#     4  11  22  44  69 100 131 187 231 285 358 422
#     4  11  23  41  61 100 140 180 233 291 344 418
#
# _framework density 26.49493
#
# number of rings (size 3 to 8) (size 9 to 14) (size 15 to 20)
#    0.000    1.429    1.429    3.857    2.000    3.429 
#   25.714    0.000    0.000    0.000    0.000    0.000 
#    0.000    0.000    0.000    0.000    0.000    0.000 
#
# Total GULP energy -78249.213352 kJ/mol
# GULP energy per Si atom -5589.229525 kJ/mol
# Density = 2.643463 g / cm^3
# Si number density = 26.494930 Si / 1000 Ang^3
#
#
#
# Elastic Constant Matrix: (Units=GPa)
#
#
# Indices 1 2 3 4 5 6 
#
# 1 61.7118 64.7471 25.3984 12.5766 -11.1981 20.5197
# 2 64.7471 186.6392 28.8144 11.0412 -4.8862 30.8683
# 3 25.3984 28.8144 115.9573 -5.0667 -1.5755 7.9766
# 4 12.5766 11.0412 -5.0667 40.0018 4.2089 0.5910
# 5 -11.1981 -4.8862 -1.5755 4.2089 27.2606 0.7162
# 6 20.5197 30.8683 7.9766 0.5910 0.7162 51.1575
#
#
#
# Elastic Compliance Matrix: (Units=1/GPa)
#
#
# Indices 1 2 3 4 5 6 
#
# 1 0.035374 -0.009147 -0.005198 -0.010658 0.014445 -0.007938
# 2 -0.009147 0.008691 -0.000049 0.000733 -0.002275 -0.001544
# 3 -0.005198 -0.000049 0.009843 0.003104 -0.002069 0.000573
# 4 -0.010658 0.000733 0.003104 0.029409 -0.008690 0.003130
# 5 0.014445 -0.002275 -0.002069 -0.008690 0.043552 -0.004608
# 6 -0.007938 -0.001544 0.000573 0.003130 -0.004608 0.023602
#
#
# Mechanical properties :
#
#
# Convention : Reuss Voigt Hill
#
# Bulk Modulus (GPa) = 39.81135 66.91425 53.36280
# Shear Modulus (GPa) = 26.64792 40.04053 33.34422
#
# Velocity S-wave (km/s) = 3.17484 3.89170 3.55140
# Velocity P-wave (km/s) = 5.33836 6.74567 6.08285
#
# Compressibility (1/GPa) = 0.02511846
#
# Stress axis : x y z
#
# Youngs Moduli (GPa) = 28.26971 115.05787 101.59855
#
# Poissons Ratio (x) = 1.05249 0.52814
# Poissons Ratio (y) = 0.25860 0.00496
# Poissons Ratio (z) = 0.14695 0.00561
#
# Static dielectric constant tensor:
#      x y z
#    x 2.100740 0.010040 -0.040790 
#    y 0.010040 2.084730 -0.047360 
#    z -0.040790 -0.047360 2.200760 
# 
# From -- ./inp_files/441513.got.cif
#   From: 2010.05.17/outbox.cif.g08.bks.cpg/sg2_221_cif.got.tgz:441513.got - 2010.06.03 11:33:40.
