data_PCOD9011842
_publ_section_title
;
Structure prediction by ZEFSAII (Michael W. Deem and Ramdas Pophale) SiO2 
 PCOD9011842
Probable space group: P -1
;
_chemical_formula_sum "Si O2"
_cell_formula_units_Z 16
_cell_length_a 12.493437
_cell_length_b 9.712310
_cell_length_c 19.616649
_cell_angle_alpha 151.411425
_cell_angle_beta 48.943206
_cell_angle_gamma 120.885206
_cell_volume 845.513145
_symmetry_space_group_name_H-M "P -1"
_symmetry_group_IT_number 2
_symmetry_cell_setting 'triclinic'
loop_
_space_group_symop_operation_xyz
x,y,z
-x,-y,-z
loop_
_atom_site_type_symbol
_atom_site_label
_atom_site_fract_x
_atom_site_fract_y
_atom_site_fract_z
Si Si1 0.869293 0.986231 0.760129
Si Si2 0.843507 0.644912 0.420077
Si Si3 0.868202 0.245640 0.727082
Si Si4 0.450114 0.701787 0.407496
Si Si5 0.545472 0.263953 0.056406
Si Si6 0.856840 0.340622 0.427289
Si Si7 0.404958 0.611419 0.654396
Si Si8 0.599101 0.712146 0.019063
O O1 0.850040 0.657614 0.604276
O O2 0.003574 0.903132 0.719340
O O3 0.908756 0.143543 0.742882
O O4 0.717886 0.176270 0.931646
O O5 0.855804 0.431227 0.387699
O O6 0.743416 0.507250 0.349740
O O7 0.993706 0.691742 0.344685
O O8 0.791894 0.979933 0.613917
O O9 0.757062 0.542431 0.895790
O O10 0.490567 0.527860 0.244871
O O11 0.284460 0.758644 0.526206
O O12 0.531236 0.527197 0.361621
O O13 0.500000 0.000000 0.500000
O O14 0.453158 0.285297 0.035586
O O15 0.500000 0.000000 0.000000
O O16 0.500000 0.500000 0.500000
O O17 0.407302 0.956947 0.809089
O O18 0.500000 0.500000 0.000000
#
# Coordination Sequence:
#
# PCOD9011842 Si02
#       8
#     2   2   2   2   2   2   2   2
#     4  10  21  40  67  95 132 168 226 275 320 394
#     4  10  23  41  68  96 135 172 222 275 336 400
#     4  10  23  41  67 101 127 177 226 270 331 405
#     4  12  28  43  68 102 136 177 222 276 344 398
#     4  12  24  44  67  99 135 176 229 275 325 404
#     4  10  21  41  65  96 130 176 217 272 333 391
#     4  12  25  44  67  96 138 176 222 283 337 391
#     4  12  25  42  71  97 131 179 228 279 331 396
#
# _framework density 18.923418000000002
#
# number of rings (size 3 to 8) (size 9 to 14) (size 15 to 20)
#    0.000    1.000    5.000    0.750    7.000    1.500 
#    0.000    0.625    0.000    0.000    0.000    0.000 
#    0.000    0.000    0.000    0.000    0.000    0.000 
#
# Total GULP energy -89166.598231 kJ/mol
# GULP energy per Si atom -5572.912389 kJ/mol
# Density = 1.888035 g / cm^3
# Si number density = 18.923418 Si / 1000 Ang^3
#
#
#
# Elastic Constant Matrix: (Units=GPa)
#
#
# Indices 1 2 3 4 5 6 
#
# 1 71.5696 21.7743 20.0553 10.0433 5.3582 -4.3697
# 2 21.7743 118.0044 46.4175 9.1304 2.3871 0.1387
# 3 20.0553 46.4175 78.8668 18.3458 11.3120 -4.1798
# 4 10.0433 9.1304 18.3458 33.0184 1.8419 -1.9537
# 5 5.3582 2.3871 11.3120 1.8419 32.7156 -0.4462
# 6 -4.3697 0.1387 -4.1798 -1.9537 -0.4462 36.3256
#
#
#
# Elastic Compliance Matrix: (Units=1/GPa)
#
#
# Indices 1 2 3 4 5 6 
#
# 1 0.015710 -0.001902 -0.001859 -0.003042 -0.001600 0.001500
# 2 -0.001902 0.011365 -0.006747 0.001029 0.001744 -0.000972
# 3 -0.001859 -0.006747 0.019927 -0.008234 -0.005608 0.001583
# 4 -0.003042 0.001029 -0.008234 0.035466 0.001282 0.000606
# 5 -0.001600 0.001744 -0.005608 0.001282 0.032563 -0.000375
# 6 0.001500 -0.000972 0.001583 0.000606 -0.000375 0.027923
#
#
# Mechanical properties :
#
#
# Convention : Reuss Voigt Hill
#
# Bulk Modulus (GPa) = 38.48032 49.43723 43.95878
# Shear Modulus (GPa) = 28.96340 32.42481 30.69411
#
# Velocity S-wave (km/s) = 3.91648 4.14391 4.03180
# Velocity P-wave (km/s) = 6.38989 7.00554 6.70478
#
# Compressibility (1/GPa) = 0.02598731
#
# Stress axis : x y z
#
# Youngs Moduli (GPa) = 63.65311 87.98849 50.18357
#
# Poissons Ratio (x) = 0.16731 0.09331
# Poissons Ratio (y) = 0.12104 0.33856
# Poissons Ratio (z) = 0.11835 0.59362
#
# Static dielectric constant tensor:
#      x y z
#    x 1.662250 0.019980 -0.001990 
#    y 0.019980 1.611440 -0.020370 
#    z -0.001990 -0.020370 1.640970 
# 
# From -- ./inp_files/218348.got.cif
#   From: 2010.05.17/outbox.cif.g08.bks.cpg/sg2_110_cif.got.tgz:218348.got - 2010.06.03 11:33:40.
