data_PCOD9011219
_publ_section_title
;
Structure prediction by ZEFSAII (Michael W. Deem and Ramdas Pophale) SiO2 
 PCOD9011219
Probable space group: P -1
;
_chemical_formula_sum "Si O2"
_cell_formula_units_Z 10
_cell_length_a 9.930354
_cell_length_b 10.631021
_cell_length_c 8.254726
_cell_angle_alpha 56.542499
_cell_angle_beta 44.242739
_cell_angle_gamma 43.683681
_cell_volume 418.937470
_symmetry_space_group_name_H-M "P -1"
_symmetry_group_IT_number 2
_symmetry_cell_setting 'triclinic'
loop_
_space_group_symop_operation_xyz
x,y,z
-x,-y,-z
loop_
_atom_site_type_symbol
_atom_site_label
_atom_site_fract_x
_atom_site_fract_y
_atom_site_fract_z
Si Si1 0.794729 0.792844 0.457834
Si Si2 0.094535 0.826136 0.428754
Si Si3 0.314734 0.466554 0.113210
Si Si4 0.869532 0.398536 0.158521
Si Si5 0.839275 0.980663 0.021032
O O1 0.663576 0.704508 0.698633
O O2 0.872587 0.856479 0.500857
O O3 0.050365 0.629471 0.281858
O O4 0.694145 0.933224 0.294996
O O5 0.198472 0.646507 0.578327
O O6 0.000000 0.000000 0.500000
O O7 0.245030 0.850475 0.147028
O O8 0.974567 0.802053 0.915917
O O9 0.500000 0.500000 0.000000
O O10 0.313209 0.481113 0.909874
O O11 0.000000 0.500000 0.000000
O O12 0.000000 0.000000 0.000000
#
# Coordination Sequence:
#
# PCOD9011219 Si02
#       5
#     2   2   2   2   2
#     4   9  17  33  55  75 104 138 179 208 254 324
#     4   9  16  29  54  80 101 138 175 212 268 313
#     4  10  20  33  53  79 107 139 173 216 264 310
#     4  10  17  29  52  81 104 131 177 223 257 302
#     4   8  16  29  50  77 100 139 175 204 261 323
#
# _framework density 23.869909
#
# number of rings (size 3 to 8) (size 9 to 14) (size 15 to 20)
#    0.000    2.800    2.000    0.000    0.000    0.000 
#    0.000    1.000    0.000   45.600    0.000    0.000 
#    0.000    0.000    0.000    0.000    0.000    0.000 
#
# Total GULP energy -55762.437559 kJ/mol
# GULP energy per Si atom -5576.243756 kJ/mol
# Density = 2.381558 g / cm^3
# Si number density = 23.869909 Si / 1000 Ang^3
#
#
#
# Elastic Constant Matrix: (Units=GPa)
#
#
# Indices 1 2 3 4 5 6 
#
# 1 123.3409 28.8565 96.0167 -27.2340 18.2073 12.1887
# 2 28.8565 87.4595 53.8823 -36.0050 4.2805 4.2102
# 3 96.0167 53.8823 330.6209 -48.9140 14.0522 -13.1862
# 4 -27.2340 -36.0050 -48.9140 54.7944 -7.7271 5.1519
# 5 18.2073 4.2805 14.0522 -7.7271 50.4376 -10.3236
# 6 12.1887 4.2102 -13.1862 5.1519 -10.3236 34.0413
#
#
#
# Elastic Compliance Matrix: (Units=1/GPa)
#
#
# Indices 1 2 3 4 5 6 
#
# 1 0.013015 -0.000212 -0.003352 0.003398 -0.004846 -0.007916
# 2 -0.000212 0.016645 -0.001324 0.009996 -0.000273 -0.004091
# 3 -0.003352 -0.001324 0.004495 0.001307 0.000923 0.003187
# 4 0.003398 0.009996 0.001307 0.028336 0.000667 -0.006033
# 5 -0.004846 -0.000273 0.000923 0.000667 0.023305 0.009093
# 6 -0.007916 -0.004091 0.003187 -0.006033 0.009093 0.037622
#
#
# Mechanical properties :
#
#
# Convention : Reuss Voigt Hill
#
# Bulk Modulus (GPa) = 41.01856 99.88137 70.44997
# Shear Modulus (GPa) = 35.38091 52.03240 43.70666
#
# Velocity S-wave (km/s) = 3.85416 4.67393 4.28370
# Velocity P-wave (km/s) = 6.08503 8.42985 7.35153
#
# Compressibility (1/GPa) = 0.02437920
#
# Stress axis : x y z
#
# Youngs Moduli (GPa) = 76.83703 60.07838 222.46120
#
# Poissons Ratio (x) = 0.01272 0.74572
# Poissons Ratio (y) = 0.01627 0.29450
# Poissons Ratio (z) = 0.25757 0.07953
#
# Static dielectric constant tensor:
#      x y z
#    x 1.886910 -0.048340 0.051790 
#    y -0.048340 1.986530 0.010760 
#    z 0.051790 0.010760 1.953670 
# 
# From -- ./inp_files/57790.got.cif
#   From: 2010.05.17/outbox.cif.g08.bks.cpg/sg2_29_cif.got.tgz:57790.got - 2010.06.03 11:33:40.
