data_PCOD9011987
_publ_section_title
;
Structure prediction by ZEFSAII (Michael W. Deem and Ramdas Pophale) SiO2 
 PCOD9011987
Probable space group: P -1
;
_chemical_formula_sum "Si O2"
_cell_formula_units_Z 16
_cell_length_a 13.940459
_cell_length_b 9.060310
_cell_length_c 11.640303
_cell_angle_alpha 56.183256
_cell_angle_beta 71.259748
_cell_angle_gamma 116.899010
_cell_volume 690.495751
_symmetry_space_group_name_H-M "P -1"
_symmetry_group_IT_number 2
_symmetry_cell_setting 'triclinic'
loop_
_space_group_symop_operation_xyz
x,y,z
-x,-y,-z
loop_
_atom_site_type_symbol
_atom_site_label
_atom_site_fract_x
_atom_site_fract_y
_atom_site_fract_z
Si Si1 0.819941 0.312458 0.693204
Si Si2 0.678710 0.376703 0.145819
Si Si3 0.840728 0.262395 0.246413
Si Si4 0.830544 0.646747 0.725767
Si Si5 0.480941 0.757827 0.122844
Si Si6 0.705319 0.222977 0.522362
Si Si7 0.667742 0.716542 0.443930
Si Si8 0.312493 0.410717 0.725106
O O1 0.847406 0.503325 0.695007
O O2 0.734304 0.252133 0.632777
O O3 0.000000 0.500000 0.500000
O O4 0.677470 0.975294 0.942632
O O5 0.713989 0.237810 0.255708
O O6 0.718496 0.591636 0.128074
O O7 0.482183 0.107765 0.298945
O O8 0.792511 0.542683 0.916604
O O9 0.845829 0.313013 0.356737
O O10 0.782682 0.979023 0.376706
O O11 0.000000 0.500000 0.000000
O O12 0.654573 0.488141 0.815420
O O13 0.000000 0.000000 0.500000
O O14 0.405121 0.567047 0.350561
O O15 0.500000 0.000000 0.000000
O O16 0.720221 0.445297 0.380330
O O17 0.506595 0.621730 0.540782
O O18 0.766866 0.834387 0.233525
#
# Coordination Sequence:
#
# PCOD9011987 Si02
#       8
#     2   2   2   2   2   2   2   2
#     4  11  26  46  70 101 135 188 240 298 351 418
#     4  11  22  45  72  93 147 187 231 283 369 420
#     4  11  25  43  69 109 142 186 227 305 354 416
#     4  11  26  45  69 100 138 184 237 289 353 428
#     4  10  23  45  72  99 138 193 227 290 362 417
#     4  11  21  48  70  97 144 185 236 285 362 428
#     4  11  22  39  73 105 136 173 249 281 345 431
#     4  10  21  40  68 103 129 180 229 290 342 422
#
# _framework density 23.171755000000001
#
# number of rings (size 3 to 8) (size 9 to 14) (size 15 to 20)
#    0.000    1.250    3.750    2.250    5.250    1.000 
#    2.250    3.125    0.000    0.000    0.000    0.000 
#    0.000    0.000    0.000    0.000    0.000    0.000 
#
# Total GULP energy -89215.951907 kJ/mol
# GULP energy per Si atom -5575.996994 kJ/mol
# Density = 2.311902 g / cm^3
# Si number density = 23.171755 Si / 1000 Ang^3
#
#
#
# Elastic Constant Matrix: (Units=GPa)
#
#
# Indices 1 2 3 4 5 6 
#
# 1 46.6718 38.2199 19.9984 2.0168 -5.7928 0.1965
# 2 38.2199 175.4240 65.7315 45.9963 -0.1190 -16.0193
# 3 19.9984 65.7315 116.8665 15.2773 -17.7237 -6.8524
# 4 2.0168 45.9963 15.2773 49.4894 -0.0289 -2.1557
# 5 -5.7928 -0.1190 -17.7237 -0.0289 26.0000 8.3642
# 6 0.1965 -16.0193 -6.8524 -2.1557 8.3642 32.2293
#
#
#
# Elastic Compliance Matrix: (Units=1/GPa)
#
#
# Indices 1 2 3 4 5 6 
#
# 1 0.029346 -0.008653 -0.000105 0.006611 0.008446 -0.006252
# 2 -0.008653 0.012572 -0.005100 -0.009478 -0.007454 0.006518
# 3 -0.000105 -0.005100 0.012620 0.000757 0.009266 -0.002205
# 4 0.006611 -0.009478 0.000757 0.028362 0.003103 -0.003499
# 5 0.008446 -0.007454 0.009266 0.003103 0.051431 -0.014926
# 6 -0.006252 0.006518 -0.002205 -0.003499 -0.014926 0.037476
#
#
# Mechanical properties :
#
#
# Convention : Reuss Voigt Hill
#
# Bulk Modulus (GPa) = 37.28148 65.20688 51.24418
# Shear Modulus (GPa) = 23.98512 35.87791 29.93152
#
# Velocity S-wave (km/s) = 3.22079 3.93917 3.59796
# Velocity P-wave (km/s) = 5.47316 6.99222 6.27880
#
# Compressibility (1/GPa) = 0.02682297
#
# Stress axis : x y z
#
# Youngs Moduli (GPa) = 34.07609 79.54304 79.23974
#
# Poissons Ratio (x) = 0.68829 0.00831
# Poissons Ratio (y) = 0.29486 0.40409
# Poissons Ratio (z) = 0.00357 0.40563
#
# Static dielectric constant tensor:
#      x y z
#    x 1.959430 0.032750 -0.057990 
#    y 0.032750 1.959540 -0.007100 
#    z -0.057990 -0.007100 1.904700 
# 
# From -- ./inp_files/446951.got.cif
#   From: 2010.05.17/outbox.cif.g08.bks.cpg/sg2_224_cif.got.tgz:446951.got - 2010.06.03 11:33:40.
