data_PCOD9011962
_publ_section_title
;
Structure prediction by ZEFSAII (Michael W. Deem and Ramdas Pophale) SiO2 
 PCOD9011962
Probable space group: P -1
;
_chemical_formula_sum "Si O2"
_cell_formula_units_Z 16
_cell_length_a 13.632310
_cell_length_b 8.916952
_cell_length_c 15.173903
_cell_angle_alpha 95.693551
_cell_angle_beta 35.695384
_cell_angle_gamma 123.407992
_cell_volume 628.673715
_symmetry_space_group_name_H-M "P -1"
_symmetry_group_IT_number 2
_symmetry_cell_setting 'triclinic'
loop_
_space_group_symop_operation_xyz
x,y,z
-x,-y,-z
loop_
_atom_site_type_symbol
_atom_site_label
_atom_site_fract_x
_atom_site_fract_y
_atom_site_fract_z
Si Si1 0.574439 0.539714 0.669965
Si Si2 0.179639 0.020411 0.600484
Si Si3 0.345826 0.040374 0.077499
Si Si4 0.668481 0.468373 0.986239
Si Si5 0.281765 0.626880 0.336897
Si Si6 0.980478 0.560590 0.203824
Si Si7 0.338056 0.875296 0.791787
Si Si8 0.321427 0.125289 0.697406
O O1 0.748517 0.787268 0.501808
O O2 0.769297 0.559187 0.580298
O O3 0.359988 0.289411 0.748262
O O4 0.410072 0.504695 0.865520
O O5 0.173537 0.062055 0.710572
O O6 0.445082 0.097177 0.396485
O O7 0.871929 0.719818 0.791513
O O8 0.382328 0.185971 0.138103
O O9 0.527197 0.256005 0.881606
O O10 0.500000 0.000000 0.000000
O O11 0.088262 0.783223 0.193786
O O12 0.878125 0.481860 0.857565
O O13 0.454196 0.864349 0.288087
O O14 0.000000 0.500000 0.500000
O O15 0.643857 0.315156 0.445026
O O16 0.095658 0.650952 0.025183
O O17 0.210421 0.892063 0.810848
#
# Coordination Sequence:
#
# PCOD9011962 Si02
#       8
#     2   2   2   2   2   2   2   2
#     4  11  27  45  65 101 144 178 227 279 354 403
#     4  12  24  43  71 100 141 178 236 286 338 393
#     4   9  21  40  70  97 131 179 221 272 344 405
#     4  11  23  44  67 100 145 178 225 287 334 410
#     4  10  22  43  67  97 135 175 226 279 337 417
#     4  10  21  42  71  98 140 177 230 281 335 406
#     4  10  21  40  68 101 132 177 231 279 331 403
#     4  11  25  43  69 103 133 188 234 279 337 404
#
# _framework density 25.450405
#
# number of rings (size 3 to 8) (size 9 to 14) (size 15 to 20)
#    0.000    1.500    2.500    1.500    5.250    5.500 
#    0.000    4.375    0.000    0.000    0.000    0.000 
#    0.000    0.000    0.000    0.000    0.000    0.000 
#
# Total GULP energy -89668.615806 kJ/mol
# GULP energy per Si atom -5604.288488 kJ/mol
# Density = 2.539248 g / cm^3
# Si number density = 25.450405 Si / 1000 Ang^3
#
#
#
# Elastic Constant Matrix: (Units=GPa)
#
#
# Indices 1 2 3 4 5 6 
#
# 1 118.7450 49.4557 33.6563 -15.6273 28.4631 -13.3143
# 2 49.4557 147.3886 47.6370 15.6393 16.5297 -4.3361
# 3 33.6563 47.6370 80.3112 -1.0509 30.3560 -13.5496
# 4 -15.6273 15.6393 -1.0509 45.3624 -7.6301 10.5782
# 5 28.4631 16.5297 30.3560 -7.6301 49.3793 -9.6347
# 6 -13.3143 -4.3361 -13.5496 10.5782 -9.6347 40.5724
#
#
#
# Elastic Compliance Matrix: (Units=1/GPa)
#
#
# Indices 1 2 3 4 5 6 
#
# 1 0.011916 -0.003633 -0.001044 0.004395 -0.004127 0.001047
# 2 -0.003633 0.009937 -0.004861 -0.004546 0.000989 -0.000334
# 3 -0.001044 -0.004861 0.019952 -0.000677 -0.009411 0.003743
# 4 0.004395 -0.004546 -0.000677 0.026848 0.002443 -0.005690
# 5 -0.004127 0.000989 -0.009411 0.002443 0.028816 0.001815
# 6 0.001047 -0.000334 0.003743 -0.005690 0.001815 0.028120
#
#
# Mechanical properties :
#
#
# Convention : Reuss Voigt Hill
#
# Bulk Modulus (GPa) = 43.99998 67.54919 55.77459
# Shear Modulus (GPa) = 32.84257 41.44253 37.14255
#
# Velocity S-wave (km/s) = 3.59619 4.03968 3.82437
# Velocity P-wave (km/s) = 5.87958 6.95398 6.43922
#
# Compressibility (1/GPa) = 0.02272728
#
# Stress axis : x y z
#
# Youngs Moduli (GPa) = 83.92290 100.63688 50.11987
#
# Poissons Ratio (x) = 0.36566 0.05234
# Poissons Ratio (y) = 0.30493 0.24362
# Poissons Ratio (z) = 0.08764 0.48918
#
# Static dielectric constant tensor:
#      x y z
#    x 1.988730 -0.010210 -0.017860 
#    y -0.010210 1.973150 0.026000 
#    z -0.017860 0.026000 2.009260 
# 
# From -- ./inp_files/529894.got.cif
#   From: 2010.05.17/outbox.cif.g08.bks.cpg/sg2_265_cif.got.tgz:529894.got - 2010.06.03 11:33:40.
