data_PCOD9011488
_publ_section_title
;
Structure prediction by ZEFSAII (Michael W. Deem and Ramdas Pophale) SiO2 
 PCOD9011488
Probable space group: P -1
;
_chemical_formula_sum "Si O2"
_cell_formula_units_Z 16
_cell_length_a 14.923946
_cell_length_b 13.187629
_cell_length_c 11.208897
_cell_angle_alpha 146.849955
_cell_angle_beta 140.786502
_cell_angle_gamma 51.943526
_cell_volume 759.333766
_symmetry_space_group_name_H-M "P -1"
_symmetry_group_IT_number 2
_symmetry_cell_setting 'triclinic'
loop_
_space_group_symop_operation_xyz
x,y,z
-x,-y,-z
loop_
_atom_site_type_symbol
_atom_site_label
_atom_site_fract_x
_atom_site_fract_y
_atom_site_fract_z
Si Si1 0.297873 0.778674 0.781274
Si Si2 0.141884 0.529841 0.829382
Si Si3 0.413817 0.088822 0.891014
Si Si4 0.063646 0.455818 0.151086
Si Si5 0.844012 0.911420 0.212698
Si Si6 0.688317 0.954576 0.727018
Si Si7 0.936363 0.787019 0.736506
Si Si8 0.621287 0.157755 0.619563
O O1 0.193690 0.597241 0.469979
O O2 0.233248 0.935604 0.788466
O O3 0.463231 0.770322 0.905788
O O4 0.287560 0.860573 0.984516
O O5 0.123482 0.323902 0.551603
O O6 0.066336 0.534821 0.883203
O O7 0.052148 0.663228 0.787349
O O8 0.298121 0.637080 0.096559
O O9 0.268420 0.152252 0.860132
O O10 0.369680 0.936878 0.593646
O O11 0.500000 0.000000 0.000000
O O12 0.124281 0.258240 0.004720
O O13 0.000000 0.500000 0.000000
O O14 0.000000 0.000000 0.500000
O O15 0.806349 0.810965 0.714255
O O16 0.542259 0.849312 0.518255
O O17 0.681227 0.026254 0.654109
O O18 0.000000 0.000000 0.000000
#
# Coordination Sequence:
#
# PCOD9011488 Si02
#       8
#     2   2   2   2   2   2   2   2
#     4  10  22  42  62  90 128 162 205 262 310 372
#     4  11  25  39  65  95 126 164 214 256 310 375
#     4   9  21  39  66  89 122 166 206 255 315 368
#     4  12  25  39  62  93 126 166 212 263 305 366
#     4  11  21  40  66  90 119 168 212 254 313 371
#     4  10  21  40  67  91 125 165 201 255 323 366
#     4  11  22  42  66  95 126 166 205 259 313 373
#     4  10  21  40  66  93 124 163 207 255 310 383
#
# _framework density 21.071103000000001
#
# number of rings (size 3 to 8) (size 9 to 14) (size 15 to 20)
#    0.000    1.500    2.500    2.250    3.500    2.000 
#    0.000    0.000   19.250    0.000    0.000    0.000 
#    0.000    0.000    0.000    0.000    0.000    0.000 
#
# Total GULP energy -89336.796144 kJ/mol
# GULP energy per Si atom -5583.549759 kJ/mol
# Density = 2.102314 g / cm^3
# Si number density = 21.071103 Si / 1000 Ang^3
#
#
#
# Elastic Constant Matrix: (Units=GPa)
#
#
# Indices 1 2 3 4 5 6 
#
# 1 127.6418 25.8472 79.2897 1.9342 -12.9222 -13.3614
# 2 25.8472 32.4504 37.0931 5.7968 0.4162 -13.2500
# 3 79.2897 37.0931 185.5532 10.5361 1.8148 -8.9614
# 4 1.9342 5.7968 10.5361 33.7703 1.6861 -2.5240
# 5 -12.9222 0.4162 1.8148 1.6861 29.7022 -10.9544
# 6 -13.3614 -13.2500 -8.9614 -2.5240 -10.9544 32.9323
#
#
#
# Elastic Compliance Matrix: (Units=1/GPa)
#
#
# Indices 1 2 3 4 5 6 
#
# 1 0.012683 -0.002787 -0.004748 0.001250 0.007772 0.005413
# 2 -0.002787 0.050230 -0.007732 -0.004952 0.005651 0.018475
# 3 -0.004748 -0.007732 0.008880 -0.001277 -0.003910 -0.004019
# 4 0.001250 -0.004952 -0.001277 0.030853 -0.000985 0.000205
# 5 0.007772 0.005651 -0.003910 -0.000985 0.044278 0.019016
# 6 0.005413 0.018475 -0.004019 0.000205 0.019016 0.045242
#
#
# Mechanical properties :
#
#
# Convention : Reuss Voigt Hill
#
# Bulk Modulus (GPa) = 24.23718 70.01169 47.12444
# Shear Modulus (GPa) = 21.14570 32.84199 26.99385
#
# Velocity S-wave (km/s) = 3.17131 3.95223 3.58311
# Velocity P-wave (km/s) = 4.99371 7.35699 6.28739
#
# Compressibility (1/GPa) = 0.04125893
#
# Stress axis : x y z
#
# Youngs Moduli (GPa) = 78.84691 19.90824 112.60714
#
# Poissons Ratio (x) = 0.05549 0.53464
# Poissons Ratio (y) = 0.21978 0.87069
# Poissons Ratio (z) = 0.37436 0.15393
#
# Static dielectric constant tensor:
#      x y z
#    x 1.804990 -0.000200 0.023510 
#    y -0.000200 1.782250 -0.034530 
#    z 0.023510 -0.034530 1.773170 
# 
# From -- ./inp_files/456070.got.cif
#   From: 2010.05.17/outbox.cif.g08.bks.cpg/sg2_229_cif.got.tgz:456070.got - 2010.06.03 11:33:40.
