data_PCOD9011274
_publ_section_title
;
Structure prediction by ZEFSAII (Michael W. Deem and Ramdas Pophale) SiO2 
 PCOD9011274
Probable space group: P -1
;
_chemical_formula_sum "Si O2"
_cell_formula_units_Z 14
_cell_length_a 12.407656
_cell_length_b 9.103639
_cell_length_c 8.871793
_cell_angle_alpha 113.483669
_cell_angle_beta 49.727739
_cell_angle_gamma 100.617533
_cell_volume 697.402521
_symmetry_space_group_name_H-M "P -1"
_symmetry_group_IT_number 2
_symmetry_cell_setting 'triclinic'
loop_
_space_group_symop_operation_xyz
x,y,z
-x,-y,-z
loop_
_atom_site_type_symbol
_atom_site_label
_atom_site_fract_x
_atom_site_fract_y
_atom_site_fract_z
Si Si1 0.833590 0.687996 0.815911
Si Si2 0.323940 0.776101 0.409457
Si Si3 0.461610 0.332419 0.040940
Si Si4 0.394670 0.468975 0.445497
Si Si5 0.147128 0.067324 0.849970
Si Si6 0.092992 0.350343 0.774203
Si Si7 0.906496 0.333563 0.652761
O O1 0.847018 0.517578 0.819788
O O2 0.979180 0.682437 0.591917
O O3 0.705121 0.678354 0.815802
O O4 0.804916 0.840930 0.009338
O O5 0.466024 0.796405 0.194794
O O6 0.351211 0.627560 0.443548
O O7 0.221662 0.742640 0.345526
O O8 0.255565 0.926302 0.627096
O O9 0.500000 0.500000 0.000000
O O10 0.489251 0.344481 0.197764
O O11 0.500000 0.500000 0.500000
O O12 0.245146 0.407095 0.607584
O O13 0.120685 0.205659 0.806392
O O14 0.000000 0.000000 0.000000
O O15 0.998921 0.284240 0.696482
O O16 0.000000 0.500000 0.000000
#
# Coordination Sequence:
#
# PCOD9011274 Si02
#       7
#     2   2   2   2   2   2   2
#     4  11  20  40  69  91 134 176 215 268 329 397
#     4  11  24  44  68  97 136 176 216 271 342 388
#     4  10  21  40  65  96 127 178 221 259 328 402
#     4  11  24  43  67 101 132 172 227 276 316 399
#     4  12  26  44  63 103 138 171 215 285 343 380
#     4  12  25  40  70 101 128 173 229 272 323 397
#     4  11  20  41  70  95 124 178 228 266 317 399
#
# _framework density 20.074491999999999
#
# number of rings (size 3 to 8) (size 9 to 14) (size 15 to 20)
#    0.000    0.857    7.143    1.714    6.000    1.143 
#    0.000    0.714    0.000    0.000    0.000    0.000 
#    0.000    0.000    0.000    0.000    0.000    0.000 
#
# Total GULP energy -77990.006862 kJ/mol
# GULP energy per Si atom -5570.714776 kJ/mol
# Density = 2.002880 g / cm^3
# Si number density = 20.074492 Si / 1000 Ang^3
#
#
#
# Elastic Constant Matrix: (Units=GPa)
#
#
# Indices 1 2 3 4 5 6 
#
# 1 99.5551 18.3097 12.3359 -6.0535 20.6974 6.0942
# 2 18.3097 63.6004 42.2979 3.7048 3.2263 -8.6831
# 3 12.3359 42.2979 138.9688 16.7509 2.7579 -3.1447
# 4 -6.0535 3.7048 16.7509 36.0589 4.9950 1.4357
# 5 20.6974 3.2263 2.7579 4.9950 38.4592 0.7735
# 6 6.0942 -8.6831 -3.1447 1.4357 0.7735 23.0838
#
#
#
# Elastic Compliance Matrix: (Units=1/GPa)
#
#
# Indices 1 2 3 4 5 6 
#
# 1 0.012805 -0.003994 -0.000364 0.003886 -0.006935 -0.004942
# 2 -0.003994 0.022118 -0.006134 -0.000521 0.000629 0.008550
# 3 -0.000364 -0.006134 0.009540 -0.003911 0.000548 -0.000687
# 4 0.003886 -0.000521 -0.003911 0.031191 -0.005748 -0.003502
# 5 -0.006935 0.000629 0.000548 -0.005748 0.030359 0.001483
# 6 -0.004942 0.008550 -0.000687 -0.003502 0.001483 0.047916
#
#
# Mechanical properties :
#
#
# Convention : Reuss Voigt Hill
#
# Bulk Modulus (GPa) = 42.58831 49.77902 46.18366
# Shear Modulus (GPa) = 27.36168 34.79911 31.08039
#
# Velocity S-wave (km/s) = 3.69590 4.16805 3.93905
# Velocity P-wave (km/s) = 6.28284 6.92925 6.61395
#
# Compressibility (1/GPa) = 0.02348062
#
# Stress axis : x y z
#
# Youngs Moduli (GPa) = 78.09486 45.21236 104.82081
#
# Poissons Ratio (x) = 0.18056 0.03813
# Poissons Ratio (y) = 0.31189 0.64294
# Poissons Ratio (z) = 0.02841 0.27732
#
# Static dielectric constant tensor:
#      x y z
#    x 1.766190 -0.011420 0.015950 
#    y -0.011420 1.724850 0.029050 
#    z 0.015950 0.029050 1.749990 
# 
# From -- ./inp_files/222722.got.cif
#   From: 2010.05.17/outbox.cif.g08.bks.cpg/sg2_112_cif.got.tgz:222722.got - 2010.06.03 11:33:40.
