data_PCOD9011261
_publ_section_title
;
Structure prediction by ZEFSAII (Michael W. Deem and Ramdas Pophale) SiO2 
 PCOD9011261
Probable space group: P -1
;
_chemical_formula_sum "Si O2"
_cell_formula_units_Z 14
_cell_length_a 27.940001
_cell_length_b 9.953489
_cell_length_c 11.544209
_cell_angle_alpha 143.188616
_cell_angle_beta 157.387669
_cell_angle_gamma 26.917875
_cell_volume 554.139951
_symmetry_space_group_name_H-M "P -1"
_symmetry_group_IT_number 2
_symmetry_cell_setting 'triclinic'
loop_
_space_group_symop_operation_xyz
x,y,z
-x,-y,-z
loop_
_atom_site_type_symbol
_atom_site_label
_atom_site_fract_x
_atom_site_fract_y
_atom_site_fract_z
Si Si1 0.255836 0.107629 0.369671
Si Si2 0.628287 0.141676 0.060291
Si Si3 0.195531 0.762224 0.302376
Si Si4 0.841278 0.029512 0.260029
Si Si5 0.598726 0.675860 0.749723
Si Si6 0.782341 0.463473 0.252459
Si Si7 0.904656 0.375646 0.810115
O O1 0.306366 0.243292 0.666108
O O2 0.170502 0.323059 0.215781
O O3 0.254528 0.910218 0.608286
O O4 0.424625 0.794463 0.491218
O O5 0.725892 0.012052 0.067298
O O6 0.500000 0.500000 0.000000
O O7 0.564422 0.972962 0.835229
O O8 0.316955 0.562647 0.330143
O O9 0.198140 0.557301 0.259587
O O10 0.000000 0.000000 0.000000
O O11 0.103022 0.156348 0.118390
O O12 0.021472 0.712637 0.420823
O O13 0.768063 0.239077 0.128454
O O14 0.877775 0.197720 0.542026
O O15 0.724258 0.536065 0.041872
#
# Coordination Sequence:
#
# PCOD9011261 Si02
#       7
#     2   2   2   2   2   2   2
#     4  10  22  40  65  96 130 178 228 280 337 417
#     4  11  25  45  71 103 141 182 235 294 349 415
#     4  11  26  46  69 102 143 179 233 294 351 417
#     4   9  20  42  66  94 132 183 233 278 345 413
#     4  12  25  43  72 104 141 180 235 288 359 406
#     4  10  21  40  65  95 134 180 227 280 339 420
#     4   9  20  42  64  91 133 177 226 278 341 411
#
# _framework density 25.264377
#
# number of rings (size 3 to 8) (size 9 to 14) (size 15 to 20)
#    0.000    1.714    0.000    4.714    4.000    3.429 
#   10.286    1.429    0.000    0.000    0.000    0.000 
#    0.000    0.000    0.000    0.000    0.000    0.000 
#
# Total GULP energy -78452.364966 kJ/mol
# GULP energy per Si atom -5603.740355 kJ/mol
# Density = 2.520687 g / cm^3
# Si number density = 25.264377 Si / 1000 Ang^3
#
#
#
# Elastic Constant Matrix: (Units=GPa)
#
#
# Indices 1 2 3 4 5 6 
#
# 1 156.0914 29.9570 18.8810 -13.4814 8.3247 -16.6120
# 2 29.9570 98.2967 20.8840 -12.8860 6.4438 0.3132
# 3 18.8810 20.8840 71.1846 -8.5465 4.7925 -1.0496
# 4 -13.4814 -12.8860 -8.5465 25.5298 1.1488 8.9747
# 5 8.3247 6.4438 4.7925 1.1488 36.5467 -12.3306
# 6 -16.6120 0.3132 -1.0496 8.9747 -12.3306 32.0659
#
#
#
# Elastic Compliance Matrix: (Units=1/GPa)
#
#
# Indices 1 2 3 4 5 6 
#
# 1 0.007386 -0.001815 -0.001201 0.001403 -0.000112 0.003369
# 2 -0.001815 0.012190 -0.002238 0.005963 -0.002959 -0.003940
# 3 -0.001201 -0.002238 0.015664 0.004345 -0.002255 -0.002171
# 4 0.001403 0.005963 0.004345 0.050751 -0.009256 -0.016953
# 5 -0.000112 -0.002959 -0.002255 -0.009256 0.033709 0.015450
# 6 0.003369 -0.003940 -0.002171 -0.016953 0.015450 0.043584
#
#
# Mechanical properties :
#
#
# Convention : Reuss Voigt Hill
#
# Bulk Modulus (GPa) = 40.43217 51.66853 46.05035
# Shear Modulus (GPa) = 27.46694 35.88518 31.67606
#
# Velocity S-wave (km/s) = 3.30082 3.77289 3.54472
# Velocity P-wave (km/s) = 5.52861 6.28292 5.91780
#
# Compressibility (1/GPa) = 0.02473278
#
# Stress axis : x y z
#
# Youngs Moduli (GPa) = 135.39458 82.03303 63.83874
#
# Poissons Ratio (x) = 0.14891 0.07666
# Poissons Ratio (y) = 0.24578 0.14286
# Poissons Ratio (z) = 0.16258 0.18357
#
# Static dielectric constant tensor:
#      x y z
#    x 1.994550 0.002800 0.000480 
#    y 0.002800 2.014250 0.002960 
#    z 0.000480 0.002960 2.001610 
# 
# From -- ./inp_files/394139.got.cif
#   From: 2010.05.17/outbox.cif.g08.bks.cpg/sg2_198_cif.got.tgz:394139.got - 2010.06.03 11:33:40.
