data_PCOD9011688
_publ_section_title
;
Structure prediction by ZEFSAII (Michael W. Deem and Ramdas Pophale) SiO2 
 PCOD9011688
Probable space group: P -1
;
_chemical_formula_sum "Si O2"
_cell_formula_units_Z 16
_cell_length_a 14.109697
_cell_length_b 7.282786
_cell_length_c 8.850057
_cell_angle_alpha 99.509201
_cell_angle_beta 127.942965
_cell_angle_gamma 59.007500
_cell_volume 599.177513
_symmetry_space_group_name_H-M "P -1"
_symmetry_group_IT_number 2
_symmetry_cell_setting 'triclinic'
loop_
_space_group_symop_operation_xyz
x,y,z
-x,-y,-z
loop_
_atom_site_type_symbol
_atom_site_label
_atom_site_fract_x
_atom_site_fract_y
_atom_site_fract_z
Si Si1 0.135389 0.760245 0.848545
Si Si2 0.316369 0.193438 0.173315
Si Si3 0.071407 0.181601 0.762276
Si Si4 0.583009 0.041675 0.218078
Si Si5 0.632016 0.398425 0.396728
Si Si6 0.338856 0.800417 0.288779
Si Si7 0.193022 0.451423 0.606600
Si Si8 0.929436 0.360249 0.947474
O O1 0.204005 0.534229 0.794083
O O2 0.101871 0.944276 0.714717
O O3 0.238002 0.785474 0.066060
O O4 0.027826 0.757904 0.865009
O O5 0.234962 0.445862 0.177799
O O6 0.471561 0.112568 0.255994
O O7 0.321368 0.035545 0.286935
O O8 0.213910 0.176149 0.945868
O O9 0.969754 0.388122 0.585820
O O10 0.983923 0.208255 0.835239
O O11 0.731011 0.811103 0.357655
O O12 0.599638 0.248509 0.235181
O O13 0.500000 0.000000 0.000000
O O14 0.493232 0.613012 0.356696
O O15 0.695357 0.241684 0.583799
O O16 0.721005 0.481697 0.411248
O O17 0.000000 0.500000 0.000000
#
# Coordination Sequence:
#
# PCOD9011688 Si02
#       8
#     2   2   2   2   2   2   2   2
#     4  11  23  45  71  97 143 193 233 291 365 422
#     4  10  22  44  71 101 143 188 234 291 359 420
#     4  10  24  44  72 100 138 189 239 298 350 421
#     4  12  27  45  73 106 148 191 231 289 365 431
#     4  11  25  43  71 108 144 183 242 295 353 415
#     4  10  22  43  70 102 140 188 236 296 347 422
#     4  12  26  46  72 110 148 183 240 295 356 431
#     4  10  21  40  67 100 135 182 241 287 349 421
#
# _framework density 26.703271999999998
#
# number of rings (size 3 to 8) (size 9 to 14) (size 15 to 20)
#    0.000    1.250    1.250    3.750    5.250    4.500 
#    2.250    3.125    0.000    0.000    0.000    0.000 
#    0.000    0.000    0.000    0.000    0.000    0.000 
#
# Total GULP energy -89631.077162 kJ/mol
# GULP energy per Si atom -5601.942323 kJ/mol
# Density = 2.664249 g / cm^3
# Si number density = 26.703272 Si / 1000 Ang^3
#
#
#
# Elastic Constant Matrix: (Units=GPa)
#
#
# Indices 1 2 3 4 5 6 
#
# 1 87.5431 6.6247 5.0838 -9.8120 -6.0986 6.7081
# 2 6.6247 128.3800 -0.4773 -24.3851 4.0601 9.4077
# 3 5.0838 -0.4773 88.7769 -11.4624 3.4922 -1.9267
# 4 -9.8120 -24.3851 -11.4624 45.4517 -1.7295 -5.9743
# 5 -6.0986 4.0601 3.4922 -1.7295 37.0706 -2.2952
# 6 6.7081 9.4077 -1.9267 -5.9743 -2.2952 48.0228
#
#
#
# Elastic Compliance Matrix: (Units=1/GPa)
#
#
# Indices 1 2 3 4 5 6 
#
# 1 0.011961 -0.000157 -0.000500 0.002282 0.002059 -0.001278
# 2 -0.000157 0.008799 0.000670 0.004672 -0.000905 -0.001137
# 3 -0.000500 0.000670 0.011779 0.003283 -0.001065 0.000769
# 4 0.002282 0.004672 0.003283 0.026152 0.000910 0.002195
# 5 0.002059 -0.000905 -0.001065 0.000910 0.027636 0.001281
# 6 -0.001278 -0.001137 0.000769 0.002195 0.001281 0.021590
#
#
# Mechanical properties :
#
#
# Convention : Reuss Voigt Hill
#
# Bulk Modulus (GPa) = 30.70658 36.35137 33.52897
# Shear Modulus (GPa) = 42.10719 45.67362 43.89040
#
# Velocity S-wave (km/s) = 3.97527 4.14020 4.05857
# Velocity P-wave (km/s) = 5.70916 6.04133 5.87759
#
# Compressibility (1/GPa) = 0.03256631
#
# Stress axis : x y z
#
# Youngs Moduli (GPa) = 83.60491 113.64441 84.89801
#
# Poissons Ratio (x) = 0.01785 0.04244
# Poissons Ratio (y) = 0.01313 -0.05692
# Poissons Ratio (z) = 0.04179 -0.07620
#
# Static dielectric constant tensor:
#      x y z
#    x 2.092750 -0.025380 0.015830 
#    y -0.025380 2.117530 0.013650 
#    z 0.015830 0.013650 2.210120 
# 
# From -- ./inp_files/295597.got.cif
#   From: 2010.05.17/outbox.cif.g08.bks.cpg/sg2_148_cif.got.tgz:295597.got - 2010.06.03 11:33:40.
