data_PCOD9011635
_publ_section_title
;
Structure prediction by ZEFSAII (Michael W. Deem and Ramdas Pophale) SiO2 
 PCOD9011635
Probable space group: P -1
;
_chemical_formula_sum "Si O2"
_cell_formula_units_Z 14
_cell_length_a 10.446351
_cell_length_b 5.381270
_cell_length_c 13.146335
_cell_angle_alpha 122.211667
_cell_angle_beta 115.658374
_cell_angle_gamma 69.656539
_cell_volume 556.960785
_symmetry_space_group_name_H-M "P -1"
_symmetry_group_IT_number 2
_symmetry_cell_setting 'triclinic'
loop_
_space_group_symop_operation_xyz
x,y,z
-x,-y,-z
loop_
_atom_site_type_symbol
_atom_site_label
_atom_site_fract_x
_atom_site_fract_y
_atom_site_fract_z
Si Si1 0.140581 0.629457 0.686108
Si Si2 0.782608 0.748916 0.775329
Si Si3 0.733712 0.796891 0.529724
Si Si4 0.569806 0.292543 0.108198
Si Si5 0.715364 0.386060 0.962752
Si Si6 0.440661 0.591178 0.388586
Si Si7 0.942063 0.690831 0.203630
O O1 0.154284 0.397129 0.547538
O O2 0.300839 0.721669 0.771977
O O3 0.101048 0.448313 0.732873
O O4 0.049023 0.958560 0.713287
O O5 0.775485 0.721025 0.644300
O O6 0.624734 0.685024 0.740276
O O7 0.908347 0.514605 0.814623
O O8 0.800586 0.077759 0.885995
O O9 0.577972 0.718930 0.421973
O O10 0.697025 0.152297 0.591001
O O11 0.430556 0.536484 0.134953
O O12 0.649025 0.355729 0.044864
O O13 0.500000 0.000000 0.000000
O O14 0.822031 0.626442 0.066210
O O15 0.500000 0.500000 0.500000
#
# Coordination Sequence:
#
# PCOD9011635 Si02
#       7
#     2   2   2   2   2   2   2
#     4  11  26  44  72  95 143 177 231 285 330 408
#     4  11  25  42  69  94 140 183 223 278 341 412
#     4  10  24  42  66 102 132 176 231 282 346 393
#     4  10  21  40  66  98 129 175 226 283 346 389
#     4  10  23  42  66 100 134 175 230 283 341 401
#     4   9  22  41  61  98 131 172 227 276 342 396
#     4  11  26  48  66 102 136 189 228 273 337 407
#
# _framework density 25.136419
#
# number of rings (size 3 to 8) (size 9 to 14) (size 15 to 20)
#    0.000    1.714    1.429    0.429   14.000    1.143 
#    0.000    2.143    0.000    0.000    0.000    0.000 
#    0.000    0.000    0.000    0.000    0.000    0.000 
#
# Total GULP energy -78240.929659 kJ/mol
# GULP energy per Si atom -5588.637833 kJ/mol
# Density = 2.507921 g / cm^3
# Si number density = 25.136419 Si / 1000 Ang^3
#
#
#
# Elastic Constant Matrix: (Units=GPa)
#
#
# Indices 1 2 3 4 5 6 
#
# 1 62.6839 8.4498 23.4973 -2.0849 17.7535 -4.2706
# 2 8.4498 118.8508 13.1100 6.4673 -2.6752 -20.9485
# 3 23.4973 13.1100 87.5606 11.2041 7.2665 -5.5618
# 4 -2.0849 6.4673 11.2041 37.2871 4.5332 3.1171
# 5 17.7535 -2.6752 7.2665 4.5332 39.1754 -0.5768
# 6 -4.2706 -20.9485 -5.5618 3.1171 -0.5768 49.4351
#
#
#
# Elastic Compliance Matrix: (Units=1/GPa)
#
#
# Indices 1 2 3 4 5 6 
#
# 1 0.020746 -0.001273 -0.005120 0.003986 -0.008995 0.000320
# 2 -0.001273 0.009425 -0.000695 -0.002027 0.001642 0.003953
# 3 -0.005120 -0.000695 0.013498 -0.004345 0.000287 0.001059
# 4 0.003986 -0.002027 -0.004345 0.029502 -0.004596 -0.002917
# 5 -0.008995 0.001642 0.000287 -0.004596 0.030202 0.000593
# 6 0.000320 0.003953 0.001059 -0.002917 0.000593 0.022241
#
#
# Mechanical properties :
#
#
# Convention : Reuss Voigt Hill
#
# Bulk Modulus (GPa) = 33.90682 39.91215 36.90948
# Shear Modulus (GPa) = 33.41760 40.11540 36.76650
#
# Velocity S-wave (km/s) = 3.65012 3.99922 3.82865
# Velocity P-wave (km/s) = 5.59311 6.10227 5.85323
#
# Compressibility (1/GPa) = 0.02949259
#
# Stress axis : x y z
#
# Youngs Moduli (GPa) = 48.20202 106.09970 74.08439
#
# Poissons Ratio (x) = 0.13508 0.37930
# Poissons Ratio (y) = 0.06137 0.05152
# Poissons Ratio (z) = 0.24679 0.07378
#
# Static dielectric constant tensor:
#      x y z
#    x 2.047940 -0.023450 0.013570 
#    y -0.023450 2.008580 -0.009550 
#    z 0.013570 -0.009550 2.039780 
# 
# From -- ./inp_files/66957.got.cif
#   From: 2010.05.17/outbox.cif.g08.bks.cpg/sg2_34_cif.got.tgz:66957.got - 2010.06.03 11:33:40.
