data_PCOD9011573
_publ_section_title
;
Structure prediction by ZEFSAII (Michael W. Deem and Ramdas Pophale) SiO2 
 PCOD9011573
Probable space group: P -1
;
_chemical_formula_sum "Si O2"
_cell_formula_units_Z 16
_cell_length_a 11.860610
_cell_length_b 21.023574
_cell_length_c 8.649764
_cell_angle_alpha 130.056937
_cell_angle_beta 140.081970
_cell_angle_gamma 29.437760
_cell_volume 678.179789
_symmetry_space_group_name_H-M "P -1"
_symmetry_group_IT_number 2
_symmetry_cell_setting 'triclinic'
loop_
_space_group_symop_operation_xyz
x,y,z
-x,-y,-z
loop_
_atom_site_type_symbol
_atom_site_label
_atom_site_fract_x
_atom_site_fract_y
_atom_site_fract_z
Si Si1 0.459027 0.367975 0.330256
Si Si2 0.092506 0.034239 0.973956
Si Si3 0.200277 0.345655 0.638409
Si Si4 0.654977 0.071396 0.596283
Si Si5 0.419697 0.070730 0.865722
Si Si6 0.331105 0.699794 0.873849
Si Si7 0.379754 0.501293 0.724690
Si Si8 0.898440 0.656899 0.111966
O O1 0.674268 0.274786 0.273988
O O2 0.555999 0.380181 0.604576
O O3 0.215452 0.512839 0.220879
O O4 0.293736 0.344926 0.166589
O O5 0.900834 0.175563 0.067165
O O6 0.263692 0.942788 0.161256
O O7 0.308296 0.984204 0.998220
O O8 0.888388 0.038198 0.702637
O O9 0.361457 0.221856 0.507136
O O10 0.187943 0.316613 0.756998
O O11 0.880962 0.460258 0.442055
O O12 0.382687 0.362686 0.863604
O O13 0.649579 0.978013 0.401946
O O14 0.180781 0.226292 0.859279
O O15 0.500000 0.000000 0.000000
O O16 0.303662 0.611345 0.719215
O O17 0.500000 0.500000 0.000000
#
# Coordination Sequence:
#
# PCOD9011573 Si02
#       8
#     2   2   2   2   2   2   2   2
#     4   9  20  41  66  93 127 172 227 273 322 381
#     4  10  22  41  70  98 127 169 235 271 327 398
#     4   9  19  40  67  89 128 167 220 273 323 383
#     4  10  21  40  68  98 122 174 222 279 323 386
#     4  12  25  41  64 101 138 176 215 273 346 401
#     4  10  21  40  66  96 124 171 223 275 323 390
#     4  11  23  39  61  99 132 171 216 270 334 404
#     4   9  19  40  68  93 126 175 223 272 322 391
#
# _framework density 23.592563999999999
#
# number of rings (size 3 to 8) (size 9 to 14) (size 15 to 20)
#    0.000    2.000    1.250    2.250    5.250    1.000 
#    9.000    0.000    0.000    0.000    0.000    0.000 
#    0.000    0.000    0.000    0.000    0.000    0.000 
#
# Total GULP energy -89420.864279 kJ/mol
# GULP energy per Si atom -5588.804017 kJ/mol
# Density = 2.353887 g / cm^3
# Si number density = 23.592564 Si / 1000 Ang^3
#
#
#
# Elastic Constant Matrix: (Units=GPa)
#
#
# Indices 1 2 3 4 5 6 
#
# 1 67.2078 13.7453 8.4848 -14.7457 13.7342 -8.8159
# 2 13.7453 70.4689 12.7312 19.8383 4.3287 -2.7635
# 3 8.4848 12.7312 73.9982 10.9525 -0.2834 -3.3523
# 4 -14.7457 19.8383 10.9525 27.8978 1.7142 10.9474
# 5 13.7342 4.3287 -0.2834 1.7142 31.8694 -4.4423
# 6 -8.8159 -2.7635 -3.3523 10.9474 -4.4423 24.4265
#
#
#
# Elastic Compliance Matrix: (Units=1/GPa)
#
#
# Indices 1 2 3 4 5 6 
#
# 1 0.025141 -0.011002 -0.005298 0.026660 -0.011796 -0.006992
# 2 -0.011002 0.024494 0.002030 -0.029502 0.004857 0.013184
# 3 -0.005298 0.002030 0.016155 -0.013731 0.003921 0.007402
# 4 0.026660 -0.029502 -0.013731 0.093447 -0.018320 -0.040813
# 5 -0.011796 0.004857 0.003921 -0.018320 0.038501 0.012043
# 6 -0.006992 0.013184 0.007402 -0.040813 0.012043 0.061405
#
#
# Mechanical properties :
#
#
# Convention : Reuss Voigt Hill
#
# Bulk Modulus (GPa) = 26.84546 31.28861 29.06703
# Shear Modulus (GPa) = 16.66123 28.61966 22.64044
#
# Velocity S-wave (km/s) = 2.66034 3.48671 3.10117
# Velocity P-wave (km/s) = 4.56509 5.43142 5.01699
#
# Compressibility (1/GPa) = 0.03725025
#
# Stress axis : x y z
#
# Youngs Moduli (GPa) = 39.77583 40.82655 61.90121
#
# Poissons Ratio (x) = 0.44916 0.32794
# Poissons Ratio (y) = 0.43760 -0.12565
# Poissons Ratio (z) = 0.21072 -0.08287
#
# Static dielectric constant tensor:
#      x y z
#    x 1.916210 0.014440 -0.007090 
#    y 0.014440 1.969280 -0.029990 
#    z -0.007090 -0.029990 1.935130 
# 
# From -- ./inp_files/283287.got.cif
#   From: 2010.05.17/outbox.cif.g08.bks.cpg/sg2_142_cif.got.tgz:283287.got - 2010.06.03 11:33:40.
