data_PCOD9011159
_publ_section_title
;
Structure prediction by ZEFSAII (Michael W. Deem and Ramdas Pophale) SiO2 
 PCOD9011159
Probable space group: P -1
;
_chemical_formula_sum "Si O2"
_cell_formula_units_Z 13
_cell_length_a 6.781507
_cell_length_b 10.201224
_cell_length_c 7.849007
_cell_angle_alpha 89.121347
_cell_angle_beta 91.796614
_cell_angle_gamma 72.843985
_cell_volume 518.404491
_symmetry_space_group_name_H-M "P -1"
_symmetry_group_IT_number 2
_symmetry_cell_setting 'triclinic'
loop_
_space_group_symop_operation_xyz
x,y,z
-x,-y,-z
loop_
_atom_site_type_symbol
_atom_site_label
_atom_site_fract_x
_atom_site_fract_y
_atom_site_fract_z
Si Si1 0.691861 0.947178 0.130042
Si Si2 0.246485 0.830163 0.656893
Si Si3 0.943900 0.411104 0.346905
Si Si4 0.345778 0.888495 0.313108
Si Si5 0.480141 0.389773 0.808932
Si Si6 0.000000 0.000000 0.000000
Si Si7 0.646532 0.638250 0.841489
O O1 0.797690 0.072821 0.174981
O O2 0.901633 0.863078 0.049879
O O3 0.570513 0.911233 0.286931
O O4 0.500000 0.000000 0.000000
O O5 0.103684 0.733427 0.619919
O O6 0.248192 0.926213 0.494622
O O7 0.477290 0.733326 0.708296
O O8 0.732571 0.510582 0.265435
O O9 0.000000 0.500000 0.500000
O O10 0.129009 0.376646 0.218411
O O11 0.401536 0.723753 0.316626
O O12 0.185286 0.950485 0.159045
O O13 0.620952 0.486226 0.851614
O O14 0.423365 0.310018 0.971053
#
# Coordination Sequence:
#
# PCOD9011159 Si02
#       7
#     2   2   2   2   2   1   2
#     4  10  23  43  64  89 122 163 210 262 313 366
#     4  11  24  41  64  95 128 163 210 260 313 377
#     4  11  23  39  64  97 129 165 205 254 315 377
#     4  11  23  41  64  90 128 167 208 263 314 368
#     4  10  22  40  63  93 126 164 210 257 310 376
#     4  10  24  42  62  90 122 166 218 256 306 372
#     4  10  21  40  65  93 126 165 209 257 314 374
#
# _framework density 25.076944000000001
#
# number of rings (size 3 to 8) (size 9 to 14) (size 15 to 20)
#    0.000    1.538    0.000    4.615    0.000   10.462 
#    0.000    1.538    0.000    0.000    0.000    0.000 
#    0.000    0.000    0.000    0.000    0.000    0.000 
#
# Total GULP energy -72426.016544 kJ/mol
# GULP energy per Si atom -5571.232042 kJ/mol
# Density = 2.501987 g / cm^3
# Si number density = 25.076944 Si / 1000 Ang^3
#
#
#
# Elastic Constant Matrix: (Units=GPa)
#
#
# Indices 1 2 3 4 5 6 
#
# 1 163.2724 27.0330 36.0840 -6.6466 -22.9266 18.6603
# 2 27.0330 78.9658 20.2928 15.1957 2.0369 7.1562
# 3 36.0840 20.2928 143.7083 3.6350 -5.9167 20.7699
# 4 -6.6466 15.1957 3.6350 36.2446 9.6644 2.8074
# 5 -22.9266 2.0369 -5.9167 9.6644 28.9097 -2.0311
# 6 18.6603 7.1562 20.7699 2.8074 -2.0311 33.8689
#
#
#
# Elastic Compliance Matrix: (Units=1/GPa)
#
#
# Indices 1 2 3 4 5 6 
#
# 1 0.007967 -0.002610 -0.001002 0.001389 0.005622 -0.003002
# 2 -0.002610 0.015192 -0.001309 -0.006321 -0.001332 -0.000525
# 3 -0.001002 -0.001309 0.008015 -0.000333 0.000767 -0.004013
# 4 0.001389 -0.006321 -0.000333 0.033356 -0.009853 -0.002582
# 5 0.005622 -0.001332 0.000767 -0.009853 0.042600 0.000085
# 6 -0.003002 -0.000525 -0.004013 -0.002582 0.000085 0.033970
#
#
# Mechanical properties :
#
#
# Convention : Reuss Voigt Hill
#
# Bulk Modulus (GPa) = 46.87767 61.41847 54.14807
# Shear Modulus (GPa) = 31.63495 39.97376 35.80435
#
# Velocity S-wave (km/s) = 3.55563 3.99688 3.78270
# Velocity P-wave (km/s) = 5.96581 6.77091 6.38107
#
# Compressibility (1/GPa) = 0.02133212
#
# Stress axis : x y z
#
# Youngs Moduli (GPa) = 125.51107 65.82407 124.76769
#
# Poissons Ratio (x) = 0.17183 0.12499
# Poissons Ratio (y) = 0.32764 0.16330
# Poissons Ratio (z) = 0.12573 0.08616
#
# Static dielectric constant tensor:
#      x y z
#    x 2.119340 0.067090 -0.174530 
#    y 0.067090 2.080030 0.135580 
#    z -0.174530 0.135580 2.296210 
# 
# From -- ./inp_files/76201.got.cif
#   From: 2010.05.17/outbox.cif.g08.bks.cpg/sg2_39_cif.got.tgz:76201.got - 2010.06.03 11:33:40.
