data_PCOD9011147
_publ_section_title
;
Structure prediction by ZEFSAII (Michael W. Deem and Ramdas Pophale) SiO2 
 PCOD9011147
Probable space group: P -1
;
_chemical_formula_sum "Si O2"
_cell_formula_units_Z 12
_cell_length_a 5.487210
_cell_length_b 5.689035
_cell_length_c 21.022607
_cell_angle_alpha 62.414459
_cell_angle_beta 123.143284
_cell_angle_gamma 102.702304
_cell_volume 486.535183
_symmetry_space_group_name_H-M "P -1"
_symmetry_group_IT_number 2
_symmetry_cell_setting 'triclinic'
loop_
_space_group_symop_operation_xyz
x,y,z
-x,-y,-z
loop_
_atom_site_type_symbol
_atom_site_label
_atom_site_fract_x
_atom_site_fract_y
_atom_site_fract_z
Si Si1 0.222767 0.846917 0.240852
Si Si2 0.082410 0.427271 0.094286
Si Si3 0.413731 0.250838 0.815501
Si Si4 0.344072 0.515843 0.407403
Si Si5 0.691080 0.869321 0.987990
Si Si6 0.114434 0.692555 0.550088
O O1 0.468302 0.737322 0.240980
O O2 0.338664 0.799928 0.335169
O O3 0.920578 0.696388 0.220562
O O4 0.124420 0.133314 0.163644
O O5 0.376237 0.563818 0.138828
O O6 0.797458 0.581332 0.063551
O O7 0.000000 0.500000 0.000000
O O8 0.506261 0.948981 0.889461
O O9 0.500000 0.500000 0.500000
O O10 0.539583 0.326494 0.412091
O O11 0.022685 0.428729 0.390631
O O12 0.500000 0.000000 0.000000
O O13 0.000000 0.000000 0.000000
O O14 0.000000 0.500000 0.500000
O O15 0.000000 0.000000 0.500000
#
# Coordination Sequence:
#
# PCOD9011147 Si02
#       6
#     2   2   2   2   2   2
#     4  12  26  47  71 105 151 186 246 307 364 440
#     4  11  25  46  74 103 141 202 242 299 367 436
#     4  11  25  44  67 106 146 186 247 303 362 436
#     4  10  23  47  74 108 144 188 244 305 377 452
#     4  10  21  40  65  92 136 183 235 289 350 419
#     4  10  21  44  77 106 143 190 246 305 375 457
#
# _framework density 24.664199
#
# number of rings (size 3 to 8) (size 9 to 14) (size 15 to 20)
#    0.000    1.333    1.667    3.500    2.333    4.667 
#   18.000    0.000    0.000    0.000    0.000    0.000 
#    0.000    0.000    0.000    0.000    0.000    0.000 
#
# Total GULP energy -66883.543492 kJ/mol
# GULP energy per Si atom -5573.628624 kJ/mol
# Density = 2.460806 g / cm^3
# Si number density = 24.664199 Si / 1000 Ang^3
#
#
#
# Elastic Constant Matrix: (Units=GPa)
#
#
# Indices 1 2 3 4 5 6 
#
# 1 233.4609 44.9104 55.9234 -20.1715 -10.4412 -17.2870
# 2 44.9104 93.4319 45.7581 -15.6060 -12.2419 -2.3249
# 3 55.9234 45.7581 167.2553 -21.7541 -36.3636 -8.1346
# 4 -20.1715 -15.6060 -21.7541 20.0701 5.8978 8.4149
# 5 -10.4412 -12.2419 -36.3636 5.8978 51.8907 -2.2443
# 6 -17.2870 -2.3249 -8.1346 8.4149 -2.2443 39.0983
#
#
#
# Elastic Compliance Matrix: (Units=1/GPa)
#
#
# Indices 1 2 3 4 5 6 
#
# 1 0.005117 -0.001599 -0.000946 0.002325 -0.000212 0.001458
# 2 -0.001599 0.013829 -0.002298 0.007338 0.000414 -0.001918
# 3 -0.000946 -0.002298 0.008637 0.005043 0.004765 0.000430
# 4 0.002325 0.007338 0.005043 0.069401 -0.002699 -0.012578
# 5 -0.000212 0.000414 0.004765 -0.002699 0.023095 0.002829
# 6 0.001458 -0.001918 0.000430 -0.012578 0.002829 0.029066
#
#
# Mechanical properties :
#
#
# Convention : Reuss Voigt Hill
#
# Bulk Modulus (GPa) = 55.87654 87.48132 71.67893
# Shear Modulus (GPa) = 30.34039 45.38224 37.86131
#
# Velocity S-wave (km/s) = 3.51114 4.29418 3.92225
# Velocity P-wave (km/s) = 6.25632 7.75452 7.04536
#
# Compressibility (1/GPa) = 0.01789660
#
# Stress axis : x y z
#
# Youngs Moduli (GPa) = 195.42571 72.31089 115.78432
#
# Poissons Ratio (x) = 0.11566 0.10955
# Poissons Ratio (y) = 0.31258 0.26602
# Poissons Ratio (z) = 0.18490 0.16614
#
# Static dielectric constant tensor:
#      x y z
#    x 2.013040 -0.019220 0.008940 
#    y -0.019220 2.284510 -0.019790 
#    z 0.008940 -0.019790 2.031010 
# 
# From -- ./inp_files/580599.got.cif
#   From: 2010.05.17/outbox.cif.g08.bks.cpg/sg2_291_cif.got.tgz:580599.got - 2010.06.03 11:33:40.
