data_PCOD9011601
_publ_section_title
;
Structure prediction by ZEFSAII (Michael W. Deem and Ramdas Pophale) SiO2 
 PCOD9011601
Probable space group: P -1
;
_chemical_formula_sum "Si O2"
_cell_formula_units_Z 15
_cell_length_a 21.579737
_cell_length_b 15.528241
_cell_length_c 8.237633
_cell_angle_alpha 45.411791
_cell_angle_beta 135.700273
_cell_angle_gamma 161.904156
_cell_volume 595.811076
_symmetry_space_group_name_H-M "P -1"
_symmetry_group_IT_number 2
_symmetry_cell_setting 'triclinic'
loop_
_space_group_symop_operation_xyz
x,y,z
-x,-y,-z
loop_
_atom_site_type_symbol
_atom_site_label
_atom_site_fract_x
_atom_site_fract_y
_atom_site_fract_z
Si Si1 0.391218 0.160541 0.991446
Si Si2 0.424477 0.460746 0.579864
Si Si3 0.796906 0.233935 0.081163
Si Si4 0.821127 0.696329 0.230257
Si Si5 0.861026 0.019568 0.774104
Si Si6 0.755364 0.533224 0.684498
Si Si7 0.032623 0.676350 0.160253
Si Si8 0.500000 0.000000 0.000000
O O1 0.359851 0.264654 0.820124
O O2 0.298602 0.005323 0.851298
O O3 0.258804 0.928393 0.186619
O O4 0.631775 0.436632 0.097463
O O5 0.500000 0.500000 0.500000
O O6 0.624944 0.760668 0.645280
O O7 0.252269 0.349730 0.388313
O O8 0.614357 0.106897 0.895738
O O9 0.000000 0.500000 0.000000
O O10 0.875501 0.373880 0.224780
O O11 0.754681 0.573104 0.445383
O O12 0.861126 0.889515 0.037861
O O13 0.015479 0.859951 0.316409
O O14 0.965715 0.257919 0.750608
O O15 0.943119 0.674575 0.882882
O O16 0.567476 0.223404 0.808875
#
# Coordination Sequence:
#
# PCOD9011601 Si02
#       8
#     2   2   2   2   2   2   2   1
#     4  10  21  40  66  96 138 172 224 276 342 402
#     4  11  24  38  66 101 131 176 217 280 341 410
#     4   9  20  39  67  94 126 179 224 273 336 394
#     4  10  23  40  66  98 138 183 216 281 337 411
#     4  10  23  41  63 101 144 170 224 275 346 403
#     4  11  24  41  67  98 132 179 231 269 346 399
#     4  10  22  39  67  95 132 180 220 281 329 404
#     4  10  22  42  64  90 134 176 228 280 324 396
#
# _framework density 25.175765999999999
#
# number of rings (size 3 to 8) (size 9 to 14) (size 15 to 20)
#    0.000    1.867    0.000    2.400   11.200    3.200 
#    2.400    2.667    0.000   11.200    0.000    0.000 
#    0.000    0.000    0.000    0.000    0.000    0.000 
#
# Total GULP energy -83544.132493 kJ/mol
# GULP energy per Si atom -5569.608833 kJ/mol
# Density = 2.511847 g / cm^3
# Si number density = 25.175766 Si / 1000 Ang^3
#
#
#
# Elastic Constant Matrix: (Units=GPa)
#
#
# Indices 1 2 3 4 5 6 
#
# 1 128.1433 29.2462 11.9509 0.5877 1.9916 -9.8937
# 2 29.2462 101.1208 10.2649 10.5787 -0.8441 -12.4577
# 3 11.9509 10.2649 61.1389 3.3201 -2.6599 1.5974
# 4 0.5877 10.5787 3.3201 16.1290 10.1415 -3.2889
# 5 1.9916 -0.8441 -2.6599 10.1415 29.6391 2.3659
# 6 -9.8937 -12.4577 1.5974 -3.2889 2.3659 44.6110
#
#
#
# Elastic Compliance Matrix: (Units=1/GPa)
#
#
# Indices 1 2 3 4 5 6 
#
# 1 0.008665 -0.002504 -0.001582 0.003270 -0.002044 0.001629
# 2 -0.002504 0.011952 -0.000909 -0.009346 0.003470 0.001942
# 3 -0.001582 -0.000909 0.017332 -0.005617 0.003705 -0.001836
# 4 0.003270 -0.009346 -0.005617 0.091112 -0.032706 0.006768
# 5 -0.002044 0.003470 0.003705 -0.032706 0.045855 -0.004460
# 6 0.001629 0.001942 -0.001836 0.006768 -0.004460 0.024121
#
#
# Mechanical properties :
#
#
# Convention : Reuss Voigt Hill
#
# Bulk Modulus (GPa) = 35.76852 43.70302 39.73577
# Shear Modulus (GPa) = 22.89928 34.00523 28.45225
#
# Velocity S-wave (km/s) = 3.01919 3.67919 3.36541
# Velocity P-wave (km/s) = 5.13735 5.95361 5.56048
#
# Compressibility (1/GPa) = 0.02795754
#
# Stress axis : x y z
#
# Youngs Moduli (GPa) = 115.40171 83.67050 57.69547
#
# Poissons Ratio (x) = 0.20952 0.09130
# Poissons Ratio (y) = 0.28897 0.05247
# Poissons Ratio (z) = 0.18262 0.07609
#
# Static dielectric constant tensor:
#      x y z
#    x 2.031840 0.116370 0.128810 
#    y 0.116370 2.305190 0.180800 
#    z 0.128810 0.180800 2.024530 
# 
# From -- ./inp_files/267107.got.cif
#   From: 2010.05.17/outbox.cif.g08.bks.cpg/sg2_134_cif.got.tgz:267107.got - 2010.06.03 11:33:40.
