data_PCOD9011053
_publ_section_title
;
Structure prediction by ZEFSAII (Michael W. Deem and Ramdas Pophale) SiO2 
 PCOD9011053
Probable space group: P -1
;
_chemical_formula_sum "Si O2"
_cell_formula_units_Z 16
_cell_length_a 14.726236
_cell_length_b 10.555699
_cell_length_c 9.321657
_cell_angle_alpha 41.842418
_cell_angle_beta 97.266160
_cell_angle_gamma 121.024778
_cell_volume 739.544775
_symmetry_space_group_name_H-M "P -1"
_symmetry_group_IT_number 2
_symmetry_cell_setting 'triclinic'
loop_
_space_group_symop_operation_xyz
x,y,z
-x,-y,-z
loop_
_atom_site_type_symbol
_atom_site_label
_atom_site_fract_x
_atom_site_fract_y
_atom_site_fract_z
Si Si1 0.950083 0.611296 0.813783
Si Si2 0.610587 0.944469 0.461883
Si Si3 0.201709 0.097545 0.505148
Si Si4 0.735008 0.525558 0.349876
Si Si5 0.449494 0.418556 0.720756
Si Si6 0.174566 0.287419 0.090285
Si Si7 0.553927 0.960302 0.766517
Si Si8 0.086457 0.226941 0.587930
O O1 0.853687 0.581402 0.917625
O O2 0.914657 0.579575 0.668441
O O3 0.065504 0.896900 0.602085
O O4 0.000000 0.500000 0.000000
O O5 0.733201 0.015899 0.366155
O O6 0.519175 0.660807 0.630314
O O7 0.603230 0.957259 0.622350
O O8 0.565290 0.078839 0.264948
O O9 0.251602 0.248713 0.238617
O O10 0.182803 0.215568 0.534527
O O11 0.681434 0.664661 0.246155
O O12 0.858561 0.666826 0.336797
O O13 0.643846 0.237897 0.614553
O O14 0.754144 0.539906 0.173028
O O15 0.500000 0.500000 0.500000
O O16 0.458192 0.227583 0.963907
O O17 0.046856 0.037258 0.217019
#
# Coordination Sequence:
#
# PCOD9011053 Si02
#       8
#     2   2   2   2   2   2   2   2
#     4   9  19  36  56  89 122 147 198 250 282 349
#     4  10  21  40  65  89 119 159 202 250 303 354
#     4   9  18  36  62  85 111 163 199 239 296 353
#     4  11  22  39  62  90 121 161 194 250 301 356
#     4  11  24  44  62  86 125 159 199 255 306 358
#     4   9  19  36  61  83 122 158 199 238 298 359
#     4  10  24  41  60  93 120 153 210 250 300 362
#     4   9  19  39  58  86 120 162 197 236 302 355
#
# _framework density 21.634930000000001
#
# number of rings (size 3 to 8) (size 9 to 14) (size 15 to 20)
#    0.000    2.250    0.000    3.750    1.750    4.000 
#   11.250    0.625    0.000    0.000    0.000    0.000 
#    0.000    0.000    0.000    0.000    0.000    0.000 
#
# Total GULP energy -89116.856090 kJ/mol
# GULP energy per Si atom -5569.803506 kJ/mol
# Density = 2.158569 g / cm^3
# Si number density = 21.634930 Si / 1000 Ang^3
#
#
#
# Elastic Constant Matrix: (Units=GPa)
#
#
# Indices 1 2 3 4 5 6 
#
# 1 88.3868 -15.2492 30.6053 -6.9810 22.7943 2.8099
# 2 -15.2492 36.3366 16.1769 -2.5020 14.6605 5.8803
# 3 30.6053 16.1769 126.5075 11.9577 32.1257 -4.9009
# 4 -6.9810 -2.5020 11.9577 21.4770 -1.1755 -1.0106
# 5 22.7943 14.6605 32.1257 -1.1755 36.2960 -0.8285
# 6 2.8099 5.8803 -4.9009 -1.0106 -0.8285 19.4845
#
#
#
# Elastic Compliance Matrix: (Units=1/GPa)
#
#
# Indices 1 2 3 4 5 6 
#
# 1 0.023025 0.022170 -0.005170 0.011378 -0.018734 -0.011518
# 2 0.022170 0.057121 -0.007193 0.015116 -0.030659 -0.022765
# 3 -0.005170 -0.007193 0.012465 -0.009484 -0.005066 0.005344
# 4 0.011378 0.015116 -0.009484 0.056858 -0.003147 -0.005773
# 5 -0.018734 -0.030659 -0.005066 -0.003147 0.056377 0.012914
# 6 -0.011518 -0.022765 0.005344 -0.005773 0.012914 0.061448
#
#
# Mechanical properties :
#
#
# Convention : Reuss Voigt Hill
#
# Bulk Modulus (GPa) = 8.91056 34.92187 21.91622
# Shear Modulus (GPa) = 17.53848 30.09802 23.81825
#
# Velocity S-wave (km/s) = 2.85029 3.73390 3.32161
# Velocity P-wave (km/s) = 3.86778 5.89625 4.98626
#
# Compressibility (1/GPa) = 0.11222633
#
# Stress axis : x y z
#
# Youngs Moduli (GPa) = 43.43107 17.50665 80.22387
#
# Poissons Ratio (x) = -0.38812 0.41473
# Poissons Ratio (y) = -0.96286 0.57703
# Poissons Ratio (z) = 0.22452 0.12592
#
# Static dielectric constant tensor:
#      x y z
#    x 1.867370 -0.016650 0.056210 
#    y -0.016650 1.862840 -0.114540 
#    z 0.056210 -0.114540 2.047710 
# 
# From -- ./inp_files/273023.got.cif
#   From: 2010.05.17/outbox.cif.g08.bks.cpg/sg2_137_cif.got.tgz:273023.got - 2010.06.03 11:33:40.
