data_PCOD9011355
_publ_section_title
;
Structure prediction by ZEFSAII (Michael W. Deem and Ramdas Pophale) SiO2 
 PCOD9011355
Probable space group: P -1
;
_chemical_formula_sum "Si O2"
_cell_formula_units_Z 13
_cell_length_a 9.033435
_cell_length_b 12.110861
_cell_length_c 14.962193
_cell_angle_alpha 146.975264
_cell_angle_beta 142.847415
_cell_angle_gamma 51.432488
_cell_volume 533.764443
_symmetry_space_group_name_H-M "P -1"
_symmetry_group_IT_number 2
_symmetry_cell_setting 'triclinic'
loop_
_space_group_symop_operation_xyz
x,y,z
-x,-y,-z
loop_
_atom_site_type_symbol
_atom_site_label
_atom_site_fract_x
_atom_site_fract_y
_atom_site_fract_z
Si Si1 0.240192 0.136422 0.747972
Si Si2 0.665857 0.672760 0.461402
Si Si3 0.920824 0.356471 0.482609
Si Si4 0.219915 0.341633 0.063368
Si Si5 0.888227 0.491403 0.150189
Si Si6 0.500000 0.000000 0.000000
Si Si7 0.256112 0.941782 0.123813
O O1 0.281145 0.341974 0.848080
O O2 0.501082 0.045753 0.815128
O O3 0.173456 0.197541 0.857080
O O4 0.000000 0.000000 0.500000
O O5 0.834991 0.554917 0.529393
O O6 0.401205 0.539515 0.252060
O O7 0.795416 0.657269 0.417900
O O8 0.667450 0.900009 0.651731
O O9 0.908084 0.384222 0.601308
O O10 0.762879 0.155937 0.229927
O O11 0.002043 0.416126 0.063178
O O12 0.364472 0.200154 0.099918
O O13 0.792188 0.288233 0.019796
O O14 0.000000 0.000000 0.000000
#
# Coordination Sequence:
#
# PCOD9011355 Si02
#       7
#     2   2   2   2   2   1   2
#     4  12  28  50  73 106 153 194 239 303 373 443
#     4  10  22  42  68 103 142 185 240 308 353 424
#     4  10  21  40  66 100 143 185 239 299 368 421
#     4  11  25  43  72 104 147 191 246 297 369 435
#     4  12  25  46  72 104 148 192 243 296 375 438
#     4  10  22  36  66 104 136 182 246 302 350 422
#     4  12  26  46  76 108 142 192 252 301 359 431
#
# _framework density 24.355312999999999
#
# number of rings (size 3 to 8) (size 9 to 14) (size 15 to 20)
#    0.000    0.923    1.538    4.615    6.462    2.462 
#    0.000    2.308    0.000    0.000    0.000    0.000 
#    0.000    0.000    0.000    0.000    0.000    0.000 
#
# Total GULP energy -72491.849680 kJ/mol
# GULP energy per Si atom -5576.296129 kJ/mol
# Density = 2.429988 g / cm^3
# Si number density = 24.355313 Si / 1000 Ang^3
#
#
#
# Elastic Constant Matrix: (Units=GPa)
#
#
# Indices 1 2 3 4 5 6 
#
# 1 97.1477 35.7405 62.6930 -19.8138 -3.9175 -15.3462
# 2 35.7405 111.2309 12.2629 7.7606 13.4880 -15.0995
# 3 62.6930 12.2629 119.6634 14.9003 7.8980 -14.2700
# 4 -19.8138 7.7606 14.9003 35.0379 11.0791 7.7880
# 5 -3.9175 13.4880 7.8980 11.0791 39.1761 -0.5499
# 6 -15.3462 -15.0995 -14.2700 7.7880 -0.5499 29.7783
#
#
#
# Elastic Compliance Matrix: (Units=1/GPa)
#
#
# Indices 1 2 3 4 5 6 
#
# 1 0.034414 -0.012232 -0.021842 0.032178 0.002853 -0.007297
# 2 -0.012232 0.014659 0.007957 -0.014287 -0.003713 0.008611
# 3 -0.021842 0.007957 0.023645 -0.025876 -0.002221 0.010836
# 4 0.032178 -0.014287 -0.025876 0.067431 -0.006008 -0.020808
# 5 0.002853 -0.003713 -0.002221 -0.006008 0.029245 0.000635
# 6 -0.007297 0.008611 0.010836 -0.020808 0.000635 0.044834
#
#
# Mechanical properties :
#
#
# Convention : Reuss Voigt Hill
#
# Bulk Modulus (GPa) = 48.81379 61.04831 54.93105
# Shear Modulus (GPa) = 18.29560 35.28816 26.79188
#
# Velocity S-wave (km/s) = 2.74377 3.81056 3.32029
# Velocity P-wave (km/s) = 5.48849 6.66938 6.10754
#
# Compressibility (1/GPa) = 0.02048601
#
# Stress axis : x y z
#
# Youngs Moduli (GPa) = 29.05767 68.21620 42.29166
#
# Poissons Ratio (x) = 0.83439 0.92373
# Poissons Ratio (y) = 0.35542 -0.33651
# Poissons Ratio (z) = 0.63467 -0.54279
#
# Static dielectric constant tensor:
#      x y z
#    x 1.988010 0.066380 0.021080 
#    y 0.066380 2.049560 -0.113300 
#    z 0.021080 -0.113300 2.052410 
# 
# From -- ./inp_files/198764.got.cif
#   From: 2010.05.17/outbox.cif.g08.bks.cpg/sg2_100_cif.got.tgz:198764.got - 2010.06.03 11:33:40.
