data_PCOD9011548
_publ_section_title
;
Structure prediction by ZEFSAII (Michael W. Deem and Ramdas Pophale) SiO2 
 PCOD9011548
Probable space group: P -1
;
_chemical_formula_sum "Si O2"
_cell_formula_units_Z 14
_cell_length_a 13.648080
_cell_length_b 8.501603
_cell_length_c 15.098355
_cell_angle_alpha 90.522397
_cell_angle_beta 152.255609
_cell_angle_gamma 70.344781
_cell_volume 578.180456
_symmetry_space_group_name_H-M "P -1"
_symmetry_group_IT_number 2
_symmetry_cell_setting 'triclinic'
loop_
_space_group_symop_operation_xyz
x,y,z
-x,-y,-z
loop_
_atom_site_type_symbol
_atom_site_label
_atom_site_fract_x
_atom_site_fract_y
_atom_site_fract_z
Si Si1 0.256305 0.365777 0.130839
Si Si2 0.307615 0.983759 0.176541
Si Si3 0.276658 0.796563 0.778442
Si Si4 0.267977 0.016805 0.941146
Si Si5 0.634588 0.377122 0.701161
Si Si6 0.918892 0.687603 0.497356
Si Si7 0.090694 0.443220 0.797760
O O1 0.420746 0.108586 0.267852
O O2 0.430030 0.437794 0.286611
O O3 0.105448 0.454266 0.914396
O O4 0.000000 0.500000 0.000000
O O5 0.455331 0.751143 0.339084
O O6 0.226310 0.986205 0.009030
O O7 0.990126 0.173536 0.973177
O O8 0.194174 0.658023 0.716362
O O9 0.253477 0.890484 0.856130
O O10 0.585482 0.673063 0.978914
O O11 0.000000 0.000000 0.500000
O O12 0.060901 0.273167 0.754353
O O13 0.604186 0.909880 0.209863
O O14 0.500000 0.500000 0.500000
O O15 0.000000 0.500000 0.500000
O O16 0.874241 0.654743 0.562352
#
# Coordination Sequence:
#
# PCOD9011548 Si02
#       7
#     2   2   2   2   2   2   2
#     4   9  21  41  65  93 130 169 217 275 325 393
#     4   9  22  41  62  94 130 172 213 280 332 386
#     4  12  24  41  66  94 133 173 215 273 328 395
#     4  11  24  44  63  95 138 167 223 274 327 407
#     4  10  21  40  66  95 128 171 226 272 330 399
#     4  12  25  41  66  96 131 178 221 270 332 393
#     4  11  23  43  66  94 132 173 222 276 333 395
#
# _framework density 24.213889999999999
#
# number of rings (size 3 to 8) (size 9 to 14) (size 15 to 20)
#    0.000    1.429    2.857    1.714    2.000    5.143 
#    0.000    0.000    0.000    0.000    0.000    0.000 
#    0.000    0.000    0.000    0.000    0.000    0.000 
#
# Total GULP energy -78245.182156 kJ/mol
# GULP energy per Si atom -5588.941583 kJ/mol
# Density = 2.415878 g / cm^3
# Si number density = 24.213890 Si / 1000 Ang^3
#
#
#
# Elastic Constant Matrix: (Units=GPa)
#
#
# Indices 1 2 3 4 5 6 
#
# 1 110.5159 67.3426 7.8658 12.2132 -20.9074 2.9108
# 2 67.3426 207.1066 65.8185 17.2225 -27.8672 9.7102
# 3 7.8658 65.8185 71.1799 -2.3538 -16.4169 18.1243
# 4 12.2132 17.2225 -2.3538 44.7046 6.4731 -7.3635
# 5 -20.9074 -27.8672 -16.4169 6.4731 35.8185 -0.8683
# 6 2.9108 9.7102 18.1243 -7.3635 -0.8683 45.5972
#
#
#
# Elastic Compliance Matrix: (Units=1/GPa)
#
#
# Indices 1 2 3 4 5 6 
#
# 1 0.013128 -0.004515 0.004730 -0.002928 0.006796 -0.002100
# 2 -0.004515 0.009231 -0.008100 -0.002761 0.001360 0.001122
# 3 0.004730 -0.008100 0.024865 0.000696 0.007531 -0.008205
# 4 -0.002928 -0.002761 0.000696 0.026205 -0.008163 0.004575
# 5 0.006796 0.001360 0.007531 -0.008163 0.037765 -0.004316
# 6 -0.002100 0.001122 -0.008205 0.004575 -0.004316 0.025744
#
#
# Mechanical properties :
#
#
# Convention : Reuss Voigt Hill
#
# Bulk Modulus (GPa) = 31.79377 74.53959 53.16668
# Shear Modulus (GPa) = 30.63849 41.74243 36.19046
#
# Velocity S-wave (km/s) = 3.56100 4.15650 3.87022
# Velocity P-wave (km/s) = 5.48330 7.34070 6.47891
#
# Compressibility (1/GPa) = 0.03145270
#
# Stress axis : x y z
#
# Youngs Moduli (GPa) = 76.17432 108.33303 40.21681
#
# Poissons Ratio (x) = 0.48917 -0.19022
# Poissons Ratio (y) = 0.34396 0.32576
# Poissons Ratio (z) = -0.36030 0.87750
#
# Static dielectric constant tensor:
#      x y z
#    x 2.004700 0.071440 0.033160 
#    y 0.071440 1.993720 -0.077650 
#    z 0.033160 -0.077650 1.986520 
# 
# From -- ./inp_files/504955.got.cif
#   From: 2010.05.17/outbox.cif.g08.bks.cpg/sg2_253_cif.got.tgz:504955.got - 2010.06.03 11:33:40.
