data_PCOD9011336
_publ_section_title
;
Structure prediction by ZEFSAII (Michael W. Deem and Ramdas Pophale) SiO2 
 PCOD9011336
Probable space group: P -1
;
_chemical_formula_sum "Si O2"
_cell_formula_units_Z 14
_cell_length_a 18.037598
_cell_length_b 10.897017
_cell_length_c 7.905397
_cell_angle_alpha 41.264219
_cell_angle_beta 49.081137
_cell_angle_gamma 33.662804
_cell_volume 566.225385
_symmetry_space_group_name_H-M "P -1"
_symmetry_group_IT_number 2
_symmetry_cell_setting 'triclinic'
loop_
_space_group_symop_operation_xyz
x,y,z
-x,-y,-z
loop_
_atom_site_type_symbol
_atom_site_label
_atom_site_fract_x
_atom_site_fract_y
_atom_site_fract_z
Si Si1 0.279310 0.805534 0.762336
Si Si2 0.642291 0.696342 0.933339
Si Si3 0.041672 0.991511 0.750485
Si Si4 0.533779 0.737932 0.423081
Si Si5 0.885990 0.687328 0.333129
Si Si6 0.223215 0.475553 0.531253
Si Si7 0.868834 0.518516 0.991800
O O1 0.308432 0.545953 0.996301
O O2 0.417973 0.734125 0.609325
O O3 0.171717 0.955800 0.612227
O O4 0.195109 0.019516 0.812774
O O5 0.588983 0.675910 0.212385
O O6 0.758741 0.687962 0.833171
O O7 0.527107 0.977952 0.743335
O O8 0.913839 0.237313 0.594056
O O9 0.090699 0.747067 0.833947
O O10 0.000000 0.000000 0.000000
O O11 0.651507 0.559070 0.569458
O O12 0.778563 0.666921 0.473095
O O13 0.000000 0.500000 0.500000
O O14 0.990185 0.562807 0.150691
O O15 0.205407 0.375821 0.830707
#
# Coordination Sequence:
#
# PCOD9011336 Si02
#       7
#     2   2   2   2   2   2   2
#     4  11  22  40  70  94 128 179 223 264 335 408
#     4   9  21  40  69  94 135 180 219 270 334 408
#     4  11  21  42  67  97 128 171 223 273 338 400
#     4  10  22  44  63  98 137 174 221 274 337 397
#     4  12  22  40  64  96 131 176 222 275 341 394
#     4  11  24  41  65  97 132 170 221 284 330 392
#     4  10  21  40  65  99 129 170 226 277 327 390
#
# _framework density 24.725138000000001
#
# number of rings (size 3 to 8) (size 9 to 14) (size 15 to 20)
#    0.000    1.429    2.857    2.143    0.000    1.714 
#    5.143    1.429    0.000    0.000    0.000    0.000 
#    0.000    0.000    0.000    0.000    0.000    0.000 
#
# Total GULP energy -78227.487553 kJ/mol
# GULP energy per Si atom -5587.677682 kJ/mol
# Density = 2.466886 g / cm^3
# Si number density = 24.725138 Si / 1000 Ang^3
#
#
#
# Elastic Constant Matrix: (Units=GPa)
#
#
# Indices 1 2 3 4 5 6 
#
# 1 149.3674 36.3235 41.6751 -1.3383 -9.4344 -42.6814
# 2 36.3235 101.9768 15.9812 -6.4997 -9.0754 -21.2309
# 3 41.6751 15.9812 40.0096 -1.6352 -4.4885 -9.6623
# 4 -1.3383 -6.4997 -1.6352 50.1310 -0.2885 -8.4072
# 5 -9.4344 -9.0754 -4.4885 -0.2885 47.6618 4.6277
# 6 -42.6814 -21.2309 -9.6623 -8.4072 4.6277 59.5394
#
#
#
# Elastic Compliance Matrix: (Units=1/GPa)
#
#
# Indices 1 2 3 4 5 6 
#
# 1 0.011639 -0.001137 -0.010028 0.000912 0.000527 0.006399
# 2 -0.001137 0.011473 -0.002425 0.001896 0.001448 0.003038
# 3 -0.010028 -0.002425 0.035999 0.000218 0.001165 -0.002271
# 4 0.000912 0.001896 0.000218 0.020948 0.000271 0.004302
# 5 0.000527 0.001448 0.001165 0.000271 0.021526 -0.000551
# 6 0.006399 0.003038 -0.002271 0.004302 -0.000551 0.022748
#
#
# Mechanical properties :
#
#
# Convention : Reuss Voigt Hill
#
# Bulk Modulus (GPa) = 31.31660 53.25707 42.28683
# Shear Modulus (GPa) = 30.83436 44.62471 37.72953
#
# Velocity S-wave (km/s) = 3.53524 4.25294 3.91059
# Velocity P-wave (km/s) = 5.41824 6.76040 6.12619
#
# Compressibility (1/GPa) = 0.03193195
#
# Stress axis : x y z
#
# Youngs Moduli (GPa) = 85.91688 87.15884 27.77853
#
# Poissons Ratio (x) = 0.09911 0.27856
# Poissons Ratio (y) = 0.09769 0.06736
# Poissons Ratio (z) = 0.86155 0.21135
#
# Static dielectric constant tensor:
#      x y z
#    x 1.962820 -0.003840 0.011520 
#    y -0.003840 1.981640 0.090490 
#    z 0.011520 0.090490 2.069530 
# 
# From -- ./inp_files/262994.got.cif
#   From: 2010.05.17/outbox.cif.g08.bks.cpg/sg2_132_cif.got.tgz:262994.got - 2010.06.03 11:33:40.
