data_PCOD9011275
_publ_section_title
;
Structure prediction by ZEFSAII (Michael W. Deem and Ramdas Pophale) SiO2 
 PCOD9011275
Probable space group: P -1
;
_chemical_formula_sum "Si O2"
_cell_formula_units_Z 16
_cell_length_a 5.288916
_cell_length_b 24.527244
_cell_length_c 5.549824
_cell_angle_alpha 109.614437
_cell_angle_beta 81.653712
_cell_angle_gamma 116.864343
_cell_volume 604.955155
_symmetry_space_group_name_H-M "P -1"
_symmetry_group_IT_number 2
_symmetry_cell_setting 'triclinic'
loop_
_space_group_symop_operation_xyz
x,y,z
-x,-y,-z
loop_
_atom_site_type_symbol
_atom_site_label
_atom_site_fract_x
_atom_site_fract_y
_atom_site_fract_z
Si Si1 0.295129 0.097489 0.228537
Si Si2 0.979282 0.198840 0.708081
Si Si3 0.600259 0.600019 0.050307
Si Si4 0.896326 0.357549 0.336276
Si Si5 0.317206 0.945423 0.629759
Si Si6 0.418716 0.178203 0.838380
Si Si7 0.752075 0.518924 0.302178
Si Si8 0.731172 0.702883 0.552916
O O1 0.497653 0.062739 0.191602
O O2 0.362095 0.143096 0.528220
O O3 0.964394 0.050977 0.234119
O O4 0.351637 0.133988 0.019644
O O5 0.801063 0.122081 0.599918
O O6 0.750772 0.223870 0.854386
O O7 0.208276 0.211297 0.899879
O O8 0.112998 0.225865 0.471116
O O9 0.303713 0.550558 0.896960
O O10 0.875561 0.624132 0.880304
O O11 0.667581 0.558217 0.176342
O O12 0.598822 0.661643 0.265655
O O13 0.559676 0.319836 0.290195
O O14 0.961205 0.428253 0.544989
O O15 0.025434 0.317860 0.424492
O O16 0.500000 0.000000 0.500000
O O17 0.500000 0.500000 0.500000
#
# Coordination Sequence:
#
# PCOD9011275 Si02
#       8
#     2   2   2   2   2   2   2   2
#     4  10  21  40  65  96 128 168 214 271 333 401
#     4  10  22  42  62  91 127 169 215 274 330 398
#     4   9  19  38  61  95 122 169 210 260 325 378
#     4  10  22  39  62  92 125 167 211 267 315 387
#     4  10  21  41  66  96 130 170 218 273 336 400
#     4  10  21  42  66  93 130 168 221 268 334 399
#     4   8  16  36  64  89 129 162 209 261 316 382
#     4  11  23  42  61  89 130 163 219 264 325 391
#
# _framework density 26.448240999999999
#
# number of rings (size 3 to 8) (size 9 to 14) (size 15 to 20)
#    0.000    2.250    0.000    1.875    0.000    2.500 
#   13.500   36.250    0.000    0.000    0.000    0.000 
#    0.000    0.000    0.000    0.000    0.000    0.000 
#
# Total GULP energy -89481.622297 kJ/mol
# GULP energy per Si atom -5592.601394 kJ/mol
# Density = 2.638804 g / cm^3
# Si number density = 26.448241 Si / 1000 Ang^3
#
#
#
# Elastic Constant Matrix: (Units=GPa)
#
#
# Indices 1 2 3 4 5 6 
#
# 1 157.3946 14.9844 14.2668 -4.7134 2.8356 21.4473
# 2 14.9844 133.5613 46.7501 -17.0846 1.7613 18.8643
# 3 14.2668 46.7501 120.6984 -25.6309 4.6751 -1.0250
# 4 -4.7134 -17.0846 -25.6309 58.0039 -2.3800 1.2318
# 5 2.8356 1.7613 4.6751 -2.3800 35.2945 -8.6476
# 6 21.4473 18.8643 -1.0250 1.2318 -8.6476 37.6686
#
#
#
# Elastic Compliance Matrix: (Units=1/GPa)
#
#
# Indices 1 2 3 4 5 6 
#
# 1 0.007061 0.000191 -0.000823 0.000298 -0.001551 -0.004504
# 2 0.000191 0.009625 -0.003453 0.001387 -0.001257 -0.005357
# 3 -0.000823 -0.003453 0.010494 0.003490 -0.000356 0.002288
# 4 0.000298 0.001387 0.003490 0.019260 0.000424 -0.001302
# 5 -0.001551 -0.001257 -0.000356 0.000424 0.030687 0.008534
# 6 -0.004504 -0.005357 0.002288 -0.001302 0.008534 0.033858
#
#
# Mechanical properties :
#
#
# Convention : Reuss Voigt Hill
#
# Bulk Modulus (GPa) = 52.60722 62.62857 57.61789
# Shear Modulus (GPa) = 39.84309 48.57028 44.20668
#
# Velocity S-wave (km/s) = 3.88552 4.29001 4.09276
# Velocity P-wave (km/s) = 6.32957 6.94766 6.64580
#
# Compressibility (1/GPa) = 0.01900880
#
# Stress axis : x y z
#
# Youngs Moduli (GPa) = 141.63289 103.89650 95.29093
#
# Poissons Ratio (x) = -0.01982 0.07846
# Poissons Ratio (y) = -0.02702 0.32903
# Poissons Ratio (z) = 0.11661 0.35874
#
# Static dielectric constant tensor:
#      x y z
#    x 2.189140 -0.011420 -0.044460 
#    y -0.011420 2.108800 0.129760 
#    z -0.044460 0.129760 2.206240 
# 
# From -- ./inp_files/11270.got.cif
#   From: 2010.05.17/outbox.cif.g08.bks.cpg/sg2_6_cif.got.tgz:11270.got - 2010.06.03 11:33:40.
