data_PCOD9011863
_publ_section_title
;
Structure prediction by ZEFSAII (Michael W. Deem and Ramdas Pophale) SiO2 
 PCOD9011863
Probable space group: P -1
;
_chemical_formula_sum "Si O2"
_cell_formula_units_Z 14
_cell_length_a 9.550256
_cell_length_b 24.175700
_cell_length_c 7.936134
_cell_angle_alpha 45.263324
_cell_angle_beta 128.276074
_cell_angle_gamma 151.217021
_cell_volume 626.690288
_symmetry_space_group_name_H-M "P -1"
_symmetry_group_IT_number 2
_symmetry_cell_setting 'triclinic'
loop_
_space_group_symop_operation_xyz
x,y,z
-x,-y,-z
loop_
_atom_site_type_symbol
_atom_site_label
_atom_site_fract_x
_atom_site_fract_y
_atom_site_fract_z
Si Si1 0.788962 0.879116 0.728207
Si Si2 0.217407 0.588134 0.812827
Si Si3 0.750183 0.973636 0.799280
Si Si4 0.893749 0.615247 0.428094
Si Si5 0.838871 0.130717 0.982238
Si Si6 0.692966 0.552107 0.804854
Si Si7 0.873426 0.177767 0.282454
O O1 0.510809 0.735635 0.762367
O O2 0.671042 0.902002 0.720727
O O3 0.000000 0.000000 0.500000
O O4 0.991123 0.880941 0.955873
O O5 0.054298 0.590517 0.563405
O O6 0.285777 0.526038 0.932842
O O7 0.000000 0.500000 0.000000
O O8 0.436195 0.883462 0.842963
O O9 0.855944 0.097272 0.566466
O O10 0.000000 0.000000 0.000000
O O11 0.784191 0.575121 0.626020
O O12 0.639099 0.537817 0.270276
O O13 0.091447 0.759714 0.264739
O O14 0.945103 0.167153 0.176608
O O15 0.500000 0.000000 0.000000
O O16 0.895223 0.682724 0.769596
#
# Coordination Sequence:
#
# PCOD9011863 Si02
#       7
#     2   2   2   2   2   2   2
#     4  12  23  43  69 100 136 179 229 287 339 406
#     4  10  21  40  67  96 131 177 227 277 335 405
#     4  11  25  42  66  99 138 183 229 280 346 410
#     4  10  22  40  67  97 126 183 227 272 333 415
#     4  12  25  43  68 101 139 178 229 283 348 410
#     4  10  22  41  66  95 133 174 232 275 336 406
#     4  11  26  44  65 101 142 180 223 292 345 403
#
# _framework density 22.339582
#
# number of rings (size 3 to 8) (size 9 to 14) (size 15 to 20)
#    0.000    1.143    2.857    3.429    6.000    1.714 
#    0.000    0.714    0.000    0.000    0.000    0.000 
#    0.000    0.000    0.000    0.000    0.000    0.000 
#
# Total GULP energy -78190.030090 kJ/mol
# GULP energy per Si atom -5585.002149 kJ/mol
# Density = 2.228874 g / cm^3
# Si number density = 22.339582 Si / 1000 Ang^3
#
#
#
# Elastic Constant Matrix: (Units=GPa)
#
#
# Indices 1 2 3 4 5 6 
#
# 1 78.5038 39.6147 27.5821 -2.2234 25.4910 -1.7844
# 2 39.6147 152.5621 60.1756 -20.8669 45.3027 3.0553
# 3 27.5821 60.1756 131.4009 -11.1082 53.0114 11.3450
# 4 -2.2234 -20.8669 -11.1082 38.1522 0.9348 12.3762
# 5 25.4910 45.3027 53.0114 0.9348 49.1822 1.1513
# 6 -1.7844 3.0553 11.3450 12.3762 1.1513 38.9307
#
#
#
# Elastic Compliance Matrix: (Units=1/GPa)
#
#
# Indices 1 2 3 4 5 6 
#
# 1 0.015949 -0.002487 0.000068 -0.000685 -0.006067 0.001304
# 2 -0.002487 0.010793 -0.000141 0.006850 -0.008565 -0.002844
# 3 0.000068 -0.000141 0.015440 0.006828 -0.016533 -0.006167
# 4 -0.000685 0.006850 0.006828 0.036727 -0.013688 -0.013829
# 5 -0.006067 -0.008565 -0.016533 -0.013688 0.049257 0.008107
# 6 0.001304 -0.002844 -0.006167 -0.013829 0.008107 0.031923
#
#
# Mechanical properties :
#
#
# Convention : Reuss Voigt Hill
#
# Bulk Modulus (GPa) = 26.98064 68.57906 47.77985
# Shear Modulus (GPa) = 28.15899 40.92600 34.54249
#
# Velocity S-wave (km/s) = 3.55420 4.28482 3.93650
# Velocity P-wave (km/s) = 5.38023 7.43268 6.48813
#
# Compressibility (1/GPa) = 0.03706361
#
# Stress axis : x y z
#
# Youngs Moduli (GPa) = 62.69864 92.65275 64.76556
#
# Poissons Ratio (x) = 0.23038 -0.00440
# Poissons Ratio (y) = 0.15590 0.00913
# Poissons Ratio (z) = -0.00426 0.01305
#
# Static dielectric constant tensor:
#      x y z
#    x 1.841320 0.036650 -0.028150 
#    y 0.036650 1.826230 0.045530 
#    z -0.028150 0.045530 1.834080 
# 
# From -- ./inp_files/226002.got.cif
#   From: 2010.05.17/outbox.cif.g08.bks.cpg/sg2_114_cif.got.tgz:226002.got - 2010.06.03 11:33:40.
