data_PCOD9011013
_publ_section_title
;
Structure prediction by ZEFSAII (Michael W. Deem and Ramdas Pophale) SiO2 
 PCOD9011013
Probable space group: P -1
;
_chemical_formula_sum "Si O2"
_cell_formula_units_Z 15
_cell_length_a 8.306731
_cell_length_b 11.849625
_cell_length_c 17.416593
_cell_angle_alpha 29.972203
_cell_angle_beta 133.552635
_cell_angle_gamma 123.669830
_cell_volume 616.421192
_symmetry_space_group_name_H-M "P -1"
_symmetry_group_IT_number 2
_symmetry_cell_setting 'triclinic'
loop_
_space_group_symop_operation_xyz
x,y,z
-x,-y,-z
loop_
_atom_site_type_symbol
_atom_site_label
_atom_site_fract_x
_atom_site_fract_y
_atom_site_fract_z
Si Si1 0.500000 0.500000 0.500000
Si Si2 0.869640 0.037660 0.058845
Si Si3 0.681060 0.994745 0.852750
Si Si4 0.314581 0.487106 0.314074
Si Si5 0.254208 0.411904 0.647934
Si Si6 0.614256 0.408001 0.013236
Si Si7 0.930067 0.885375 0.621819
Si Si8 0.391081 0.765779 0.611140
O O1 0.526943 0.225626 0.651204
O O2 0.233311 0.521919 0.353826
O O3 0.759402 0.850840 0.182164
O O4 0.137625 0.029454 0.143079
O O5 0.795601 0.995505 0.972803
O O6 0.772319 0.295165 0.894196
O O7 0.527305 0.797108 0.929001
O O8 0.571991 0.545143 0.389168
O O9 0.260896 0.267807 0.380682
O O10 0.345600 0.581256 0.640288
O O11 0.000000 0.500000 0.500000
O O12 0.870585 0.294999 0.173076
O O13 0.500000 0.500000 0.000000
O O14 0.552419 0.613197 0.812886
O O15 0.848914 0.106173 0.516072
O O16 0.000000 0.000000 0.500000
O O17 0.500000 0.000000 0.500000
#
# Coordination Sequence:
#
# PCOD9011013 Si02
#       8
#     1   2   2   2   2   2   2   2
#     4  10  22  38  70  96 138 178 230 306 360 422
#     4  10  22  40  67  96 138 180 228 303 359 430
#     4  10  21  40  65 102 139 178 233 297 366 431
#     4  11  24  45  66 104 143 181 246 303 364 446
#     4  12  26  46  72 102 143 195 242 304 382 441
#     4  12  25  45  77 109 150 199 250 311 377 449
#     4  12  26  45  79 110 145 204 255 306 378 455
#     4  12  28  52  74 109 161 197 255 320 373 459
#
# _framework density 24.334009999999999
#
# number of rings (size 3 to 8) (size 9 to 14) (size 15 to 20)
#    0.000    0.800    4.000    2.800    0.000    8.000 
#    2.400    0.000    0.000    0.000    0.000    0.000 
#    0.000    0.000    0.000    0.000    0.000    0.000 
#
# Total GULP energy -83528.323972 kJ/mol
# GULP energy per Si atom -5568.554931 kJ/mol
# Density = 2.427862 g / cm^3
# Si number density = 24.334010 Si / 1000 Ang^3
#
#
#
# Elastic Constant Matrix: (Units=GPa)
#
#
# Indices 1 2 3 4 5 6 
#
# 1 71.7430 23.4829 32.9967 -11.9881 4.1217 16.0675
# 2 23.4829 101.3161 40.4388 -18.1522 -2.8150 15.2709
# 3 32.9967 40.4388 176.5697 -28.3913 -5.3484 16.9964
# 4 -11.9881 -18.1522 -28.3913 51.3369 10.8225 -2.8590
# 5 4.1217 -2.8150 -5.3484 10.8225 44.4003 -10.4435
# 6 16.0675 15.2709 16.9964 -2.8590 -10.4435 39.3011
#
#
#
# Elastic Compliance Matrix: (Units=1/GPa)
#
#
# Indices 1 2 3 4 5 6 
#
# 1 0.017640 -0.001945 -0.001878 0.002922 -0.004242 -0.006558
# 2 -0.001945 0.011930 -0.001635 0.002830 -0.000681 -0.003109
# 3 -0.001878 -0.001635 0.006971 0.002781 -0.000105 -0.001437
# 4 0.002922 0.002830 0.002781 0.023853 -0.006384 -0.003458
# 5 -0.004242 -0.000681 -0.000105 -0.006384 0.026441 0.008606
# 6 -0.006558 -0.003109 -0.001437 -0.003458 0.008606 0.031991
#
#
# Mechanical properties :
#
#
# Convention : Reuss Voigt Hill
#
# Bulk Modulus (GPa) = 39.02479 60.38506 49.70493
# Shear Modulus (GPa) = 36.15738 43.85502 40.00620
#
# Velocity S-wave (km/s) = 3.85889 4.24985 4.05908
# Velocity P-wave (km/s) = 5.99389 6.99647 6.51449
#
# Compressibility (1/GPa) = 0.02562474
#
# Stress axis : x y z
#
# Youngs Moduli (GPa) = 56.68981 83.82084 143.44509
#
# Poissons Ratio (x) = 0.16300 0.26946
# Poissons Ratio (y) = 0.11024 0.23456
# Poissons Ratio (z) = 0.10649 0.13706
#
# Static dielectric constant tensor:
#      x y z
#    x 2.921150 0.230790 -0.780400 
#    y 0.230790 2.031670 -0.207310 
#    z -0.780400 -0.207310 2.654810 
# 
# From -- ./inp_files/299391.got.cif
#   From: 2010.05.17/outbox.cif.g08.bks.cpg/sg2_150_cif.got.tgz:299391.got - 2010.06.03 11:33:40.
