data_PCOD9011886
_publ_section_title
;
Structure prediction by ZEFSAII (Michael W. Deem and Ramdas Pophale) SiO2 
 PCOD9011886
Probable space group: P -1
;
_chemical_formula_sum "Si O2"
_cell_formula_units_Z 16
_cell_length_a 12.141467
_cell_length_b 17.215014
_cell_length_c 8.918185
_cell_angle_alpha 41.868964
_cell_angle_beta 39.834309
_cell_angle_gamma 41.014333
_cell_volume 720.500835
_symmetry_space_group_name_H-M "P -1"
_symmetry_group_IT_number 2
_symmetry_cell_setting 'triclinic'
loop_
_space_group_symop_operation_xyz
x,y,z
-x,-y,-z
loop_
_atom_site_type_symbol
_atom_site_label
_atom_site_fract_x
_atom_site_fract_y
_atom_site_fract_z
Si Si1 0.992825 0.192636 0.936003
Si Si2 0.860930 0.016837 0.485004
Si Si3 0.765443 0.803611 0.825024
Si Si4 0.578495 0.972495 0.290369
Si Si5 0.992589 0.620841 0.604976
Si Si6 0.779465 0.466973 0.892537
Si Si7 0.598353 0.529234 0.655694
Si Si8 0.459283 0.192226 0.673816
O O1 0.199079 0.072003 0.901380
O O2 0.002059 0.263112 0.670040
O O3 0.918332 0.313893 0.955718
O O4 0.859934 0.120367 0.214614
O O5 0.894199 0.882042 0.571624
O O6 0.649991 0.071757 0.696307
O O7 0.000000 0.000000 0.500000
O O8 0.862246 0.679377 0.800951
O O9 0.561469 0.899546 0.832662
O O10 0.721495 0.784437 0.069234
O O11 0.564436 0.846986 0.413629
O O12 0.500000 0.000000 0.500000
O O13 0.899241 0.542642 0.717265
O O14 0.211185 0.537199 0.544958
O O15 0.693941 0.498886 0.766453
O O16 0.579525 0.504847 0.134613
O O17 0.509288 0.681745 0.520679
#
# Coordination Sequence:
#
# PCOD9011886 Si02
#       8
#     2   2   2   2   2   2   2   2
#     4  11  20  40  65  95 127 168 216 268 329 384
#     4  11  23  41  65  90 126 175 221 263 325 398
#     4  11  25  43  61  97 137 173 214 263 333 401
#     4  11  21  39  66  96 127 167 216 266 327 388
#     4  11  23  41  64 100 134 171 214 274 333 383
#     4  10  21  40  67  97 131 167 220 275 328 387
#     4  10  21  40  67  98 127 172 221 271 325 390
#     4  11  22  43  66  91 131 172 216 266 329 396
#
# _framework density 22.206775
#
# number of rings (size 3 to 8) (size 9 to 14) (size 15 to 20)
#    0.000    1.250    2.500    6.000    0.000    1.000 
#    4.500    0.625    0.000    0.000    0.000    0.000 
#    0.000    0.000    0.000    0.000    0.000    0.000 
#
# Total GULP energy -89199.464820 kJ/mol
# GULP energy per Si atom -5574.966551 kJ/mol
# Density = 2.215623 g / cm^3
# Si number density = 22.206775 Si / 1000 Ang^3
#
#
#
# Elastic Constant Matrix: (Units=GPa)
#
#
# Indices 1 2 3 4 5 6 
#
# 1 48.9813 27.1141 28.6017 21.8430 -0.3852 8.8320
# 2 27.1141 97.5033 16.4113 37.9424 -3.8106 1.4446
# 3 28.6017 16.4113 88.5602 18.6742 -16.2742 15.5228
# 4 21.8430 37.9424 18.6742 33.1085 -4.5740 -6.5329
# 5 -0.3852 -3.8106 -16.2742 -4.5740 20.9744 2.6653
# 6 8.8320 1.4446 15.5228 -6.5329 2.6653 29.4451
#
#
#
# Elastic Compliance Matrix: (Units=1/GPa)
#
#
# Indices 1 2 3 4 5 6 
#
# 1 0.037198 0.000372 -0.005891 -0.025267 -0.007680 -0.012981
# 2 0.000372 0.020358 0.003879 -0.027350 0.001946 -0.009400
# 3 -0.005891 0.003879 0.020229 -0.012474 0.015254 -0.013236
# 4 -0.025267 -0.027350 -0.012474 0.092412 0.000473 0.035957
# 5 -0.007680 0.001946 0.015254 0.000473 0.061261 -0.011274
# 6 -0.012981 -0.009400 -0.013236 0.035957 -0.011274 0.054292
#
#
# Mechanical properties :
#
#
# Convention : Reuss Voigt Hill
#
# Bulk Modulus (GPa) = 13.42173 42.14432 27.78303
# Shear Modulus (GPa) = 15.93055 27.56679 21.74867
#
# Velocity S-wave (km/s) = 2.68129 3.52713 3.13289
# Velocity P-wave (km/s) = 3.95510 5.96715 5.06210
#
# Compressibility (1/GPa) = 0.07450604
#
# Stress axis : x y z
#
# Youngs Moduli (GPa) = 26.88333 49.12135 49.43507
#
# Poissons Ratio (x) = -0.01827 0.29120
# Poissons Ratio (y) = -0.01000 -0.19178
# Poissons Ratio (z) = 0.15836 -0.19057
#
# Static dielectric constant tensor:
#      x y z
#    x 1.878290 -0.022970 0.005070 
#    y -0.022970 1.832030 0.002590 
#    z 0.005070 0.002590 1.920950 
# 
# From -- ./inp_files/278755.got.cif
#   From: 2010.05.17/outbox.cif.g08.bks.cpg/sg2_140_cif.got.tgz:278755.got - 2010.06.03 11:33:40.
