data_PCOD9011656
_publ_section_title
;
Structure prediction by ZEFSAII (Michael W. Deem and Ramdas Pophale) SiO2 
 PCOD9011656
Probable space group: P -1
;
_chemical_formula_sum "Si O2"
_cell_formula_units_Z 14
_cell_length_a 20.937486
_cell_length_b 6.898128
_cell_length_c 7.258223
_cell_angle_alpha 128.701630
_cell_angle_beta 42.378947
_cell_angle_gamma 112.304418
_cell_volume 544.629248
_symmetry_space_group_name_H-M "P -1"
_symmetry_group_IT_number 2
_symmetry_cell_setting 'triclinic'
loop_
_space_group_symop_operation_xyz
x,y,z
-x,-y,-z
loop_
_atom_site_type_symbol
_atom_site_label
_atom_site_fract_x
_atom_site_fract_y
_atom_site_fract_z
Si Si1 0.907781 0.520578 0.339220
Si Si2 0.967767 0.223323 0.559358
Si Si3 0.515151 0.101881 0.321411
Si Si4 0.604384 0.573681 0.833789
Si Si5 0.641695 0.499807 0.148422
Si Si6 0.791693 0.615139 0.319859
Si Si7 0.166346 0.858852 0.519844
O O1 0.820639 0.680298 0.508953
O O2 0.874022 0.253430 0.278612
O O3 0.941428 0.624722 0.524225
O O4 0.000000 0.500000 0.000000
O O5 0.925269 0.109734 0.402154
O O6 0.877720 0.419109 0.940419
O O7 0.000000 0.000000 0.500000
O O8 0.577195 0.323574 0.288858
O O9 0.410629 0.213628 0.527741
O O10 0.500000 0.000000 0.500000
O O11 0.582471 0.855510 0.963742
O O12 0.698632 0.479238 0.457936
O O13 0.500000 0.500000 0.000000
O O14 0.629034 0.510569 0.958174
O O15 0.750560 0.365564 0.861119
O O16 0.791223 0.885389 0.387556
#
# Coordination Sequence:
#
# PCOD9011656 Si02
#       7
#     2   2   2   2   2   2   2
#     4  10  23  46  69 102 139 178 227 290 350 408
#     4  11  25  45  70 106 137 181 235 285 348 421
#     4   9  20  39  65  92 134 172 224 277 338 398
#     4  11  23  43  66  99 140 180 229 286 343 414
#     4  10  21  40  66  99 128 185 227 275 345 409
#     4  11  24  46  70  99 143 184 229 291 350 408
#     4  12  23  45  75  97 145 181 235 285 350 414
#
# _framework density 25.705560999999999
#
# number of rings (size 3 to 8) (size 9 to 14) (size 15 to 20)
#    0.000    1.429    4.286    0.429    0.000    6.286 
#   10.286    0.000    0.000    0.000    0.000    0.000 
#    0.000    0.000    0.000    0.000    0.000    0.000 
#
# Total GULP energy -78033.428477 kJ/mol
# GULP energy per Si atom -5573.816320 kJ/mol
# Density = 2.564705 g / cm^3
# Si number density = 25.705561 Si / 1000 Ang^3
#
#
#
# Elastic Constant Matrix: (Units=GPa)
#
#
# Indices 1 2 3 4 5 6 
#
# 1 92.0777 27.3944 18.0692 -0.5198 -17.9806 -4.6875
# 2 27.3944 174.0798 34.8661 -21.9960 -16.2315 -13.0864
# 3 18.0692 34.8661 88.2767 -15.3619 -18.8065 -14.7675
# 4 -0.5198 -21.9960 -15.3619 46.7925 -5.5139 -15.5483
# 5 -17.9806 -16.2315 -18.8065 -5.5139 34.2993 -1.1543
# 6 -4.6875 -13.0864 -14.7675 -15.5483 -1.1543 30.4834
#
#
#
# Elastic Compliance Matrix: (Units=1/GPa)
#
#
# Indices 1 2 3 4 5 6 
#
# 1 0.012544 -0.001074 -0.000364 0.000887 0.006077 0.001974
# 2 -0.001074 0.007577 0.000465 0.006498 0.004551 0.006800
# 3 -0.000364 0.000465 0.019340 0.013818 0.013429 0.017069
# 4 0.000887 0.006498 0.013818 0.041699 0.018884 0.031604
# 5 0.006077 0.004551 0.013429 0.018884 0.045592 0.020752
# 6 0.001974 0.006800 0.017069 0.031604 0.020752 0.061202
#
#
# Mechanical properties :
#
#
# Convention : Reuss Voigt Hill
#
# Bulk Modulus (GPa) = 26.65655 57.23260 41.94458
# Shear Modulus (GPa) = 24.70311 40.58869 32.64590
#
# Velocity S-wave (km/s) = 3.10337 3.97796 3.56756
# Velocity P-wave (km/s) = 4.82013 6.58877 5.77259
#
# Compressibility (1/GPa) = 0.03751423
#
# Stress axis : x y z
#
# Youngs Moduli (GPa) = 79.72254 131.97897 51.70656
#
# Poissons Ratio (x) = 0.14174 0.01883
# Poissons Ratio (y) = 0.08562 -0.02405
# Poissons Ratio (z) = 0.02904 -0.06139
#
# Static dielectric constant tensor:
#      x y z
#    x 2.255900 0.091230 0.067200 
#    y 0.091230 2.157960 0.043510 
#    z 0.067200 0.043510 2.102230 
# 
# From -- ./inp_files/350824.got.cif
#   From: 2010.05.17/outbox.cif.g08.bks.cpg/sg2_176_cif.got.tgz:350824.got - 2010.06.03 11:33:40.
