data_PCOD9011260
_publ_section_title
;
Structure prediction by ZEFSAII (Michael W. Deem and Ramdas Pophale) SiO2 
 PCOD9011260
Probable space group: P -1
;
_chemical_formula_sum "Si O2"
_cell_formula_units_Z 12
_cell_length_a 14.339407
_cell_length_b 11.563525
_cell_length_c 15.613298
_cell_angle_alpha 153.069948
_cell_angle_beta 28.026828
_cell_angle_gamma 153.643285
_cell_volume 473.130114
_symmetry_space_group_name_H-M "P -1"
_symmetry_group_IT_number 2
_symmetry_cell_setting 'triclinic'
loop_
_space_group_symop_operation_xyz
x,y,z
-x,-y,-z
loop_
_atom_site_type_symbol
_atom_site_label
_atom_site_fract_x
_atom_site_fract_y
_atom_site_fract_z
Si Si1 0.272255 0.686738 0.369669
Si Si2 0.268773 0.228643 0.952472
Si Si3 0.134622 0.754052 0.877673
Si Si4 0.755489 0.768528 0.294927
Si Si5 0.922243 0.131674 0.572926
Si Si6 0.554310 0.275057 0.256452
O O1 0.497072 0.697344 0.239972
O O2 0.000000 0.500000 0.500000
O O3 0.340921 0.025429 0.522537
O O4 0.259962 0.513145 0.178310
O O5 0.293678 0.061371 0.905232
O O6 0.000000 0.000000 0.000000
O O7 0.232137 0.713306 0.861612
O O8 0.087501 0.483663 0.675557
O O9 0.906791 0.755997 0.088550
O O10 0.601584 0.427884 0.226832
O O11 0.902009 0.964313 0.389634
O O12 0.666716 0.041589 0.753243
O O13 0.000000 0.000000 0.500000
O O14 0.500000 0.500000 0.500000
#
# Coordination Sequence:
#
# PCOD9011260 Si02
#       6
#     2   2   2   2   2   2
#     4  11  24  48  70  99 140 185 230 290 352 409
#     4  11  25  45  74 101 137 181 237 292 343 413
#     4  12  23  44  68  99 137 177 229 287 346 416
#     4  11  23  44  68  96 139 180 226 286 346 417
#     4  11  23  40  64  97 133 176 223 275 350 408
#     4  10  21  40  65  95 134 179 218 282 349 408
#
# _framework density 25.363002999999999
#
# number of rings (size 3 to 8) (size 9 to 14) (size 15 to 20)
#    0.000    1.000    5.000    3.500    0.000    2.667 
#    0.000    0.000    0.000    0.000    0.000    0.000 
#    0.000    0.000    0.000    0.000    0.000    0.000 
#
# Total GULP energy -66903.333056 kJ/mol
# GULP energy per Si atom -5575.277755 kJ/mol
# Density = 2.530528 g / cm^3
# Si number density = 25.363003 Si / 1000 Ang^3
#
#
#
# Elastic Constant Matrix: (Units=GPa)
#
#
# Indices 1 2 3 4 5 6 
#
# 1 53.9479 13.6051 19.5696 -4.2257 -3.7977 5.1253
# 2 13.6051 113.8181 4.8720 -18.3654 -4.1786 1.0771
# 3 19.5696 4.8720 98.2887 -16.3474 -20.2381 6.8604
# 4 -4.2257 -18.3654 -16.3474 46.8448 3.3910 -6.9956
# 5 -3.7977 -4.1786 -20.2381 3.3910 41.1490 -4.5503
# 6 5.1253 1.0771 6.8604 -6.9956 -4.5503 44.6841
#
#
#
# Elastic Compliance Matrix: (Units=1/GPa)
#
#
# Indices 1 2 3 4 5 6 
#
# 1 0.020718 -0.002423 -0.004103 -0.000754 -0.000495 -0.001857
# 2 -0.002423 0.009696 0.000790 0.003886 0.000898 0.000623
# 3 -0.004103 0.000790 0.012790 0.003947 0.005631 -0.000321
# 4 -0.000754 0.003886 0.003947 0.024630 0.000602 0.003304
# 5 -0.000495 0.000898 0.005631 0.000602 0.027293 0.002044
# 6 -0.001857 0.000623 -0.000321 0.003304 0.002044 0.023352
#
#
# Mechanical properties :
#
#
# Convention : Reuss Voigt Hill
#
# Bulk Modulus (GPa) = 31.51408 38.01646 34.76527
# Shear Modulus (GPa) = 35.57964 41.73610 38.65787
#
# Velocity S-wave (km/s) = 3.74948 4.06094 3.90831
# Velocity P-wave (km/s) = 5.58543 6.08357 5.83981
#
# Compressibility (1/GPa) = 0.03173185
#
# Stress axis : x y z
#
# Youngs Moduli (GPa) = 48.26660 103.13578 78.18447
#
# Poissons Ratio (x) = 0.24992 0.32077
# Poissons Ratio (y) = 0.11696 -0.06174
# Poissons Ratio (z) = 0.19802 -0.08144
#
# Static dielectric constant tensor:
#      x y z
#    x 2.280750 0.072860 -0.074130 
#    y 0.072860 2.145900 -0.087490 
#    z -0.074130 -0.087490 1.982870 
# 
# From -- ./inp_files/529359.got.cif
#   From: 2010.05.17/outbox.cif.g08.bks.cpg/sg2_265_cif.got.tgz:529359.got - 2010.06.03 11:33:40.
