data_PCOD9011342
_publ_section_title
;
Structure prediction by ZEFSAII (Michael W. Deem and Ramdas Pophale) SiO2 
 PCOD9011342
Probable space group: P -1
;
_chemical_formula_sum "Si O2"
_cell_formula_units_Z 16
_cell_length_a 25.260243
_cell_length_b 27.595484
_cell_length_c 6.839566
_cell_angle_alpha 56.559032
_cell_angle_beta 57.574943
_cell_angle_gamma 10.343100
_cell_volume 713.728703
_symmetry_space_group_name_H-M "P -1"
_symmetry_group_IT_number 2
_symmetry_cell_setting 'triclinic'
loop_
_space_group_symop_operation_xyz
x,y,z
-x,-y,-z
loop_
_atom_site_type_symbol
_atom_site_label
_atom_site_fract_x
_atom_site_fract_y
_atom_site_fract_z
Si Si1 0.930553 0.621743 0.479104
Si Si2 0.726264 0.584598 0.906132
Si Si3 0.635958 0.040388 0.842068
Si Si4 0.209377 0.733288 0.645789
Si Si5 0.420464 0.111051 0.096618
Si Si6 0.392984 0.825554 0.689919
Si Si7 0.266360 0.595792 0.155020
Si Si8 0.825290 0.143403 0.222905
O O1 0.174947 0.449445 0.345423
O O2 0.000000 0.500000 0.500000
O O3 0.859707 0.665244 0.741832
O O4 0.652854 0.897359 0.292942
O O5 0.554375 0.696019 0.860147
O O6 0.025661 0.285361 0.064799
O O7 0.516591 0.797978 0.017863
O O8 0.623873 0.102192 0.570872
O O9 0.449603 0.152312 0.896780
O O10 0.500000 0.500000 0.500000
O O11 0.125119 0.849257 0.740720
O O12 0.262303 0.622916 0.879120
O O13 0.960784 0.964647 0.460236
O O14 0.500000 0.000000 0.000000
O O15 0.583406 0.603147 0.703943
O O16 0.060067 0.107761 0.771533
O O17 0.486694 0.438239 0.188359
O O18 0.000000 0.000000 0.000000
#
# Coordination Sequence:
#
# PCOD9011342 Si02
#       8
#     2   2   2   2   2   2   2   2
#     4  10  21  40  65  99 133 175 230 301 369 420
#     4  11  25  47  72  96 146 185 240 304 356 428
#     4  11  25  47  69  99 139 189 240 293 362 428
#     4  11  25  44  76 109 143 186 229 284 371 408
#     4  10  23  38  66 103 133 175 233 296 370 435
#     4  12  29  47  70 101 143 196 243 287 352 422
#     4  12  27  48  72 108 143 187 243 289 346 432
#     4  11  24  46  74 110 151 182 226 299 353 420
#
# _framework density 22.417483000000001
#
# number of rings (size 3 to 8) (size 9 to 14) (size 15 to 20)
#    0.000    1.000    2.500    2.625    5.250    6.500 
#    0.000    0.000    0.000    0.000    0.000    0.000 
#    0.000    0.000    0.000    0.000    0.000    0.000 
#
# Total GULP energy -89535.134543 kJ/mol
# GULP energy per Si atom -5595.945909 kJ/mol
# Density = 2.236646 g / cm^3
# Si number density = 22.417483 Si / 1000 Ang^3
#
#
#
# Elastic Constant Matrix: (Units=GPa)
#
#
# Indices 1 2 3 4 5 6 
#
# 1 74.8791 8.2022 14.8420 -0.0554 8.9288 1.7491
# 2 8.2022 86.8652 14.7932 -3.3178 4.0156 -12.1063
# 3 14.8420 14.7932 130.9455 -0.4766 -13.6737 -0.6073
# 4 -0.0554 -3.3178 -0.4766 43.5895 13.5036 4.7264
# 5 8.9288 4.0156 -13.6737 13.5036 45.5477 -0.8714
# 6 1.7491 -12.1063 -0.6073 4.7264 -0.8714 43.0752
#
#
#
# Elastic Compliance Matrix: (Units=1/GPa)
#
#
# Indices 1 2 3 4 5 6 
#
# 1 0.014298 -0.000964 -0.001894 0.001174 -0.003655 -0.001081
# 2 -0.000964 0.012431 -0.001442 0.001056 -0.001589 0.003365
# 3 -0.001894 -0.001442 0.008357 -0.001045 0.003316 -0.000029
# 4 0.001174 0.001056 -0.001045 0.025906 -0.008370 -0.002777
# 5 -0.003655 -0.001589 0.003316 -0.008370 0.026312 0.001199
# 6 -0.001081 0.003365 -0.000029 -0.002777 0.001199 0.024533
#
#
# Mechanical properties :
#
#
# Convention : Reuss Voigt Hill
#
# Bulk Modulus (GPa) = 37.75582 40.92940 39.34261
# Shear Modulus (GPa) = 38.68004 43.43263 41.05633
#
# Velocity S-wave (km/s) = 4.15835 4.40642 4.28418
# Velocity P-wave (km/s) = 6.31938 6.64726 6.48539
#
# Compressibility (1/GPa) = 0.02648598
#
# Stress axis : x y z
#
# Youngs Moduli (GPa) = 69.94041 80.44178 119.66487
#
# Poissons Ratio (x) = 0.07758 0.22665
# Poissons Ratio (y) = 0.06745 0.17250
# Poissons Ratio (z) = 0.13247 0.11596
#
# Static dielectric constant tensor:
#      x y z
#    x 1.809030 -0.004890 -0.029240 
#    y -0.004890 1.845840 0.004220 
#    z -0.029240 0.004220 1.720100 
# 
# From -- ./inp_files/12807.got.cif
#   From: 2010.05.17/outbox.cif.g08.bks.cpg/sg2_7_cif.got.tgz:12807.got - 2010.06.03 11:33:40.
