data_PCOD9011777
_publ_section_title
;
Structure prediction by ZEFSAII (Michael W. Deem and Ramdas Pophale) SiO2 
 PCOD9011777
Probable space group: P -1
;
_chemical_formula_sum "Si O2"
_cell_formula_units_Z 16
_cell_length_a 9.558401
_cell_length_b 28.069521
_cell_length_c 21.538829
_cell_angle_alpha 161.944771
_cell_angle_beta 150.731170
_cell_angle_gamma 27.087729
_cell_volume 801.754047
_symmetry_space_group_name_H-M "P -1"
_symmetry_group_IT_number 2
_symmetry_cell_setting 'triclinic'
loop_
_space_group_symop_operation_xyz
x,y,z
-x,-y,-z
loop_
_atom_site_type_symbol
_atom_site_label
_atom_site_fract_x
_atom_site_fract_y
_atom_site_fract_z
Si Si1 0.826648 0.092919 0.381360
Si Si2 0.683611 0.471050 0.345100
Si Si3 0.118351 0.163267 0.197106
Si Si4 0.288553 0.554268 0.174071
Si Si5 0.854803 0.901797 0.276551
Si Si6 0.118770 0.108978 0.262594
Si Si7 0.257671 0.517732 0.981508
Si Si8 0.052013 0.744951 0.485484
O O1 0.462038 0.143702 0.285814
O O2 0.834116 0.247492 0.615977
O O3 0.997283 0.106668 0.400369
O O4 0.921222 0.939336 0.276678
O O5 0.536187 0.471711 0.221711
O O6 0.413636 0.614915 0.457370
O O7 0.000000 0.500000 0.500000
O O8 0.813918 0.290163 0.202078
O O9 0.086798 0.222709 0.330300
O O10 0.104009 0.984970 0.958148
O O11 0.415427 0.510947 0.100653
O O12 0.000000 0.500000 0.000000
O O13 0.989996 0.705222 0.101786
O O14 0.483360 0.985168 0.246790
O O15 0.000000 0.000000 0.500000
O O16 0.035683 0.189358 0.397487
O O17 0.500000 0.500000 0.000000
O O18 0.133687 0.370260 0.747118
#
# Coordination Sequence:
#
# PCOD9011777 Si02
#       8
#     2   2   2   2   2   2   2   2
#     4  10  21  40  67  92 131 172 221 270 322 397
#     4  11  21  39  68  96 127 177 218 270 330 390
#     4  10  21  43  64  92 130 176 221 261 344 397
#     4  11  21  41  66  95 136 176 217 270 334 395
#     4  11  22  41  67  90 130 182 217 260 341 394
#     4  10  24  41  66  94 131 174 215 282 329 401
#     4  12  25  42  66 101 134 172 223 280 327 395
#     4  11  23  42  66  99 135 164 228 281 323 386
#
# _framework density 19.956244000000002
#
# number of rings (size 3 to 8) (size 9 to 14) (size 15 to 20)
#    0.000    1.250    6.250    1.500    1.750    1.000 
#    2.250    3.750    0.000    0.000    0.000    0.000 
#    0.000    0.000    0.000    0.000    0.000    0.000 
#
# Total GULP energy -89228.170250 kJ/mol
# GULP energy per Si atom -5576.760641 kJ/mol
# Density = 1.991082 g / cm^3
# Si number density = 19.956244 Si / 1000 Ang^3
#
#
#
# Elastic Constant Matrix: (Units=GPa)
#
#
# Indices 1 2 3 4 5 6 
#
# 1 138.5818 44.0322 32.5993 -9.4623 -13.9278 26.4095
# 2 44.0322 89.8732 15.2341 -13.6594 -4.2401 22.4308
# 3 32.5993 15.2341 80.9796 -20.8877 3.1692 5.2337
# 4 -9.4623 -13.6594 -20.8877 28.7199 0.0755 6.4616
# 5 -13.9278 -4.2401 3.1692 0.0755 36.8936 -10.0953
# 6 26.4095 22.4308 5.2337 6.4616 -10.0953 33.2638
#
#
#
# Elastic Compliance Matrix: (Units=1/GPa)
#
#
# Indices 1 2 3 4 5 6 
#
# 1 0.010127 -0.002958 -0.003083 0.000805 0.002380 -0.004995
# 2 -0.002958 0.016918 0.001789 0.011156 -0.002724 -0.012336
# 3 -0.003083 0.001789 0.017254 0.013587 -0.003919 -0.005302
# 4 0.000805 0.011156 0.013587 0.055434 -0.005954 -0.022875
# 5 0.002380 -0.002724 -0.003919 -0.005954 0.031092 0.011157
# 6 -0.004995 -0.012336 -0.005302 -0.022875 0.011157 0.051011
#
#
# Mechanical properties :
#
#
# Convention : Reuss Voigt Hill
#
# Bulk Modulus (GPa) = 27.93564 54.79620 41.36592
# Shear Modulus (GPa) = 24.71933 34.28005 29.49969
#
# Velocity S-wave (km/s) = 3.52330 4.14908 3.84893
# Velocity P-wave (km/s) = 5.52995 7.10429 6.36598
#
# Compressibility (1/GPa) = 0.03579657
#
# Stress axis : x y z
#
# Youngs Moduli (GPa) = 98.74658 59.10750 57.95769
#
# Poissons Ratio (x) = 0.17482 0.17868
# Poissons Ratio (y) = 0.29206 -0.10370
# Poissons Ratio (z) = 0.30443 -0.10576
#
# Static dielectric constant tensor:
#      x y z
#    x 1.755680 0.062730 0.043320 
#    y 0.062730 1.724810 0.048050 
#    z 0.043320 0.048050 1.694760 
# 
# From -- ./inp_files/556479.got.cif
#   From: 2010.05.17/outbox.cif.g08.bks.cpg/sg2_279_cif.got.tgz:556479.got - 2010.06.03 11:33:40.
