data_PCOD9011832
_publ_section_title
;
Structure prediction by ZEFSAII (Michael W. Deem and Ramdas Pophale) SiO2 
 PCOD9011832
Probable space group: P -1
;
_chemical_formula_sum "Si O2"
_cell_formula_units_Z 12
_cell_length_a 8.390946
_cell_length_b 11.152260
_cell_length_c 13.054230
_cell_angle_alpha 130.480173
_cell_angle_beta 35.261397
_cell_angle_gamma 136.904306
_cell_volume 477.467455
_symmetry_space_group_name_H-M "P -1"
_symmetry_group_IT_number 2
_symmetry_cell_setting 'triclinic'
loop_
_space_group_symop_operation_xyz
x,y,z
-x,-y,-z
loop_
_atom_site_type_symbol
_atom_site_label
_atom_site_fract_x
_atom_site_fract_y
_atom_site_fract_z
Si Si1 0.017108 0.176095 0.978504
Si Si2 0.926800 0.851279 0.750808
Si Si3 0.303397 0.738103 0.363515
Si Si4 0.222054 0.605439 0.655621
Si Si5 0.223401 0.051241 0.507951
Si Si6 0.704769 0.360601 0.136169
O O1 0.378662 0.274702 0.809961
O O2 0.925366 0.968666 0.911436
O O3 0.970638 0.282690 0.157052
O O4 0.779189 0.199474 0.037608
O O5 0.595288 0.699084 0.808933
O O6 0.180991 0.779999 0.558820
O O7 0.028625 0.994351 0.682842
O O8 0.987395 0.429513 0.623965
O O9 0.369187 0.912660 0.358186
O O10 0.314279 0.568937 0.701280
O O11 0.534869 0.745429 0.516105
O O12 0.000000 0.000000 0.500000
O O13 0.000000 0.500000 0.000000
#
# Coordination Sequence:
#
# PCOD9011832 Si02
#       6
#     2   2   2   2   2   2
#     4  10  22  43  62  90 131 166 210 254 314 376
#     4  10  22  41  65  90 127 165 212 254 315 367
#     4  10  23  41  66  94 128 164 211 258 311 372
#     4  10  22  41  66  93 127 162 214 254 316 369
#     4  10  21  40  67  95 127 163 207 264 311 370
#     4  10  23  40  64  95 124 165 212 262 309 372
#
# _framework density 25.132601999999999
#
# number of rings (size 3 to 8) (size 9 to 14) (size 15 to 20)
#    2.000    0.000    1.667    1.500    0.000    7.333 
#    3.000    1.667    0.000    0.000    0.000    0.000 
#    0.000    0.000    0.000    0.000    0.000    0.000 
#
# Total GULP energy -67014.470434 kJ/mol
# GULP energy per Si atom -5584.539203 kJ/mol
# Density = 2.507540 g / cm^3
# Si number density = 25.132602 Si / 1000 Ang^3
#
#
#
# Elastic Constant Matrix: (Units=GPa)
#
#
# Indices 1 2 3 4 5 6 
#
# 1 79.8819 20.8236 0.9143 0.5461 -2.9601 15.3557
# 2 20.8236 123.2585 19.6759 -3.6477 7.5224 26.1097
# 3 0.9143 19.6759 88.9685 11.1619 -4.1495 8.5523
# 4 0.5461 -3.6477 11.1619 55.8149 5.9941 -5.5593
# 5 -2.9601 7.5224 -4.1495 5.9941 44.0365 0.9773
# 6 15.3557 26.1097 8.5523 -5.5593 0.9773 48.4874
#
#
#
# Elastic Compliance Matrix: (Units=1/GPa)
#
#
# Indices 1 2 3 4 5 6 
#
# 1 0.013744 -0.001793 0.000796 -0.000939 0.001514 -0.003666
# 2 -0.001793 0.009763 -0.001934 0.000837 -0.001991 -0.004212
# 3 0.000796 -0.001934 0.012296 -0.002982 0.001987 -0.001762
# 4 -0.000939 0.000837 -0.002982 0.019178 -0.003156 0.002635
# 5 0.001514 -0.001991 0.001987 -0.003156 0.023780 -0.000599
# 6 -0.003666 -0.004212 -0.001762 0.002635 -0.000599 0.024678
#
#
# Mechanical properties :
#
#
# Convention : Reuss Voigt Hill
#
# Bulk Modulus (GPa) = 33.39798 41.65962 37.52880
# Shear Modulus (GPa) = 41.91807 46.38074 44.14941
#
# Velocity S-wave (km/s) = 4.08839 4.30052 4.19580
# Velocity P-wave (km/s) = 5.96692 6.42427 6.19981
#
# Compressibility (1/GPa) = 0.02994193
#
# Stress axis : x y z
#
# Youngs Moduli (GPa) = 72.75962 102.42611 81.33050
#
# Poissons Ratio (x) = 0.18361 -0.06474
# Poissons Ratio (y) = 0.13043 0.15726
# Poissons Ratio (z) = -0.05791 0.19805
#
# Static dielectric constant tensor:
#      x y z
#    x 2.042640 -0.079670 0.036910 
#    y -0.079670 1.973940 0.078600 
#    z 0.036910 0.078600 2.123110 
# 
# From -- ./inp_files/392765.got.cif
#   From: 2010.05.17/outbox.cif.g08.bks.cpg/sg2_197_cif.got.tgz:392765.got - 2010.06.03 11:33:40.
