data_PCOD9011335
_publ_section_title
;
Structure prediction by ZEFSAII (Michael W. Deem and Ramdas Pophale) SiO2 
 PCOD9011335
Probable space group: P -1
;
_chemical_formula_sum "Si O2"
_cell_formula_units_Z 16
_cell_length_a 9.248947
_cell_length_b 5.161562
_cell_length_c 17.249463
_cell_angle_alpha 83.944661
_cell_angle_beta 47.507721
_cell_angle_gamma 76.665934
_cell_volume 589.379850
_symmetry_space_group_name_H-M "P -1"
_symmetry_group_IT_number 2
_symmetry_cell_setting 'triclinic'
loop_
_space_group_symop_operation_xyz
x,y,z
-x,-y,-z
loop_
_atom_site_type_symbol
_atom_site_label
_atom_site_fract_x
_atom_site_fract_y
_atom_site_fract_z
Si Si1 0.647143 0.725875 0.898759
Si Si2 0.315934 0.633014 0.504880
Si Si3 0.977626 0.395326 0.688247
Si Si4 0.764080 0.023588 0.984984
Si Si5 0.390769 0.153594 0.378749
Si Si6 0.211537 0.354490 0.886328
Si Si7 0.337395 0.851866 0.254305
Si Si8 0.166892 0.106379 0.763869
O O1 0.808337 0.491946 0.811277
O O2 0.696715 0.797319 0.964904
O O3 0.668656 0.978899 0.828078
O O4 0.414183 0.721343 0.972634
O O5 0.500000 0.500000 0.500000
O O6 0.340811 0.921632 0.459856
O O7 0.100144 0.620563 0.619186
O O8 0.318004 0.438868 0.435536
O O9 0.852569 0.286396 0.670965
O O10 0.135757 0.169688 0.683268
O O11 0.773250 0.943308 0.073572
O O12 0.975515 0.031397 0.873489
O O13 0.326193 0.066807 0.320671
O O14 0.630562 0.105956 0.290895
O O15 0.447058 0.364316 0.813737
O O16 0.186717 0.358179 0.802765
O O17 0.000000 0.500000 0.000000
#
# Coordination Sequence:
#
# PCOD9011335 Si02
#       8
#     2   2   2   2   2   2   2   2
#     4  10  23  41  64 102 144 182 236 293 356 431
#     4  12  28  49  80 109 143 189 243 305 369 429
#     4  12  26  42  75  99 142 191 238 300 363 432
#     4  10  21  40  65  98 142 187 233 295 352 430
#     4  11  28  50  75 110 146 185 247 302 364 432
#     4  10  22  40  63  99 140 186 242 290 354 424
#     4  10  25  46  66 106 144 187 238 296 360 430
#     4  11  23  41  68 103 135 189 236 301 356 427
#
# _framework density 27.147179999999999
#
# number of rings (size 3 to 8) (size 9 to 14) (size 15 to 20)
#    0.000    1.250    2.500    1.500    7.000    3.500 
#    0.000    0.000    0.000    0.000    0.000    0.000 
#    0.000    0.000    0.000    0.000    0.000    0.000 
#
# Total GULP energy -89600.265186 kJ/mol
# GULP energy per Si atom -5600.016574 kJ/mol
# Density = 2.708539 g / cm^3
# Si number density = 27.147180 Si / 1000 Ang^3
#
#
#
# Elastic Constant Matrix: (Units=GPa)
#
#
# Indices 1 2 3 4 5 6 
#
# 1 153.0651 38.9398 36.1480 -6.5958 -4.8990 14.3069
# 2 38.9398 68.6370 17.6690 -2.7897 1.8034 12.9389
# 3 36.1480 17.6690 116.3459 -4.0042 -6.3426 12.4936
# 4 -6.5958 -2.7897 -4.0042 51.3767 16.3463 -0.8129
# 5 -4.8990 1.8034 -6.3426 16.3463 49.9542 -1.3981
# 6 14.3069 12.9389 12.4936 -0.8129 -1.3981 32.3796
#
#
#
# Elastic Compliance Matrix: (Units=1/GPa)
#
#
# Indices 1 2 3 4 5 6 
#
# 1 0.008094 -0.003889 -0.001737 0.000509 0.000510 -0.001317
# 2 -0.003889 0.018091 -0.001043 0.000823 -0.001581 -0.005156
# 3 -0.001737 -0.001043 0.009617 0.000119 0.000980 -0.002481
# 4 0.000509 0.000823 0.000119 0.021844 -0.007123 -0.000359
# 5 0.000510 -0.001581 0.000980 -0.007123 0.022604 0.000825
# 6 -0.001317 -0.005156 -0.002481 -0.000359 0.000825 0.034510
#
#
# Mechanical properties :
#
#
# Convention : Reuss Voigt Hill
#
# Bulk Modulus (GPa) = 44.51772 58.17350 51.34561
# Shear Modulus (GPa) = 36.87644 43.09485 39.98564
#
# Velocity S-wave (km/s) = 3.68963 3.98861 3.84203
# Velocity P-wave (km/s) = 5.88094 6.53356 6.21582
#
# Compressibility (1/GPa) = 0.02246297
#
# Stress axis : x y z
#
# Youngs Moduli (GPa) = 123.54368 55.27487 103.98007
#
# Poissons Ratio (x) = 0.21498 0.18066
# Poissons Ratio (y) = 0.48050 0.10848
# Poissons Ratio (z) = 0.21465 0.05767
#
# Static dielectric constant tensor:
#      x y z
#    x 2.144930 -0.004460 -0.021590 
#    y -0.004460 2.160230 0.003630 
#    z -0.021590 0.003630 2.087090 
# 
# From -- ./inp_files/399167.got.cif
#   From: 2010.05.17/outbox.cif.g08.bks.cpg/sg2_200_cif.got.tgz:399167.got - 2010.06.03 11:33:40.
