data_PCOD9011162
_publ_section_title
;
Structure prediction by ZEFSAII (Michael W. Deem and Ramdas Pophale) SiO2 
 PCOD9011162
Probable space group: P -1
;
_chemical_formula_sum "Si O2"
_cell_formula_units_Z 16
_cell_length_a 17.267068
_cell_length_b 19.902504
_cell_length_c 7.278111
_cell_angle_alpha 127.266015
_cell_angle_beta 59.468509
_cell_angle_gamma 160.318843
_cell_volume 652.118372
_symmetry_space_group_name_H-M "P -1"
_symmetry_group_IT_number 2
_symmetry_cell_setting 'triclinic'
loop_
_space_group_symop_operation_xyz
x,y,z
-x,-y,-z
loop_
_atom_site_type_symbol
_atom_site_label
_atom_site_fract_x
_atom_site_fract_y
_atom_site_fract_z
Si Si1 0.152912 0.510153 0.636872
Si Si2 0.721591 0.204836 0.205239
Si Si3 0.724241 0.567145 0.701635
Si Si4 0.343296 0.969791 0.677273
Si Si5 0.851432 0.034372 0.891429
Si Si6 0.212064 0.555759 0.065458
Si Si7 0.719156 0.752398 0.468372
Si Si8 0.163441 0.323529 0.673550
O O1 0.189479 0.622685 0.652028
O O2 0.286902 0.544283 0.452606
O O3 0.225713 0.592554 0.893909
O O4 0.877183 0.244423 0.539469
O O5 0.636529 0.091812 0.312980
O O6 0.952790 0.351235 0.112780
O O7 0.500000 0.000000 0.000000
O O8 0.470054 0.390364 0.697549
O O9 0.846355 0.684547 0.548031
O O10 0.897035 0.754535 0.957081
O O11 0.262549 0.981319 0.914046
O O12 0.582916 0.212333 0.703381
O O13 0.912366 0.097990 0.708062
O O14 0.699084 0.816960 0.733020
O O15 0.253936 0.492185 0.915716
O O16 0.690015 0.632469 0.377029
O O17 0.000000 0.000000 0.500000
#
# Coordination Sequence:
#
# PCOD9011162 Si02
#       8
#     2   2   2   2   2   2   2   2
#     4  10  23  42  64  95 126 165 220 264 322 389
#     4  12  24  41  68  94 127 174 211 265 331 385
#     4  10  22  40  64  91 130 166 214 273 316 390
#     4  11  23  43  66  92 130 170 213 269 324 386
#     4  10  21  42  65  92 129 172 215 266 331 386
#     4  11  23  44  64  91 134 167 214 269 324 387
#     4  10  22  38  64  94 127 172 217 265 327 389
#     4  10  21  40  65  93 126 170 214 266 326 382
#
# _framework density 24.535423000000002
#
# number of rings (size 3 to 8) (size 9 to 14) (size 15 to 20)
#    0.000    1.500    2.500    2.625    0.000    3.000 
#    2.250   12.500    0.000    0.000    0.000    0.000 
#    0.000    0.000    0.000    0.000    0.000    0.000 
#
# Total GULP energy -89501.463960 kJ/mol
# GULP energy per Si atom -5593.841498 kJ/mol
# Density = 2.447958 g / cm^3
# Si number density = 24.535423 Si / 1000 Ang^3
#
#
#
# Elastic Constant Matrix: (Units=GPa)
#
#
# Indices 1 2 3 4 5 6 
#
# 1 136.4952 33.7806 42.7576 18.9386 -39.1709 0.7667
# 2 33.7806 125.0887 37.1812 19.3359 -5.0801 6.7385
# 3 42.7576 37.1812 89.1015 17.2343 -19.4079 -3.1342
# 4 18.9386 19.3359 17.2343 39.2976 2.8267 0.7739
# 5 -39.1709 -5.0801 -19.4079 2.8267 53.8468 10.5478
# 6 0.7667 6.7385 -3.1342 0.7739 10.5478 38.3717
#
#
#
# Elastic Compliance Matrix: (Units=1/GPa)
#
#
# Indices 1 2 3 4 5 6 
#
# 1 0.011253 -0.001211 -0.002433 -0.004281 0.007867 -0.002287
# 2 -0.001211 0.009751 -0.003149 -0.002755 -0.000614 -0.001721
# 3 -0.002433 -0.003149 0.015325 -0.004269 0.003488 0.000981
# 4 -0.004281 -0.002755 -0.004269 0.031201 -0.006839 0.001471
# 5 0.007867 -0.000614 0.003488 -0.006839 0.027247 -0.007116
# 6 -0.002287 -0.001721 0.000981 0.001471 -0.007116 0.028415
#
#
# Mechanical properties :
#
#
# Convention : Reuss Voigt Hill
#
# Bulk Modulus (GPa) = 43.97288 64.23601 54.10445
# Shear Modulus (GPa) = 34.63578 42.10096 38.36837
#
# Velocity S-wave (km/s) = 3.76129 4.14687 3.95877
# Velocity P-wave (km/s) = 6.06829 7.01188 6.55708
#
# Compressibility (1/GPa) = 0.02274129
#
# Stress axis : x y z
#
# Youngs Moduli (GPa) = 88.86692 102.55236 65.25255
#
# Poissons Ratio (x) = 0.12421 0.15878
# Poissons Ratio (y) = 0.10763 0.20550
# Poissons Ratio (z) = 0.21624 0.32297
#
# Static dielectric constant tensor:
#      x y z
#    x 1.944180 0.020390 -0.031900 
#    y 0.020390 2.057410 -0.034480 
#    z -0.031900 -0.034480 1.926640 
# 
# From -- ./inp_files/337823.got.cif
#   From: 2010.05.17/outbox.cif.g08.bks.cpg/sg2_169_cif.got.tgz:337823.got - 2010.06.03 11:33:40.
