data_PCOD9011174
_publ_section_title
;
Structure prediction by ZEFSAII (Michael W. Deem and Ramdas Pophale) SiO2 
 PCOD9011174
Probable space group: P -1
;
_chemical_formula_sum "Si O2"
_cell_formula_units_Z 14
_cell_length_a 9.901352
_cell_length_b 23.953147
_cell_length_c 6.759263
_cell_angle_alpha 48.970910
_cell_angle_beta 134.379503
_cell_angle_gamma 145.651557
_cell_volume 633.941430
_symmetry_space_group_name_H-M "P -1"
_symmetry_group_IT_number 2
_symmetry_cell_setting 'triclinic'
loop_
_space_group_symop_operation_xyz
x,y,z
-x,-y,-z
loop_
_atom_site_type_symbol
_atom_site_label
_atom_site_fract_x
_atom_site_fract_y
_atom_site_fract_z
Si Si1 0.303328 0.510812 0.713199
Si Si2 0.946968 0.871375 0.111831
Si Si3 0.740013 0.359202 0.367019
Si Si4 0.656027 0.938319 0.724575
Si Si5 0.625228 0.212447 0.856404
Si Si6 0.592966 0.331158 0.837072
Si Si7 0.286251 0.885305 0.126459
O O1 0.287682 0.566868 0.742119
O O2 0.379985 0.582849 0.438882
O O3 0.020632 0.405541 0.615113
O O4 0.500000 0.500000 0.000000
O O5 0.709277 0.766173 0.213371
O O6 0.043602 0.861013 0.032658
O O7 0.844964 0.927701 0.848521
O O8 0.186795 0.945272 0.337338
O O9 0.537866 0.246997 0.514564
O O10 0.718914 0.359612 0.112746
O O11 0.423294 0.883694 0.460614
O O12 0.567175 0.883953 0.974304
O O13 0.721563 0.300355 0.907615
O O14 0.770345 0.188115 0.935129
O O15 0.500000 0.000000 0.000000
#
# Coordination Sequence:
#
# PCOD9011174 Si02
#       7
#     2   2   2   2   2   2   2
#     4  10  23  43  70 101 129 166 215 268 331 397
#     4  10  22  41  63  91 126 176 214 272 322 381
#     4  10  22  44  69  98 131 171 213 269 330 391
#     4  10  22  43  59  89 133 171 221 270 325 377
#     4  10  21  40  65  93 130 177 217 264 321 385
#     4  10  22  44  67  97 136 174 216 270 333 390
#     4  12  24  40  62  94 129 178 225 272 319 376
#
# _framework density 22.084059
#
# number of rings (size 3 to 8) (size 9 to 14) (size 15 to 20)
#    0.000    1.714    1.429    2.571    0.000    3.429 
#   10.286    1.429    0.000    0.000    0.000    0.000 
#    0.000    0.000    0.000    0.000    0.000    0.000 
#
# Total GULP energy -78108.095237 kJ/mol
# GULP energy per Si atom -5579.149660 kJ/mol
# Density = 2.203379 g / cm^3
# Si number density = 22.084059 Si / 1000 Ang^3
#
#
#
# Elastic Constant Matrix: (Units=GPa)
#
#
# Indices 1 2 3 4 5 6 
#
# 1 158.1340 36.8539 79.9788 6.0094 -16.7477 -18.0143
# 2 36.8539 81.5673 57.5826 -12.7121 -12.2486 5.3422
# 3 79.9788 57.5826 118.9866 4.1090 -13.7944 -10.6576
# 4 6.0094 -12.7121 4.1090 28.7985 2.2587 -2.8860
# 5 -16.7477 -12.2486 -13.7944 2.2587 36.9380 1.3924
# 6 -18.0143 5.3422 -10.6576 -2.8860 1.3924 32.7306
#
#
#
# Elastic Compliance Matrix: (Units=1/GPa)
#
#
# Indices 1 2 3 4 5 6 
#
# 1 0.010131 -0.000463 -0.005978 -0.001284 0.002154 0.003500
# 2 -0.000463 0.023305 -0.011659 0.011131 0.002747 -0.006990
# 3 -0.005978 -0.011659 0.018724 -0.006206 0.000639 0.004135
# 4 -0.001284 0.011131 -0.006206 0.040835 -0.001673 -0.000872
# 5 0.002154 0.002747 0.000639 -0.001673 0.029318 -0.000449
# 6 0.003500 -0.006990 0.004135 -0.000872 -0.000449 0.034908
#
#
# Mechanical properties :
#
#
# Convention : Reuss Voigt Hill
#
# Bulk Modulus (GPa) = 62.65990 78.61319 70.63655
# Shear Modulus (GPa) = 25.15856 31.97826 28.56841
#
# Velocity S-wave (km/s) = 3.37889 3.80942 3.60060
# Velocity P-wave (km/s) = 6.60738 7.41778 7.02428
#
# Compressibility (1/GPa) = 0.01595917
#
# Stress axis : x y z
#
# Youngs Moduli (GPa) = 98.70992 42.90960 53.40848
#
# Poissons Ratio (x) = 0.01987 0.31927
# Poissons Ratio (y) = 0.04570 0.62269
# Poissons Ratio (z) = 0.59008 0.50029
#
# Static dielectric constant tensor:
#      x y z
#    x 1.821410 0.011770 0.006050 
#    y 0.011770 1.872580 -0.009040 
#    z 0.006050 -0.009040 1.820110 
# 
# From -- ./inp_files/52595.got.cif
#   From: 2010.05.17/outbox.cif.g08.bks.cpg/sg2_27_cif.got.tgz:52595.got - 2010.06.03 11:33:40.
