data_PCOD9011536
_publ_section_title
;
Structure prediction by ZEFSAII (Michael W. Deem and Ramdas Pophale) SiO2 
 PCOD9011536
Probable space group: P -1
;
_chemical_formula_sum "Si O2"
_cell_formula_units_Z 12
_cell_length_a 9.962059
_cell_length_b 13.230509
_cell_length_c 9.777277
_cell_angle_alpha 35.033993
_cell_angle_beta 135.787947
_cell_angle_gamma 135.326009
_cell_volume 490.392604
_symmetry_space_group_name_H-M "P -1"
_symmetry_group_IT_number 2
_symmetry_cell_setting 'triclinic'
loop_
_space_group_symop_operation_xyz
x,y,z
-x,-y,-z
loop_
_atom_site_type_symbol
_atom_site_label
_atom_site_fract_x
_atom_site_fract_y
_atom_site_fract_z
Si Si1 0.603685 0.240091 0.362874
Si Si2 0.127974 0.083433 0.633217
Si Si3 0.787579 0.473874 0.751692
Si Si4 0.846245 0.971123 0.793534
Si Si5 0.493314 0.226706 0.594445
Si Si6 0.226575 0.465698 0.035613
O O1 0.756995 0.142491 0.515488
O O2 0.598165 0.183968 0.581339
O O3 0.707080 0.448303 0.159094
O O4 0.376188 0.182574 0.197167
O O5 0.157764 0.301020 0.451223
O O6 0.350181 0.078842 0.757796
O O7 0.997547 0.963145 0.791511
O O8 0.000000 0.000000 0.500000
O O9 0.637717 0.384008 0.620428
O O10 0.987310 0.416545 0.932821
O O11 0.703757 0.405796 0.918269
O O12 0.000000 0.000000 0.000000
O O13 0.333829 0.312698 0.309479
#
# Coordination Sequence:
#
# PCOD9011536 Si02
#       6
#     2   2   2   2   2   2
#     4  11  24  44  64 100 131 169 217 271 318 389
#     4  11  21  45  67  92 132 171 217 266 314 389
#     4  10  23  41  67  99 128 172 215 267 322 386
#     4  11  26  44  66  93 135 175 215 265 328 380
#     4  11  24  41  70 101 128 168 219 264 328 383
#     4  10  21  40  66  94 134 166 212 270 323 374
#
# _framework density 24.470189000000001
#
# number of rings (size 3 to 8) (size 9 to 14) (size 15 to 20)
#    0.000    1.333    3.333    2.500    4.667    2.000 
#    3.000    0.833    0.000    0.000    0.000    0.000 
#    0.000    0.000    0.000    0.000    0.000    0.000 
#
# Total GULP energy -66892.422680 kJ/mol
# GULP energy per Si atom -5574.368557 kJ/mol
# Density = 2.441449 g / cm^3
# Si number density = 24.470189 Si / 1000 Ang^3
#
#
#
# Elastic Constant Matrix: (Units=GPa)
#
#
# Indices 1 2 3 4 5 6 
#
# 1 116.3215 3.1716 28.2788 12.9495 -22.7443 6.2632
# 2 3.1716 96.1878 25.6323 39.1016 -2.3452 -1.4535
# 3 28.2788 25.6323 69.3142 28.1762 18.7188 10.1974
# 4 12.9495 39.1016 28.1762 34.8797 -11.7710 -0.6617
# 5 -22.7443 -2.3452 18.7188 -11.7710 37.1076 6.3791
# 6 6.2632 -1.4535 10.1974 -0.6617 6.3791 27.2211
#
#
#
# Elastic Compliance Matrix: (Units=1/GPa)
#
#
# Indices 1 2 3 4 5 6 
#
# 1 0.022865 -0.010217 -0.040604 0.052900 0.050842 -0.001224
# 2 -0.010217 0.030540 0.035935 -0.075069 -0.046190 -0.000481
# 3 -0.040604 0.035935 0.131127 -0.180036 -0.144430 -0.008391
# 4 0.052900 -0.075069 -0.180036 0.311652 0.215942 0.008235
# 5 0.050842 -0.046190 -0.144430 0.215942 0.196705 -0.000906
# 6 -0.001224 -0.000481 -0.008391 0.008235 -0.000906 0.040548
#
#
# Mechanical properties :
#
#
# Convention : Reuss Voigt Hill
#
# Bulk Modulus (GPa) = 6.46166 43.99875 25.23021
# Shear Modulus (GPa) = 6.13650 34.82440 20.48045
#
# Velocity S-wave (km/s) = 1.58530 3.77654 2.89616
# Velocity P-wave (km/s) = 2.44893 6.08571 4.63860
#
# Compressibility (1/GPa) = 0.15475903
#
# Stress axis : x y z
#
# Youngs Moduli (GPa) = 43.73574 32.74348 7.62618
#
# Poissons Ratio (x) = 0.33455 0.30965
# Poissons Ratio (y) = 0.44686 -0.27404
# Poissons Ratio (z) = 1.77585 -1.17662
#
# Static dielectric constant tensor:
#      x y z
#    x 2.045480 0.002080 -0.077690 
#    y 0.002080 2.013650 -0.073950 
#    z -0.077690 -0.073950 2.006730 
# 
# From -- ./inp_files/184583.got.cif
#   From: 2010.05.17/outbox.cif.g08.bks.cpg/sg2_93_cif.got.tgz:184583.got - 2010.06.03 11:33:40.
