data_PCOD9011603
_publ_section_title
;
Structure prediction by ZEFSAII (Michael W. Deem and Ramdas Pophale) SiO2 
 PCOD9011603
Probable space group: P -1
;
_chemical_formula_sum "Si O2"
_cell_formula_units_Z 16
_cell_length_a 14.608295
_cell_length_b 5.224372
_cell_length_c 11.470415
_cell_angle_alpha 127.059776
_cell_angle_beta 90.527529
_cell_angle_gamma 109.384143
_cell_volume 633.020676
_symmetry_space_group_name_H-M "P -1"
_symmetry_group_IT_number 2
_symmetry_cell_setting 'triclinic'
loop_
_space_group_symop_operation_xyz
x,y,z
-x,-y,-z
loop_
_atom_site_type_symbol
_atom_site_label
_atom_site_fract_x
_atom_site_fract_y
_atom_site_fract_z
Si Si1 0.070457 0.865176 0.039658
Si Si2 0.342085 0.690174 0.907550
Si Si3 0.836167 0.364524 0.237817
Si Si4 0.672418 0.264420 0.841388
Si Si5 0.895352 0.158773 0.422986
Si Si6 0.581639 0.459601 0.576565
Si Si7 0.224698 0.523386 0.348625
Si Si8 0.486145 0.525159 0.176269
O O1 0.135584 0.130707 0.216952
O O2 0.138874 0.804441 0.923323
O O3 0.000000 0.500000 0.000000
O O4 0.000000 0.000000 0.000000
O O5 0.276087 0.664407 0.788178
O O6 0.404913 0.460454 0.832407
O O7 0.276017 0.572119 0.992524
O O8 0.413457 0.107587 0.043250
O O9 0.845183 0.171652 0.301425
O O10 0.902631 0.791170 0.349133
O O11 0.726948 0.416771 0.763926
O O12 0.563426 0.282538 0.853882
O O13 0.651564 0.863011 0.724384
O O14 0.831983 0.239271 0.546601
O O15 0.000000 0.500000 0.500000
O O16 0.500000 0.500000 0.500000
O O17 0.676690 0.362674 0.533295
O O18 0.521130 0.306687 0.653356
#
# Coordination Sequence:
#
# PCOD9011603 Si02
#       8
#     2   2   2   2   2   2   2   2
#     4  12  27  48  81 111 141 189 251 308 374 442
#     4  10  22  38  67  99 141 179 241 301 363 420
#     4  12  27  47  75 110 142 187 246 302 360 447
#     4  10  21  40  66  96 139 185 246 303 357 428
#     4  12  29  51  72 105 152 193 238 304 378 440
#     4  10  23  39  65  95 142 186 246 290 361 444
#     4  11  27  45  74 104 147 194 243 309 374 438
#     4   9  20  39  60  99 135 187 230 305 355 420
#
# _framework density 25.275635999999999
#
# number of rings (size 3 to 8) (size 9 to 14) (size 15 to 20)
#    0.000    1.250    0.000    5.250   10.500    3.000 
#    0.000    0.000    0.000    0.000    0.000    0.000 
#    0.000    0.000    0.000    0.000    0.000    0.000 
#
# Total GULP energy -89366.976225 kJ/mol
# GULP energy per Si atom -5585.436014 kJ/mol
# Density = 2.521811 g / cm^3
# Si number density = 25.275636 Si / 1000 Ang^3
#
#
#
# Elastic Constant Matrix: (Units=GPa)
#
#
# Indices 1 2 3 4 5 6 
#
# 1 98.4554 -2.6205 15.6032 -7.4698 1.0744 -9.9872
# 2 -2.6205 53.2250 8.1989 -8.9004 6.2385 -8.4989
# 3 15.6032 8.1989 98.7414 1.1214 3.6285 1.4781
# 4 -7.4698 -8.9004 1.1214 40.0935 -9.6566 6.3099
# 5 1.0744 6.2385 3.6285 -9.6566 48.8711 0.8873
# 6 -9.9872 -8.4989 1.4781 6.3099 0.8873 31.1168
#
#
#
# Elastic Compliance Matrix: (Units=1/GPa)
#
#
# Indices 1 2 3 4 5 6 
#
# 1 0.011039 0.001764 -0.001968 0.001913 -0.000011 0.003731
# 2 0.001764 0.020945 -0.002074 0.003674 -0.001936 0.005696
# 3 -0.001968 -0.002074 0.010669 -0.001054 -0.000666 -0.001472
# 4 0.001913 0.003674 -0.001054 0.028048 0.005185 -0.004168
# 5 -0.000011 -0.001936 -0.000666 0.005185 0.021823 -0.002175
# 6 0.003731 0.005696 -0.001472 -0.004168 -0.002175 0.035867
#
#
# Mechanical properties :
#
#
# Convention : Reuss Voigt Hill
#
# Bulk Modulus (GPa) = 26.24840 32.53167 29.39003
# Shear Modulus (GPa) = 34.32962 39.29896 36.81429
#
# Velocity S-wave (km/s) = 3.68939 3.94739 3.82057
# Velocity P-wave (km/s) = 5.34380 5.80298 5.57812
#
# Compressibility (1/GPa) = 0.03809757
#
# Stress axis : x y z
#
# Youngs Moduli (GPa) = 90.58410 47.74387 93.72845
#
# Poissons Ratio (x) = -0.08421 0.18446
# Poissons Ratio (y) = -0.15976 0.19436
# Poissons Ratio (z) = 0.17828 0.09901
#
# Static dielectric constant tensor:
#      x y z
#    x 1.981460 0.077750 -0.050740 
#    y 0.077750 2.051430 0.049650 
#    z -0.050740 0.049650 1.937830 
# 
# From -- ./inp_files/340544.got.cif
#   From: 2010.05.17/outbox.cif.g08.bks.cpg/sg2_171_cif.got.tgz:340544.got - 2010.06.03 11:33:40.
