data_PCOD9011581
_publ_section_title
;
Structure prediction by ZEFSAII (Michael W. Deem and Ramdas Pophale) SiO2 
 PCOD9011581
Probable space group: P -1
;
_chemical_formula_sum "Si O2"
_cell_formula_units_Z 12
_cell_length_a 5.193915
_cell_length_b 10.804700
_cell_length_c 10.596635
_cell_angle_alpha 103.395734
_cell_angle_beta 69.694801
_cell_angle_gamma 98.676045
_cell_volume 540.921361
_symmetry_space_group_name_H-M "P -1"
_symmetry_group_IT_number 2
_symmetry_cell_setting 'triclinic'
loop_
_space_group_symop_operation_xyz
x,y,z
-x,-y,-z
loop_
_atom_site_type_symbol
_atom_site_label
_atom_site_fract_x
_atom_site_fract_y
_atom_site_fract_z
Si Si1 0.630929 0.460356 0.819364
Si Si2 0.779507 0.923524 0.110928
Si Si3 0.902250 0.685326 0.191946
Si Si4 0.229312 0.816972 0.731750
Si Si5 0.465030 0.625306 0.452278
Si Si6 0.604159 0.756244 0.880714
O O1 0.312991 0.409871 0.869943
O O2 0.706363 0.425204 0.653490
O O3 0.655149 0.610531 0.866076
O O4 0.817067 0.379095 0.855092
O O5 0.907245 0.819941 0.153554
O O6 0.664286 0.033832 0.241855
O O7 0.577207 0.844791 0.029134
O O8 0.000000 0.000000 0.000000
O O9 0.748325 0.685134 0.354064
O O10 0.335528 0.732386 0.581737
O O11 0.351929 0.760955 0.827538
O O12 0.897536 0.807769 0.781574
O O13 0.500000 0.500000 0.500000
#
# Coordination Sequence:
#
# PCOD9011581 Si02
#       6
#     2   2   2   2   2   2
#     4  10  22  39  63 101 123 158 205 264 319 360
#     4  10  25  46  64  88 129 174 213 252 305 375
#     4  10  24  40  63  99 126 161 210 258 314 371
#     4  11  23  38  66  93 123 170 211 250 311 374
#     4  10  21  40  66  96 128 158 204 262 318 372
#     4  11  22  40  65  94 123 166 213 256 310 372
#
# _framework density 22.184369
#
# number of rings (size 3 to 8) (size 9 to 14) (size 15 to 20)
#    1.000    0.667    1.667    2.500    2.333    8.667 
#    0.000    0.833    0.000    0.000    0.000    0.000 
#    0.000    0.000    0.000    0.000    0.000    0.000 
#
# Total GULP energy -67009.802540 kJ/mol
# GULP energy per Si atom -5584.150212 kJ/mol
# Density = 2.213388 g / cm^3
# Si number density = 22.184369 Si / 1000 Ang^3
#
#
#
# Elastic Constant Matrix: (Units=GPa)
#
#
# Indices 1 2 3 4 5 6 
#
# 1 63.4055 3.2144 8.6984 -9.9009 0.3292 -4.4103
# 2 3.2144 142.0738 48.0856 5.2659 12.1457 2.0357
# 3 8.6984 48.0856 123.4291 26.0251 6.4618 6.0335
# 4 -9.9009 5.2659 26.0251 51.2831 0.2887 11.7454
# 5 0.3292 12.1457 6.4618 0.2887 24.3879 -4.2469
# 6 -4.4103 2.0357 6.0335 11.7454 -4.2469 30.8273
#
#
#
# Elastic Compliance Matrix: (Units=1/GPa)
#
#
# Indices 1 2 3 4 5 6 
#
# 1 0.016782 0.000150 -0.002179 0.004018 0.000464 0.001350
# 2 0.000150 0.008417 -0.003287 0.001026 -0.003467 -0.000760
# 3 -0.002179 -0.003287 0.010765 -0.005476 -0.001169 -0.000276
# 4 0.004018 0.001026 -0.005476 0.024779 -0.000796 -0.007972
# 5 0.000464 -0.003467 -0.001169 -0.000796 0.044249 0.006923
# 6 0.001350 -0.000760 -0.000276 -0.007972 0.006923 0.036727
#
#
# Mechanical properties :
#
#
# Convention : Reuss Voigt Hill
#
# Bulk Modulus (GPa) = 39.47600 49.87834 44.67717
# Shear Modulus (GPa) = 31.09514 39.22700 35.16107
#
# Velocity S-wave (km/s) = 3.74795 4.20959 3.98546
# Velocity P-wave (km/s) = 6.04670 6.79411 6.43127
#
# Compressibility (1/GPa) = 0.02533185
#
# Stress axis : x y z
#
# Youngs Moduli (GPa) = 59.58853 118.80540 92.88940
#
# Poissons Ratio (x) = -0.01779 0.20236
# Poissons Ratio (y) = -0.00892 0.30537
# Poissons Ratio (z) = 0.12982 0.39057
#
# Static dielectric constant tensor:
#      x y z
#    x 1.818640 0.028460 -0.007890 
#    y 0.028460 1.804220 -0.021220 
#    z -0.007890 -0.021220 1.883140 
# 
# From -- ./inp_files/72981.got.cif
#   From: 2010.05.17/outbox.cif.g08.bks.cpg/sg2_37_cif.got.tgz:72981.got - 2010.06.03 11:33:40.
