data_PCOD9011250
_publ_section_title
;
Structure prediction by ZEFSAII (Michael W. Deem and Ramdas Pophale) SiO2 
 PCOD9011250
Probable space group: P -1
;
_chemical_formula_sum "Si O2"
_cell_formula_units_Z 16
_cell_length_a 8.000542
_cell_length_b 23.647251
_cell_length_c 8.538654
_cell_angle_alpha 55.782580
_cell_angle_beta 34.110157
_cell_angle_gamma 54.273563
_cell_volume 724.310966
_symmetry_space_group_name_H-M "P -1"
_symmetry_group_IT_number 2
_symmetry_cell_setting 'triclinic'
loop_
_space_group_symop_operation_xyz
x,y,z
-x,-y,-z
loop_
_atom_site_type_symbol
_atom_site_label
_atom_site_fract_x
_atom_site_fract_y
_atom_site_fract_z
Si Si1 0.424141 0.038784 0.332627
Si Si2 0.107625 0.291637 0.863755
Si Si3 0.917858 0.450078 0.779578
Si Si4 0.205376 0.705999 0.575576
Si Si5 0.269927 0.178074 0.410211
Si Si6 0.045172 0.829661 0.026347
Si Si7 0.846855 0.983184 0.825362
Si Si8 0.568455 0.451505 0.367444
O O1 0.331076 0.121984 0.310008
O O2 0.500000 0.000000 0.500000
O O3 0.131829 0.017026 0.512342
O O4 0.739444 0.016738 0.026629
O O5 0.453414 0.288291 0.655707
O O6 0.912817 0.372093 0.843583
O O7 0.958609 0.273241 0.165439
O O8 0.076429 0.234404 0.849620
O O9 0.000000 0.500000 0.500000
O O10 0.242452 0.433856 0.637903
O O11 0.668871 0.476355 0.075843
O O12 0.199405 0.625034 0.668864
O O13 0.011245 0.756114 0.518090
O O14 0.593165 0.195054 0.174420
O O15 0.154798 0.144717 0.703909
O O16 0.985122 0.898638 0.855814
O O17 0.500000 0.000000 0.000000
O O18 0.500000 0.500000 0.500000
#
# Coordination Sequence:
#
# PCOD9011250 Si02
#       8
#     2   2   2   2   2   2   2   2
#     4  12  23  44  63  89 128 165 209 266 318 367
#     4  10  23  42  64  89 131 167 207 266 315 381
#     4  10  21  40  65  96 128 169 215 259 330 389
#     4  10  23  42  63  92 124 170 211 254 326 382
#     4  12  25  40  66  91 125 168 212 260 320 379
#     4  12  24  42  61  94 126 163 214 264 313 377
#     4  12  26  41  63  94 124 164 217 261 315 377
#     4  10  21  40  65  95 130 165 213 271 318 387
#
# _framework density 22.089957999999999
#
# number of rings (size 3 to 8) (size 9 to 14) (size 15 to 20)
#    0.000    1.000    2.500    3.750    3.500    1.000 
#    0.000    2.500    0.000    0.000    0.000    0.000 
#    0.000    0.000    0.000    0.000    0.000    0.000 
#
# Total GULP energy -89128.851823 kJ/mol
# GULP energy per Si atom -5570.553239 kJ/mol
# Density = 2.203968 g / cm^3
# Si number density = 22.089958 Si / 1000 Ang^3
#
#
#
# Elastic Constant Matrix: (Units=GPa)
#
#
# Indices 1 2 3 4 5 6 
#
# 1 80.8137 44.6575 20.4727 -4.7702 -31.2799 4.4903
# 2 44.6575 105.3199 10.0867 -6.9275 -0.5521 16.2610
# 3 20.4727 10.0867 145.3766 18.7177 -13.9571 2.6774
# 4 -4.7702 -6.9275 18.7177 34.4023 -0.6509 0.8393
# 5 -31.2799 -0.5521 -13.9571 -0.6509 33.8948 6.4746
# 6 4.4903 16.2610 2.6774 0.8393 6.4746 26.3057
#
#
#
# Elastic Compliance Matrix: (Units=1/GPa)
#
#
# Indices 1 2 3 4 5 6 
#
# 1 0.030788 -0.011819 -0.001061 0.003134 0.028804 -0.005031
# 2 -0.011819 0.015392 -0.000468 0.001653 -0.009847 -0.005079
# 3 -0.001061 -0.000468 0.007871 -0.004462 0.002313 -0.000758
# 4 0.003134 0.001653 -0.004462 0.032370 0.002216 -0.002681
# 5 0.028804 -0.009847 0.002313 0.002216 0.059555 -0.013794
# 6 -0.005031 -0.005079 -0.000758 -0.002681 -0.013794 0.045570
#
#
# Mechanical properties :
#
#
# Convention : Reuss Voigt Hill
#
# Bulk Modulus (GPa) = 36.55724 53.54936 45.05330
# Shear Modulus (GPa) = 21.99143 36.00678 28.99910
#
# Velocity S-wave (km/s) = 3.15864 4.04171 3.62715
# Velocity P-wave (km/s) = 5.46698 6.78784 6.16290
#
# Compressibility (1/GPa) = 0.02735437
#
# Stress axis : x y z
#
# Youngs Moduli (GPa) = 32.48059 64.96690 127.04697
#
# Poissons Ratio (x) = 0.76784 0.13481
# Poissons Ratio (y) = 0.38389 0.05949
# Poissons Ratio (z) = 0.03447 0.03042
#
# Static dielectric constant tensor:
#      x y z
#    x 1.868700 -0.014530 0.053890 
#    y -0.014530 1.847930 -0.083410 
#    z 0.053890 -0.083410 1.758820 
# 
# From -- ./inp_files/226042.got.cif
#   From: 2010.05.17/outbox.cif.g08.bks.cpg/sg2_114_cif.got.tgz:226042.got - 2010.06.03 11:33:40.
