data_PCOD9011083
_publ_section_title
;
Structure prediction by ZEFSAII (Michael W. Deem and Ramdas Pophale) SiO2 
 PCOD9011083
Probable space group: P -1
;
_chemical_formula_sum "Si O2"
_cell_formula_units_Z 16
_cell_length_a 5.353096
_cell_length_b 17.711122
_cell_length_c 9.681265
_cell_angle_alpha 98.086944
_cell_angle_beta 134.412195
_cell_angle_gamma 89.119060
_cell_volume 644.645537
_symmetry_space_group_name_H-M "P -1"
_symmetry_group_IT_number 2
_symmetry_cell_setting 'triclinic'
loop_
_space_group_symop_operation_xyz
x,y,z
-x,-y,-z
loop_
_atom_site_type_symbol
_atom_site_label
_atom_site_fract_x
_atom_site_fract_y
_atom_site_fract_z
Si Si1 0.731519 0.420938 0.485863
Si Si2 0.833839 0.951907 0.624807
Si Si3 0.954152 0.691772 0.771934
Si Si4 0.256218 0.546571 0.824435
Si Si5 0.509504 0.156229 0.742522
Si Si6 0.067383 0.277117 0.538054
Si Si7 0.753825 0.897100 0.085718
Si Si8 0.596761 0.827952 0.730270
O O1 0.404918 0.365502 0.402108
O O2 0.649697 0.442037 0.299984
O O3 0.043085 0.364990 0.588307
O O4 0.881094 0.493247 0.653256
O O5 0.805544 0.904947 0.459120
O O6 0.764506 0.887010 0.697533
O O7 0.500000 0.000000 0.500000
O O8 0.149989 0.014886 0.808115
O O9 0.844336 0.760309 0.840357
O O10 0.225091 0.631301 0.895518
O O11 0.045285 0.727662 0.667310
O O12 0.500000 0.500000 0.000000
O O13 0.869628 0.133340 0.812092
O O14 0.424008 0.240555 0.688827
O O15 0.459220 0.146147 0.883510
O O16 0.759671 0.219868 0.476434
O O17 0.547837 0.878314 0.859056
#
# Coordination Sequence:
#
# PCOD9011083 Si02
#       8
#     2   2   2   2   2   2   2   2
#     4   9  21  40  63  95 131 168 221 269 333 407
#     4  10  21  43  67  93 127 178 227 278 339 409
#     4  10  21  40  65  90 130 174 216 267 342 398
#     4  10  21  40  66  97 128 170 216 273 334 403
#     4  11  23  43  65  95 133 177 228 277 339 411
#     4  10  21  40  66  88 130 180 217 270 334 402
#     4  11  26  40  64 100 134 171 231 289 343 399
#     4  11  23  42  64  94 133 173 222 284 342 397
#
# _framework density 24.819839000000002
#
# number of rings (size 3 to 8) (size 9 to 14) (size 15 to 20)
#    0.000    1.750    1.250    2.625    3.500    2.500 
#    4.500    3.750    0.000    0.000    0.000    0.000 
#    0.000    0.000    0.000    0.000    0.000    0.000 
#
# Total GULP energy -89467.243275 kJ/mol
# GULP energy per Si atom -5591.702705 kJ/mol
# Density = 2.476335 g / cm^3
# Si number density = 24.819839 Si / 1000 Ang^3
#
#
#
# Elastic Constant Matrix: (Units=GPa)
#
#
# Indices 1 2 3 4 5 6 
#
# 1 80.6558 27.7395 18.9079 -12.9285 0.3746 -2.6367
# 2 27.7395 144.6948 30.9896 -13.1561 -2.2886 -25.0552
# 3 18.9079 30.9896 80.5485 -2.1722 -0.6450 -5.7963
# 4 -12.9285 -13.1561 -2.1722 42.2790 -9.3240 2.4030
# 5 0.3746 -2.2886 -0.6450 -9.3240 34.4295 3.9794
# 6 -2.6367 -25.0552 -5.7963 2.4030 3.9794 48.9505
#
#
#
# Elastic Compliance Matrix: (Units=1/GPa)
#
#
# Indices 1 2 3 4 5 6 
#
# 1 0.014255 -0.001965 -0.002537 0.003838 0.000798 -0.000792
# 2 -0.001965 0.008689 -0.002545 0.001885 0.000611 0.003898
# 3 -0.002537 -0.002545 0.013984 -0.000899 -0.000155 0.000273
# 4 0.003838 0.001885 -0.000899 0.027070 0.007499 -0.000873
# 5 0.000798 0.000611 -0.000155 0.007499 0.031403 -0.002583
# 6 -0.000792 0.003898 0.000273 -0.000873 -0.002583 0.022667
#
#
# Mechanical properties :
#
#
# Convention : Reuss Voigt Hill
#
# Bulk Modulus (GPa) = 43.79742 51.24148 47.51945
# Shear Modulus (GPa) = 35.77229 40.34927 38.06078
#
# Velocity S-wave (km/s) = 3.80054 4.03635 3.92022
# Velocity P-wave (km/s) = 6.07809 6.51253 6.29906
#
# Compressibility (1/GPa) = 0.02283239
#
# Stress axis : x y z
#
# Youngs Moduli (GPa) = 70.15311 115.08783 71.51053
#
# Poissons Ratio (x) = 0.22613 0.18144
# Poissons Ratio (y) = 0.13784 0.18203
# Poissons Ratio (z) = 0.17800 0.29295
#
# Static dielectric constant tensor:
#      x y z
#    x 2.043420 -0.061190 0.062430 
#    y -0.061190 1.959420 -0.011170 
#    z 0.062430 -0.011170 1.993270 
# 
# From -- ./inp_files/139097.got.cif
#   From: 2010.05.17/outbox.cif.g08.bks.cpg/sg2_70_cif.got.tgz:139097.got - 2010.06.03 11:33:40.
