data_PCOD9011356
_publ_section_title
;
Structure prediction by ZEFSAII (Michael W. Deem and Ramdas Pophale) SiO2 
 PCOD9011356
Probable space group: P -1
;
_chemical_formula_sum "Si O2"
_cell_formula_units_Z 16
_cell_length_a 12.210002
_cell_length_b 9.249039
_cell_length_c 9.708793
_cell_angle_alpha 58.433438
_cell_angle_beta 127.497250
_cell_angle_gamma 117.809682
_cell_volume 723.216269
_symmetry_space_group_name_H-M "P -1"
_symmetry_group_IT_number 2
_symmetry_cell_setting 'triclinic'
loop_
_space_group_symop_operation_xyz
x,y,z
-x,-y,-z
loop_
_atom_site_type_symbol
_atom_site_label
_atom_site_fract_x
_atom_site_fract_y
_atom_site_fract_z
Si Si1 0.446609 0.543655 0.659160
Si Si2 0.313997 0.185120 0.387819
Si Si3 0.153562 0.107544 0.020898
Si Si4 0.009448 0.301280 0.604479
Si Si5 0.317781 0.977965 0.980728
Si Si6 0.400188 0.728443 0.976688
Si Si7 0.304866 0.807207 0.586864
Si Si8 0.193777 0.216701 0.560710
O O1 0.556757 0.649516 0.581191
O O2 0.386374 0.690724 0.618810
O O3 0.314463 0.392430 0.589280
O O4 0.540413 0.442939 0.875150
O O5 0.197434 0.181786 0.419102
O O6 0.373558 0.010956 0.537621
O O7 0.245166 0.182239 0.186005
O O8 0.125492 0.256577 0.820328
O O9 0.233032 0.987000 0.050703
O O10 0.000000 0.000000 0.000000
O O11 0.054339 0.245137 0.516396
O O12 0.000000 0.500000 0.500000
O O13 0.854253 0.200260 0.580763
O O14 0.240989 0.059854 0.756739
O O15 0.340904 0.792591 0.040531
O O16 0.467268 0.114729 0.038778
O O17 0.294149 0.725423 0.771799
#
# Coordination Sequence:
#
# PCOD9011356 Si02
#       8
#     2   2   2   2   2   2   2   2
#     4  11  24  41  66  99 139 169 214 282 327 382
#     4  12  25  43  65 102 135 170 220 271 334 390
#     4  11  24  44  65  97 132 172 215 271 331 384
#     4  11  24  45  70  92 131 174 222 264 325 394
#     4   9  20  41  68  92 134 170 214 270 322 393
#     4  10  21  40  66 101 124 172 225 264 323 382
#     4  12  23  41  70  97 130 176 222 266 331 395
#     4  10  22  45  69  96 132 177 218 267 326 395
#
# _framework density 22.123397000000001
#
# number of rings (size 3 to 8) (size 9 to 14) (size 15 to 20)
#    0.000    1.250    3.750    1.875    1.750    1.500 
#    4.500    0.625    0.000    0.000    0.000    0.000 
#    0.000    0.000    0.000    0.000    0.000    0.000 
#
# Total GULP energy -89457.783349 kJ/mol
# GULP energy per Si atom -5591.111459 kJ/mol
# Density = 2.207304 g / cm^3
# Si number density = 22.123397 Si / 1000 Ang^3
#
#
#
# Elastic Constant Matrix: (Units=GPa)
#
#
# Indices 1 2 3 4 5 6 
#
# 1 130.3153 27.6179 31.6438 4.9908 -6.9981 -32.0510
# 2 27.6179 58.0206 22.6184 -13.1306 -1.0930 -8.8759
# 3 31.6438 22.6184 82.4631 -0.9615 3.3774 -24.8662
# 4 4.9908 -13.1306 -0.9615 24.9328 -8.2071 -3.8096
# 5 -6.9981 -1.0930 3.3774 -8.2071 32.5094 1.1046
# 6 -32.0510 -8.8759 -24.8662 -3.8096 1.1046 39.4832
#
#
#
# Elastic Compliance Matrix: (Units=1/GPa)
#
#
# Indices 1 2 3 4 5 6 
#
# 1 0.010668 -0.004327 -0.000955 -0.003003 0.001262 0.006761
# 2 -0.004327 0.024823 -0.005081 0.015176 0.004255 0.000213
# 3 -0.000955 -0.005081 0.016522 -0.001466 -0.002749 0.008424
# 4 -0.003003 0.015176 -0.001466 0.053811 0.013435 0.004867
# 5 0.001262 0.004255 -0.002749 0.013435 0.034833 0.000572
# 6 0.006761 0.000213 0.008424 0.004867 0.000572 0.036622
#
#
# Mechanical properties :
#
#
# Convention : Reuss Voigt Hill
#
# Bulk Modulus (GPa) = 31.96229 48.28436 40.12332
# Shear Modulus (GPa) = 23.98817 31.97968 27.98392
#
# Velocity S-wave (km/s) = 3.29643 3.80612 3.56040
# Velocity P-wave (km/s) = 5.38212 6.41777 5.92263
#
# Compressibility (1/GPa) = 0.03128687
#
# Stress axis : x y z
#
# Youngs Moduli (GPa) = 93.73560 40.28499 60.52390
#
# Poissons Ratio (x) = 0.17433 0.05779
# Poissons Ratio (y) = 0.40563 0.30754
# Poissons Ratio (z) = 0.08950 0.20470
#
# Static dielectric constant tensor:
#      x y z
#    x 1.812540 0.017170 -0.018670 
#    y 0.017170 1.821020 0.012200 
#    z -0.018670 0.012200 1.815470 
# 
# From -- ./inp_files/181872.got.cif
#   From: 2010.05.17/outbox.cif.g08.bks.cpg/sg2_91_cif.got.tgz:181872.got - 2010.06.03 11:33:40.
