data_PCOD9011175
_publ_section_title
;
Structure prediction by ZEFSAII (Michael W. Deem and Ramdas Pophale) SiO2 
 PCOD9011175
Probable space group: P -1
;
_chemical_formula_sum "Si O2"
_cell_formula_units_Z 14
_cell_length_a 10.768689
_cell_length_b 5.423816
_cell_length_c 10.753234
_cell_angle_alpha 61.630913
_cell_angle_beta 85.488857
_cell_angle_gamma 109.213608
_cell_volume 500.546507
_symmetry_space_group_name_H-M "P -1"
_symmetry_group_IT_number 2
_symmetry_cell_setting 'triclinic'
loop_
_space_group_symop_operation_xyz
x,y,z
-x,-y,-z
loop_
_atom_site_type_symbol
_atom_site_label
_atom_site_fract_x
_atom_site_fract_y
_atom_site_fract_z
Si Si1 0.627351 0.570268 0.059253
Si Si2 0.814103 0.797235 0.774335
Si Si3 0.194014 0.908392 0.946084
Si Si4 0.385600 0.000139 0.684716
Si Si5 0.156671 0.642013 0.500769
Si Si6 0.338616 0.425380 0.408000
Si Si7 0.965195 0.694708 0.193139
O O1 0.675671 0.918535 0.018441
O O2 0.593330 0.314262 0.229954
O O3 0.500000 0.500000 0.000000
O O4 0.736521 0.570529 0.946040
O O5 0.764507 0.611665 0.691935
O O6 0.768657 0.063357 0.663353
O O7 0.953398 0.030203 0.778355
O O8 0.252198 0.913059 0.804647
O O9 0.136140 0.177994 0.889750
O O10 0.069665 0.654237 0.095364
O O11 0.372607 0.138799 0.518577
O O12 0.517611 0.274871 0.673348
O O13 0.245518 0.450525 0.522641
O O14 0.119768 0.623247 0.653333
O O15 0.000000 0.500000 0.500000
#
# Coordination Sequence:
#
# PCOD9011175 Si02
#       7
#     2   2   2   2   2   2   2
#     4  11  24  42  65  95 125 173 220 263 325 387
#     4  10  23  40  65  96 128 169 216 260 321 381
#     4  10  21  43  65  92 134 164 217 265 323 381
#     4  11  25  42  68  95 131 172 212 274 324 381
#     4  10  21  40  65  93 131 170 210 261 320 378
#     4  11  24  42  64 101 130 165 220 265 324 386
#     4   9  20  40  65  94 127 172 212 261 316 385
#
# _framework density 27.969429999999999
#
# number of rings (size 3 to 8) (size 9 to 14) (size 15 to 20)
#    0.000    1.714    1.429    1.714    2.000    8.000 
#    0.000   11.429    0.000    0.000    0.000    0.000 
#    0.000    0.000    0.000    0.000    0.000    0.000 
#
# Total GULP energy -78043.731973 kJ/mol
# GULP energy per Si atom -5574.552284 kJ/mol
# Density = 2.790577 g / cm^3
# Si number density = 27.969430 Si / 1000 Ang^3
#
#
#
# Elastic Constant Matrix: (Units=GPa)
#
#
# Indices 1 2 3 4 5 6 
#
# 1 66.6498 10.4929 26.6814 7.6521 -16.2402 15.3016
# 2 10.4929 104.1568 33.1657 9.6322 -7.0039 29.5978
# 3 26.6814 33.1657 186.9128 -1.5979 -4.6284 6.6710
# 4 7.6521 9.6322 -1.5979 57.6932 -0.3056 4.0471
# 5 -16.2402 -7.0039 -4.6284 -0.3056 48.7949 5.6484
# 6 15.3016 29.5978 6.6710 4.0471 5.6484 33.1179
#
#
#
# Elastic Compliance Matrix: (Units=1/GPa)
#
#
# Indices 1 2 3 4 5 6 
#
# 1 0.021166 0.003459 -0.002957 -0.002475 0.008805 -0.013475
# 2 0.003459 0.014765 -0.002482 -0.001925 0.004744 -0.014868
# 3 -0.002957 -0.002482 0.006107 0.000800 -0.001038 0.002434
# 4 -0.002475 -0.001925 0.000800 0.017952 -0.000990 0.000678
# 5 0.008805 0.004744 -0.001038 -0.000990 0.025426 -0.012315
# 6 -0.013475 -0.014868 0.002434 0.000678 -0.012315 0.051236
#
#
# Mechanical properties :
#
#
# Convention : Reuss Voigt Hill
#
# Bulk Modulus (GPa) = 26.26196 55.37771 40.81983
# Shear Modulus (GPa) = 32.61480 47.07982 39.84731
#
# Velocity S-wave (km/s) = 3.41851 4.10721 3.77858
# Velocity P-wave (km/s) = 4.99915 6.50650 5.80198
#
# Compressibility (1/GPa) = 0.03807789
#
# Stress axis : x y z
#
# Youngs Moduli (GPa) = 47.24477 67.72960 163.74831
#
# Poissons Ratio (x) = -0.23431 0.48429
# Poissons Ratio (y) = -0.16344 0.40642
# Poissons Ratio (z) = 0.13973 0.16810
#
# Static dielectric constant tensor:
#      x y z
#    x 2.313970 -0.103300 -0.001810 
#    y -0.103300 2.280260 -0.085940 
#    z -0.001810 -0.085940 2.079360 
# 
# From -- ./inp_files/65449.got.cif
#   From: 2010.05.17/outbox.cif.g08.bks.cpg/sg2_33_cif.got.tgz:65449.got - 2010.06.03 11:33:40.
