data_PCOD9011876
_publ_section_title
;
Structure prediction by ZEFSAII (Michael W. Deem and Ramdas Pophale) SiO2 
 PCOD9011876
Probable space group: P -1
;
_chemical_formula_sum "Si O2"
_cell_formula_units_Z 14
_cell_length_a 13.573911
_cell_length_b 8.142829
_cell_length_c 7.836644
_cell_angle_alpha 127.685293
_cell_angle_beta 126.496655
_cell_angle_gamma 78.779229
_cell_volume 531.251243
_symmetry_space_group_name_H-M "P -1"
_symmetry_group_IT_number 2
_symmetry_cell_setting 'triclinic'
loop_
_space_group_symop_operation_xyz
x,y,z
-x,-y,-z
loop_
_atom_site_type_symbol
_atom_site_label
_atom_site_fract_x
_atom_site_fract_y
_atom_site_fract_z
Si Si1 0.711148 0.173383 0.637190
Si Si2 0.552156 0.968270 0.840101
Si Si3 0.956924 0.254337 0.111395
Si Si4 0.367164 0.542407 0.841727
Si Si5 0.814294 0.479909 0.656735
Si Si6 0.213593 0.007999 0.731353
Si Si7 0.112874 0.305399 0.618404
O O1 0.776625 0.402451 0.759964
O O2 0.562489 0.158910 0.478481
O O3 0.720176 0.001454 0.391122
O O4 0.810610 0.130688 0.848986
O O5 0.604697 0.200888 0.958798
O O6 0.500000 0.000000 0.000000
O O7 0.676552 0.887667 0.955142
O O8 0.940760 0.491230 0.280753
O O9 0.062926 0.321267 0.113541
O O10 0.027110 0.176870 0.292391
O O11 0.304329 0.486053 0.552921
O O12 0.255326 0.419831 0.772508
O O13 0.500000 0.500000 0.000000
O O14 0.834276 0.250992 0.452701
O O15 0.119723 0.150647 0.683104
#
# Coordination Sequence:
#
# PCOD9011876 Si02
#       7
#     2   2   2   2   2   2   2
#     4   9  17  31  55  73  98 129 165 212 237 283
#     4   9  15  30  51  75  95 122 163 209 242 284
#     4  10  20  35  48  72 107 133 163 197 251 295
#     4  10  17  29  54  77  98 125 167 207 243 294
#     4   8  18  31  53  75  94 132 169 205 237 286
#     4   8  17  31  52  74  96 126 173 199 244 282
#     4  10  21  33  50  74 103 136 158 201 251 299
#
# _framework density 26.352881
#
# number of rings (size 3 to 8) (size 9 to 14) (size 15 to 20)
#    0.857    2.000    1.429    2.143    0.000    1.143 
#    0.000    1.429    0.000    0.000    0.000    0.000 
#    0.000    0.000    0.000    0.000    0.000    0.000 
#
# Total GULP energy -78052.601350 kJ/mol
# GULP energy per Si atom -5575.185811 kJ/mol
# Density = 2.629290 g / cm^3
# Si number density = 26.352881 Si / 1000 Ang^3
#
#
#
# Elastic Constant Matrix: (Units=GPa)
#
#
# Indices 1 2 3 4 5 6 
#
# 1 43.2093 28.5510 43.7052 -11.7519 12.7345 13.0207
# 2 28.5510 137.4831 64.9829 -29.3731 23.9916 -0.6392
# 3 43.7052 64.9829 197.8335 -36.1750 42.8283 12.1352
# 4 -11.7519 -29.3731 -36.1750 47.2299 -6.3542 11.1877
# 5 12.7345 23.9916 42.8283 -6.3542 33.8566 5.2583
# 6 13.0207 -0.6392 12.1352 11.1877 5.2583 15.1516
#
#
#
# Elastic Compliance Matrix: (Units=1/GPa)
#
#
# Indices 1 2 3 4 5 6 
#
# 1 0.053754 -0.005604 -0.002121 0.022949 0.000341 -0.061795
# 2 -0.005604 0.010195 -0.001233 0.001969 -0.004153 0.006221
# 3 -0.002121 -0.001233 0.009278 0.006679 -0.007575 -0.007962
# 4 0.022949 0.001969 0.006679 0.047363 -0.000289 -0.059859
# 5 0.000341 -0.004153 -0.007575 -0.000289 0.043310 -0.009218
# 6 -0.061795 0.006221 -0.007962 -0.059859 -0.009218 0.173141
#
#
# Mechanical properties :
#
#
# Convention : Reuss Voigt Hill
#
# Bulk Modulus (GPa) = 18.08013 72.55604 45.31808
# Shear Modulus (GPa) = 13.39063 35.33340 24.36202
#
# Velocity S-wave (km/s) = 2.25661 3.66564 3.04378
# Velocity P-wave (km/s) = 3.69668 6.74597 5.43937
#
# Compressibility (1/GPa) = 0.05530935
#
# Stress axis : x y z
#
# Youngs Moduli (GPa) = 18.60316 98.09138 107.78295
#
# Poissons Ratio (x) = 0.54972 0.22866
# Poissons Ratio (y) = 0.10426 0.13290
# Poissons Ratio (z) = 0.03947 0.12095
#
# Static dielectric constant tensor:
#      x y z
#    x 2.188030 -0.046630 -0.067010 
#    y -0.046630 2.067070 -0.035080 
#    z -0.067010 -0.035080 2.135010 
# 
# From -- ./inp_files/238610.got.cif
#   From: 2010.05.17/outbox.cif.g08.bks.cpg/sg2_120_cif.got.tgz:238610.got - 2010.06.03 11:33:40.
