data_PCOD9011054
_publ_section_title
;
Structure prediction by ZEFSAII (Michael W. Deem and Ramdas Pophale) SiO2 
 PCOD9011054
Probable space group: P -1
;
_chemical_formula_sum "Si O2"
_cell_formula_units_Z 12
_cell_length_a 17.686596
_cell_length_b 7.788665
_cell_length_c 15.019745
_cell_angle_alpha 41.144437
_cell_angle_beta 159.077886
_cell_angle_gamma 126.258240
_cell_volume 427.375551
_symmetry_space_group_name_H-M "P -1"
_symmetry_group_IT_number 2
_symmetry_cell_setting 'triclinic'
loop_
_space_group_symop_operation_xyz
x,y,z
-x,-y,-z
loop_
_atom_site_type_symbol
_atom_site_label
_atom_site_fract_x
_atom_site_fract_y
_atom_site_fract_z
Si Si1 0.660726 0.802855 0.975649
Si Si2 0.373356 0.329297 0.822458
Si Si3 0.133939 0.203382 0.176046
Si Si4 0.118064 0.160221 0.972520
Si Si5 0.732759 0.334190 0.882855
Si Si6 0.286167 0.791384 0.900211
O O1 0.371311 0.009415 0.570890
O O2 0.796443 0.993192 0.080796
O O3 0.694606 0.593399 0.179109
O O4 0.750183 0.749098 0.993158
O O5 0.148632 0.558859 0.427942
O O6 0.402482 0.001915 0.972635
O O7 0.600614 0.329821 0.024687
O O8 0.082803 0.543727 0.987488
O O9 0.210972 0.103011 0.197104
O O10 0.925804 0.114937 0.998018
O O11 0.500000 0.500000 0.500000
O O12 0.664514 0.418416 0.878684
O O13 0.000000 0.000000 0.500000
#
# Coordination Sequence:
#
# PCOD9011054 Si02
#       6
#     2   2   2   2   2   2
#     4  10  22  41  64  92 127 165 207 256 306 363
#     4  10  23  40  60  92 124 159 210 254 305 373
#     4  10  23  40  60  92 128 167 210 250 304 370
#     4  11  23  39  63  94 129 165 201 254 315 369
#     4   9  20  40  65  90 119 162 210 255 302 361
#     4  10  21  40  65  89 120 162 206 258 311 362
#
# _framework density 28.078347000000001
#
# number of rings (size 3 to 8) (size 9 to 14) (size 15 to 20)
#    0.000    2.000    0.000    2.000    0.000   12.000 
#    0.000    5.000    0.000    0.000    0.000    0.000 
#    0.000    0.000    0.000    0.000    0.000    0.000 
#
# Total GULP energy -67168.955344 kJ/mol
# GULP energy per Si atom -5597.412945 kJ/mol
# Density = 2.801444 g / cm^3
# Si number density = 28.078347 Si / 1000 Ang^3
#
#
#
# Elastic Constant Matrix: (Units=GPa)
#
#
# Indices 1 2 3 4 5 6 
#
# 1 192.4511 20.8504 46.2785 6.8468 -11.4104 36.6411
# 2 20.8504 123.5961 -5.3652 22.4247 -8.9649 38.8280
# 3 46.2785 -5.3652 109.8040 4.2978 -7.9078 9.7702
# 4 6.8468 22.4247 4.2978 27.0357 0.0282 -2.1697
# 5 -11.4104 -8.9649 -7.9078 0.0282 53.9998 6.0919
# 6 36.6411 38.8280 9.7702 -2.1697 6.0919 67.6656
#
#
#
# Elastic Compliance Matrix: (Units=1/GPa)
#
#
# Indices 1 2 3 4 5 6 
#
# 1 0.006544 0.000413 -0.002225 -0.001942 0.001539 -0.003660
# 2 0.000413 0.013398 0.002015 -0.012257 0.003620 -0.008922
# 3 -0.002225 0.002015 0.010525 -0.002919 0.001600 -0.001708
# 4 -0.001942 -0.012257 -0.002919 0.048953 -0.004076 0.010443
# 5 0.001539 0.003620 0.001600 -0.004076 0.020256 -0.005096
# 6 -0.003660 -0.008922 -0.001708 0.010443 -0.005096 0.022920
#
#
# Mechanical properties :
#
#
# Convention : Reuss Voigt Hill
#
# Bulk Modulus (GPa) = 32.39187 61.04205 46.71696
# Shear Modulus (GPa) = 37.74131 54.01273 45.87702
#
# Velocity S-wave (km/s) = 3.67023 4.39069 4.04653
# Velocity P-wave (km/s) = 5.43342 6.89140 6.20538
#
# Compressibility (1/GPa) = 0.03087194
#
# Stress axis : x y z
#
# Youngs Moduli (GPa) = 152.82015 74.63906 95.01258
#
# Poissons Ratio (x) = -0.03085 0.21142
# Poissons Ratio (y) = -0.06315 -0.19142
# Poissons Ratio (z) = 0.34006 -0.15038
#
# Static dielectric constant tensor:
#      x y z
#    x 2.271070 -0.107440 0.043910 
#    y -0.107440 2.327920 0.000220 
#    z 0.043910 0.000220 2.033080 
# 
# From -- ./inp_files/131314.got.cif
#   From: 2010.05.17/outbox.cif.g08.bks.cpg/sg2_66_cif.got.tgz:131314.got - 2010.06.03 11:33:40.
