data_PCOD9011683
_publ_section_title
;
Structure prediction by ZEFSAII (Michael W. Deem and Ramdas Pophale) SiO2 
 PCOD9011683
Probable space group: P -1
;
_chemical_formula_sum "Si O2"
_cell_formula_units_Z 15
_cell_length_a 5.143754
_cell_length_b 12.035061
_cell_length_c 20.474057
_cell_angle_alpha 150.340741
_cell_angle_beta 104.794215
_cell_angle_gamma 76.226193
_cell_volume 606.048970
_symmetry_space_group_name_H-M "P -1"
_symmetry_group_IT_number 2
_symmetry_cell_setting 'triclinic'
loop_
_space_group_symop_operation_xyz
x,y,z
-x,-y,-z
loop_
_atom_site_type_symbol
_atom_site_label
_atom_site_fract_x
_atom_site_fract_y
_atom_site_fract_z
Si Si1 0.194625 0.467880 0.597183
Si Si2 0.579968 0.588264 0.196459
Si Si3 0.254674 0.753254 0.622900
Si Si4 0.915644 0.843149 0.854717
Si Si5 0.598101 0.082348 0.477991
Si Si6 0.500000 0.500000 0.000000
Si Si7 0.840912 0.468966 0.744080
Si Si8 0.226973 0.971446 0.199585
O O1 0.311786 0.574775 0.593229
O O2 0.376597 0.260785 0.528208
O O3 0.905907 0.371888 0.507722
O O4 0.134847 0.668918 0.747123
O O5 0.360145 0.557070 0.222194
O O6 0.864955 0.486286 0.187040
O O7 0.633036 0.853878 0.323407
O O8 0.478405 0.488724 0.072418
O O9 0.518252 0.883864 0.688979
O O10 0.038279 0.930303 0.731380
O O11 0.734210 0.663921 0.788574
O O12 0.802433 0.982171 0.856581
O O13 0.000000 0.000000 0.000000
O O14 0.853525 0.234049 0.585314
O O15 0.500000 0.000000 0.500000
O O16 0.714740 0.282113 0.905471
#
# Coordination Sequence:
#
# PCOD9011683 Si02
#       8
#     2   2   2   2   2   1   2   2
#     4  10  22  42  70 100 136 178 224 284 336 397
#     4  11  26  44  70 102 139 181 225 277 338 405
#     4  10  24  46  70 100 133 175 234 281 334 392
#     4  11  24  44  70 102 139 179 227 279 341 407
#     4  10  21  40  67 100 133 173 223 277 335 392
#     4  12  28  48  70 100 142 182 226 274 342 414
#     4  11  24  46  71  99 135 179 229 283 335 395
#     4  11  26  45  71 101 135 181 226 282 338 402
#
# _framework density 24.750475999999999
#
# number of rings (size 3 to 8) (size 9 to 14) (size 15 to 20)
#    0.000    1.333    0.000    4.400    0.000   16.533 
#    0.000    6.000    0.000    0.000    0.000    0.000 
#    0.000    0.000    0.000    0.000    0.000    0.000 
#
# Total GULP energy -83777.512564 kJ/mol
# GULP energy per Si atom -5585.167504 kJ/mol
# Density = 2.469414 g / cm^3
# Si number density = 24.750476 Si / 1000 Ang^3
#
#
#
# Elastic Constant Matrix: (Units=GPa)
#
#
# Indices 1 2 3 4 5 6 
#
# 1 84.0381 39.4446 11.2263 -0.2864 -16.3634 -12.8705
# 2 39.4446 166.7466 22.5446 10.8047 -24.6548 -21.1879
# 3 11.2263 22.5446 57.9043 8.5023 -34.6576 2.0194
# 4 -0.2864 10.8047 8.5023 44.2331 4.5145 -19.4493
# 5 -16.3634 -24.6548 -34.6576 4.5145 14.7805 7.0402
# 6 -12.8705 -21.1879 2.0194 -19.4493 7.0402 31.3583
#
#
#
# Elastic Compliance Matrix: (Units=1/GPa)
#
#
# Indices 1 2 3 4 5 6 
#
# 1 0.014524 -0.002440 -0.003263 0.004746 -0.000726 0.007629
# 2 -0.002440 0.007475 -0.003348 0.001187 -0.000927 0.005209
# 3 -0.003263 -0.003348 -0.009914 0.014144 -0.044265 0.015748
# 4 0.004746 0.001187 0.014144 0.019508 0.031132 0.006949
# 5 -0.000726 -0.000927 -0.044265 0.031132 -0.065069 0.035843
# 6 0.007629 0.005209 0.015748 0.006949 0.035843 0.033789
#
#
# Mechanical properties :
#
#
# Convention : Reuss Voigt Hill
#
# Bulk Modulus (GPa) = -166.16927 50.56889 -57.80019
# Shear Modulus (GPa) = 304.71025 33.77260 169.24143
#
# Velocity S-wave (km/s) = 11.10766 3.69795 8.27813
# Velocity P-wave (km/s) = 9.86019 6.22165 8.24416
#
# Compressibility (1/GPa) = -0.00601796
#
# Stress axis : x y z
#
# Youngs Moduli (GPa) = 68.85289 133.78155 -100.86721
#
# Poissons Ratio (x) = 0.32641 -0.32915
# Poissons Ratio (y) = 0.16799 -0.33772
# Poissons Ratio (z) = 0.22468 0.44792
#
# Static dielectric constant tensor:
#      x y z
#    x 1.941680 -0.001360 0.027930 
#    y -0.001360 1.960730 -0.013650 
#    z 0.027930 -0.013650 2.066650 
# 
# From -- ./inp_files/583170.got.cif
#   From: 2010.05.17/outbox.cif.g08.bks.cpg/sg2_292_cif.got.tgz:583170.got - 2010.06.03 11:33:40.
