data_PCOD9011379
_publ_section_title
;
Structure prediction by ZEFSAII (Michael W. Deem and Ramdas Pophale) SiO2 
 PCOD9011379
Probable space group: P -1
;
_chemical_formula_sum "Si O2"
_cell_formula_units_Z 16
_cell_length_a 5.112167
_cell_length_b 19.445926
_cell_length_c 19.800614
_cell_angle_alpha 18.688241
_cell_angle_beta 75.504772
_cell_angle_gamma 76.960465
_cell_volume 610.215764
_symmetry_space_group_name_H-M "P -1"
_symmetry_group_IT_number 2
_symmetry_cell_setting 'triclinic'
loop_
_space_group_symop_operation_xyz
x,y,z
-x,-y,-z
loop_
_atom_site_type_symbol
_atom_site_label
_atom_site_fract_x
_atom_site_fract_y
_atom_site_fract_z
Si Si1 0.927409 0.119696 0.741817
Si Si2 0.776060 0.725969 0.975753
Si Si3 0.102745 0.153832 0.565309
Si Si4 0.483468 0.101118 0.292502
Si Si5 0.264268 0.756902 0.723571
Si Si6 0.152361 0.403127 0.201266
Si Si7 0.408386 0.819646 0.026303
Si Si8 0.383645 0.731619 0.260758
O O1 0.051283 0.265810 0.535932
O O2 0.884536 0.240610 0.702815
O O3 0.626121 0.018533 0.840575
O O4 0.136378 0.928254 0.917329
O O5 0.548732 0.674956 0.093950
O O6 0.046364 0.595835 0.073569
O O7 0.653216 0.735178 0.900364
O O8 0.897110 0.956160 0.771745
O O9 0.042352 0.228536 0.424739
O O10 0.398865 0.066626 0.613028
O O11 0.707899 0.202469 0.236044
O O12 0.292421 0.979602 0.472364
O O13 0.539990 0.642219 0.792094
O O14 0.009714 0.635147 0.821078
O O15 0.361704 0.698070 0.213040
O O16 0.500000 0.500000 0.500000
O O17 0.500000 0.000000 0.000000
#
# Coordination Sequence:
#
# PCOD9011379 Si02
#       8
#     2   2   2   2   2   2   2   2
#     4  10  21  41  69  96 136 177 227 280 341 415
#     4  11  23  39  66  91 129 172 221 272 339 403
#     4  10  22  41  63  91 129 172 218 273 337 400
#     4  10  21  40  66  83 128 169 219 272 343 397
#     4  10  24  41  60  92 122 168 217 279 337 406
#     4  11  25  39  61  91 127 162 223 271 341 398
#     4  10  22  42  66 101 134 178 228 280 344 414
#     4  10  23  45  75 109 151 191 242 292 357 426
#
# _framework density 26.220230999999998
#
# number of rings (size 3 to 8) (size 9 to 14) (size 15 to 20)
#    0.000    1.750    2.500    0.375    5.250    2.500 
#    0.000   10.000    0.000    0.000    0.000    0.000 
#    0.000    0.000    0.000    0.000    0.000    0.000 
#
# Total GULP energy -89108.169380 kJ/mol
# GULP energy per Si atom -5569.260586 kJ/mol
# Density = 2.616055 g / cm^3
# Si number density = 26.220231 Si / 1000 Ang^3
#
#
#
# Elastic Constant Matrix: (Units=GPa)
#
#
# Indices 1 2 3 4 5 6 
#
# 1 79.6183 44.8339 33.7264 40.2808 -2.9598 8.6972
# 2 44.8339 130.7043 11.1240 -30.8427 41.1856 -48.7168
# 3 33.7264 11.1240 27.9121 -36.6092 26.5352 -9.2488
# 4 40.2808 -30.8427 -36.6092 -53.8371 37.4406 -16.7346
# 5 -2.9598 41.1856 26.5352 37.4406 14.4106 10.6738
# 6 8.6972 -48.7168 -9.2488 -16.7346 10.6738 37.1790
#
#
#
# Elastic Compliance Matrix: (Units=1/GPa)
#
#
# Indices 1 2 3 4 5 6 
#
# 1 0.010724 -0.000375 -0.000949 0.004256 -0.006422 0.000523
# 2 -0.000375 0.012193 -0.007723 -0.009229 -0.005238 0.011493
# 3 -0.000949 -0.007723 0.024010 -0.007572 0.003519 -0.008344
# 4 0.004256 -0.009229 -0.007572 0.012756 0.018913 -0.014661
# 5 -0.006422 -0.005238 0.003519 0.018913 0.031046 -0.004886
# 6 0.000523 0.011493 -0.008344 -0.014661 -0.004886 0.034563
#
#
# Mechanical properties :
#
#
# Convention : Reuss Voigt Hill
#
# Bulk Modulus (GPa) = 34.68256 46.40035 40.54145
# Shear Modulus (GPa) = 32.68011 9.45387 21.06699
#
# Velocity S-wave (km/s) = 3.53423 1.90089 2.83762
# Velocity P-wave (km/s) = 5.46905 4.74896 5.12168
#
# Compressibility (1/GPa) = 0.02883293
#
# Stress axis : x y z
#
# Youngs Moduli (GPa) = 93.24633 82.01229 41.64851
#
# Poissons Ratio (x) = 0.03078 0.03952
# Poissons Ratio (y) = 0.03500 0.32167
# Poissons Ratio (z) = 0.08847 0.63342
#
# Static dielectric constant tensor:
#      x y z
#    x 2.113680 0.067440 -0.008430 
#    y 0.067440 2.222730 -0.181900 
#    z -0.008430 -0.181900 2.395590 
# 
# From -- ./inp_files/584255.got.cif
#   From: 2010.05.17/outbox.cif.g08.bks.cpg/sg2_293_cif.got.tgz:584255.got - 2010.06.03 11:33:40.
