data_PCOD9011588
_publ_section_title
;
Structure prediction by ZEFSAII (Michael W. Deem and Ramdas Pophale) SiO2 
 PCOD9011588
Probable space group: P -1
;
_chemical_formula_sum "Si O2"
_cell_formula_units_Z 13
_cell_length_a 9.814939
_cell_length_b 16.695013
_cell_length_c 12.850517
_cell_angle_alpha 26.450613
_cell_angle_beta 143.274961
_cell_angle_gamma 135.433619
_cell_volume 560.753799
_symmetry_space_group_name_H-M "P -1"
_symmetry_group_IT_number 2
_symmetry_cell_setting 'triclinic'
loop_
_space_group_symop_operation_xyz
x,y,z
-x,-y,-z
loop_
_atom_site_type_symbol
_atom_site_label
_atom_site_fract_x
_atom_site_fract_y
_atom_site_fract_z
Si Si1 0.650131 0.776380 0.271736
Si Si2 0.757761 0.658305 0.955658
Si Si3 0.921712 0.424877 0.149800
Si Si4 0.245995 0.815555 0.132449
Si Si5 0.253845 0.565687 0.597981
Si Si6 0.500000 0.000000 0.500000
Si Si7 0.507405 0.235363 0.044901
O O1 0.455811 0.740203 0.279617
O O2 0.860015 0.636129 0.576825
O O3 0.530117 0.792888 0.066615
O O4 0.753554 0.971504 0.129816
O O5 0.591752 0.823169 0.692787
O O6 0.779138 0.577685 0.947082
O O7 0.707985 0.486322 0.199021
O O8 0.009683 0.733281 0.047022
O O9 0.764169 0.253668 0.226450
O O10 0.000000 0.500000 0.000000
O O11 0.278548 0.760596 0.337054
O O12 0.000000 0.500000 0.500000
O O13 0.401411 0.430714 0.774920
O O14 0.396613 0.096074 0.217972
#
# Coordination Sequence:
#
# PCOD9011588 Si02
#       7
#     2   2   2   2   2   1   2
#     4  11  24  42  66  97 135 177 219 273 332 393
#     4  10  22  42  66  95 134 173 222 276 327 390
#     4  12  26  43  69 101 134 176 221 272 333 397
#     4  10  21  40  66  96 132 176 223 271 329 392
#     4   9  19  38  63  92 125 171 221 269 326 386
#     4  10  24  44  66 100 134 174 224 276 328 388
#     4  11  24  42  65  97 134 172 221 271 330 394
#
# _framework density 23.18308
#
# number of rings (size 3 to 8) (size 9 to 14) (size 15 to 20)
#    0.000    1.538    0.000    4.615    0.000    9.231 
#    0.000   15.385    0.000    0.000    0.000    0.000 
#    0.000    0.000    0.000    0.000    0.000    0.000 
#
# Total GULP energy -72396.858753 kJ/mol
# GULP energy per Si atom -5568.989135 kJ/mol
# Density = 2.313031 g / cm^3
# Si number density = 23.183080 Si / 1000 Ang^3
#
#
#
# Elastic Constant Matrix: (Units=GPa)
#
#
# Indices 1 2 3 4 5 6 
#
# 1 112.0760 39.3985 32.0097 -2.7927 -8.4225 -27.7471
# 2 39.3985 100.5413 27.9733 18.9746 5.9558 -13.8328
# 3 32.0097 27.9733 103.4035 3.5486 3.0250 -6.2071
# 4 -2.7927 18.9746 3.5486 22.2028 -8.3109 -2.4638
# 5 -8.4225 5.9558 3.0250 -8.3109 37.8074 2.0949
# 6 -27.7471 -13.8328 -6.2071 -2.4638 2.0949 34.6244
#
#
#
# Elastic Compliance Matrix: (Units=1/GPa)
#
#
# Indices 1 2 3 4 5 6 
#
# 1 0.015103 -0.006301 -0.002981 0.011261 0.006547 0.009456
# 2 -0.006301 0.016781 -0.001718 -0.017731 -0.007838 0.000559
# 3 -0.002981 -0.001718 0.011084 -0.001369 -0.001521 -0.001094
# 4 0.011261 -0.017731 -0.001369 0.070113 0.020522 0.005442
# 5 0.006547 -0.007838 -0.001521 0.020522 0.033706 0.001263
# 6 0.009456 0.000559 -0.001094 0.005442 0.001263 0.036798
#
#
# Mechanical properties :
#
#
# Convention : Reuss Voigt Hill
#
# Bulk Modulus (GPa) = 47.69077 57.19820 52.44449
# Shear Modulus (GPa) = 23.52146 33.36955 28.44550
#
# Velocity S-wave (km/s) = 3.18873 3.79805 3.50665
# Velocity P-wave (km/s) = 5.84580 6.63020 6.25031
#
# Compressibility (1/GPa) = 0.02096842
#
# Stress axis : x y z
#
# Youngs Moduli (GPa) = 66.21408 59.59265 90.21875
#
# Poissons Ratio (x) = 0.37547 0.26894
# Poissons Ratio (y) = 0.41719 0.15498
# Poissons Ratio (z) = 0.19738 0.10237
#
# Static dielectric constant tensor:
#      x y z
#    x 1.864070 0.065890 0.010860 
#    y 0.065890 1.900060 0.041900 
#    z 0.010860 0.041900 1.832970 
# 
# From -- ./inp_files/398334.got.cif
#   From: 2010.05.17/outbox.cif.g08.bks.cpg/sg2_200_cif.got.tgz:398334.got - 2010.06.03 11:33:40.
