data_PCOD9011552
_publ_section_title
;
Structure prediction by ZEFSAII (Michael W. Deem and Ramdas Pophale) SiO2 
 PCOD9011552
Probable space group: P -1
;
_chemical_formula_sum "Si O2"
_cell_formula_units_Z 16
_cell_length_a 12.993754
_cell_length_b 21.986311
_cell_length_c 9.945340
_cell_angle_alpha 47.472977
_cell_angle_beta 131.554236
_cell_angle_gamma 157.580449
_cell_volume 791.052541
_symmetry_space_group_name_H-M "P -1"
_symmetry_group_IT_number 2
_symmetry_cell_setting 'triclinic'
loop_
_space_group_symop_operation_xyz
x,y,z
-x,-y,-z
loop_
_atom_site_type_symbol
_atom_site_label
_atom_site_fract_x
_atom_site_fract_y
_atom_site_fract_z
Si Si1 0.775539 0.176623 0.036194
Si Si2 0.150262 0.095531 0.627883
Si Si3 0.677648 0.339626 0.347509
Si Si4 0.110084 0.264492 0.414380
Si Si5 0.276190 0.667347 0.306084
Si Si6 0.751094 0.569552 0.145470
Si Si7 0.287240 0.372318 0.703688
Si Si8 0.167638 0.128450 0.072606
O O1 0.747318 0.259957 0.902973
O O2 0.008686 0.282913 0.967828
O O3 0.871718 0.184282 0.244811
O O4 0.500000 0.000000 0.000000
O O5 0.091156 0.156894 0.535534
O O6 0.473919 0.254590 0.651743
O O7 0.000000 0.000000 0.500000
O O8 0.027177 0.969368 0.819616
O O9 0.649196 0.275008 0.558381
O O10 0.684693 0.439387 0.254465
O O11 0.427236 0.208402 0.224804
O O12 0.972063 0.472928 0.340226
O O13 0.123159 0.290896 0.543987
O O14 0.398782 0.444509 0.333125
O O15 0.815261 0.619081 0.282716
O O16 0.500000 0.500000 0.000000
O O17 0.265384 0.268678 0.899430
O O18 0.000000 0.000000 0.000000
#
# Coordination Sequence:
#
# PCOD9011552 Si02
#       8
#     2   2   2   2   2   2   2   2
#     4  11  24  38  62  95 132 164 211 269 325 378
#     4  12  24  40  71 102 127 167 227 272 316 386
#     4  10  21  40  66  95 130 165 220 265 325 392
#     4  11  24  44  66  98 132 173 222 270 322 391
#     4  10  22  39  64  94 130 169 211 269 325 379
#     4  11  20  38  69  96 116 168 225 261 306 390
#     4  11  23  40  68  95 133 169 222 269 326 381
#     4  12  24  41  65  99 138 168 214 276 335 379
#
# _framework density 20.226216999999998
#
# number of rings (size 3 to 8) (size 9 to 14) (size 15 to 20)
#    0.000    1.000    5.000    2.250    3.500    0.000 
#    0.000    1.250    8.250    0.000    0.000    0.000 
#    0.000    0.000    0.000    0.000    0.000    0.000 
#
# Total GULP energy -89459.032535 kJ/mol
# GULP energy per Si atom -5591.189533 kJ/mol
# Density = 2.018018 g / cm^3
# Si number density = 20.226217 Si / 1000 Ang^3
#
#
#
# Elastic Constant Matrix: (Units=GPa)
#
#
# Indices 1 2 3 4 5 6 
#
# 1 64.0335 23.6560 30.5765 16.9933 -4.0059 0.1604
# 2 23.6560 86.2370 39.1376 22.6373 -3.6264 3.0090
# 3 30.5765 39.1376 121.3630 19.5811 -7.8849 4.3888
# 4 16.9933 22.6373 19.5811 48.7953 -3.7723 1.1998
# 5 -4.0059 -3.6264 -7.8849 -3.7723 37.9895 7.4551
# 6 0.1604 3.0090 4.3888 1.1998 7.4551 32.3774
#
#
#
# Elastic Compliance Matrix: (Units=1/GPa)
#
#
# Indices 1 2 3 4 5 6 
#
# 1 0.019329 -0.002716 -0.003317 -0.004113 0.000558 0.000630
# 2 -0.002716 0.015151 -0.003408 -0.004685 0.000143 -0.000792
# 3 -0.003317 -0.003408 0.010549 -0.001333 0.001663 -0.001430
# 4 -0.004113 -0.004685 -0.001333 0.024759 0.001420 -0.000608
# 5 0.000558 0.000143 0.001663 0.001420 0.028214 -0.006791
# 6 0.000630 -0.000792 -0.001430 -0.000608 -0.006791 0.032736
#
#
# Mechanical properties :
#
#
# Convention : Reuss Voigt Hill
#
# Bulk Modulus (GPa) = 38.24384 50.93043 44.58714
# Shear Modulus (GPa) = 31.57839 35.71666 33.64752
#
# Velocity S-wave (km/s) = 3.95557 4.20677 4.08310
# Velocity P-wave (km/s) = 6.30960 6.98792 6.65740
#
# Compressibility (1/GPa) = 0.02614800
#
# Stress axis : x y z
#
# Youngs Moduli (GPa) = 51.73648 66.00213 94.79288
#
# Poissons Ratio (x) = 0.17924 0.31442
# Poissons Ratio (y) = 0.14050 0.32305
# Poissons Ratio (z) = 0.17160 0.22493
#
# Static dielectric constant tensor:
#      x y z
#    x 1.702900 -0.000970 0.000280 
#    y -0.000970 1.746960 -0.002410 
#    z 0.000280 -0.002410 1.741940 
# 
# From -- ./inp_files/320274.got.cif
#   From: 2010.05.17/outbox.cif.g08.bks.cpg/sg2_161_cif.got.tgz:320274.got - 2010.06.03 11:33:40.
