data_PCOD9011975
_publ_section_title
;
Structure prediction by ZEFSAII (Michael W. Deem and Ramdas Pophale) SiO2 
 PCOD9011975
Probable space group: P -1
;
_chemical_formula_sum "Si O2"
_cell_formula_units_Z 16
_cell_length_a 14.727809
_cell_length_b 18.733635
_cell_length_c 10.345366
_cell_angle_alpha 46.040053
_cell_angle_beta 131.602921
_cell_angle_gamma 162.083455
_cell_volume 631.990274
_symmetry_space_group_name_H-M "P -1"
_symmetry_group_IT_number 2
_symmetry_cell_setting 'triclinic'
loop_
_space_group_symop_operation_xyz
x,y,z
-x,-y,-z
loop_
_atom_site_type_symbol
_atom_site_label
_atom_site_fract_x
_atom_site_fract_y
_atom_site_fract_z
Si Si1 0.601594 0.313829 0.995958
Si Si2 0.621095 0.903255 0.464074
Si Si3 0.571618 0.345106 0.642539
Si Si4 0.163954 0.463734 0.782998
Si Si5 0.485939 0.998060 0.334282
Si Si6 0.521852 0.484019 0.244815
Si Si7 0.800281 0.758349 0.526750
Si Si8 0.923522 0.835344 0.985003
O O1 0.778620 0.476422 0.086482
O O2 0.573881 0.173670 0.153239
O O3 0.724038 0.650249 0.727009
O O4 0.267754 0.107835 0.955335
O O5 0.460843 0.772058 0.336818
O O6 0.420263 0.704840 0.635814
O O7 0.675634 0.055019 0.372097
O O8 0.927936 0.076943 0.504260
O O9 0.678981 0.511608 0.436732
O O10 0.698928 0.417191 0.812957
O O11 0.252019 0.162183 0.599668
O O12 0.128500 0.321069 0.895235
O O13 0.849035 0.273379 0.683971
O O14 0.500000 0.000000 0.500000
O O15 0.778851 0.741953 0.106135
O O16 0.306369 0.285239 0.177804
O O17 0.500000 0.500000 0.500000
#
# Coordination Sequence:
#
# PCOD9011975 Si02
#       8
#     2   2   2   2   2   2   2   2
#     4  11  25  42  71 106 147 181 239 304 353 424
#     4  12  23  44  76  98 140 196 234 295 361 421
#     4  10  24  44  67 104 149 189 233 290 362 431
#     4  11  24  43  72 107 136 186 242 299 354 426
#     4  11  26  48  76 104 138 183 251 304 354 422
#     4   9  21  40  64  98 147 190 239 288 342 434
#     4  10  24  39  65 104 141 187 232 285 355 429
#     4  10  21  40  68 101 142 192 239 292 348 421
#
# _framework density 25.316846000000002
#
# number of rings (size 3 to 8) (size 9 to 14) (size 15 to 20)
#    0.750    0.750    2.500    1.500    5.250    1.500 
#    0.000    3.750    0.000    0.000    0.000    0.000 
#    0.000    0.000    0.000    0.000    0.000    0.000 
#
# Total GULP energy -89375.511403 kJ/mol
# GULP energy per Si atom -5585.969463 kJ/mol
# Density = 2.525922 g / cm^3
# Si number density = 25.316846 Si / 1000 Ang^3
#
#
#
# Elastic Constant Matrix: (Units=GPa)
#
#
# Indices 1 2 3 4 5 6 
#
# 1 157.3134 31.4229 66.1590 -0.6550 -6.6736 -17.6753
# 2 31.4229 87.0316 47.4544 8.4455 -24.3600 4.8451
# 3 66.1590 47.4544 157.2316 8.5678 -33.6655 -5.4804
# 4 -0.6550 8.4455 8.5678 38.7768 -9.3169 -5.9763
# 5 -6.6736 -24.3600 -33.6655 -9.3169 50.5433 1.1715
# 6 -17.6753 4.8451 -5.4804 -5.9763 1.1715 38.4833
#
#
#
# Elastic Compliance Matrix: (Units=1/GPa)
#
#
# Indices 1 2 3 4 5 6 
#
# 1 0.008560 -0.002210 -0.003292 0.001508 -0.001944 0.004034
# 2 -0.002210 0.015625 -0.002704 -0.002209 0.005120 -0.003866
# 3 -0.003292 -0.002704 0.009559 -0.000492 0.004539 -0.000025
# 4 0.001508 -0.002209 -0.000492 0.028128 0.003873 0.005151
# 5 -0.001944 0.005120 0.004539 0.003873 0.025758 -0.001074
# 6 0.004034 -0.003866 -0.000025 0.005151 -0.001074 0.029154
#
#
# Mechanical properties :
#
#
# Convention : Reuss Voigt Hill
#
# Bulk Modulus (GPa) = 57.69932 76.84991 67.27462
# Shear Modulus (GPa) = 35.97756 42.66337 39.32047
#
# Velocity S-wave (km/s) = 3.77383 4.10954 3.94526
# Velocity P-wave (km/s) = 6.46756 7.27592 6.88362
#
# Compressibility (1/GPa) = 0.01733123
#
# Stress axis : x y z
#
# Youngs Moduli (GPa) = 116.82215 63.99924 104.61005
#
# Poissons Ratio (x) = 0.14146 0.34442
# Poissons Ratio (y) = 0.25822 0.28285
# Poissons Ratio (z) = 0.38463 0.17305
#
# Static dielectric constant tensor:
#      x y z
#    x 2.112710 -0.042070 0.006300 
#    y -0.042070 2.073900 -0.005650 
#    z 0.006300 -0.005650 2.069270 
# 
# From -- ./inp_files/456715.got.cif
#   From: 2010.05.17/outbox.cif.g08.bks.cpg/sg2_229_cif.got.tgz:456715.got - 2010.06.03 11:33:40.
