data_PCOD9011829
_publ_section_title
;
Structure prediction by ZEFSAII (Michael W. Deem and Ramdas Pophale) SiO2 
 PCOD9011829
Probable space group: P -1
;
_chemical_formula_sum "Si O2"
_cell_formula_units_Z 16
_cell_length_a 7.184594
_cell_length_b 14.022459
_cell_length_c 8.691227
_cell_angle_alpha 92.481167
_cell_angle_beta 123.249634
_cell_angle_gamma 102.872834
_cell_volume 699.001304
_symmetry_space_group_name_H-M "P -1"
_symmetry_group_IT_number 2
_symmetry_cell_setting 'triclinic'
loop_
_space_group_symop_operation_xyz
x,y,z
-x,-y,-z
loop_
_atom_site_type_symbol
_atom_site_label
_atom_site_fract_x
_atom_site_fract_y
_atom_site_fract_z
Si Si1 0.169991 0.460553 0.972006
Si Si2 0.962724 0.255411 0.692266
Si Si3 0.830508 0.847162 0.979826
Si Si4 0.327127 0.990754 0.184906
Si Si5 0.434701 0.126510 0.535188
Si Si6 0.425098 0.357993 0.300960
Si Si7 0.189953 0.295352 0.465199
Si Si8 0.144364 0.587463 0.687070
O O1 0.245762 0.537296 0.869714
O O2 0.020945 0.355106 0.826909
O O3 0.358404 0.439764 0.171953
O O4 0.000000 0.500000 0.000000
O O5 0.688888 0.192639 0.585813
O O6 0.109206 0.187811 0.830356
O O7 0.089396 0.292258 0.590942
O O8 0.651992 0.913544 0.906549
O O9 0.748216 0.750318 0.828206
O O10 0.078181 0.913491 0.031036
O O11 0.322048 0.041499 0.353462
O O12 0.509145 0.928624 0.290375
O O13 0.263608 0.193668 0.486031
O O14 0.412293 0.369132 0.479288
O O15 0.662257 0.350654 0.337020
O O16 0.995522 0.340397 0.300957
O O17 0.000000 0.500000 0.500000
#
# Coordination Sequence:
#
# PCOD9011829 Si02
#       8
#     2   2   2   2   2   2   2   2
#     4  11  23  45  65  97 129 169 214 266 321 380
#     4  10  23  42  64  95 134 164 215 268 313 383
#     4   9  19  40  66  91 126 170 205 265 324 369
#     4   9  18  38  71  91 126 171 216 259 320 388
#     4  10  21  40  67  95 126 174 210 266 324 368
#     4  11  24  43  67  90 132 172 207 270 328 367
#     4  12  23  40  66  96 129 171 218 260 321 380
#     4  12  26  44  65  96 127 169 222 263 311 390
#
# _framework density 22.889800000000001
#
# number of rings (size 3 to 8) (size 9 to 14) (size 15 to 20)
#    0.000    1.500    3.750    1.125    0.000    1.500 
#    4.500    6.250    0.000    0.000    0.000    0.000 
#    0.000    0.000    0.000    0.000    0.000    0.000 
#
# Total GULP energy -89087.709667 kJ/mol
# GULP energy per Si atom -5567.981854 kJ/mol
# Density = 2.283770 g / cm^3
# Si number density = 22.889800 Si / 1000 Ang^3
#
#
#
# Elastic Constant Matrix: (Units=GPa)
#
#
# Indices 1 2 3 4 5 6 
#
# 1 108.1886 45.1513 23.6540 -4.2014 -9.7904 -21.0545
# 2 45.1513 117.9576 43.7108 -25.4194 7.1348 -25.6200
# 3 23.6540 43.7108 68.0187 -17.7088 -0.2688 -3.1852
# 4 -4.2014 -25.4194 -17.7088 54.1091 0.4402 7.8762
# 5 -9.7904 7.1348 -0.2688 0.4402 27.6386 -17.2043
# 6 -21.0545 -25.6200 -3.1852 7.8762 -17.2043 32.6437
#
#
#
# Elastic Compliance Matrix: (Units=1/GPa)
#
#
# Indices 1 2 3 4 5 6 
#
# 1 0.016352 -0.002706 -0.004098 -0.004191 0.018070 0.018558
# 2 -0.002706 0.014727 -0.007323 0.003054 0.000483 0.008617
# 3 -0.004098 -0.007323 0.021587 0.004909 -0.006070 -0.010668
# 4 -0.004191 0.003054 0.004909 0.022713 -0.008767 -0.009928
# 5 0.018070 0.000483 -0.006070 -0.008767 0.075865 0.053540
# 6 0.018558 0.008617 -0.010668 -0.009928 0.053540 0.078938
#
#
# Mechanical properties :
#
#
# Convention : Reuss Voigt Hill
#
# Bulk Modulus (GPa) = 40.96212 57.68857 49.32535
# Shear Modulus (GPa) = 18.75639 34.98820 26.87229
#
# Velocity S-wave (km/s) = 2.86566 3.91391 3.43006
# Velocity P-wave (km/s) = 5.37434 6.75887 6.10598
#
# Compressibility (1/GPa) = 0.02441280
#
# Stress axis : x y z
#
# Youngs Moduli (GPa) = 61.15277 67.90112 46.32328
#
# Poissons Ratio (x) = 0.18374 0.18986
# Poissons Ratio (y) = 0.16548 0.33921
# Poissons Ratio (z) = 0.25063 0.49722
#
# Static dielectric constant tensor:
#      x y z
#    x 1.859960 0.028970 0.034230 
#    y 0.028970 2.012140 -0.054570 
#    z 0.034230 -0.054570 1.936820 
# 
# From -- ./inp_files/135410.got.cif
#   From: 2010.05.17/outbox.cif.g08.bks.cpg/sg2_68_cif.got.tgz:135410.got - 2010.06.03 11:33:40.
