data_PCOD9011066
_publ_section_title
;
Structure prediction by ZEFSAII (Michael W. Deem and Ramdas Pophale) SiO2 
 PCOD9011066
Probable space group: P -1
;
_chemical_formula_sum "Si O2"
_cell_formula_units_Z 16
_cell_length_a 5.747192
_cell_length_b 18.443285
_cell_length_c 16.313840
_cell_angle_alpha 152.527163
_cell_angle_beta 125.585829
_cell_angle_gamma 56.034873
_cell_volume 644.601466
_symmetry_space_group_name_H-M "P -1"
_symmetry_group_IT_number 2
_symmetry_cell_setting 'triclinic'
loop_
_space_group_symop_operation_xyz
x,y,z
-x,-y,-z
loop_
_atom_site_type_symbol
_atom_site_label
_atom_site_fract_x
_atom_site_fract_y
_atom_site_fract_z
Si Si1 0.339708 0.533707 0.587555
Si Si2 0.347939 0.676723 0.137079
Si Si3 0.658241 0.652032 0.451224
Si Si4 0.256409 0.162633 0.825053
Si Si5 0.136769 0.012082 0.820143
Si Si6 0.441421 0.128033 0.490415
Si Si7 0.216809 0.675274 0.917617
Si Si8 0.872738 0.139678 0.173510
O O1 0.500000 0.500000 0.500000
O O2 0.497535 0.423794 0.580571
O O3 0.000000 0.500000 0.500000
O O4 0.318216 0.723689 0.778188
O O5 0.539292 0.796464 0.340827
O O6 0.030751 0.736558 0.166107
O O7 0.500000 0.500000 0.000000
O O8 0.270492 0.692435 0.041944
O O9 0.487412 0.740131 0.429553
O O10 0.841567 0.497725 0.293932
O O11 0.855670 0.776024 0.653471
O O12 0.264598 0.060472 0.808719
O O13 0.358581 0.033352 0.647737
O O14 0.476943 0.287806 0.015373
O O15 0.873154 0.919079 0.642631
O O16 0.277750 0.912637 0.825800
O O17 0.015298 0.179006 0.005006
O O18 0.000000 0.000000 0.000000
#
# Coordination Sequence:
#
# PCOD9011066 Si02
#       8
#     2   2   2   2   2   2   2   2
#     4  10  23  44  69 103 136 177 225 284 345 412
#     4  11  22  40  62  94 127 170 216 268 324 382
#     4  10  21  42  65  93 133 168 218 272 339 392
#     4  10  23  39  61  93 124 171 216 264 323 393
#     4   9  21  40  65  91 128 171 214 265 335 387
#     4  10  21  40  65  89 129 170 216 271 318 395
#     4  10  21  42  62  93 131 170 218 270 320 398
#     4  10  21  42  71  97 130 171 223 280 340 410
#
# _framework density 24.821536999999999
#
# number of rings (size 3 to 8) (size 9 to 14) (size 15 to 20)
#    0.000    2.000    1.250    1.125    1.750    6.000 
#   15.750    2.500    0.000    0.000    0.000    0.000 
#    0.000    0.000    0.000    0.000    0.000    0.000 
#
# Total GULP energy -89297.682407 kJ/mol
# GULP energy per Si atom -5581.105150 kJ/mol
# Density = 2.476504 g / cm^3
# Si number density = 24.821537 Si / 1000 Ang^3
#
#
#
# Elastic Constant Matrix: (Units=GPa)
#
#
# Indices 1 2 3 4 5 6 
#
# 1 44.9523 7.2689 26.1043 -7.7430 5.0030 2.5292
# 2 7.2689 92.9279 24.9453 4.0547 3.9255 6.0895
# 3 26.1043 24.9453 192.9791 -3.2503 -18.3180 -6.7619
# 4 -7.7430 4.0547 -3.2503 33.2658 6.9137 -1.9821
# 5 5.0030 3.9255 -18.3180 6.9137 19.0324 -7.8042
# 6 2.5292 6.0895 -6.7619 -1.9821 -7.8042 21.0375
#
#
#
# Elastic Compliance Matrix: (Units=1/GPa)
#
#
# Indices 1 2 3 4 5 6 
#
# 1 0.031867 0.001025 -0.007216 0.011031 -0.025662 -0.014928
# 2 0.001025 0.012332 -0.002836 -0.000204 -0.008685 -0.007845
# 3 -0.007216 -0.002836 0.008306 -0.003194 0.015686 0.009876
# 4 0.011031 -0.000204 -0.003194 0.036511 -0.022084 -0.007046
# 5 -0.025662 -0.008685 0.015686 -0.022084 0.103444 0.046935
# 6 -0.014928 -0.007845 0.009876 -0.007046 0.046935 0.071521
#
#
# Mechanical properties :
#
#
# Convention : Reuss Voigt Hill
#
# Bulk Modulus (GPa) = 29.02638 49.72184 39.37411
# Shear Modulus (GPa) = 17.03476 32.83651 24.93564
#
# Velocity S-wave (km/s) = 2.62255 3.64112 3.17298
# Velocity P-wave (km/s) = 4.57054 6.14428 5.41489
#
# Compressibility (1/GPa) = 0.03445142
#
# Stress axis : x y z
#
# Youngs Moduli (GPa) = 31.38081 81.09079 120.39833
#
# Poissons Ratio (x) = -0.08315 0.86883
# Poissons Ratio (y) = -0.03218 0.34139
# Poissons Ratio (z) = 0.22645 0.22993
#
# Static dielectric constant tensor:
#      x y z
#    x 2.142200 -0.015910 -0.050770 
#    y -0.015910 2.054810 0.015200 
#    z -0.050770 0.015200 1.960400 
# 
# From -- ./inp_files/143125.got.cif
#   From: 2010.05.17/outbox.cif.g08.bks.cpg/sg2_72_cif.got.tgz:143125.got - 2010.06.03 11:33:40.
