data_PCOD9011397
_publ_section_title
;
Structure prediction by ZEFSAII (Michael W. Deem and Ramdas Pophale) SiO2 
 PCOD9011397
Probable space group: P -1
;
_chemical_formula_sum "Si O2"
_cell_formula_units_Z 16
_cell_length_a 12.906430
_cell_length_b 17.695027
_cell_length_c 9.684553
_cell_angle_alpha 55.101269
_cell_angle_beta 155.550034
_cell_angle_gamma 136.117443
_cell_volume 606.762619
_symmetry_space_group_name_H-M "P -1"
_symmetry_group_IT_number 2
_symmetry_cell_setting 'triclinic'
loop_
_space_group_symop_operation_xyz
x,y,z
-x,-y,-z
loop_
_atom_site_type_symbol
_atom_site_label
_atom_site_fract_x
_atom_site_fract_y
_atom_site_fract_z
Si Si1 0.908797 0.077839 0.060614
Si Si2 0.552606 0.615341 0.397780
Si Si3 0.889316 0.069578 0.497226
Si Si4 0.551630 0.276967 0.063547
Si Si5 0.780468 0.141695 0.569786
Si Si6 0.318209 0.558137 0.730728
Si Si7 0.270944 0.614888 0.301825
Si Si8 0.801213 0.195446 0.054497
O O1 0.965773 0.153903 0.917774
O O2 0.589559 0.955864 0.756938
O O3 0.828896 0.122922 0.047733
O O4 0.153800 0.050725 0.426697
O O5 0.500000 0.500000 0.500000
O O6 0.570197 0.661894 0.521285
O O7 0.864003 0.691097 0.609928
O O8 0.341700 0.635432 0.025899
O O9 0.879312 0.094999 0.617584
O O10 0.698413 0.111646 0.148380
O O11 0.233333 0.157330 0.758964
O O12 0.795964 0.251626 0.428722
O O13 0.481826 0.324942 0.061565
O O14 0.269567 0.579734 0.492068
O O15 0.000000 0.500000 0.500000
O O16 0.500000 0.500000 0.000000
O O17 0.286646 0.728737 0.205009
O O18 0.000000 0.500000 0.000000
#
# Coordination Sequence:
#
# PCOD9011397 Si02
#       8
#     2   2   2   2   2   2   2   2
#     4  10  22  40  61  96 126 170 221 285 349 428
#     4  11  22  41  65  90 134 179 231 286 349 415
#     4  10  22  39  67  96 129 178 219 286 351 423
#     4  10  23  42  64  98 135 181 233 284 357 420
#     4  10  21  40  66  88 135 168 223 281 354 426
#     4  12  29  45  71 104 144 189 243 301 350 422
#     4  12  25  42  69  95 134 187 233 289 355 418
#     4  11  24  39  65  95 134 170 231 283 345 422
#
# _framework density 26.369456
#
# number of rings (size 3 to 8) (size 9 to 14) (size 15 to 20)
#    0.000    1.250    1.250    3.750    5.250    2.500 
#    0.000    0.000    0.000    0.000    0.000    0.000 
#    0.000    0.000    0.000    0.000    0.000    0.000 
#
# Total GULP energy -89186.987510 kJ/mol
# GULP energy per Si atom -5574.186719 kJ/mol
# Density = 2.630944 g / cm^3
# Si number density = 26.369456 Si / 1000 Ang^3
#
#
#
# Elastic Constant Matrix: (Units=GPa)
#
#
# Indices 1 2 3 4 5 6 
#
# 1 122.6180 20.9994 38.4134 -34.8493 -42.8637 -15.4595
# 2 20.9994 154.8622 69.9552 -47.8435 -20.8910 -1.3045
# 3 38.4134 69.9552 117.2946 -40.3468 -26.0692 3.6097
# 4 -34.8493 -47.8435 -40.3468 55.5488 4.8506 15.7578
# 5 -42.8637 -20.8910 -26.0692 4.8506 51.9080 -11.1866
# 6 -15.4595 -1.3045 3.6097 15.7578 -11.1866 56.5535
#
#
#
# Elastic Compliance Matrix: (Units=1/GPa)
#
#
# Indices 1 2 3 4 5 6 
#
# 1 0.016260 0.003146 -0.000795 0.009742 0.014396 0.004701
# 2 0.003146 0.010834 -0.003679 0.008287 0.004312 -0.000112
# 3 -0.000795 -0.003679 0.014368 0.007119 0.003889 -0.002434
# 4 0.009742 0.008287 0.007119 0.037222 0.010194 -0.005955
# 5 0.014396 0.004312 0.003889 0.010194 0.035610 0.007990
# 6 0.004701 -0.000112 -0.002434 -0.005955 0.007990 0.022360
#
#
# Mechanical properties :
#
#
# Convention : Reuss Voigt Hill
#
# Bulk Modulus (GPa) = 25.77009 72.61229 49.19119
# Shear Modulus (GPa) = 32.84145 50.49583 41.66864
#
# Velocity S-wave (km/s) = 3.53290 4.38075 3.97947
# Velocity P-wave (km/s) = 5.14157 7.29275 6.30952
#
# Compressibility (1/GPa) = 0.03880467
#
# Stress axis : x y z
#
# Youngs Moduli (GPa) = 61.50155 92.30377 69.59744
#
# Poissons Ratio (x) = -0.29036 0.05534
# Poissons Ratio (y) = -0.19347 0.25606
# Poissons Ratio (z) = 0.04890 0.33960
#
# Static dielectric constant tensor:
#      x y z
#    x 2.041040 0.103950 0.136090 
#    y 0.103950 2.169390 0.093370 
#    z 0.136090 0.093370 2.380600 
# 
# From -- ./inp_files/279260.got.cif
#   From: 2010.05.17/outbox.cif.g08.bks.cpg/sg2_140_cif.got.tgz:279260.got - 2010.06.03 11:33:40.
