data_PCOD9011188
_publ_section_title
;
Structure prediction by ZEFSAII (Michael W. Deem and Ramdas Pophale) SiO2 
 PCOD9011188
Probable space group: P -1
;
_chemical_formula_sum "Si O2"
_cell_formula_units_Z 16
_cell_length_a 5.349583
_cell_length_b 21.852308
_cell_length_c 7.077625
_cell_angle_alpha 83.404851
_cell_angle_beta 69.061961
_cell_angle_gamma 108.432661
_cell_volume 708.447930
_symmetry_space_group_name_H-M "P -1"
_symmetry_group_IT_number 2
_symmetry_cell_setting 'triclinic'
loop_
_space_group_symop_operation_xyz
x,y,z
-x,-y,-z
loop_
_atom_site_type_symbol
_atom_site_label
_atom_site_fract_x
_atom_site_fract_y
_atom_site_fract_z
Si Si1 0.549591 0.270327 0.775984
Si Si2 0.234977 0.916688 0.053285
Si Si3 0.328262 0.161421 0.601151
Si Si4 0.930267 0.581622 0.846458
Si Si5 0.514802 0.827512 0.855606
Si Si6 0.581642 0.975020 0.293001
Si Si7 0.429231 0.529036 0.704615
Si Si8 0.988661 0.698801 0.061734
O O1 0.397041 0.209912 0.988166
O O2 0.337142 0.309139 0.802651
O O3 0.850070 0.310988 0.787482
O O4 0.560525 0.229673 0.599940
O O5 0.480930 0.893564 0.913415
O O6 0.169229 0.961103 0.894606
O O7 0.334896 0.957782 0.204918
O O8 0.974352 0.850431 0.213487
O O9 0.301760 0.163107 0.384251
O O10 0.378360 0.094049 0.661215
O O11 0.722078 0.570947 0.725646
O O12 0.002480 0.651247 0.907193
O O13 0.217853 0.568875 0.718579
O O14 0.751844 0.529283 0.077253
O O15 0.191875 0.773632 0.916424
O O16 0.500000 0.000000 0.500000
O O17 0.500000 0.500000 0.500000
#
# Coordination Sequence:
#
# PCOD9011188 Si02
#       8
#     2   2   2   2   2   2   2   2
#     4  10  22  42  62  89 128 162 210 258 315 374
#     4  11  23  41  58  88 122 151 208 258 318 382
#     4  12  22  41  63  85 117 169 196 264 321 381
#     4  10  21  40  65  93 135 166 214 263 304 362
#     4  10  23  40  61  88 123 162 206 254 320 373
#     4  11  23  39  62  87 115 154 209 258 319 381
#     4  10  21  40  65  97 130 176 209 256 314 361
#     4  10  21  44  62  93 131 165 208 267 303 367
#
# _framework density 22.584579999999999
#
# number of rings (size 3 to 8) (size 9 to 14) (size 15 to 20)
#    0.750    0.750    3.750    1.500    0.000    2.500 
#    4.500    0.000    0.000    0.000    0.000    0.000 
#    0.000    0.000    0.000    0.000    0.000    0.000 
#
# Total GULP energy -89293.531565 kJ/mol
# GULP energy per Si atom -5580.845723 kJ/mol
# Density = 2.253318 g / cm^3
# Si number density = 22.584580 Si / 1000 Ang^3
#
#
#
# Elastic Constant Matrix: (Units=GPa)
#
#
# Indices 1 2 3 4 5 6 
#
# 1 121.1004 34.0446 39.7698 31.1782 -1.8219 -5.7904
# 2 34.0446 80.7385 29.0019 44.1746 -2.3179 0.3428
# 3 39.7698 29.0019 141.1780 42.2488 2.7258 1.6377
# 4 31.1782 44.1746 42.2488 47.7675 0.0579 0.0469
# 5 -1.8219 -2.3179 2.7258 0.0579 22.5998 14.5751
# 6 -5.7904 0.3428 1.6377 0.0469 14.5751 18.8652
#
#
#
# Elastic Compliance Matrix: (Units=1/GPa)
#
#
# Indices 1 2 3 4 5 6 
#
# 1 0.010464 -0.001930 -0.001431 -0.003782 -0.002695 0.005463
# 2 -0.001930 0.026423 0.002723 -0.025586 0.006168 -0.006010
# 3 -0.001431 0.002723 0.010090 -0.010507 -0.000325 -0.001088
# 4 -0.003782 -0.025586 -0.010507 0.056360 -0.003697 0.002933
# 5 -0.002695 0.006168 -0.000325 -0.003697 0.090274 -0.070647
# 6 0.005463 -0.006010 -0.001088 0.002933 -0.070647 0.109462
#
#
# Mechanical properties :
#
#
# Convention : Reuss Voigt Hill
#
# Bulk Modulus (GPa) = 21.88086 60.96104 41.42095
# Shear Modulus (GPa) = 15.64543 33.85988 24.75265
#
# Velocity S-wave (km/s) = 2.63487 3.87621 3.31418
# Velocity P-wave (km/s) = 4.35501 6.86180 5.74676
#
# Compressibility (1/GPa) = 0.04570205
#
# Stress axis : x y z
#
# Youngs Moduli (GPa) = 95.56192 37.84653 99.10574
#
# Poissons Ratio (x) = 0.07303 0.14181
# Poissons Ratio (y) = 0.18441 -0.26987
# Poissons Ratio (z) = 0.13674 -0.10306
#
# Static dielectric constant tensor:
#      x y z
#    x 1.881240 0.039900 -0.013210 
#    y 0.039900 1.907210 -0.048610 
#    z -0.013210 -0.048610 1.798710 
# 
# From -- ./inp_files/13403.got.cif
#   From: 2010.05.17/outbox.cif.g08.bks.cpg/sg2_7_cif.got.tgz:13403.got - 2010.06.03 11:33:40.
