data_PCOD9011673
_publ_section_title
;
Structure prediction by ZEFSAII (Michael W. Deem and Ramdas Pophale) SiO2 
 PCOD9011673
Probable space group: P -1
;
_chemical_formula_sum "Si O2"
_cell_formula_units_Z 15
_cell_length_a 5.223277
_cell_length_b 16.211221
_cell_length_c 7.333931
_cell_angle_alpha 121.553770
_cell_angle_beta 103.260221
_cell_angle_gamma 79.377589
_cell_volume 513.530280
_symmetry_space_group_name_H-M "P -1"
_symmetry_group_IT_number 2
_symmetry_cell_setting 'triclinic'
loop_
_space_group_symop_operation_xyz
x,y,z
-x,-y,-z
loop_
_atom_site_type_symbol
_atom_site_label
_atom_site_fract_x
_atom_site_fract_y
_atom_site_fract_z
Si Si1 0.069799 0.833984 0.220754
Si Si2 0.393984 0.354535 0.229760
Si Si3 0.396689 0.948428 0.688346
Si Si4 0.947573 0.382781 0.486513
Si Si5 0.198078 0.213371 0.516490
Si Si6 0.565230 0.355044 0.878380
Si Si7 0.000000 0.500000 0.000000
Si Si8 0.352215 0.865215 0.966833
O O1 0.228890 0.911365 0.451168
O O2 0.234887 0.729409 0.103811
O O3 0.094554 0.868069 0.057163
O O4 0.859251 0.805987 0.303865
O O5 0.145966 0.381806 0.347527
O O6 0.652132 0.404265 0.393512
O O7 0.354464 0.383619 0.040958
O O8 0.475207 0.238627 0.129989
O O9 0.676855 0.886172 0.654946
O O10 0.449063 0.059989 0.826976
O O11 0.279579 0.912291 0.815089
O O12 0.962340 0.272606 0.443578
O O13 0.026681 0.450843 0.740740
O O14 0.416735 0.292941 0.634924
O O15 0.743574 0.433999 0.924541
#
# Coordination Sequence:
#
# PCOD9011673 Si02
#       8
#     2   2   2   2   2   2   1   2
#     4  10  21  41  63  96 142 185 235 289 358 412
#     4  11  26  47  71 104 147 185 235 290 369 415
#     4  10  21  41  63 100 140 187 240 291 342 419
#     4  12  26  46  74 102 140 186 230 301 357 436
#     4  11  22  43  69  99 142 189 232 288 360 418
#     4  10  25  44  69 102 138 186 232 297 355 434
#     4  12  26  48  76 102 134 178 242 286 370 434
#     4  10  21  40  66  99 139 188 239 290 342 425
#
# _framework density 29.209571
#
# number of rings (size 3 to 8) (size 9 to 14) (size 15 to 20)
#    0.000    1.333    2.667    2.000    3.733    3.733 
#    2.400    2.000    0.000    0.000    0.000    0.000 
#    0.000    0.000    0.000    0.000    0.000    0.000 
#
# Total GULP energy -84035.714448 kJ/mol
# GULP energy per Si atom -5602.380963 kJ/mol
# Density = 2.914309 g / cm^3
# Si number density = 29.209571 Si / 1000 Ang^3
#
#
#
# Elastic Constant Matrix: (Units=GPa)
#
#
# Indices 1 2 3 4 5 6 
#
# 1 120.6225 58.9545 45.3977 0.7393 -32.2464 44.6541
# 2 58.9545 161.4951 59.0672 -3.3225 -36.8921 17.2847
# 3 45.3977 59.0672 159.2906 -1.7572 -24.0915 18.7692
# 4 0.7393 -3.3225 -1.7572 72.9966 6.7659 -3.8059
# 5 -32.2464 -36.8921 -24.0915 6.7659 43.2160 -5.4307
# 6 44.6541 17.2847 18.7692 -3.8059 -5.4307 53.4235
#
#
#
# Elastic Compliance Matrix: (Units=1/GPa)
#
#
# Indices 1 2 3 4 5 6 
#
# 1 0.016619 -0.002480 -0.001156 -0.001711 0.008405 -0.011950
# 2 -0.002480 0.008820 -0.001900 -0.000033 0.004670 0.000359
# 3 -0.001156 -0.001900 0.007679 -0.000096 0.001691 -0.000951
# 4 -0.001711 -0.000033 -0.000096 0.014131 -0.003302 0.002146
# 5 0.008405 0.004670 0.001691 -0.003302 0.034116 -0.005897
# 6 -0.011950 0.000359 -0.000951 0.002146 -0.005897 0.028478
#
#
# Mechanical properties :
#
#
# Convention : Reuss Voigt Hill
#
# Bulk Modulus (GPa) = 45.36272 85.36079 65.36176
# Shear Modulus (GPa) = 38.98208 52.45983 45.72095
#
# Velocity S-wave (km/s) = 3.65713 4.24250 3.96065
# Velocity P-wave (km/s) = 5.77898 7.29969 6.58339
#
# Compressibility (1/GPa) = 0.02204453
#
# Stress axis : x y z
#
# Youngs Moduli (GPa) = 60.17287 113.37613 130.22767
#
# Poissons Ratio (x) = 0.28118 0.15059
# Poissons Ratio (y) = 0.14923 0.24746
# Poissons Ratio (z) = 0.06958 0.21544
#
# Static dielectric constant tensor:
#      x y z
#    x 1.945420 0.027720 0.019800 
#    y 0.027720 2.214160 0.010440 
#    z 0.019800 0.010440 2.238260 
# 
# From -- ./inp_files/140344.got.cif
#   From: 2010.05.17/outbox.cif.g08.bks.cpg/sg2_71_cif.got.tgz:140344.got - 2010.06.03 11:33:40.
