data_PCOD9011867
_publ_section_title
;
Structure prediction by ZEFSAII (Michael W. Deem and Ramdas Pophale) SiO2 
 PCOD9011867
Probable space group: P -1
;
_chemical_formula_sum "Si O2"
_cell_formula_units_Z 16
_cell_length_a 5.540326
_cell_length_b 9.411146
_cell_length_c 18.391326
_cell_angle_alpha 47.364261
_cell_angle_beta 71.891411
_cell_angle_gamma 76.205463
_cell_volume 669.990191
_symmetry_space_group_name_H-M "P -1"
_symmetry_group_IT_number 2
_symmetry_cell_setting 'triclinic'
loop_
_space_group_symop_operation_xyz
x,y,z
-x,-y,-z
loop_
_atom_site_type_symbol
_atom_site_label
_atom_site_fract_x
_atom_site_fract_y
_atom_site_fract_z
Si Si1 0.398111 0.637375 0.219526
Si Si2 0.637618 0.694495 0.768631
Si Si3 0.799317 0.034169 0.288104
Si Si4 0.149173 0.372631 0.590687
Si Si5 0.523526 0.397839 0.422150
Si Si6 0.885292 0.126206 0.403187
Si Si7 0.057278 0.214646 0.893711
Si Si8 0.946031 0.554111 0.903923
O O1 0.486758 0.458813 0.219531
O O2 0.354577 0.541754 0.336233
O O3 0.644292 0.767825 0.160867
O O4 0.154053 0.730173 0.167941
O O5 0.495531 0.902336 0.715568
O O6 0.669884 0.609837 0.875699
O O7 0.910643 0.721565 0.695485
O O8 0.845799 0.997985 0.381309
O O9 0.923698 0.237588 0.188131
O O10 0.917349 0.843876 0.305602
O O11 0.404025 0.330341 0.531909
O O12 0.230227 0.492483 0.611082
O O13 0.000000 0.500000 0.500000
O O14 0.626722 0.227622 0.419999
O O15 0.000000 0.000000 0.500000
O O16 0.020481 0.371060 0.908601
O O17 0.000000 0.000000 0.000000
O O18 0.000000 0.500000 0.000000
#
# Coordination Sequence:
#
# PCOD9011867 Si02
#       8
#     2   2   2   2   2   2   2   2
#     4  11  22  43  72  98 136 177 232 289 344 412
#     4  10  21  40  67  96 133 170 229 293 330 412
#     4  11  22  43  64  97 130 174 230 281 342 407
#     4  11  27  42  62  93 144 179 227 282 345 420
#     4  11  24  42  61  97 131 183 225 281 346 413
#     4  11  22  36  68  97 127 176 235 280 342 404
#     4  11  24  45  71 103 136 175 232 292 348 415
#     4  10  23  43  64  97 133 175 223 280 348 412
#
# _framework density 23.880948
#
# number of rings (size 3 to 8) (size 9 to 14) (size 15 to 20)
#    0.000    1.250    2.500    3.375    5.250    5.500 
#    2.250    0.000    0.000    0.000    0.000    0.000 
#    0.000    0.000    0.000    0.000    0.000    0.000 
#
# Total GULP energy -89300.570381 kJ/mol
# GULP energy per Si atom -5581.285649 kJ/mol
# Density = 2.382659 g / cm^3
# Si number density = 23.880948 Si / 1000 Ang^3
#
#
#
# Elastic Constant Matrix: (Units=GPa)
#
#
# Indices 1 2 3 4 5 6 
#
# 1 75.3589 5.0223 34.4359 3.1680 16.9821 12.1412
# 2 5.0223 70.3187 25.5108 -16.7312 4.1237 10.5578
# 3 34.4359 25.5108 139.2934 1.4059 33.3515 11.2105
# 4 3.1680 -16.7312 1.4059 41.3834 13.2517 7.3688
# 5 16.9821 4.1237 33.3515 13.2517 48.3603 -3.1289
# 6 12.1412 10.5578 11.2105 7.3688 -3.1289 32.1295
#
#
#
# Elastic Compliance Matrix: (Units=1/GPa)
#
#
# Indices 1 2 3 4 5 6 
#
# 1 0.016560 0.001702 -0.002602 0.002446 -0.005288 -0.006985
# 2 0.001702 0.019021 -0.002317 0.010530 -0.004083 -0.008898
# 3 -0.002602 -0.002317 0.009961 0.001424 -0.006322 -0.002673
# 4 0.002446 0.010530 0.001424 0.034950 -0.013234 -0.014186
# 5 -0.005288 -0.004083 -0.006322 -0.013234 0.031623 0.011660
# 6 -0.006985 -0.008898 -0.002673 -0.014186 0.011660 0.042009
#
#
# Mechanical properties :
#
#
# Convention : Reuss Voigt Hill
#
# Bulk Modulus (GPa) = 25.57047 46.10100 35.83574
# Shear Modulus (GPa) = 28.80297 39.04145 33.92221
#
# Velocity S-wave (km/s) = 3.47667 4.04770 3.77300
# Velocity P-wave (km/s) = 5.18141 6.41807 5.83261
#
# Compressibility (1/GPa) = 0.03910760
#
# Stress axis : x y z
#
# Youngs Moduli (GPa) = 60.38819 52.57394 100.39092
#
# Poissons Ratio (x) = -0.08948 0.26122
# Poissons Ratio (y) = -0.10278 0.23260
# Poissons Ratio (z) = 0.15713 0.12181
#
# Static dielectric constant tensor:
#      x y z
#    x 2.111020 -0.081340 -0.050860 
#    y -0.081340 2.071040 -0.144390 
#    z -0.050860 -0.144390 2.038210 
# 
# From -- ./inp_files/547748.got.cif
#   From: 2010.05.17/outbox.cif.g08.bks.cpg/sg2_274_cif.got.tgz:547748.got - 2010.06.03 11:33:40.
