data_PCOD9011405
_publ_section_title
;
Structure prediction by ZEFSAII (Michael W. Deem and Ramdas Pophale) SiO2 
 PCOD9011405
Probable space group: P -1
;
_chemical_formula_sum "Si O2"
_cell_formula_units_Z 16
_cell_length_a 14.462714
_cell_length_b 15.070399
_cell_length_c 11.841007
_cell_angle_alpha 34.941901
_cell_angle_beta 41.439301
_cell_angle_gamma 28.915002
_cell_volume 709.891316
_symmetry_space_group_name_H-M "P -1"
_symmetry_group_IT_number 2
_symmetry_cell_setting 'triclinic'
loop_
_space_group_symop_operation_xyz
x,y,z
-x,-y,-z
loop_
_atom_site_type_symbol
_atom_site_label
_atom_site_fract_x
_atom_site_fract_y
_atom_site_fract_z
Si Si1 0.205664 0.762425 0.040381
Si Si2 0.083920 0.668619 0.588121
Si Si3 0.393675 0.271478 0.840330
Si Si4 0.393787 0.461983 0.983008
Si Si5 0.039949 0.591552 0.471130
Si Si6 0.636828 0.875786 0.608684
Si Si7 0.426098 0.621772 0.320554
Si Si8 0.351013 0.998302 0.300434
O O1 0.392322 0.703022 0.984142
O O2 0.186998 0.605948 0.276289
O O3 0.257946 0.679973 0.950225
O O4 0.000000 0.000000 0.000000
O O5 0.192401 0.514626 0.757756
O O6 0.090894 0.536139 0.616917
O O7 0.217339 0.714142 0.387017
O O8 0.867153 0.881688 0.595851
O O9 0.551557 0.212967 0.845881
O O10 0.494954 0.221150 0.678173
O O11 0.336956 0.147358 0.066248
O O12 0.427904 0.506986 0.781871
O O13 0.321909 0.338164 0.180804
O O14 0.000000 0.500000 0.500000
O O15 0.826967 0.819008 0.451656
O O16 0.564388 0.007094 0.653042
O O17 0.500000 0.000000 0.500000
O O18 0.500000 0.500000 0.500000
#
# Coordination Sequence:
#
# PCOD9011405 Si02
#       8
#     2   2   2   2   2   2   2   2
#     4  11  24  43  65  95 130 172 220 268 335 391
#     4  10  22  40  62  88 128 163 211 262 323 382
#     4  10  21  40  66  89 124 164 216 266 320 378
#     4  11  22  44  67  89 135 172 215 279 318 389
#     4  11  22  40  62  94 130 166 211 269 325 392
#     4  11  23  39  66  94 130 172 218 263 334 394
#     4  10  21  42  67  91 124 175 218 260 325 383
#     4  10  22  39  61  95 125 162 213 271 316 381
#
# _framework density 22.538661000000001
#
# number of rings (size 3 to 8) (size 9 to 14) (size 15 to 20)
#    0.000    1.500    3.750    1.125    1.750    0.500 
#   11.250    2.500    0.000    0.000    0.000    0.000 
#    0.000    0.000    0.000    0.000    0.000    0.000 
#
# Total GULP energy -89075.082708 kJ/mol
# GULP energy per Si atom -5567.192669 kJ/mol
# Density = 2.248736 g / cm^3
# Si number density = 22.538661 Si / 1000 Ang^3
#
#
#
# Elastic Constant Matrix: (Units=GPa)
#
#
# Indices 1 2 3 4 5 6 
#
# 1 108.5034 36.8293 9.7003 20.4650 0.1444 6.2361
# 2 36.8293 100.4339 12.2902 32.3479 9.4943 9.1593
# 3 9.7003 12.2902 67.2055 27.4793 3.9815 -0.6805
# 4 20.4650 32.3479 27.4793 37.8679 4.4700 8.7227
# 5 0.1444 9.4943 3.9815 4.4700 39.9963 11.1859
# 6 6.2361 9.1593 -0.6805 8.7227 11.1859 34.0114
#
#
#
# Elastic Compliance Matrix: (Units=1/GPa)
#
#
# Indices 1 2 3 4 5 6 
#
# 1 0.010900 -0.002917 0.000380 -0.003665 0.001210 -0.000664
# 2 -0.002917 0.015229 0.003465 -0.013847 -0.002662 0.000930
# 3 0.000380 0.003465 0.022878 -0.020770 -0.002332 0.005549
# 4 -0.003665 -0.013847 -0.020770 0.057688 0.002141 -0.011513
# 5 0.001210 -0.002662 -0.002332 0.002141 0.028249 -0.009391
# 6 -0.000664 0.000930 0.005549 -0.011513 -0.009391 0.035426
#
#
# Mechanical properties :
#
#
# Convention : Reuss Voigt Hill
#
# Bulk Modulus (GPa) = 19.66044 43.75360 31.70702
# Shear Modulus (GPa) = 26.95865 36.86332 31.91099
#
# Velocity S-wave (km/s) = 3.46223 4.04859 3.76684
# Velocity P-wave (km/s) = 4.97239 6.42726 5.74605
#
# Compressibility (1/GPa) = 0.05086355
#
# Stress axis : x y z
#
# Youngs Moduli (GPa) = 91.74101 65.66307 43.71007
#
# Poissons Ratio (x) = 0.19155 -0.01662
# Poissons Ratio (y) = 0.26763 -0.15145
# Poissons Ratio (z) = -0.03488 -0.22752
#
# Static dielectric constant tensor:
#      x y z
#    x 1.977040 0.072780 -0.043030 
#    y 0.072780 1.884730 -0.042220 
#    z -0.043030 -0.042220 1.884790 
# 
# From -- ./inp_files/454503.got.cif
#   From: 2010.05.17/outbox.cif.g08.bks.cpg/sg2_228_cif.got.tgz:454503.got - 2010.06.03 11:33:40.
