data_PCOD9011390
_publ_section_title
;
Structure prediction by ZEFSAII (Michael W. Deem and Ramdas Pophale) SiO2 
 PCOD9011390
Probable space group: P -1
;
_chemical_formula_sum "Si O2"
_cell_formula_units_Z 14
_cell_length_a 11.967769
_cell_length_b 10.570810
_cell_length_c 12.354492
_cell_angle_alpha 118.488090
_cell_angle_beta 141.555809
_cell_angle_gamma 35.423842
_cell_volume 503.724399
_symmetry_space_group_name_H-M "P -1"
_symmetry_group_IT_number 2
_symmetry_cell_setting 'triclinic'
loop_
_space_group_symop_operation_xyz
x,y,z
-x,-y,-z
loop_
_atom_site_type_symbol
_atom_site_label
_atom_site_fract_x
_atom_site_fract_y
_atom_site_fract_z
Si Si1 0.381807 0.606827 0.273037
Si Si2 0.171991 0.130594 0.308443
Si Si3 0.702389 0.099783 0.904112
Si Si4 0.500422 0.383890 0.064786
Si Si5 0.634895 0.607474 0.656241
Si Si6 0.303828 0.087193 0.627997
Si Si7 0.219806 0.077752 0.799516
O O1 0.459301 0.687203 0.444348
O O2 0.502956 0.392229 0.348325
O O3 0.515243 0.503775 0.212333
O O4 0.018498 0.831744 0.079030
O O5 0.232345 0.958524 0.199617
O O6 0.867466 0.404631 0.141523
O O7 0.500000 0.000000 0.500000
O O8 0.119395 0.163286 0.411581
O O9 0.418602 0.176621 0.745238
O O10 0.641423 0.278514 0.007178
O O11 0.679505 0.139451 0.163643
O O12 0.609791 0.790959 0.734444
O O13 0.952674 0.329372 0.762287
O O14 0.149705 0.137986 0.643015
O O15 0.500000 0.000000 0.000000
#
# Coordination Sequence:
#
# PCOD9011390 Si02
#       7
#     2   2   2   2   2   2   2
#     4  10  22  40  60  92 120 169 196 251 305 362
#     4   9  23  39  60  90 123 169 197 248 304 363
#     4  10  21  40  66  87 120 165 205 246 306 355
#     4  11  21  39  63  89 124 156 207 246 303 367
#     4  11  24  38  61  91 131 155 203 251 308 362
#     4  11  23  40  63  94 127 153 207 254 306 358
#     4  12  24  36  62 101 122 157 196 261 314 348
#
# _framework density 27.792974999999998
#
# number of rings (size 3 to 8) (size 9 to 14) (size 15 to 20)
#    0.000    1.429    4.286    0.000    6.000    6.286 
#    0.000    2.857    0.000    5.143    0.000    0.000 
#    0.000    0.000    0.000    0.000    0.000    0.000 
#
# Total GULP energy -78327.680958 kJ/mol
# GULP energy per Si atom -5594.834354 kJ/mol
# Density = 2.772972 g / cm^3
# Si number density = 27.792975 Si / 1000 Ang^3
#
#
#
# Elastic Constant Matrix: (Units=GPa)
#
#
# Indices 1 2 3 4 5 6 
#
# 1 101.6798 20.6647 37.4396 21.1766 -46.5663 -44.1536
# 2 20.6647 159.3318 32.9254 33.2536 -9.7555 -28.3878
# 3 37.4396 32.9254 151.6541 21.0760 -25.5753 -19.4119
# 4 21.1766 33.2536 21.0760 54.6900 -11.3070 -4.7315
# 5 -46.5663 -9.7555 -25.5753 -11.3070 58.4550 21.7116
# 6 -44.1536 -28.3878 -19.4119 -4.7315 21.7116 44.5505
#
#
#
# Elastic Compliance Matrix: (Units=1/GPa)
#
#
# Indices 1 2 3 4 5 6 
#
# 1 0.024680 0.002617 -0.001394 -0.006658 0.010969 0.019467
# 2 0.002617 0.008514 -0.000922 -0.005335 -0.000670 0.007377
# 3 -0.001394 -0.000922 0.007676 -0.001480 0.001655 0.000412
# 4 -0.006658 -0.005335 -0.001480 0.024145 0.001012 -0.008572
# 5 0.010969 -0.000670 0.001655 0.001012 0.027431 -0.002096
# 6 0.019467 0.007377 0.000412 -0.008572 -0.002096 0.046731
#
#
# Mechanical properties :
#
#
# Convention : Reuss Voigt Hill
#
# Bulk Modulus (GPa) = 24.11288 66.08058 45.09673
# Shear Modulus (GPa) = 32.80858 52.98150 42.89504
#
# Velocity S-wave (km/s) = 3.43951 4.37085 3.93285
# Velocity P-wave (km/s) = 4.94655 7.02140 6.07324
#
# Compressibility (1/GPa) = 0.04147161
#
# Stress axis : x y z
#
# Youngs Moduli (GPa) = 40.51913 117.45214 130.28154
#
# Poissons Ratio (x) = -0.30735 0.18162
# Poissons Ratio (y) = -0.10603 0.12009
# Poissons Ratio (z) = 0.05648 0.10826
#
# Static dielectric constant tensor:
#      x y z
#    x 1.864660 0.229480 -0.390330 
#    y 0.229480 1.992350 0.175000 
#    z -0.390330 0.175000 1.864720 
# 
# From -- ./inp_files/455811.got.cif
#   From: 2010.05.17/outbox.cif.g08.bks.cpg/sg2_228_cif.got.tgz:455811.got - 2010.06.03 11:33:40.
