data_PCOD9011296
_publ_section_title
;
Structure prediction by ZEFSAII (Michael W. Deem and Ramdas Pophale) SiO2 
 PCOD9011296
Probable space group: P -1
;
_chemical_formula_sum "Si O2"
_cell_formula_units_Z 14
_cell_length_a 4.937556
_cell_length_b 16.514689
_cell_length_c 9.147602
_cell_angle_alpha 113.048286
_cell_angle_beta 71.751613
_cell_angle_gamma 85.716028
_cell_volume 635.024339
_symmetry_space_group_name_H-M "P -1"
_symmetry_group_IT_number 2
_symmetry_cell_setting 'triclinic'
loop_
_space_group_symop_operation_xyz
x,y,z
-x,-y,-z
loop_
_atom_site_type_symbol
_atom_site_label
_atom_site_fract_x
_atom_site_fract_y
_atom_site_fract_z
Si Si1 0.198720 0.565660 0.154183
Si Si2 0.583708 0.280957 0.090740
Si Si3 0.239282 0.857693 0.270694
Si Si4 0.349278 0.037415 0.400414
Si Si5 0.356944 0.729292 0.414612
Si Si6 0.694167 0.790706 0.638715
Si Si7 0.022379 0.393836 0.100681
O O1 0.295955 0.639099 0.290334
O O2 0.021392 0.497776 0.209569
O O3 0.500000 0.500000 0.000000
O O4 0.021526 0.607911 0.069305
O O5 0.442136 0.230524 0.202317
O O6 0.323812 0.334863 0.070029
O O7 0.761400 0.351225 0.173929
O O8 0.796482 0.207513 0.901214
O O9 0.424587 0.793596 0.317659
O O10 0.956975 0.904953 0.444724
O O11 0.347851 0.943816 0.253143
O O12 0.449424 0.109752 0.331491
O O13 0.500000 0.000000 0.500000
O O14 0.610752 0.722304 0.484557
O O15 0.044910 0.775443 0.575332
#
# Coordination Sequence:
#
# PCOD9011296 Si02
#       7
#     2   2   2   2   2   2   2
#     4  11  23  40  72 102 123 164 228 273 310 372
#     4  12  25  44  64  96 134 175 208 264 330 388
#     4  10  22  38  68  92 126 166 222 265 318 375
#     4  10  21  40  65  97 125 166 219 273 309 379
#     4  11  23  42  67  94 124 175 215 265 318 384
#     4  11  26  43  63  94 138 170 210 263 332 384
#     4  11  24  40  67  97 129 162 219 272 309 382
#
# _framework density 22.046398
#
# number of rings (size 3 to 8) (size 9 to 14) (size 15 to 20)
#    0.000    1.143    4.286    0.857    8.000    0.571 
#    0.000    5.000    0.000    0.000    0.000    0.000 
#    0.000    0.000    0.000    0.000    0.000    0.000 
#
# Total GULP energy -78174.344925 kJ/mol
# GULP energy per Si atom -5583.881780 kJ/mol
# Density = 2.199622 g / cm^3
# Si number density = 22.046398 Si / 1000 Ang^3
#
#
#
# Elastic Constant Matrix: (Units=GPa)
#
#
# Indices 1 2 3 4 5 6 
#
# 1 85.4497 31.5956 -3.2692 8.1560 5.9865 6.0202
# 2 31.5956 164.1622 42.3332 2.9036 2.3079 26.1333
# 3 -3.2692 42.3332 42.5025 4.1514 1.9195 6.3109
# 4 8.1560 2.9036 4.1514 26.0529 8.9052 -0.4686
# 5 5.9865 2.3079 1.9195 8.9052 24.5835 -2.0516
# 6 6.0202 26.1333 6.3109 -0.4686 -2.0516 37.8046
#
#
#
# Elastic Compliance Matrix: (Units=1/GPa)
#
#
# Indices 1 2 3 4 5 6 
#
# 1 0.013944 -0.003921 0.005562 -0.004137 -0.002013 -0.000599
# 2 -0.003921 0.010101 -0.009815 0.001656 -0.000220 -0.004711
# 3 0.005562 -0.009815 0.034335 -0.005769 -0.001021 0.000040
# 4 -0.004137 0.001656 -0.005769 0.045614 -0.015203 0.000217
# 5 -0.002013 -0.000220 -0.001021 -0.015203 0.047026 0.003007
# 6 -0.000599 -0.004711 0.000040 0.000217 0.003007 0.029963
#
#
# Mechanical properties :
#
#
# Convention : Reuss Voigt Hill
#
# Bulk Modulus (GPa) = 23.79152 48.15928 35.97540
# Shear Modulus (GPa) = 23.65854 32.45186 28.05520
#
# Velocity S-wave (km/s) = 3.27941 3.84080 3.57116
# Velocity P-wave (km/s) = 5.01542 6.44678 5.77561
#
# Compressibility (1/GPa) = 0.04203178
#
# Stress axis : x y z
#
# Youngs Moduli (GPa) = 71.71788 99.00090 29.12488
#
# Poissons Ratio (x) = 0.38819 -0.16199
# Poissons Ratio (y) = 0.28121 0.28585
# Poissons Ratio (z) = -0.39889 0.97165
#
# Static dielectric constant tensor:
#      x y z
#    x 1.881470 0.023560 0.001020 
#    y 0.023560 1.886470 0.027530 
#    z 0.001020 0.027530 1.810610 
# 
# From -- ./inp_files/90908.got.cif
#   From: 2010.05.17/outbox.cif.g08.bks.cpg/sg2_46_cif.got.tgz:90908.got - 2010.06.03 11:33:40.
