data_PCOD9011096
_publ_section_title
;
Structure prediction by ZEFSAII (Michael W. Deem and Ramdas Pophale) SiO2 
 PCOD9011096
Probable space group: P -1
;
_chemical_formula_sum "Si O2"
_cell_formula_units_Z 12
_cell_length_a 8.595520
_cell_length_b 12.239513
_cell_length_c 14.752352
_cell_angle_alpha 28.333475
_cell_angle_beta 79.473851
_cell_angle_gamma 99.124073
_cell_volume 527.988350
_symmetry_space_group_name_H-M "P -1"
_symmetry_group_IT_number 2
_symmetry_cell_setting 'triclinic'
loop_
_space_group_symop_operation_xyz
x,y,z
-x,-y,-z
loop_
_atom_site_type_symbol
_atom_site_label
_atom_site_fract_x
_atom_site_fract_y
_atom_site_fract_z
Si Si1 0.322084 0.760522 0.414337
Si Si2 0.401454 0.150817 0.277079
Si Si3 0.701374 0.878551 0.217009
Si Si4 0.784797 0.303423 0.222815
Si Si5 0.165048 0.262981 0.946970
Si Si6 0.286351 0.912040 0.126533
O O1 0.576598 0.962472 0.219421
O O2 0.238633 0.474703 0.695369
O O3 0.295838 0.957197 0.336981
O O4 0.210369 0.669420 0.393892
O O5 0.589752 0.157027 0.281050
O O6 0.243921 0.950479 0.525562
O O7 0.500000 0.500000 0.000000
O O8 0.500000 0.500000 0.500000
O O9 0.801148 0.079033 0.966448
O O10 0.903850 0.972740 0.180152
O O11 0.789627 0.528875 0.124544
O O12 0.000000 0.500000 0.000000
O O13 0.299223 0.161418 0.000563
O O14 0.500000 0.000000 0.000000
#
# Coordination Sequence:
#
# PCOD9011096 Si02
#       6
#     2   2   2   2   2   2
#     4  10  22  40  61  90 124 163 209 252 311 370
#     4  10  21  40  65  91 127 163 206 265 311 374
#     4  11  22  40  62  89 124 166 208 254 306 365
#     4  10  22  40  64  95 124 167 210 254 321 376
#     4  11  22  41  63  87 129 166 205 258 310 368
#     4  10  22  39  61  91 121 163 207 250 307 366
#
# _framework density 22.727772999999999
#
# number of rings (size 3 to 8) (size 9 to 14) (size 15 to 20)
#    0.000    1.667    1.667    2.500    0.000    1.333 
#    9.000    0.000    0.000    0.000    0.000    0.000 
#    0.000    0.000    0.000    0.000    0.000    0.000 
#
# Total GULP energy -66885.737624 kJ/mol
# GULP energy per Si atom -5573.811469 kJ/mol
# Density = 2.267604 g / cm^3
# Si number density = 22.727773 Si / 1000 Ang^3
#
#
#
# Elastic Constant Matrix: (Units=GPa)
#
#
# Indices 1 2 3 4 5 6 
#
# 1 56.7251 37.8883 22.8697 -0.2031 3.2324 -3.4093
# 2 37.8883 76.3846 32.0113 27.2856 -0.9280 1.7434
# 3 22.8697 32.0113 114.8794 27.9994 6.4894 -8.3459
# 4 -0.2031 27.2856 27.9994 44.5916 -1.1651 4.6323
# 5 3.2324 -0.9280 6.4894 -1.1651 38.8344 -2.7798
# 6 -3.4093 1.7434 -8.3459 4.6323 -2.7798 40.5897
#
#
#
# Elastic Compliance Matrix: (Units=1/GPa)
#
#
# Indices 1 2 3 4 5 6 
#
# 1 0.032898 -0.019821 -0.004502 0.014966 -0.001950 0.000847
# 2 -0.019821 0.029375 -0.000027 -0.017923 0.001764 -0.000766
# 3 -0.004502 -0.000027 0.011793 -0.007744 -0.001627 0.002820
# 4 0.014966 -0.017923 -0.007744 0.038747 0.000500 -0.003953
# 5 -0.001950 0.001764 -0.001627 0.000500 0.026326 0.001172
# 6 0.000847 -0.000766 0.002820 -0.003953 0.001172 0.025852
#
#
# Mechanical properties :
#
#
# Convention : Reuss Voigt Hill
#
# Bulk Modulus (GPa) = 39.42023 48.16974 43.79499
# Shear Modulus (GPa) = 22.50771 35.15113 28.82942
#
# Velocity S-wave (km/s) = 3.15034 3.93697 3.56542
# Velocity P-wave (km/s) = 5.53309 6.47353 6.02169
#
# Compressibility (1/GPa) = 0.02536769
#
# Stress axis : x y z
#
# Youngs Moduli (GPa) = 30.39671 34.04220 84.79730
#
# Poissons Ratio (x) = 0.67473 0.38177
# Poissons Ratio (y) = 0.60248 0.00226
# Poissons Ratio (z) = 0.13685 0.00091
#
# Static dielectric constant tensor:
#      x y z
#    x 1.900780 0.014840 0.001290 
#    y 0.014840 1.870630 -0.021670 
#    z 0.001290 -0.021670 1.882350 
# 
# From -- ./inp_files/36466.got.cif
#   From: 2010.05.17/outbox.cif.g08.bks.cpg/sg2_19_cif.got.tgz:36466.got - 2010.06.03 11:33:40.
