data_PCOD9011572
_publ_section_title
;
Structure prediction by ZEFSAII (Michael W. Deem and Ramdas Pophale) SiO2 
 PCOD9011572
Probable space group: P -1
;
_chemical_formula_sum "Si O2"
_cell_formula_units_Z 16
_cell_length_a 21.745311
_cell_length_b 12.652397
_cell_length_c 18.137852
_cell_angle_alpha 150.856651
_cell_angle_beta 160.183518
_cell_angle_gamma 29.974382
_cell_volume 793.290586
_symmetry_space_group_name_H-M "P -1"
_symmetry_group_IT_number 2
_symmetry_cell_setting 'triclinic'
loop_
_space_group_symop_operation_xyz
x,y,z
-x,-y,-z
loop_
_atom_site_type_symbol
_atom_site_label
_atom_site_fract_x
_atom_site_fract_y
_atom_site_fract_z
Si Si1 0.003431 0.553769 0.122677
Si Si2 0.653947 0.598480 0.858918
Si Si3 0.240430 0.072831 0.119118
Si Si4 0.858500 0.613420 0.252112
Si Si5 0.009262 0.893067 0.864275
Si Si6 0.503844 0.963310 0.127713
Si Si7 0.109876 0.956224 0.738136
Si Si8 0.405375 0.866650 0.509581
O O1 0.153906 0.341565 0.197417
O O2 0.017702 0.809361 0.297940
O O3 0.000000 0.500000 0.000000
O O4 0.803470 0.560158 0.937296
O O5 0.524441 0.850562 0.855271
O O6 0.553354 0.399871 0.620132
O O7 0.773680 0.574924 0.053946
O O8 0.461765 0.031856 0.330962
O O9 0.155833 0.006279 0.905789
O O10 0.174517 0.944990 0.033552
O O11 0.956846 0.373426 0.252400
O O12 0.003433 0.764391 0.498733
O O13 0.679778 0.753691 0.182697
O O14 0.812709 0.016063 0.678871
O O15 0.000000 0.000000 0.000000
O O16 0.543720 0.087933 0.322258
O O17 0.308317 0.900528 0.884382
#
# Coordination Sequence:
#
# PCOD9011572 Si02
#       8
#     2   2   2   2   2   2   2   2
#     4   9  18  36  64  94 127 164 211 262 314 379
#     4  11  22  43  63 100 135 164 216 267 324 384
#     4  10  21  40  66  96 124 171 222 263 313 376
#     4  12  25  42  66  92 136 179 201 269 327 380
#     4  12  25  46  62  93 134 173 222 256 318 393
#     4  10  24  41  66  99 129 163 217 267 326 382
#     4   9  22  40  62  97 131 165 213 264 325 383
#     4  11  23  42  69  95 125 173 218 270 310 381
#
# _framework density 20.169155
#
# number of rings (size 3 to 8) (size 9 to 14) (size 15 to 20)
#    0.000    1.500    2.500    2.250    3.500    5.500 
#    4.500    2.500    0.000    0.000    0.000    0.000 
#    0.000    0.000    0.000    0.000    0.000    0.000 
#
# Total GULP energy -89409.820355 kJ/mol
# GULP energy per Si atom -5588.113772 kJ/mol
# Density = 2.012325 g / cm^3
# Si number density = 20.169155 Si / 1000 Ang^3
#
#
#
# Elastic Constant Matrix: (Units=GPa)
#
#
# Indices 1 2 3 4 5 6 
#
# 1 136.9118 -9.3403 -13.7293 47.2054 34.8391 -16.8814
# 2 -9.3403 102.4406 36.5326 18.4909 11.7084 7.6785
# 3 -13.7293 36.5326 106.8103 0.7691 1.7606 11.7752
# 4 47.2054 18.4909 0.7691 43.8291 17.2986 -4.2202
# 5 34.8391 11.7084 1.7606 17.2986 29.4329 -3.4289
# 6 -16.8814 7.6785 11.7752 -4.2202 -3.4289 36.6968
#
#
#
# Elastic Compliance Matrix: (Units=1/GPa)
#
#
# Indices 1 2 3 4 5 6 
#
# 1 0.016249 0.005157 0.000248 -0.014450 -0.012400 0.003496
# 2 0.005157 0.014024 -0.003861 -0.009024 -0.006258 -0.000946
# 3 0.000248 -0.003861 0.010990 0.001057 -0.000329 -0.002514
# 4 -0.014450 -0.009024 0.001057 0.044268 -0.005447 -0.000517
# 5 -0.012400 -0.006258 -0.000329 -0.005447 0.054383 0.000166
# 6 0.003496 -0.000946 -0.002514 -0.000517 0.000166 0.029819
#
#
# Mechanical properties :
#
#
# Convention : Reuss Voigt Hill
#
# Bulk Modulus (GPa) = 22.54812 41.45428 32.00120
# Shear Modulus (GPa) = 27.55884 44.17174 35.86529
#
# Velocity S-wave (km/s) = 3.70048 4.68489 4.22148
# Velocity P-wave (km/s) = 5.42787 7.06132 6.29778
#
# Compressibility (1/GPa) = 0.04434960
#
# Stress axis : x y z
#
# Youngs Moduli (GPa) = 61.54104 71.30644 90.99246
#
# Poissons Ratio (x) = -0.36770 -0.02256
# Poissons Ratio (y) = -0.31735 0.35136
# Poissons Ratio (z) = -0.01526 0.27535
#
# Static dielectric constant tensor:
#      x y z
#    x 1.710000 -0.001930 -0.001940 
#    y -0.001930 1.727890 -0.008070 
#    z -0.001940 -0.008070 1.699250 
# 
# From -- ./inp_files/273862.got.cif
#   From: 2010.05.17/outbox.cif.g08.bks.cpg/sg2_137_cif.got.tgz:273862.got - 2010.06.03 11:33:40.
