data_PCOD9011751
_publ_section_title
;
Structure prediction by ZEFSAII (Michael W. Deem and Ramdas Pophale) SiO2 
 PCOD9011751
Probable space group: P -1
;
_chemical_formula_sum "Si O2"
_cell_formula_units_Z 16
_cell_length_a 11.574847
_cell_length_b 11.506840
_cell_length_c 9.386498
_cell_angle_alpha 83.794788
_cell_angle_beta 145.718749
_cell_angle_gamma 97.976305
_cell_volume 697.314001
_symmetry_space_group_name_H-M "P -1"
_symmetry_group_IT_number 2
_symmetry_cell_setting 'triclinic'
loop_
_space_group_symop_operation_xyz
x,y,z
-x,-y,-z
loop_
_atom_site_type_symbol
_atom_site_label
_atom_site_fract_x
_atom_site_fract_y
_atom_site_fract_z
Si Si1 0.434727 0.709344 0.335841
Si Si2 0.195807 0.584837 0.644709
Si Si3 0.734343 0.971522 0.790821
Si Si4 0.393048 0.262993 0.188273
Si Si5 0.168391 0.843141 0.888786
Si Si6 0.466423 0.514066 0.184014
Si Si7 0.242269 0.080763 0.481292
Si Si8 0.319362 0.835271 0.732883
O O1 0.445813 0.718473 0.516132
O O2 0.495476 0.589480 0.345657
O O3 0.589935 0.814992 0.412707
O O4 0.212890 0.729576 0.040743
O O5 0.319920 0.527410 0.652338
O O6 0.156114 0.720179 0.555498
O O7 0.000000 0.500000 0.500000
O O8 0.358546 0.586534 0.942566
O O9 0.757455 0.840905 0.889039
O O10 0.843400 0.975683 0.748517
O O11 0.500000 0.000000 0.500000
O O12 0.769792 0.053789 0.951131
O O13 0.326093 0.391671 0.077719
O O14 0.488187 0.212030 0.148779
O O15 0.304080 0.849930 0.884607
O O16 0.930270 0.857590 0.614812
O O17 0.299070 0.965102 0.635702
#
# Coordination Sequence:
#
# PCOD9011751 Si02
#       8
#     2   2   2   2   2   2   2   2
#     4  11  22  42  65  92 129 163 206 257 307 371
#     4  10  23  42  63  89 130 163 202 263 308 362
#     4  11  20  42  63  90 125 165 201 255 314 359
#     4  10  21  40  67  91 125 165 207 255 312 368
#     4  12  23  38  64  91 127 167 202 254 309 371
#     4  10  22  41  64  93 119 170 209 250 310 366
#     4  11  24  40  63  95 127 163 205 256 313 370
#     4  11  22  41  61  97 125 159 211 255 312 369
#
# _framework density 22.945187000000001
#
# number of rings (size 3 to 8) (size 9 to 14) (size 15 to 20)
#    0.000    1.250    5.000    1.125    1.750    3.000 
#    0.000    3.750    0.000    7.500    0.000    0.000 
#    0.000    0.000    0.000    0.000    0.000    0.000 
#
# Total GULP energy -89188.705960 kJ/mol
# GULP energy per Si atom -5574.294122 kJ/mol
# Density = 2.289296 g / cm^3
# Si number density = 22.945187 Si / 1000 Ang^3
#
#
#
# Elastic Constant Matrix: (Units=GPa)
#
#
# Indices 1 2 3 4 5 6 
#
# 1 105.0493 41.5463 27.8963 5.8645 -30.4795 -16.4638
# 2 41.5463 117.0944 13.0232 -11.5336 4.4160 -9.7174
# 3 27.8963 13.0232 23.3533 -3.7939 -8.6441 -7.3889
# 4 5.8645 -11.5336 -3.7939 28.8384 2.5047 -7.6997
# 5 -30.4795 4.4160 -8.6441 2.5047 26.2638 6.8112
# 6 -16.4638 -9.7174 -7.3889 -7.6997 6.8112 42.9408
#
#
#
# Elastic Compliance Matrix: (Units=1/GPa)
#
#
# Indices 1 2 3 4 5 6 
#
# 1 0.028477 -0.010826 -0.020190 -0.016154 0.030473 -0.002736
# 2 -0.010826 0.014141 0.001948 0.010562 -0.016310 0.003865
# 3 -0.020190 0.001948 0.069491 0.016669 -0.004651 0.008384
# 4 -0.016154 0.010562 0.016669 0.049433 -0.022742 0.011536
# 5 0.030473 -0.016310 -0.004651 -0.022742 0.079274 -0.009460
# 6 -0.002736 0.003865 0.008384 0.011536 -0.009460 0.028125
#
#
# Mechanical properties :
#
#
# Convention : Reuss Voigt Hill
#
# Bulk Modulus (GPa) = 18.52776 45.60317 32.06547
# Shear Modulus (GPa) = 14.48987 30.47734 22.48361
#
# Velocity S-wave (km/s) = 2.51569 3.64849 3.13370
# Velocity P-wave (km/s) = 4.06578 6.13732 5.20563
#
# Compressibility (1/GPa) = 0.05397306
#
# Stress axis : x y z
#
# Youngs Moduli (GPa) = 35.11589 70.71736 14.39031
#
# Poissons Ratio (x) = 0.76558 0.29054
# Poissons Ratio (y) = 0.38016 -0.02803
# Poissons Ratio (z) = 0.70899 -0.13775
#
# Static dielectric constant tensor:
#      x y z
#    x 1.873320 0.009120 0.068850 
#    y 0.009120 1.908530 0.016470 
#    z 0.068850 0.016470 2.025300 
# 
# From -- ./inp_files/258344.got.cif
#   From: 2010.05.17/outbox.cif.g08.bks.cpg/sg2_130_cif.got.tgz:258344.got - 2010.06.03 11:33:40.
