data_PCOD9011453
_publ_section_title
;
Structure prediction by ZEFSAII (Michael W. Deem and Ramdas Pophale) SiO2 
 PCOD9011453
Probable space group: P -1
;
_chemical_formula_sum "Si O2"
_cell_formula_units_Z 14
_cell_length_a 17.556216
_cell_length_b 11.778663
_cell_length_c 8.360304
_cell_angle_alpha 81.681543
_cell_angle_beta 51.073670
_cell_angle_gamma 40.110140
_cell_volume 643.151074
_symmetry_space_group_name_H-M "P -1"
_symmetry_group_IT_number 2
_symmetry_cell_setting 'triclinic'
loop_
_space_group_symop_operation_xyz
x,y,z
-x,-y,-z
loop_
_atom_site_type_symbol
_atom_site_label
_atom_site_fract_x
_atom_site_fract_y
_atom_site_fract_z
Si Si1 0.803770 0.133746 0.297692
Si Si2 0.844052 0.909259 0.777546
Si Si3 0.608571 0.332081 0.183521
Si Si4 0.761282 0.804659 0.641985
Si Si5 0.119954 0.718150 0.202411
Si Si6 0.897152 0.636491 0.943825
Si Si7 0.370068 0.236589 0.911124
O O1 0.685061 0.208707 0.282568
O O2 0.628314 0.392811 0.554619
O O3 0.914728 0.940994 0.321303
O O4 0.000000 0.000000 0.000000
O O5 0.777465 0.888447 0.732762
O O6 0.891528 0.777469 0.890478
O O7 0.038623 0.774598 0.476180
O O8 0.672363 0.174395 0.000169
O O9 0.741938 0.310145 0.981693
O O10 0.967595 0.558657 0.335557
O O11 0.608987 0.000904 0.665145
O O12 0.690395 0.764920 0.841656
O O13 0.254224 0.475435 0.009698
O O14 0.686691 0.788755 0.154531
O O15 0.000000 0.500000 0.000000
#
# Coordination Sequence:
#
# PCOD9011453 Si02
#       7
#     2   2   2   2   2   2   2
#     4   9  22  45  62  88 132 172 212 268 320 388
#     4  11  22  41  65  97 133 170 220 272 319 383
#     4  10  23  41  65  98 129 170 219 260 331 391
#     4  10  21  43  64  88 134 168 216 268 320 382
#     4  11  21  39  66  95 130 172 216 268 323 382
#     4  11  23  42  66  94 131 169 216 271 326 383
#     4  10  21  40  66  92 121 174 216 265 324 377
#
# _framework density 21.767824999999998
#
# number of rings (size 3 to 8) (size 9 to 14) (size 15 to 20)
#    0.000    1.714    2.857    1.286    4.000    1.143 
#   10.286    0.000    0.000    0.000    0.000    0.000 
#    0.000    0.000    0.000    0.000    0.000    0.000 
#
# Total GULP energy -78166.294748 kJ/mol
# GULP energy per Si atom -5583.306768 kJ/mol
# Density = 2.171828 g / cm^3
# Si number density = 21.767825 Si / 1000 Ang^3
#
#
#
# Elastic Constant Matrix: (Units=GPa)
#
#
# Indices 1 2 3 4 5 6 
#
# 1 48.0406 41.7125 26.2334 4.7368 2.3069 8.3660
# 2 41.7125 144.7358 36.0541 16.3391 -11.0769 -0.5718
# 3 26.2334 36.0541 74.6685 24.6905 -3.6574 15.7778
# 4 4.7368 16.3391 24.6905 40.2351 -2.9617 -1.7060
# 5 2.3069 -11.0769 -3.6574 -2.9617 20.6122 12.3688
# 6 8.3660 -0.5718 15.7778 -1.7060 12.3688 37.8200
#
#
#
# Elastic Compliance Matrix: (Units=1/GPa)
#
#
# Indices 1 2 3 4 5 6 
#
# 1 0.033449 -0.008482 -0.009590 0.004706 -0.009130 -0.000328
# 2 -0.008482 0.010309 -0.001176 -0.002027 0.005637 0.000588
# 3 -0.009590 -0.001176 0.024846 -0.013404 0.010258 -0.012221
# 4 0.004706 -0.002027 -0.013404 0.033395 -0.003499 0.007171
# 5 -0.009130 0.005637 0.010258 -0.003499 0.068781 -0.024827
# 6 -0.000328 0.000588 -0.012221 0.007171 -0.024827 0.040064
#
#
# Mechanical properties :
#
#
# Convention : Reuss Voigt Hill
#
# Bulk Modulus (GPa) = 33.21250 52.82720 43.01985
# Shear Modulus (GPa) = 19.27697 30.62977 24.95337
#
# Velocity S-wave (km/s) = 2.97908 3.75522 3.38944
# Velocity P-wave (km/s) = 5.20807 6.56684 5.92652
#
# Compressibility (1/GPa) = 0.03010915
#
# Stress axis : x y z
#
# Youngs Moduli (GPa) = 29.89624 97.00169 40.24712
#
# Poissons Ratio (x) = 0.82280 0.38596
# Poissons Ratio (y) = 0.25359 0.04732
# Poissons Ratio (z) = 0.28670 0.11404
#
# Static dielectric constant tensor:
#      x y z
#    x 1.806120 -0.031540 -0.041830 
#    y -0.031540 1.837140 -0.027250 
#    z -0.041830 -0.027250 1.854260 
# 
# From -- ./inp_files/267610.got.cif
#   From: 2010.05.17/outbox.cif.g08.bks.cpg/sg2_134_cif.got.tgz:267610.got - 2010.06.03 11:33:40.
