data_PCOD9011939
_publ_section_title
;
Structure prediction by ZEFSAII (Michael W. Deem and Ramdas Pophale) SiO2 
 PCOD9011939
Probable space group: P -1
;
_chemical_formula_sum "Si O2"
_cell_formula_units_Z 14
_cell_length_a 9.637548
_cell_length_b 12.571142
_cell_length_c 7.098337
_cell_angle_alpha 94.964635
_cell_angle_beta 85.483982
_cell_angle_gamma 44.802189
_cell_volume 591.582306
_symmetry_space_group_name_H-M "P -1"
_symmetry_group_IT_number 2
_symmetry_cell_setting 'triclinic'
loop_
_space_group_symop_operation_xyz
x,y,z
-x,-y,-z
loop_
_atom_site_type_symbol
_atom_site_label
_atom_site_fract_x
_atom_site_fract_y
_atom_site_fract_z
Si Si1 0.777136 0.077369 0.000345
Si Si2 0.868706 0.461979 0.623993
Si Si3 0.773878 0.835711 0.978226
Si Si4 0.788083 0.458257 0.210833
Si Si5 0.481394 0.188884 0.751931
Si Si6 0.715474 0.766351 0.585182
Si Si7 0.516434 0.423935 0.177322
O O1 0.699791 0.101355 0.796811
O O2 0.755170 0.969245 0.064833
O O3 0.626659 0.249475 0.125088
O O4 0.000000 0.000000 0.000000
O O5 0.862679 0.459643 0.400067
O O6 0.772882 0.631572 0.687391
O O7 0.711449 0.465873 0.719582
O O8 0.104913 0.315789 0.601243
O O9 0.718454 0.854114 0.761375
O O10 0.011003 0.675591 0.948686
O O11 0.631394 0.834746 0.107093
O O12 0.647478 0.630331 0.178786
O O13 0.663278 0.421730 0.271921
O O14 0.466186 0.159828 0.529247
O O15 0.500000 0.500000 0.000000
#
# Coordination Sequence:
#
# PCOD9011939 Si02
#       7
#     2   2   2   2   2   2   2
#     4  12  26  43  62  96 136 177 220 266 337 393
#     4   9  20  38  64 101 131 162 219 279 328 379
#     4  11  23  43  70  98 137 172 214 276 332 392
#     4  10  21  40  68 100 127 170 217 275 325 390
#     4  11  23  41  71  99 128 176 226 267 325 393
#     4   9  21  40  68 102 131 167 218 280 325 387
#     4  12  23  39  68  94 131 176 220 268 326 396
#
# _framework density 23.665344000000001
#
# number of rings (size 3 to 8) (size 9 to 14) (size 15 to 20)
#    0.000    1.429    2.857    3.000    2.000    0.571 
#    0.000    1.429    0.000   10.286    0.000    0.000 
#    0.000    0.000    0.000    0.000    0.000    0.000 
#
# Total GULP energy -78099.141103 kJ/mol
# GULP energy per Si atom -5578.510079 kJ/mol
# Density = 2.361148 g / cm^3
# Si number density = 23.665344 Si / 1000 Ang^3
#
#
#
# Elastic Constant Matrix: (Units=GPa)
#
#
# Indices 1 2 3 4 5 6 
#
# 1 177.2699 46.8009 43.1880 -1.6748 4.7863 0.0018
# 2 46.8009 97.3040 28.4745 12.7569 6.4861 10.7375
# 3 43.1880 28.4745 59.3615 -7.1134 -8.2668 -2.4253
# 4 -1.6748 12.7569 -7.1134 20.6747 -4.4315 12.3487
# 5 4.7863 6.4861 -8.2668 -4.4315 49.6144 -2.9300
# 6 0.0018 10.7375 -2.4253 12.3487 -2.9300 59.1907
#
#
#
# Elastic Compliance Matrix: (Units=1/GPa)
#
#
# Indices 1 2 3 4 5 6 
#
# 1 0.007327 -0.002178 -0.004429 0.000085 -0.001144 0.000139
# 2 -0.002178 0.015876 -0.008287 -0.013398 -0.004481 -0.000646
# 3 -0.004429 -0.008287 0.026954 0.015807 0.007394 -0.000324
# 4 0.000085 -0.013398 0.015807 0.070939 0.010050 -0.011224
# 5 -0.001144 -0.004481 0.007394 0.010050 0.022991 0.000157
# 6 0.000139 -0.000646 -0.000324 -0.011224 0.000157 0.019348
#
#
# Mechanical properties :
#
#
# Convention : Reuss Voigt Hill
#
# Bulk Modulus (GPa) = 49.09467 63.42915 56.26191
# Shear Modulus (GPa) = 24.99840 40.26076 32.62958
#
# Velocity S-wave (km/s) = 3.25365 4.12910 3.71724
# Velocity P-wave (km/s) = 5.90808 7.04226 6.49995
#
# Compressibility (1/GPa) = 0.02036881
#
# Stress axis : x y z
#
# Youngs Moduli (GPa) = 136.48183 62.98711 37.10011
#
# Poissons Ratio (x) = 0.13720 0.16433
# Poissons Ratio (y) = 0.29728 0.30744
# Poissons Ratio (z) = 0.60452 0.52196
#
# Static dielectric constant tensor:
#      x y z
#    x 2.606470 -0.027710 0.306230 
#    y -0.027710 2.067120 0.031000 
#    z 0.306230 0.031000 2.008590 
# 
# From -- ./inp_files/178879.got.cif
#   From: 2010.05.17/outbox.cif.g08.bks.cpg/sg2_90_cif.got.tgz:178879.got - 2010.06.03 11:33:40.
