data_PCOD9011980
_publ_section_title
;
Structure prediction by ZEFSAII (Michael W. Deem and Ramdas Pophale) SiO2 
 PCOD9011980
Probable space group: P -1
;
_chemical_formula_sum "Si O2"
_cell_formula_units_Z 16
_cell_length_a 12.945079
_cell_length_b 12.928077
_cell_length_c 8.972666
_cell_angle_alpha 66.143269
_cell_angle_beta 126.455634
_cell_angle_gamma 70.519021
_cell_volume 691.126507
_symmetry_space_group_name_H-M "P -1"
_symmetry_group_IT_number 2
_symmetry_cell_setting 'triclinic'
loop_
_space_group_symop_operation_xyz
x,y,z
-x,-y,-z
loop_
_atom_site_type_symbol
_atom_site_label
_atom_site_fract_x
_atom_site_fract_y
_atom_site_fract_z
Si Si1 0.964905 0.536772 0.123647
Si Si2 0.632804 0.811224 0.145903
Si Si3 0.304375 0.115855 0.160489
Si Si4 0.540755 0.622532 0.122868
Si Si5 0.681998 0.535576 0.967463
Si Si6 0.859149 0.992763 0.042779
Si Si7 0.718008 0.293865 0.610902
Si Si8 0.103108 0.818664 0.630734
O O1 0.159317 0.356974 0.486462
O O2 0.898335 0.706139 0.025869
O O3 0.767810 0.596494 0.960950
O O4 0.000000 0.500000 0.000000
O O5 0.519374 0.767373 0.066220
O O6 0.680835 0.820559 0.014683
O O7 0.500000 0.000000 0.000000
O O8 0.500000 0.000000 0.500000
O O9 0.286458 0.998390 0.163064
O O10 0.631400 0.480513 0.414574
O O11 0.684170 0.521645 0.157329
O O12 0.326938 0.712524 0.836328
O O13 0.455055 0.661683 0.646277
O O14 0.832397 0.338720 0.136852
O O15 0.069222 0.852910 0.209925
O O16 0.938132 0.893398 0.324612
O O17 0.766197 0.183584 0.860969
O O18 0.000000 0.000000 0.500000
#
# Coordination Sequence:
#
# PCOD9011980 Si02
#       8
#     2   2   2   2   2   2   2   2
#     4  12  27  49  71 107 146 198 248 308 371 442
#     4  12  28  46  74 107 145 194 249 308 369 445
#     4  12  26  47  77 109 148 199 242 301 374 443
#     4  11  22  45  73  97 143 184 243 284 374 430
#     4  11  21  46  70  96 142 183 242 290 365 439
#     4  11  22  40  71 104 141 174 248 284 361 428
#     4  10  21  40  68 102 129 183 226 296 344 431
#     4  11  24  42  69 107 138 190 235 307 357 430
#
# _framework density 23.15061
#
# number of rings (size 3 to 8) (size 9 to 14) (size 15 to 20)
#    0.000    0.750    3.750    4.125    3.500    0.000 
#    6.750    1.250    0.000    0.000    0.000    0.000 
#    0.000    0.000    0.000    0.000    0.000    0.000 
#
# Total GULP energy -89386.749319 kJ/mol
# GULP energy per Si atom -5586.671832 kJ/mol
# Density = 2.309792 g / cm^3
# Si number density = 23.150610 Si / 1000 Ang^3
#
#
#
# Elastic Constant Matrix: (Units=GPa)
#
#
# Indices 1 2 3 4 5 6 
#
# 1 62.5750 21.0016 29.3407 1.6649 -4.5752 10.0500
# 2 21.0016 112.5663 32.2917 -16.2516 -4.2079 12.4888
# 3 29.3407 32.2917 139.3060 2.7818 -8.3591 1.0523
# 4 1.6649 -16.2516 2.7818 42.5827 11.7098 1.8961
# 5 -4.5752 -4.2079 -8.3591 11.7098 30.7336 1.2746
# 6 10.0500 12.4888 1.0523 1.8961 1.2746 39.9696
#
#
#
# Elastic Compliance Matrix: (Units=1/GPa)
#
#
# Indices 1 2 3 4 5 6 
#
# 1 0.019194 -0.002393 -0.003265 -0.001977 0.002560 -0.003980
# 2 -0.002393 0.010941 -0.002178 0.004868 -0.001183 -0.002953
# 3 -0.003265 -0.002178 0.008533 -0.001929 0.002218 0.001298
# 4 -0.001977 0.004868 -0.001929 0.028655 -0.010988 -0.001982
# 5 0.002560 -0.001183 0.002218 -0.010988 0.037588 -0.001010
# 6 -0.003980 -0.002953 0.001298 -0.001982 -0.001010 0.027035
#
#
# Mechanical properties :
#
#
# Convention : Reuss Voigt Hill
#
# Bulk Modulus (GPa) = 43.48478 53.30170 48.39324
# Shear Modulus (GPa) = 32.19947 38.11139 35.15543
#
# Velocity S-wave (km/s) = 3.73348 4.06179 3.90109
# Velocity P-wave (km/s) = 6.11632 6.71352 6.42187
#
# Compressibility (1/GPa) = 0.02299655
#
# Stress axis : x y z
#
# Youngs Moduli (GPa) = 52.10039 91.39821 117.19521
#
# Poissons Ratio (x) = 0.21867 0.38262
# Poissons Ratio (y) = 0.12465 0.25527
# Poissons Ratio (z) = 0.17010 0.19908
#
# Static dielectric constant tensor:
#      x y z
#    x 1.865100 -0.004510 -0.018910 
#    y -0.004510 1.902210 -0.017750 
#    z -0.018910 -0.017750 1.847920 
# 
# From -- ./inp_files/307164.got.cif
#   From: 2010.05.17/outbox.cif.g08.bks.cpg/sg2_154_cif.got.tgz:307164.got - 2010.06.03 11:33:40.
