data_PCOD9011092
_publ_section_title
;
Structure prediction by ZEFSAII (Michael W. Deem and Ramdas Pophale) SiO2 
 PCOD9011092
Probable space group: P -1
;
_chemical_formula_sum "Si O2"
_cell_formula_units_Z 13
_cell_length_a 7.113873
_cell_length_b 7.028826
_cell_length_c 12.232463
_cell_angle_alpha 118.781303
_cell_angle_beta 103.340555
_cell_angle_gamma 100.796053
_cell_volume 488.647940
_symmetry_space_group_name_H-M "P -1"
_symmetry_group_IT_number 2
_symmetry_cell_setting 'triclinic'
loop_
_space_group_symop_operation_xyz
x,y,z
-x,-y,-z
loop_
_atom_site_type_symbol
_atom_site_label
_atom_site_fract_x
_atom_site_fract_y
_atom_site_fract_z
Si Si1 0.856249 0.391095 0.658976
Si Si2 0.935325 0.333174 0.048278
Si Si3 0.290601 0.116594 0.027650
Si Si4 0.295793 0.502011 0.537478
Si Si5 0.544860 0.598890 0.265547
Si Si6 0.260826 0.980949 0.734877
Si Si7 0.000000 0.000000 0.500000
O O1 0.873824 0.541481 0.592528
O O2 0.646556 0.382120 0.686582
O O3 0.846480 0.140941 0.553793
O O4 0.042147 0.506975 0.798788
O O5 0.733630 0.103034 0.958666
O O6 0.000000 0.500000 0.000000
O O7 0.113305 0.223367 0.056537
O O8 0.249965 0.018152 0.872797
O O9 0.489332 0.341005 0.140082
O O10 0.500000 0.500000 0.500000
O O11 0.268332 0.347238 0.603129
O O12 0.326286 0.760398 0.654388
O O13 0.578914 0.778264 0.223442
O O14 0.065159 0.979957 0.636079
#
# Coordination Sequence:
#
# PCOD9011092 Si02
#       7
#     2   2   2   2   2   2   1
#     4   9  20  40  64  92 123 165 213 261 314 372
#     4  10  21  40  65  91 125 165 205 261 325 376
#     4  10  23  40  61  94 126 161 214 262 311 381
#     4   9  21  39  59  90 125 164 210 254 307 372
#     4  10  22  41  65  92 130 172 209 258 319 379
#     4  11  23  40  64  96 130 167 211 262 318 377
#     4  10  22  38  62  96 128 168 216 258 308 376
#
# _framework density 26.604019999999998
#
# number of rings (size 3 to 8) (size 9 to 14) (size 15 to 20)
#    0.000    2.154    0.000    1.385    0.000   12.308 
#    0.000   10.769    0.000    0.000    0.000    0.000 
#    0.000    0.000    0.000    0.000    0.000    0.000 
#
# Total GULP energy -72590.472728 kJ/mol
# GULP energy per Si atom -5583.882518 kJ/mol
# Density = 2.654347 g / cm^3
# Si number density = 26.604020 Si / 1000 Ang^3
#
#
#
# Elastic Constant Matrix: (Units=GPa)
#
#
# Indices 1 2 3 4 5 6 
#
# 1 64.1904 4.1169 29.9056 7.3931 -6.0281 -12.2380
# 2 4.1169 203.7926 57.5449 -16.6972 -4.7572 -1.0221
# 3 29.9056 57.5449 152.8696 4.2311 -4.6579 -2.9139
# 4 7.3931 -16.6972 4.2311 46.7153 -7.4173 -6.8060
# 5 -6.0281 -4.7572 -4.6579 -7.4173 42.4932 0.9203
# 6 -12.2380 -1.0221 -2.9139 -6.8060 0.9203 40.0557
#
#
#
# Elastic Compliance Matrix: (Units=1/GPa)
#
#
# Indices 1 2 3 4 5 6 
#
# 1 0.018568 0.000626 -0.003674 -0.001321 0.001959 0.005152
# 2 0.000626 0.005770 -0.002323 0.002395 0.000886 0.000556
# 3 -0.003674 -0.002323 0.008149 -0.001110 -0.000065 -0.000776
# 4 -0.001321 0.002395 -0.001110 0.023723 0.004024 0.003515
# 5 0.001959 0.000886 -0.000065 0.004024 0.024590 0.000735
# 6 0.005152 0.000556 -0.000776 0.003515 0.000735 0.027078
#
#
# Mechanical properties :
#
#
# Convention : Reuss Voigt Hill
#
# Bulk Modulus (GPa) = 45.98770 67.10971 56.54870
# Shear Modulus (GPa) = 39.72422 47.80519 43.76470
#
# Velocity S-wave (km/s) = 3.86834 4.24360 4.06031
# Velocity P-wave (km/s) = 6.10538 7.02076 6.57901
#
# Compressibility (1/GPa) = 0.02174495
#
# Stress axis : x y z
#
# Youngs Moduli (GPa) = 53.85490 173.30947 122.72027
#
# Poissons Ratio (x) = -0.10842 0.45082
# Poissons Ratio (y) = -0.03369 0.28509
# Poissons Ratio (z) = 0.19784 0.40261
#
# Static dielectric constant tensor:
#      x y z
#    x 2.170630 0.085610 0.111680 
#    y 0.085610 2.093010 -0.032810 
#    z 0.111680 -0.032810 2.001200 
# 
# From -- ./inp_files/372730.got.cif
#   From: 2010.05.17/outbox.cif.g08.bks.cpg/sg2_187_cif.got.tgz:372730.got - 2010.06.03 11:33:40.
