data_PCOD9011586
_publ_section_title
;
Structure prediction by ZEFSAII (Michael W. Deem and Ramdas Pophale) SiO2 
 PCOD9011586
Probable space group: P -1
;
_chemical_formula_sum "Si O2"
_cell_formula_units_Z 16
_cell_length_a 8.861841
_cell_length_b 14.751240
_cell_length_c 18.280340
_cell_angle_alpha 147.821407
_cell_angle_beta 139.450960
_cell_angle_gamma 42.565007
_cell_volume 796.680331
_symmetry_space_group_name_H-M "P -1"
_symmetry_group_IT_number 2
_symmetry_cell_setting 'triclinic'
loop_
_space_group_symop_operation_xyz
x,y,z
-x,-y,-z
loop_
_atom_site_type_symbol
_atom_site_label
_atom_site_fract_x
_atom_site_fract_y
_atom_site_fract_z
Si Si1 0.260363 0.027155 0.202906
Si Si2 0.336814 0.500761 0.371480
Si Si3 0.188225 0.710552 0.060349
Si Si4 0.614833 0.795885 0.920713
Si Si5 0.455499 0.807815 0.364162
Si Si6 0.255381 0.804984 0.914397
Si Si7 0.266513 0.855165 0.492280
Si Si8 0.185051 0.499976 0.781968
O O1 0.253603 0.861189 0.137746
O O2 0.502204 0.082235 0.349535
O O3 0.260884 0.974085 0.081367
O O4 0.989023 0.158085 0.199041
O O5 0.500000 0.500000 0.500000
O O6 0.457233 0.333683 0.251865
O O7 0.269893 0.679618 0.420426
O O8 0.096266 0.468070 0.292974
O O9 0.300723 0.734191 0.196261
O O10 0.256581 0.529395 0.913131
O O11 0.901690 0.755211 0.996911
O O12 0.499420 0.756960 0.926576
O O13 0.500000 0.000000 0.000000
O O14 0.338256 0.808264 0.401441
O O15 0.711744 0.674951 0.346791
O O16 0.500000 0.000000 0.500000
O O17 0.250356 0.651294 0.862996
O O18 0.000000 0.000000 0.500000
#
# Coordination Sequence:
#
# PCOD9011586 Si02
#       8
#     2   2   2   2   2   2   2   2
#     4  10  21  40  66  96 131 174 215 276 329 399
#     4  11  26  45  67 101 139 177 223 286 340 399
#     4  10  22  42  65  98 130 175 218 271 330 401
#     4  11  23  40  67 101 133 171 230 279 333 403
#     4  12  24  43  67  95 134 179 223 271 339 408
#     4  10  21  40  69  95 130 170 229 270 334 393
#     4  12  27  44  67 102 144 176 228 278 351 402
#     4  10  23  44  66  94 132 175 224 274 330 401
#
# _framework density 20.083337
#
# number of rings (size 3 to 8) (size 9 to 14) (size 15 to 20)
#    0.000    1.250    2.500    2.625    5.250    2.000 
#    2.250    5.625    0.000    0.000    0.000    0.000 
#    0.000    0.000    0.000    0.000    0.000    0.000 
#
# Total GULP energy -89171.576369 kJ/mol
# GULP energy per Si atom -5573.223523 kJ/mol
# Density = 2.003763 g / cm^3
# Si number density = 20.083337 Si / 1000 Ang^3
#
#
#
# Elastic Constant Matrix: (Units=GPa)
#
#
# Indices 1 2 3 4 5 6 
#
# 1 134.5197 15.0932 35.1207 4.6961 -7.7334 1.4244
# 2 15.0932 43.8684 16.4666 6.6536 -14.3625 3.0093
# 3 35.1207 16.4666 92.6633 -4.7399 -10.2160 3.5200
# 4 4.6961 6.6536 -4.7399 43.4528 -3.5258 1.5797
# 5 -7.7334 -14.3625 -10.2160 -3.5258 36.4442 -0.3049
# 6 1.4244 3.0093 3.5200 1.5797 -0.3049 29.3322
#
#
#
# Elastic Compliance Matrix: (Units=1/GPa)
#
#
# Indices 1 2 3 4 5 6 
#
# 1 0.008425 -0.001576 -0.002942 -0.000976 0.000249 0.000161
# 2 -0.001576 0.028491 -0.003525 -0.003727 0.009527 -0.002124
# 3 -0.002942 -0.003525 0.012905 0.002456 0.001832 -0.001157
# 4 -0.000976 -0.003727 0.002456 0.024108 0.001335 -0.001149
# 5 0.000249 0.009527 0.001832 0.001335 0.031881 -0.000950
# 6 0.000161 -0.002124 -0.001157 -0.001149 -0.000950 0.034493
#
#
# Mechanical properties :
#
#
# Convention : Reuss Voigt Hill
#
# Bulk Modulus (GPa) = 29.64277 44.93471 37.28874
# Shear Modulus (GPa) = 29.82674 35.47056 32.64865
#
# Velocity S-wave (km/s) = 3.85794 4.20714 4.03632
# Velocity P-wave (km/s) = 5.88531 6.78401 6.35058
#
# Compressibility (1/GPa) = 0.03373504
#
# Stress axis : x y z
#
# Youngs Moduli (GPa) = 118.68828 35.09875 77.49082
#
# Poissons Ratio (x) = 0.05532 0.22797
# Poissons Ratio (y) = 0.18706 0.27317
# Poissons Ratio (z) = 0.34916 0.12373
#
# Static dielectric constant tensor:
#      x y z
#    x 1.662970 0.034260 -0.025160 
#    y 0.034260 1.679800 -0.037370 
#    z -0.025160 -0.037370 1.721510 
# 
# From -- ./inp_files/257690.got.cif
#   From: 2010.05.17/outbox.cif.g08.bks.cpg/sg2_129_cif.got.tgz:257690.got - 2010.06.03 11:33:40.
