data_PCOD9011904
_publ_section_title
;
Structure prediction by ZEFSAII (Michael W. Deem and Ramdas Pophale) SiO2 
 PCOD9011904
Probable space group: P -1
;
_chemical_formula_sum "Si O2"
_cell_formula_units_Z 16
_cell_length_a 11.394009
_cell_length_b 7.951215
_cell_length_c 13.033838
_cell_angle_alpha 78.065221
_cell_angle_beta 53.563274
_cell_angle_gamma 52.934549
_cell_volume 736.715611
_symmetry_space_group_name_H-M "P -1"
_symmetry_group_IT_number 2
_symmetry_cell_setting 'triclinic'
loop_
_space_group_symop_operation_xyz
x,y,z
-x,-y,-z
loop_
_atom_site_type_symbol
_atom_site_label
_atom_site_fract_x
_atom_site_fract_y
_atom_site_fract_z
Si Si1 0.696421 0.070952 0.903293
Si Si2 0.872557 0.944625 0.621181
Si Si3 0.693450 0.984829 0.374836
Si Si4 0.034350 0.940293 0.871508
Si Si5 0.815101 0.517771 0.095143
Si Si6 0.476465 0.907669 0.351300
Si Si7 0.974379 0.518363 0.387799
Si Si8 0.282594 0.356111 0.093143
O O1 0.753474 0.098817 0.758513
O O2 0.716075 0.848823 0.911995
O O3 0.490505 0.255714 0.020547
O O4 0.839369 0.048100 0.908590
O O5 0.009883 0.695216 0.619464
O O6 0.715657 0.969019 0.627178
O O7 0.000000 0.000000 0.500000
O O8 0.564127 0.016434 0.344112
O O9 0.800425 0.745039 0.402692
O O10 0.849101 0.996598 0.250714
O O11 0.574824 0.152551 0.507788
O O12 0.144097 0.683312 0.839018
O O13 0.000000 0.000000 0.000000
O O14 0.638074 0.730714 0.213683
O O15 0.778042 0.506835 0.996315
O O16 0.000000 0.500000 0.000000
O O17 0.148329 0.475561 0.243274
O O18 0.000000 0.500000 0.500000
#
# Coordination Sequence:
#
# PCOD9011904 Si02
#       8
#     2   2   2   2   2   2   2   2
#     4  10  22  39  66  98 133 176 221 286 331 399
#     4  11  23  45  71 100 135 176 230 281 338 407
#     4  11  26  46  66 101 142 179 230 280 345 413
#     4  12  26  44  68 100 141 182 226 290 341 404
#     4  12  23  44  73 101 134 185 231 281 344 408
#     4  11  24  47  70  97 141 182 226 283 344 405
#     4  11  23  43  69  98 135 187 219 279 349 403
#     4  10  21  40  67  98 132 174 233 269 337 410
#
# _framework density 21.718015999999999
#
# number of rings (size 3 to 8) (size 9 to 14) (size 15 to 20)
#    0.000    1.000    3.750    3.000    1.750    0.500 
#    4.500    3.750    0.000    0.000    0.000    0.000 
#    0.000    0.000    0.000    0.000    0.000    0.000 
#
# Total GULP energy -89328.667787 kJ/mol
# GULP energy per Si atom -5583.041737 kJ/mol
# Density = 2.166858 g / cm^3
# Si number density = 21.718016 Si / 1000 Ang^3
#
#
#
# Elastic Constant Matrix: (Units=GPa)
#
#
# Indices 1 2 3 4 5 6 
#
# 1 146.5937 30.3169 64.6460 -4.0868 -13.9329 -34.5904
# 2 30.3169 75.6173 41.9247 -6.0488 -23.2733 -10.6730
# 3 64.6460 41.9247 166.3303 12.1564 -12.9956 -10.5403
# 4 -4.0868 -6.0488 12.1564 32.8187 1.2214 -2.5675
# 5 -13.9329 -23.2733 -12.9956 1.2214 45.9032 1.6792
# 6 -34.5904 -10.6730 -10.5403 -2.5675 1.6792 19.8723
#
#
#
# Elastic Compliance Matrix: (Units=1/GPa)
#
#
# Indices 1 2 3 4 5 6 
#
# 1 0.014874 0.001518 -0.004795 0.005730 0.002872 0.024659
# 2 0.001518 0.019913 -0.004689 0.006127 0.008667 0.010910
# 3 -0.004795 -0.004689 0.008945 -0.005267 -0.000914 -0.006724
# 4 0.005730 0.006127 -0.005267 0.035359 0.001870 0.014882
# 5 0.002872 0.008667 -0.000914 0.001870 0.026480 0.007174
# 6 0.024659 0.010910 -0.006724 0.014882 0.007174 0.096854
#
#
# Mechanical properties :
#
#
# Convention : Reuss Voigt Hill
#
# Bulk Modulus (GPa) = 35.97039 73.59071 54.78055
# Shear Modulus (GPa) = 21.96624 36.49575 29.23100
#
# Velocity S-wave (km/s) = 3.18375 4.10376 3.67268
# Velocity P-wave (km/s) = 5.48757 7.51084 6.57746
#
# Compressibility (1/GPa) = 0.02780065
#
# Stress axis : x y z
#
# Youngs Moduli (GPa) = 67.23352 50.21886 111.79369
#
# Poissons Ratio (x) = -0.07625 0.53608
# Poissons Ratio (y) = -0.10209 0.52415
# Poissons Ratio (z) = 0.32240 0.23545
#
# Static dielectric constant tensor:
#      x y z
#    x 1.802700 0.038850 0.037910 
#    y 0.038850 1.988560 0.019430 
#    z 0.037910 0.019430 1.800140 
# 
# From -- ./inp_files/419278.got.cif
#   From: 2010.05.17/outbox.cif.g08.bks.cpg/sg2_210_cif.got.tgz:419278.got - 2010.06.03 11:33:40.
