data_PCOD9011682
_publ_section_title
;
Structure prediction by ZEFSAII (Michael W. Deem and Ramdas Pophale) SiO2 
 PCOD9011682
Probable space group: P -1
;
_chemical_formula_sum "Si O2"
_cell_formula_units_Z 16
_cell_length_a 12.893008
_cell_length_b 8.470922
_cell_length_c 9.782871
_cell_angle_alpha 91.456404
_cell_angle_beta 105.795656
_cell_angle_gamma 50.208944
_cell_volume 773.810663
_symmetry_space_group_name_H-M "P -1"
_symmetry_group_IT_number 2
_symmetry_cell_setting 'triclinic'
loop_
_space_group_symop_operation_xyz
x,y,z
-x,-y,-z
loop_
_atom_site_type_symbol
_atom_site_label
_atom_site_fract_x
_atom_site_fract_y
_atom_site_fract_z
Si Si1 0.763401 0.110882 0.160793
Si Si2 0.815439 0.025970 0.499878
Si Si3 0.982732 0.194582 0.939974
Si Si4 0.756107 0.421526 0.619000
Si Si5 0.507395 0.838338 0.907527
Si Si6 0.531182 0.120834 0.422406
Si Si7 0.090634 0.564666 0.575435
Si Si8 0.197698 0.555343 0.886476
O O1 0.805325 0.048418 0.332690
O O2 0.607354 0.184694 0.090421
O O3 0.778331 0.283237 0.140500
O O4 0.873296 0.914173 0.095872
O O5 0.779702 0.225051 0.562114
O O6 0.691136 0.028274 0.504229
O O7 0.974604 0.811126 0.579476
O O8 0.853337 0.334821 0.787958
O O9 0.940534 0.331859 0.063054
O O10 0.000000 0.000000 0.000000
O O11 0.591790 0.628592 0.590151
O O12 0.818346 0.474223 0.524100
O O13 0.478194 0.908429 0.741729
O O14 0.665583 0.620639 0.979796
O O15 0.500000 0.000000 0.000000
O O16 0.500000 0.000000 0.500000
O O17 0.185681 0.462571 0.743377
O O18 0.000000 0.500000 0.500000
#
# Coordination Sequence:
#
# PCOD9011682 Si02
#       8
#     2   2   2   2   2   2   2   2
#     4  10  21  42  70  97 128 174 220 273 325 399
#     4  11  22  42  70  98 128 176 231 272 327 396
#     4  10  21  40  67 100 133 161 218 281 327 384
#     4  12  22  44  69  99 131 176 230 274 326 404
#     4  11  26  44  66  94 136 178 218 268 340 403
#     4  11  26  46  64  97 139 175 224 279 334 394
#     4  12  26  42  70 100 136 177 219 275 343 402
#     4  11  23  45  66  99 132 172 223 274 331 395
#
# _framework density 20.676894000000001
#
# number of rings (size 3 to 8) (size 9 to 14) (size 15 to 20)
#    0.000    1.000    3.750    3.375    5.250    0.000 
#    9.000    1.250    0.000    0.000    0.000    0.000 
#    0.000    0.000    0.000    0.000    0.000    0.000 
#
# Total GULP energy -89439.053517 kJ/mol
# GULP energy per Si atom -5589.940845 kJ/mol
# Density = 2.062983 g / cm^3
# Si number density = 20.676894 Si / 1000 Ang^3
#
#
#
# Elastic Constant Matrix: (Units=GPa)
#
#
# Indices 1 2 3 4 5 6 
#
# 1 69.3519 4.7386 28.7423 24.5896 -7.5088 1.5149
# 2 4.7386 61.1393 1.8649 13.5941 -5.9867 -16.6645
# 3 28.7423 1.8649 91.2171 18.1373 -5.5316 -0.7233
# 4 24.5896 13.5941 18.1373 31.0726 -5.5297 1.6568
# 5 -7.5088 -5.9867 -5.5316 -5.5297 30.2600 3.6334
# 6 1.5149 -16.6645 -0.7233 1.6568 3.6334 31.0308
#
#
#
# Elastic Compliance Matrix: (Units=1/GPa)
#
#
# Indices 1 2 3 4 5 6 
#
# 1 0.021491 0.002306 -0.003584 -0.015567 0.002208 0.000678
# 2 0.002306 0.022606 0.001595 -0.013062 0.001437 0.012594
# 3 -0.003584 0.001595 0.013213 -0.005543 0.000641 0.001561
# 4 -0.015567 -0.013062 -0.005543 0.054628 0.003691 -0.009733
# 5 0.002208 0.001437 0.000641 0.003691 0.035107 -0.003629
# 6 0.000678 0.012594 0.001561 -0.009733 -0.003629 0.039937
#
#
# Mechanical properties :
#
#
# Convention : Reuss Voigt Hill
#
# Bulk Modulus (GPa) = 17.25788 32.48887 24.87337
# Shear Modulus (GPa) = 24.31167 30.89685 27.60426
#
# Velocity S-wave (km/s) = 3.43270 3.86977 3.65777
# Velocity P-wave (km/s) = 4.90671 5.97609 5.46760
#
# Compressibility (1/GPa) = 0.05794455
#
# Stress axis : x y z
#
# Youngs Moduli (GPa) = 46.53155 44.23509 75.68244
#
# Poissons Ratio (x) = -0.10200 0.27127
# Poissons Ratio (y) = -0.10730 -0.12075
# Poissons Ratio (z) = 0.16678 -0.07057
#
# Static dielectric constant tensor:
#      x y z
#    x 1.711070 0.000750 -0.007540 
#    y 0.000750 1.749480 0.000680 
#    z -0.007540 0.000680 1.706470 
# 
# From -- ./inp_files/184069.got.cif
#   From: 2010.05.17/outbox.cif.g08.bks.cpg/sg2_93_cif.got.tgz:184069.got - 2010.06.03 11:33:40.
