data_PCOD9011242
_publ_section_title
;
Structure prediction by ZEFSAII (Michael W. Deem and Ramdas Pophale) SiO2 
 PCOD9011242
Probable space group: P -1
;
_chemical_formula_sum "Si O2"
_cell_formula_units_Z 16
_cell_length_a 9.998694
_cell_length_b 13.222335
_cell_length_c 13.782966
_cell_angle_alpha 126.276179
_cell_angle_beta 137.778672
_cell_angle_gamma 32.140414
_cell_volume 648.233680
_symmetry_space_group_name_H-M "P -1"
_symmetry_group_IT_number 2
_symmetry_cell_setting 'triclinic'
loop_
_space_group_symop_operation_xyz
x,y,z
-x,-y,-z
loop_
_atom_site_type_symbol
_atom_site_label
_atom_site_fract_x
_atom_site_fract_y
_atom_site_fract_z
Si Si1 0.842168 0.219026 0.814188
Si Si2 0.246223 0.934171 0.486867
Si Si3 0.136209 0.759355 0.855315
Si Si4 0.418720 0.678937 0.588590
Si Si5 0.596028 0.602250 0.857817
Si Si6 0.545138 0.915880 0.291241
Si Si7 0.353601 0.395526 0.806540
Si Si8 0.503745 0.084024 0.953017
O O1 0.858500 0.124859 0.675440
O O2 0.812233 0.381546 0.869441
O O3 0.544023 0.321194 0.768637
O O4 0.139620 0.053908 0.943117
O O5 0.477977 0.754706 0.582009
O O6 0.396510 0.989487 0.559585
O O7 0.942035 0.133880 0.484939
O O8 0.273012 0.712076 0.794166
O O9 0.125256 0.619998 0.807042
O O10 0.797288 0.967768 0.805352
O O11 0.405211 0.691082 0.026637
O O12 0.500000 0.500000 0.500000
O O13 0.565994 0.635769 0.746557
O O14 0.668083 0.703185 0.999846
O O15 0.754959 0.695046 0.295772
O O16 0.582797 0.931711 0.206020
O O17 0.500000 0.000000 0.000000
#
# Coordination Sequence:
#
# PCOD9011242 Si02
#       8
#     2   2   2   2   2   2   2   2
#     4  11  23  44  67  93 128 171 216 257 314 393
#     4  11  26  42  65  97 130 168 217 258 320 389
#     4  10  21  40  65  95 128 164 214 262 318 382
#     4  11  23  44  67  88 125 177 214 258 313 381
#     4  11  22  42  70  91 122 175 216 257 323 376
#     4  12  24  40  65  98 133 165 204 274 324 366
#     4  10  21  40  66  94 126 170 211 257 319 385
#     4  12  25  40  65  97 130 163 219 269 315 373
#
# _framework density 24.682456999999999
#
# number of rings (size 3 to 8) (size 9 to 14) (size 15 to 20)
#    0.000    1.000    5.000    1.875    1.750    2.000 
#    0.000    1.250    0.000    0.000    0.000    0.000 
#    0.000    0.000    0.000    0.000    0.000    0.000 
#
# Total GULP energy -89503.783022 kJ/mol
# GULP energy per Si atom -5593.986439 kJ/mol
# Density = 2.462628 g / cm^3
# Si number density = 24.682457 Si / 1000 Ang^3
#
#
#
# Elastic Constant Matrix: (Units=GPa)
#
#
# Indices 1 2 3 4 5 6 
#
# 1 53.7758 10.4045 0.2768 8.5887 5.3718 15.1268
# 2 10.4045 153.2205 36.0498 28.6494 3.6990 29.4121
# 3 0.2768 36.0498 44.9885 17.6307 3.5977 -2.2169
# 4 8.5887 28.6494 17.6307 34.8494 4.8294 4.7216
# 5 5.3718 3.6990 3.5977 4.8294 25.6394 10.0012
# 6 15.1268 29.4121 -2.2169 4.7216 10.0012 41.3949
#
#
#
# Elastic Compliance Matrix: (Units=1/GPa)
#
#
# Indices 1 2 3 4 5 6 
#
# 1 0.021492 0.000754 0.001038 -0.005308 -0.000820 -0.007531
# 2 0.000754 0.010632 -0.007477 -0.004473 0.003545 -0.008576
# 3 0.001038 -0.007477 0.033675 -0.011676 -0.005313 0.009352
# 4 -0.005308 -0.004473 -0.011676 0.040080 -0.004552 0.001020
# 5 -0.000820 0.003545 -0.005313 -0.004552 0.045310 -0.012932
# 6 -0.007531 -0.008576 0.009352 0.001020 -0.012932 0.036512
#
#
# Mechanical properties :
#
#
# Convention : Reuss Voigt Hill
#
# Bulk Modulus (GPa) = 18.37256 38.38298 28.37777
# Shear Modulus (GPa) = 23.01892 34.06034 28.53963
#
# Velocity S-wave (km/s) = 3.05717 3.71879 3.40409
# Velocity P-wave (km/s) = 4.46334 5.83298 5.19351
#
# Compressibility (1/GPa) = 0.05442899
#
# Stress axis : x y z
#
# Youngs Moduli (GPa) = 46.52792 94.05941 29.69596
#
# Poissons Ratio (x) = -0.07094 -0.03083
# Poissons Ratio (y) = -0.03509 0.22204
# Poissons Ratio (z) = -0.04831 0.70330
#
# Static dielectric constant tensor:
#      x y z
#    x 2.059830 0.016860 0.010500 
#    y 0.016860 1.933900 0.040360 
#    z 0.010500 0.040360 1.948110 
# 
# From -- ./inp_files/521681.got.cif
#   From: 2010.05.17/outbox.cif.g08.bks.cpg/sg2_261_cif.got.tgz:521681.got - 2010.06.03 11:33:40.
