data_PCOD9011136
_publ_section_title
;
Structure prediction by ZEFSAII (Michael W. Deem and Ramdas Pophale) SiO2 
 PCOD9011136
Probable space group: P -1
;
_chemical_formula_sum "Si O2"
_cell_formula_units_Z 14
_cell_length_a 12.444572
_cell_length_b 14.688498
_cell_length_c 10.110496
_cell_angle_alpha 50.220894
_cell_angle_beta 55.299088
_cell_angle_gamma 27.453938
_cell_volume 654.807259
_symmetry_space_group_name_H-M "P -1"
_symmetry_group_IT_number 2
_symmetry_cell_setting 'triclinic'
loop_
_space_group_symop_operation_xyz
x,y,z
-x,-y,-z
loop_
_atom_site_type_symbol
_atom_site_label
_atom_site_fract_x
_atom_site_fract_y
_atom_site_fract_z
Si Si1 0.778814 0.122202 0.461879
Si Si2 0.928975 0.446878 0.697721
Si Si3 0.043384 0.039478 0.778509
Si Si4 0.097133 0.353567 0.945213
Si Si5 0.591639 0.098095 0.830112
Si Si6 0.783474 0.005339 0.047747
Si Si7 0.595474 0.494032 0.808009
O O1 0.622002 0.174715 0.629215
O O2 0.617047 0.337947 0.301017
O O3 0.000000 0.000000 0.500000
O O4 0.880064 0.971907 0.406445
O O5 0.700287 0.545673 0.721537
O O6 0.000000 0.500000 0.500000
O O7 0.926533 0.490024 0.812082
O O8 0.124782 0.195608 0.801501
O O9 0.809810 0.271967 0.786282
O O10 0.241686 0.918766 0.860350
O O11 0.977944 0.948994 0.901479
O O12 0.350693 0.215064 0.858514
O O13 0.000000 0.500000 0.000000
O O14 0.177118 0.159004 0.103491
O O15 0.590275 0.143455 0.941317
O O16 0.500000 0.500000 0.000000
#
# Coordination Sequence:
#
# PCOD9011136 Si02
#       7
#     2   2   2   2   2   2   2
#     4  12  24  40  63  98 134 165 207 277 322 376
#     4  10  21  40  65  92 130 167 219 273 317 383
#     4  10  21  40  65  93 130 177 217 258 331 398
#     4  10  23  41  64  89 123 174 215 260 324 388
#     4  10  22  41  61  91 133 164 211 270 326 376
#     4   9  18  38  63  89 129 174 212 264 321 388
#     4  11  25  42  69  98 130 175 223 267 328 394
#
# _framework density 21.380336
#
# number of rings (size 3 to 8) (size 9 to 14) (size 15 to 20)
#    0.000    1.714    1.429    3.429    2.000    6.286 
#    0.000    0.000    0.000   16.286    0.000    0.000 
#    0.000    0.000    0.000    0.000    0.000    0.000 
#
# Total GULP energy -78042.400335 kJ/mol
# GULP energy per Si atom -5574.457167 kJ/mol
# Density = 2.133167 g / cm^3
# Si number density = 21.380336 Si / 1000 Ang^3
#
#
#
# Elastic Constant Matrix: (Units=GPa)
#
#
# Indices 1 2 3 4 5 6 
#
# 1 95.8737 6.9177 35.5170 -3.4673 15.7307 4.5532
# 2 6.9177 86.1169 25.1938 2.4040 7.4245 5.2026
# 3 35.5170 25.1938 125.5987 -10.6936 9.0598 1.9340
# 4 -3.4673 2.4040 -10.6936 24.2030 -1.4560 5.3288
# 5 15.7307 7.4245 9.0598 -1.4560 44.9893 -0.3691
# 6 4.5532 5.2026 1.9340 5.3288 -0.3691 24.3537
#
#
#
# Elastic Compliance Matrix: (Units=1/GPa)
#
#
# Indices 1 2 3 4 5 6 
#
# 1 0.012336 0.000394 -0.003212 0.000596 -0.003731 -0.002322
# 2 0.000394 0.012702 -0.002669 -0.002016 -0.001779 -0.002161
# 3 -0.003212 -0.002669 0.009794 0.004234 -0.000276 -0.000538
# 4 0.000596 -0.002016 0.004234 0.045718 0.000669 -0.010010
# 5 -0.003731 -0.001779 -0.000276 0.000669 0.023914 0.001316
# 6 -0.002322 -0.002161 -0.000538 -0.010010 0.001316 0.044210
#
#
# Mechanical properties :
#
#
# Convention : Reuss Voigt Hill
#
# Bulk Modulus (GPa) = 41.91505 49.20515 45.56010
# Shear Modulus (GPa) = 29.83289 34.70658 32.26974
#
# Velocity S-wave (km/s) = 3.73948 4.03338 3.88921
# Velocity P-wave (km/s) = 6.18805 6.68992 6.44388
#
# Compressibility (1/GPa) = 0.02385778
#
# Stress axis : x y z
#
# Youngs Moduli (GPa) = 81.06462 78.73029 102.10112
#
# Poissons Ratio (x) = -0.03102 0.32792
# Poissons Ratio (y) = -0.03194 0.27253
# Poissons Ratio (z) = 0.26036 0.21015
#
# Static dielectric constant tensor:
#      x y z
#    x 1.823890 0.025940 0.001340 
#    y 0.025940 1.827340 -0.020740 
#    z 0.001340 -0.020740 1.767100 
# 
# From -- ./inp_files/269724.got.cif
#   From: 2010.05.17/outbox.cif.g08.bks.cpg/sg2_135_cif.got.tgz:269724.got - 2010.06.03 11:33:40.
