data_PCOD9011361
_publ_section_title
;
Structure prediction by ZEFSAII (Michael W. Deem and Ramdas Pophale) SiO2 
 PCOD9011361
Probable space group: P -1
;
_chemical_formula_sum "Si O2"
_cell_formula_units_Z 15
_cell_length_a 8.668759
_cell_length_b 19.400609
_cell_length_c 11.450444
_cell_angle_alpha 149.840902
_cell_angle_beta 67.497118
_cell_angle_gamma 131.476984
_cell_volume 625.818553
_symmetry_space_group_name_H-M "P -1"
_symmetry_group_IT_number 2
_symmetry_cell_setting 'triclinic'
loop_
_space_group_symop_operation_xyz
x,y,z
-x,-y,-z
loop_
_atom_site_type_symbol
_atom_site_label
_atom_site_fract_x
_atom_site_fract_y
_atom_site_fract_z
Si Si1 0.223032 0.732774 0.777862
Si Si2 0.794483 0.487550 0.174867
Si Si3 0.091108 0.144025 0.337963
Si Si4 0.760406 0.450403 0.851431
Si Si5 0.500000 0.000000 0.500000
Si Si6 0.580932 0.877169 0.091851
Si Si7 0.985971 0.131995 0.624459
Si Si8 0.409292 0.118598 0.297734
O O1 0.402704 0.790931 0.911699
O O2 0.355729 0.805963 0.721856
O O3 0.000000 0.500000 0.500000
O O4 0.205402 0.884783 0.033605
O O5 0.561286 0.288593 0.010231
O O6 0.841228 0.670342 0.462966
O O7 0.014912 0.519015 0.190088
O O8 0.751119 0.455042 0.001039
O O9 0.053596 0.136357 0.477763
O O10 0.302125 0.161206 0.298440
O O11 0.826696 0.953169 0.093240
O O12 0.517705 0.255321 0.579342
O O13 0.829864 0.640055 0.057049
O O14 0.730310 0.059266 0.583320
O O15 0.374866 0.956011 0.603645
O O16 0.000000 0.000000 0.500000
#
# Coordination Sequence:
#
# PCOD9011361 Si02
#       8
#     2   2   2   2   1   2   2   2
#     4  11  27  47  72  98 128 189 240 282 358 415
#     4  10  21  40  66 101 136 177 226 279 350 425
#     4  10  25  41  63 105 136 175 227 285 361 410
#     4  10  21  41  67  97 140 189 223 287 357 411
#     4  10  22  38  64 108 134 180 228 288 352 410
#     4  11  23  42  70  96 134 179 230 280 350 426
#     4  10  22  38  65 108 147 187 235 286 355 436
#     4  11  26  46  67  97 141 175 233 301 336 429
#
# _framework density 23.968610000000002
#
# number of rings (size 3 to 8) (size 9 to 14) (size 15 to 20)
#    0.000    1.600    1.333    1.600    5.600    8.000 
#    0.000    1.333    0.000    0.000    0.000    0.000 
#    0.000    0.000    0.000    0.000    0.000    0.000 
#
# Total GULP energy -83641.046433 kJ/mol
# GULP energy per Si atom -5576.069762 kJ/mol
# Density = 2.391406 g / cm^3
# Si number density = 23.968610 Si / 1000 Ang^3
#
#
#
# Elastic Constant Matrix: (Units=GPa)
#
#
# Indices 1 2 3 4 5 6 
#
# 1 95.7250 -10.2375 47.9945 1.4392 -6.7623 -3.8676
# 2 -10.2375 25.7722 5.3966 2.0005 -7.8570 0.0548
# 3 47.9945 5.3966 117.2830 10.1273 4.3946 -12.2837
# 4 1.4392 2.0005 10.1273 27.5515 -18.6540 0.2190
# 5 -6.7623 -7.8570 4.3946 -18.6540 37.0371 6.6533
# 6 -3.8676 0.0548 -12.2837 0.2190 6.6533 28.0933
#
#
#
# Elastic Compliance Matrix: (Units=1/GPa)
#
#
# Indices 1 2 3 4 5 6 
#
# 1 0.016976 0.011836 -0.009394 0.010468 0.012882 -0.004926
# 2 0.011836 0.051747 -0.010388 0.015645 0.023828 -0.008779
# 3 -0.009394 -0.010388 0.015617 -0.014553 -0.014748 0.009162
# 4 0.010468 0.015645 -0.014553 0.070997 0.045647 -0.016317
# 5 0.012882 0.023828 -0.014748 0.045647 0.062728 -0.019933
# 6 -0.004926 -0.008779 0.009162 -0.016317 -0.019933 0.043788
#
#
# Mechanical properties :
#
#
# Convention : Reuss Voigt Hill
#
# Bulk Modulus (GPa) = 14.60963 36.12082 25.36522
# Shear Modulus (GPa) = 16.63553 31.57817 24.10685
#
# Velocity S-wave (km/s) = 2.63735 3.63365 3.17482
# Velocity P-wave (km/s) = 3.92208 5.71903 4.90357
#
# Compressibility (1/GPa) = 0.06844800
#
# Stress axis : x y z
#
# Youngs Moduli (GPa) = 58.90692 19.32493 64.03118
#
# Poissons Ratio (x) = -0.22872 0.60151
# Poissons Ratio (y) = -0.69720 0.66513
# Poissons Ratio (z) = 0.55337 0.20074
#
# Static dielectric constant tensor:
#      x y z
#    x 1.923140 0.053680 -0.054200 
#    y 0.053680 1.948960 -0.060400 
#    z -0.054200 -0.060400 2.053110 
# 
# From -- ./inp_files/405083.got.cif
#   From: 2010.05.17/outbox.cif.g08.bks.cpg/sg2_203_cif.got.tgz:405083.got - 2010.06.03 11:33:40.
