data_PCOD9011004
_publ_section_title
;
Structure prediction by ZEFSAII (Michael W. Deem and Ramdas Pophale) SiO2 
 PCOD9011004
Probable space group: P -1
;
_chemical_formula_sum "Si O2"
_cell_formula_units_Z 16
_cell_length_a 8.145790
_cell_length_b 21.254478
_cell_length_c 23.200863
_cell_angle_alpha 21.023738
_cell_angle_beta 44.975597
_cell_angle_gamma 33.052873
_cell_volume 726.007859
_symmetry_space_group_name_H-M "P -1"
_symmetry_group_IT_number 2
_symmetry_cell_setting 'triclinic'
loop_
_space_group_symop_operation_xyz
x,y,z
-x,-y,-z
loop_
_atom_site_type_symbol
_atom_site_label
_atom_site_fract_x
_atom_site_fract_y
_atom_site_fract_z
Si Si1 0.828860 0.877590 0.055626
Si Si2 0.522786 0.652605 0.191784
Si Si3 0.532371 0.298346 0.967047
Si Si4 0.303217 0.444848 0.501053
Si Si5 0.906782 0.645576 0.534335
Si Si6 0.188255 0.794305 0.680209
Si Si7 0.349320 0.990104 0.284352
Si Si8 0.261417 0.231799 0.405074
O O1 0.094723 0.858545 0.972951
O O2 0.998316 0.604063 0.261159
O O3 0.500000 0.000000 0.000000
O O4 0.689131 0.062903 0.985398
O O5 0.469466 0.630805 0.158213
O O6 0.389491 0.572177 0.335393
O O7 0.911218 0.462837 0.267253
O O8 0.272432 0.553266 0.846691
O O9 0.423584 0.155008 0.115670
O O10 0.000000 0.500000 0.500000
O O11 0.200269 0.548030 0.502789
O O12 0.585699 0.155376 0.665052
O O13 0.833782 0.788782 0.489178
O O14 0.593414 0.812325 0.428442
O O15 0.523430 0.714920 0.677345
O O16 0.990540 0.885740 0.710189
O O17 0.000000 0.000000 0.500000
O O18 0.500000 0.000000 0.500000
#
# Coordination Sequence:
#
# PCOD9011004 Si02
#       8
#     2   2   2   2   2   2   2   2
#     4  12  22  43  65 100 137 177 225 285 343 409
#     4  12  25  43  70 102 138 183 229 281 346 412
#     4  12  24  42  69 102 138 181 232 282 345 412
#     4  10  21  40  65 101 133 171 225 277 339 404
#     4  11  22  43  68  98 138 176 228 279 347 401
#     4  12  22  45  71  98 134 183 233 284 339 409
#     4  11  23  42  69 104 136 179 228 288 342 410
#     4  12  25  44  70 102 134 182 231 277 344 414
#
# _framework density 22.038329999999998
#
# number of rings (size 3 to 8) (size 9 to 14) (size 15 to 20)
#    0.000    0.500    3.750    6.750    0.000    0.500 
#    2.250    0.625    0.000    0.000    0.000    0.000 
#    0.000    0.000    0.000    0.000    0.000    0.000 
#
# Total GULP energy -89365.844750 kJ/mol
# GULP energy per Si atom -5585.365297 kJ/mol
# Density = 2.198817 g / cm^3
# Si number density = 22.038330 Si / 1000 Ang^3
#
#
#
# Elastic Constant Matrix: (Units=GPa)
#
#
# Indices 1 2 3 4 5 6 
#
# 1 61.5320 29.6843 8.4719 -0.0904 2.1787 -3.3449
# 2 29.6843 169.4674 35.8621 -1.2132 -2.3091 14.6515
# 3 8.4719 35.8621 87.4680 0.6745 -9.1262 -0.8674
# 4 -0.0904 -1.2132 0.6745 41.3972 -1.2912 -10.9579
# 5 2.1787 -2.3091 -9.1262 -1.2912 16.5122 -8.5179
# 6 -3.3449 14.6515 -0.8674 -10.9579 -8.5179 51.0093
#
#
#
# Elastic Compliance Matrix: (Units=1/GPa)
#
#
# Indices 1 2 3 4 5 6 
#
# 1 0.018068 -0.003210 -0.000652 0.000363 -0.002236 0.001800
# 2 -0.003210 0.007279 -0.002862 -0.000518 -0.001587 -0.002726
# 3 -0.000652 -0.002862 0.013585 0.000644 0.008576 0.002581
# 4 0.000363 -0.000518 0.000644 0.026098 0.005759 0.006752
# 5 -0.002236 -0.001587 0.008576 0.005759 0.072984 0.013880
# 6 0.001800 -0.002726 0.002581 0.006752 0.013880 0.024317
#
#
# Mechanical properties :
#
#
# Convention : Reuss Voigt Hill
#
# Bulk Modulus (GPa) = 39.24231 51.83378 45.53804
# Shear Modulus (GPa) = 27.13332 38.08036 32.60684
#
# Velocity S-wave (km/s) = 3.51263 4.16133 3.85067
# Velocity P-wave (km/s) = 5.85632 6.83080 6.36224
#
# Compressibility (1/GPa) = 0.02548270
#
# Stress axis : x y z
#
# Youngs Moduli (GPa) = 55.34717 137.37691 73.61163
#
# Poissons Ratio (x) = 0.44103 0.04799
# Poissons Ratio (y) = 0.17768 0.21069
# Poissons Ratio (z) = 0.03609 0.39320
#
# Static dielectric constant tensor:
#      x y z
#    x 1.850420 -0.014880 -0.016080 
#    y -0.014880 1.965080 -0.010070 
#    z -0.016080 -0.010070 1.835250 
# 
# From -- ./inp_files/617597.got.cif
#   From: 2010.05.17/outbox.cif.g08.bks.cpg/sg2_309_cif.got.tgz:617597.got - 2010.06.03 11:33:40.
