data_PCOD9011963
_publ_section_title
;
Structure prediction by ZEFSAII (Michael W. Deem and Ramdas Pophale) SiO2 
 PCOD9011963
Probable space group: P -1
;
_chemical_formula_sum "Si O2"
_cell_formula_units_Z 14
_cell_length_a 11.698358
_cell_length_b 9.145336
_cell_length_c 7.321796
_cell_angle_alpha 108.293370
_cell_angle_beta 55.332653
_cell_angle_gamma 127.130235
_cell_volume 513.127600
_symmetry_space_group_name_H-M "P -1"
_symmetry_group_IT_number 2
_symmetry_cell_setting 'triclinic'
loop_
_space_group_symop_operation_xyz
x,y,z
-x,-y,-z
loop_
_atom_site_type_symbol
_atom_site_label
_atom_site_fract_x
_atom_site_fract_y
_atom_site_fract_z
Si Si1 0.709373 0.658560 0.571441
Si Si2 0.809667 0.830164 0.137729
Si Si3 0.409601 0.714665 0.599993
Si Si4 0.943172 0.268911 0.588605
Si Si5 0.139470 0.463324 0.051254
Si Si6 0.803470 0.149997 0.266277
Si Si7 0.617910 0.926311 0.815966
O O1 0.774574 0.765198 0.356951
O O2 0.577801 0.442878 0.568910
O O3 0.624077 0.748155 0.792418
O O4 0.872908 0.676057 0.511646
O O5 0.726987 0.940706 0.192965
O O6 0.785404 0.652904 0.990114
O O7 0.000000 0.000000 0.000000
O O8 0.329502 0.796086 0.581925
O O9 0.562231 0.872682 0.634848
O O10 0.271395 0.600952 0.838959
O O11 0.903425 0.423225 0.729792
O O12 0.891718 0.195620 0.400904
O O13 0.803375 0.090737 0.754951
O O14 0.962172 0.305235 0.064131
O O15 0.500000 0.000000 0.000000
#
# Coordination Sequence:
#
# PCOD9011963 Si02
#       7
#     2   2   2   2   2   2   2
#     4  11  24  46  71  99 132 186 234 274 335 410
#     4   9  21  36  65 103 134 165 225 285 331 389
#     4  11  24  43  73  96 140 182 224 272 350 412
#     4  12  24  43  71 103 136 174 234 285 335 395
#     4  10  21  40  68 101 132 178 225 281 329 406
#     4  11  22  41  68 105 133 176 228 287 330 398
#     4  12  26  45  67 101 140 181 226 280 344 409
#
# _framework density 27.283662
#
# number of rings (size 3 to 8) (size 9 to 14) (size 15 to 20)
#    0.000    1.143    4.286    1.714    4.000    0.571 
#    2.571    0.000    0.000    2.571    0.000    0.000 
#    0.000    0.000    0.000    0.000    0.000    0.000 
#
# Total GULP energy -78240.784138 kJ/mol
# GULP energy per Si atom -5588.627438 kJ/mol
# Density = 2.722156 g / cm^3
# Si number density = 27.283662 Si / 1000 Ang^3
#
#
#
# Elastic Constant Matrix: (Units=GPa)
#
#
# Indices 1 2 3 4 5 6 
#
# 1 116.8641 41.0856 38.4701 29.2077 -21.6564 0.7402
# 2 41.0856 192.9947 51.3379 50.3875 -9.1192 -13.3154
# 3 38.4701 51.3379 121.9665 43.8829 -20.0487 -15.4296
# 4 29.2077 50.3875 43.8829 64.3935 -18.5622 -14.5873
# 5 -21.6564 -9.1192 -20.0487 -18.5622 40.9073 10.2011
# 6 0.7402 -13.3154 -15.4296 -14.5873 10.2011 48.9840
#
#
#
# Elastic Compliance Matrix: (Units=1/GPa)
#
#
# Indices 1 2 3 4 5 6 
#
# 1 0.010933 -0.001286 -0.001774 -0.002082 0.004335 -0.002596
# 2 -0.001286 0.006861 -0.001121 -0.004421 -0.001857 0.000602
# 3 -0.001774 -0.001121 0.011648 -0.005447 0.001695 0.001416
# 4 -0.002082 -0.004421 -0.005447 0.026272 0.006258 0.003635
# 5 0.004335 -0.001857 0.001695 0.006258 0.031159 -0.004662
# 6 -0.002596 0.000602 0.001416 0.003635 -0.004662 0.023117
#
#
# Mechanical properties :
#
#
# Convention : Reuss Voigt Hill
#
# Bulk Modulus (GPa) = 47.43771 77.06803 62.25287
# Shear Modulus (GPa) = 39.87901 50.91909 45.39905
#
# Velocity S-wave (km/s) = 3.82729 4.32474 4.08360
# Velocity P-wave (km/s) = 6.07910 7.29699 6.71571
#
# Compressibility (1/GPa) = 0.02108028
#
# Stress axis : x y z
#
# Youngs Moduli (GPa) = 91.46429 145.74233 85.85388
#
# Poissons Ratio (x) = 0.18747 0.15229
# Poissons Ratio (y) = 0.11765 0.09624
# Poissons Ratio (z) = 0.16224 0.16337
#
# Static dielectric constant tensor:
#      x y z
#    x 2.155640 -0.061440 -0.034790 
#    y -0.061440 2.185000 -0.078890 
#    z -0.034790 -0.078890 2.375720 
# 
# From -- ./inp_files/244859.got.cif
#   From: 2010.05.17/outbox.cif.g08.bks.cpg/sg2_123_cif.got.tgz:244859.got - 2010.06.03 11:33:40.
