data_PCOD9011113
_publ_section_title
;
Structure prediction by ZEFSAII (Michael W. Deem and Ramdas Pophale) SiO2 
 PCOD9011113
Probable space group: P -1
;
_chemical_formula_sum "Si O2"
_cell_formula_units_Z 14
_cell_length_a 15.955878
_cell_length_b 18.587738
_cell_length_c 17.601805
_cell_angle_alpha 22.894843
_cell_angle_beta 157.265721
_cell_angle_gamma 157.063488
_cell_volume 691.036376
_symmetry_space_group_name_H-M "P -1"
_symmetry_group_IT_number 2
_symmetry_cell_setting 'triclinic'
loop_
_space_group_symop_operation_xyz
x,y,z
-x,-y,-z
loop_
_atom_site_type_symbol
_atom_site_label
_atom_site_fract_x
_atom_site_fract_y
_atom_site_fract_z
Si Si1 0.407311 0.868487 0.283550
Si Si2 0.061873 0.925955 0.423953
Si Si3 0.009364 0.472303 0.821099
Si Si4 0.429789 0.185602 0.260622
Si Si5 0.688307 0.063584 0.027271
Si Si6 0.507527 0.473835 0.904598
Si Si7 0.105869 0.073491 0.889861
O O1 0.663351 0.896559 0.499831
O O2 0.295012 0.978516 0.137533
O O3 0.191008 0.636660 0.308324
O O4 0.448182 0.981509 0.125016
O O5 0.992774 0.937264 0.267761
O O6 0.058446 0.705507 0.648722
O O7 0.858388 0.951002 0.278531
O O8 0.256447 0.465778 0.009746
O O9 0.877013 0.312984 0.934983
O O10 0.505380 0.331046 0.257300
O O11 0.500000 0.000000 0.500000
O O12 0.539649 0.340669 0.130555
O O13 0.133409 0.072705 0.119645
O O14 0.500000 0.000000 0.000000
O O15 0.257324 0.311280 0.812815
#
# Coordination Sequence:
#
# PCOD9011113 Si02
#       7
#     2   2   2   2   2   2   2
#     4   9  21  40  64  90 124 159 210 254 296 369
#     4  11  21  40  67  90 122 169 207 243 316 365
#     4  10  21  40  65  92 117 166 209 249 307 368
#     4  11  24  40  60  94 123 165 203 254 318 359
#     4   9  22  42  61  96 132 154 202 259 306 366
#     4  11  22  41  64  87 128 157 210 260 301 366
#     4  11  22  41  63  90 126 163 208 262 297 360
#
# _framework density 20.259426000000001
#
# number of rings (size 3 to 8) (size 9 to 14) (size 15 to 20)
#    0.857    0.857    2.857    1.286    0.000    4.000 
#    0.000    0.714    0.000    0.000    0.000    0.000 
#    0.000    0.000    0.000    0.000    0.000    0.000 
#
# Total GULP energy -78167.755574 kJ/mol
# GULP energy per Si atom -5583.411112 kJ/mol
# Density = 2.021331 g / cm^3
# Si number density = 20.259426 Si / 1000 Ang^3
#
#
#
# Elastic Constant Matrix: (Units=GPa)
#
#
# Indices 1 2 3 4 5 6 
#
# 1 58.3738 19.4819 29.5421 5.1750 11.0532 27.4084
# 2 19.4819 110.4225 16.5564 11.4199 9.7819 -3.1701
# 3 29.5421 16.5564 96.3604 -7.2554 19.7493 3.2327
# 4 5.1750 11.4199 -7.2554 38.0859 0.4195 -3.6788
# 5 11.0532 9.7819 19.7493 0.4195 18.7395 -0.3914
# 6 27.4084 -3.1701 3.2327 -3.6788 -0.3914 38.7772
#
#
#
# Elastic Compliance Matrix: (Units=1/GPa)
#
#
# Indices 1 2 3 4 5 6 
#
# 1 0.039246 -0.004541 -0.008386 -0.008167 -0.012349 -0.028311
# 2 -0.004541 0.010435 -0.000192 -0.002150 -0.002437 0.003850
# 3 -0.008386 -0.000192 0.015484 0.004750 -0.011274 0.004958
# 4 -0.008167 -0.002150 0.004750 0.029686 0.000437 0.008022
# 5 -0.012349 -0.002437 -0.011274 0.000437 0.074005 0.010257
# 6 -0.028311 0.003850 0.004958 0.008022 0.010257 0.046565
#
#
# Mechanical properties :
#
#
# Convention : Reuss Voigt Hill
#
# Bulk Modulus (GPa) = 25.68971 44.03528 34.86249
# Shear Modulus (GPa) = 19.63599 32.42562 26.03081
#
# Velocity S-wave (km/s) = 3.11662 4.00499 3.58840
# Velocity P-wave (km/s) = 5.06547 6.57035 5.86636
#
# Compressibility (1/GPa) = 0.03892610
#
# Stress axis : x y z
#
# Youngs Moduli (GPa) = 25.48032 95.83224 64.58420
#
# Poissons Ratio (x) = 0.43518 0.54160
# Poissons Ratio (y) = 0.11571 0.01241
# Poissons Ratio (z) = 0.21368 0.01842
#
# Static dielectric constant tensor:
#      x y z
#    x 1.716290 -0.012590 -0.027090 
#    y -0.012590 1.731100 -0.014080 
#    z -0.027090 -0.014080 1.717180 
# 
# From -- ./inp_files/600543.got.cif
#   From: 2010.05.17/outbox.cif.g08.bks.cpg/sg2_301_cif.got.tgz:600543.got - 2010.06.03 11:33:40.
