data_PCOD9011841
_publ_section_title
;
Structure prediction by ZEFSAII (Michael W. Deem and Ramdas Pophale) SiO2 
 PCOD9011841
Probable space group: P -1
;
_chemical_formula_sum "Si O2"
_cell_formula_units_Z 16
_cell_length_a 11.124623
_cell_length_b 17.223059
_cell_length_c 11.926182
_cell_angle_alpha 20.623184
_cell_angle_beta 118.250790
_cell_angle_gamma 115.540117
_cell_volume 708.456205
_symmetry_space_group_name_H-M "P -1"
_symmetry_group_IT_number 2
_symmetry_cell_setting 'triclinic'
loop_
_space_group_symop_operation_xyz
x,y,z
-x,-y,-z
loop_
_atom_site_type_symbol
_atom_site_label
_atom_site_fract_x
_atom_site_fract_y
_atom_site_fract_z
Si Si1 0.982032 0.252136 0.856989
Si Si2 0.184098 0.080568 0.024194
Si Si3 0.102736 0.163570 0.267244
Si Si4 0.367984 0.422549 0.250038
Si Si5 0.129044 0.658587 0.703239
Si Si6 0.415672 0.275116 0.994026
Si Si7 0.406210 0.147672 0.421665
Si Si8 0.826921 0.880374 0.292185
O O1 0.000000 0.500000 0.500000
O O2 0.029851 0.139688 0.914272
O O3 0.074376 0.183251 0.096499
O O4 0.841323 0.139240 0.976541
O O5 0.197568 0.829186 0.416036
O O6 0.270484 0.255377 0.897633
O O7 0.211128 0.126265 0.846014
O O8 0.254332 0.069343 0.482071
O O9 0.098766 0.416010 0.969416
O O10 0.000000 0.000000 0.500000
O O11 0.485595 0.520780 0.245829
O O12 0.429250 0.318464 0.301943
O O13 0.283493 0.237888 0.524101
O O14 0.250356 0.610204 0.912289
O O15 0.980025 0.761590 0.536689
O O16 0.403322 0.249973 0.157241
O O17 0.491232 0.059983 0.263340
#
# Coordination Sequence:
#
# PCOD9011841 Si02
#       8
#     2   2   2   2   2   2   2   2
#     4  11  21  40  63  94 127 171 217 263 328 397
#     4  11  23  43  63  93 129 181 224 252 324 407
#     4  11  22  36  65 103 132 157 211 282 337 380
#     4  11  24  41  69 100 131 168 219 282 332 376
#     4  10  21  40  67  95 131 170 213 274 330 390
#     4  11  23  42  70  90 134 180 225 263 317 403
#     4  10  22  42  62 102 127 170 228 268 321 392
#     4  11  24  41  63  97 136 169 214 274 339 386
#
# _framework density 22.584319000000001
#
# number of rings (size 3 to 8) (size 9 to 14) (size 15 to 20)
#    0.000    1.250    1.250    6.750    3.500    1.500 
#    4.500    0.625    0.000    0.000    0.000    0.000 
#    0.000    0.000    0.000    0.000    0.000    0.000 
#
# Total GULP energy -89304.011876 kJ/mol
# GULP energy per Si atom -5581.500742 kJ/mol
# Density = 2.253292 g / cm^3
# Si number density = 22.584319 Si / 1000 Ang^3
#
#
#
# Elastic Constant Matrix: (Units=GPa)
#
#
# Indices 1 2 3 4 5 6 
#
# 1 87.4097 20.7589 38.5834 -15.2841 -24.0049 6.6824
# 2 20.7589 105.8294 37.5132 -13.7572 -10.1364 8.0032
# 3 38.5834 37.5132 105.1832 -8.1778 -29.9480 -1.0704
# 4 -15.2841 -13.7572 -8.1778 30.8118 -1.6184 -9.1973
# 5 -24.0049 -10.1364 -29.9480 -1.6184 23.0654 -5.1250
# 6 6.6824 8.0032 -1.0704 -9.1973 -5.1250 30.4177
#
#
#
# Elastic Compliance Matrix: (Units=1/GPa)
#
#
# Indices 1 2 3 4 5 6 
#
# 1 0.019086 -0.000515 0.000144 0.011270 0.021267 0.002939
# 2 -0.000515 0.011427 -0.003923 0.003088 -0.000890 -0.002248
# 3 0.000144 -0.003923 0.018494 0.006879 0.024673 0.007888
# 4 0.011270 0.003088 0.006879 0.047616 0.028965 0.016232
# 5 0.021267 -0.000890 0.024673 0.028965 0.104220 0.022748
# 6 0.002939 -0.002248 0.007888 0.016232 0.022748 0.041840
#
#
# Mechanical properties :
#
#
# Convention : Reuss Voigt Hill
#
# Bulk Modulus (GPa) = 24.74102 54.68148 39.71125
# Shear Modulus (GPa) = 18.88628 30.29677 24.59152
#
# Velocity S-wave (km/s) = 2.89495 3.66662 3.30339
# Velocity P-wave (km/s) = 4.70670 6.49539 5.67200
#
# Compressibility (1/GPa) = 0.04041870
#
# Stress axis : x y z
#
# Youngs Moduli (GPa) = 52.39560 87.51400 54.07283
#
# Poissons Ratio (x) = 0.04507 -0.00779
# Poissons Ratio (y) = 0.02698 0.21211
# Poissons Ratio (z) = -0.00755 0.34329
#
# Static dielectric constant tensor:
#      x y z
#    x 1.854740 0.006670 0.020600 
#    y 0.006670 1.863090 -0.014270 
#    z 0.020600 -0.014270 1.892850 
# 
# From -- ./inp_files/436291.got.cif
#   From: 2010.05.17/outbox.cif.g08.bks.cpg/sg2_219_cif.got.tgz:436291.got - 2010.06.03 11:33:40.
