data_PCOD9011978
_publ_section_title
;
Structure prediction by ZEFSAII (Michael W. Deem and Ramdas Pophale) SiO2 
 PCOD9011978
Probable space group: P -1
;
_chemical_formula_sum "Si O2"
_cell_formula_units_Z 16
_cell_length_a 9.593645
_cell_length_b 12.223587
_cell_length_c 10.130660
_cell_angle_alpha 133.951273
_cell_angle_beta 125.918691
_cell_angle_gamma 71.778074
_cell_volume 683.502325
_symmetry_space_group_name_H-M "P -1"
_symmetry_group_IT_number 2
_symmetry_cell_setting 'triclinic'
loop_
_space_group_symop_operation_xyz
x,y,z
-x,-y,-z
loop_
_atom_site_type_symbol
_atom_site_label
_atom_site_fract_x
_atom_site_fract_y
_atom_site_fract_z
Si Si1 0.446411 0.512448 0.286460
Si Si2 0.934766 0.717649 0.554137
Si Si3 0.245602 0.673743 0.112009
Si Si4 0.293214 0.168866 0.263597
Si Si5 0.730910 0.369713 0.201533
Si Si6 0.853708 0.678938 0.922086
Si Si7 0.423696 0.979861 0.587697
Si Si8 0.125996 0.152829 0.651560
O O1 0.342348 0.546148 0.124645
O O2 0.572917 0.670563 0.518733
O O3 0.566253 0.385457 0.213450
O O4 0.306038 0.461942 0.280237
O O5 0.837693 0.829672 0.684487
O O6 0.821885 0.546593 0.366119
O O7 0.940551 0.772084 0.453032
O O8 0.124119 0.708626 0.710351
O O9 0.289092 0.819063 0.356247
O O10 0.037405 0.630536 0.947636
O O11 0.314982 0.705965 0.029550
O O12 0.418678 0.043401 0.246689
O O13 0.186643 0.187567 0.087249
O O14 0.861205 0.738047 0.124322
O O15 0.500000 0.000000 0.500000
O O16 0.310894 0.104681 0.676050
O O17 0.000000 0.000000 0.500000
#
# Coordination Sequence:
#
# PCOD9011978 Si02
#       8
#     2   2   2   2   2   2   2   2
#     4  10  23  38  66 101 135 164 212 278 330 384
#     4  10  21  42  69  93 137 168 210 277 323 391
#     4  11  22  41  65  97 130 174 219 262 328 399
#     4  10  22  44  67  97 128 172 220 266 326 392
#     4  10  21  40  68 102 124 168 225 265 330 383
#     4  12  24  42  65  97 136 171 214 271 331 389
#     4  11  24  44  68  89 129 175 219 268 318 384
#     4  12  26  45  63  97 133 175 219 268 329 384
#
# _framework density 23.408844999999999
#
# number of rings (size 3 to 8) (size 9 to 14) (size 15 to 20)
#    0.000    1.250    3.750    1.875    1.750    1.500 
#    2.250    1.875    0.000    0.000    0.000    0.000 
#    0.000    0.000    0.000    0.000    0.000    0.000 
#
# Total GULP energy -89567.441229 kJ/mol
# GULP energy per Si atom -5597.965077 kJ/mol
# Density = 2.335557 g / cm^3
# Si number density = 23.408845 Si / 1000 Ang^3
#
#
#
# Elastic Constant Matrix: (Units=GPa)
#
#
# Indices 1 2 3 4 5 6 
#
# 1 112.4644 24.6684 3.7429 -12.0813 13.2130 -6.0325
# 2 24.6684 93.0022 25.8542 -46.0154 5.5738 -4.4695
# 3 3.7429 25.8542 48.3850 -22.8978 -2.7632 6.0833
# 4 -12.0813 -46.0154 -22.8978 50.6856 3.0629 1.5890
# 5 13.2130 5.5738 -2.7632 3.0629 35.5636 -5.9185
# 6 -6.0325 -4.4695 6.0833 1.5890 -5.9185 39.1054
#
#
#
# Elastic Compliance Matrix: (Units=1/GPa)
#
#
# Indices 1 2 3 4 5 6 
#
# 1 0.009845 -0.002111 0.000486 0.000824 -0.003247 0.000677
# 2 -0.002111 0.021151 -0.003288 0.017419 -0.004073 0.001279
# 3 0.000486 -0.003288 0.027649 0.009723 0.000835 -0.004871
# 4 0.000824 0.017419 0.009723 0.040563 -0.006102 -0.001966
# 5 -0.003247 -0.004073 0.000835 -0.006102 0.031199 0.003873
# 6 0.000677 0.001279 -0.004871 -0.001966 0.003873 0.027246
#
#
# Mechanical properties :
#
#
# Convention : Reuss Voigt Hill
#
# Bulk Modulus (GPa) = 20.48452 40.26474 30.37463
# Shear Modulus (GPa) = 27.21054 38.37666 32.79360
#
# Velocity S-wave (km/s) = 3.41310 4.05335 3.74693
# Velocity P-wave (km/s) = 4.92972 6.25653 5.63233
#
# Compressibility (1/GPa) = 0.04881736
#
# Stress axis : x y z
#
# Youngs Moduli (GPa) = 101.57396 47.27926 36.16817
#
# Poissons Ratio (x) = 0.09983 -0.01759
# Poissons Ratio (y) = 0.21447 0.11894
# Poissons Ratio (z) = -0.04939 0.15547
#
# Static dielectric constant tensor:
#      x y z
#    x 1.844950 0.028400 0.062090 
#    y 0.028400 1.899560 0.063270 
#    z 0.062090 0.063270 1.949620 
# 
# From -- ./inp_files/185253.got.cif
#   From: 2010.05.17/outbox.cif.g08.bks.cpg/sg2_93_cif.got.tgz:185253.got - 2010.06.03 11:33:40.
