data_PCOD9011388
_publ_section_title
;
Structure prediction by ZEFSAII (Michael W. Deem and Ramdas Pophale) SiO2 
 PCOD9011388
Probable space group: P -1
;
_chemical_formula_sum "Si O2"
_cell_formula_units_Z 13
_cell_length_a 17.416788
_cell_length_b 8.451641
_cell_length_c 9.661760
_cell_angle_alpha 68.636175
_cell_angle_beta 40.732013
_cell_angle_gamma 40.121963
_cell_volume 513.819090
_symmetry_space_group_name_H-M "P -1"
_symmetry_group_IT_number 2
_symmetry_cell_setting 'triclinic'
loop_
_space_group_symop_operation_xyz
x,y,z
-x,-y,-z
loop_
_atom_site_type_symbol
_atom_site_label
_atom_site_fract_x
_atom_site_fract_y
_atom_site_fract_z
Si Si1 0.734388 0.788765 0.114059
Si Si2 0.810611 0.261933 0.579933
Si Si3 0.328376 0.049885 0.550658
Si Si4 0.500000 0.500000 0.500000
Si Si5 0.229465 0.061949 0.263179
Si Si6 0.142008 0.713612 0.807847
Si Si7 0.211931 0.385419 0.360616
O O1 0.518436 0.955082 0.326845
O O2 0.865378 0.467763 0.063440
O O3 0.740106 0.882813 0.219720
O O4 0.764391 0.885225 0.919635
O O5 0.882319 0.246076 0.337155
O O6 0.701438 0.536094 0.729592
O O7 0.699537 0.212347 0.726034
O O8 0.000000 0.000000 0.500000
O O9 0.376189 0.808042 0.506860
O O10 0.177999 0.323029 0.569572
O O11 0.362042 0.525939 0.596516
O O12 0.316598 0.117545 0.213376
O O13 0.990728 0.336097 0.533530
O O14 0.000000 0.000000 0.000000
#
# Coordination Sequence:
#
# PCOD9011388 Si02
#       7
#     2   2   2   1   2   2   2
#     4  10  23  41  64  94 126 169 220 277 332 400
#     4  10  22  42  64  97 135 178 220 280 336 408
#     4  10  21  43  63  89 132 169 217 279 336 389
#     4  10  24  40  66 102 132 172 226 290 334 400
#     4  10  23  39  63  98 127 170 225 270 336 403
#     4  11  24  42  71  99 135 178 231 282 343 406
#     4  10  21  40  66  86 135 174 211 274 336 400
#
# _framework density 25.300735
#
# number of rings (size 3 to 8) (size 9 to 14) (size 15 to 20)
#    0.000    1.846    1.538    0.923    8.615    3.692 
#    2.769    0.769    0.000    0.000    0.000    0.000 
#    0.000    0.000    0.000    0.000    0.000    0.000 
#
# Total GULP energy -72395.355471 kJ/mol
# GULP energy per Si atom -5568.873498 kJ/mol
# Density = 2.524315 g / cm^3
# Si number density = 25.300735 Si / 1000 Ang^3
#
#
#
# Elastic Constant Matrix: (Units=GPa)
#
#
# Indices 1 2 3 4 5 6 
#
# 1 118.6308 43.9868 28.9351 -2.8642 -0.8385 18.7334
# 2 43.9868 117.9082 25.8059 -18.5180 4.2919 34.3629
# 3 28.9351 25.8059 53.4048 -17.3117 12.6105 0.6311
# 4 -2.8642 -18.5180 -17.3117 32.3054 2.4230 0.1375
# 5 -0.8385 4.2919 12.6105 2.4230 42.2436 -4.3918
# 6 18.7334 34.3629 0.6311 0.1375 -4.3918 45.5202
#
#
#
# Elastic Compliance Matrix: (Units=1/GPa)
#
#
# Indices 1 2 3 4 5 6 
#
# 1 0.011434 -0.002964 -0.006820 -0.004526 0.002604 -0.002108
# 2 -0.002964 0.014026 -0.002376 0.006706 -0.002153 -0.009563
# 3 -0.006820 -0.002376 0.030728 0.015207 -0.009606 0.003202
# 4 -0.004526 0.006706 0.015207 0.043182 -0.008238 -0.004335
# 5 0.002604 -0.002153 -0.009606 -0.008238 0.027634 0.003378
# 6 -0.002108 -0.009563 0.003202 -0.004335 0.003378 0.030350
#
#
# Mechanical properties :
#
#
# Convention : Reuss Voigt Hill
#
# Bulk Modulus (GPa) = 31.38034 54.15547 42.76791
# Shear Modulus (GPa) = 26.00140 36.76158 31.38149
#
# Velocity S-wave (km/s) = 3.20924 3.81594 3.52567
# Velocity P-wave (km/s) = 5.11490 6.39268 5.78915
#
# Compressibility (1/GPa) = 0.03186708
#
# Stress axis : x y z
#
# Youngs Moduli (GPa) = 87.45720 71.29813 32.54337
#
# Poissons Ratio (x) = 0.21134 0.22195
# Poissons Ratio (y) = 0.25924 0.07733
# Poissons Ratio (z) = 0.59647 0.16941
#
# Static dielectric constant tensor:
#      x y z
#    x 1.988430 0.006920 -0.027620 
#    y 0.006920 2.043620 0.067500 
#    z -0.027620 0.067500 2.025820 
# 
# From -- ./inp_files/148356.got.cif
#   From: 2010.05.17/outbox.cif.g08.bks.cpg/sg2_75_cif.got.tgz:148356.got - 2010.06.03 11:33:40.
