data_PCOD9011739
_publ_section_title
;
Structure prediction by ZEFSAII (Michael W. Deem and Ramdas Pophale) SiO2 
 PCOD9011739
Probable space group: P -1
;
_chemical_formula_sum "Si O2"
_cell_formula_units_Z 16
_cell_length_a 12.621416
_cell_length_b 9.479234
_cell_length_c 18.749861
_cell_angle_alpha 51.575695
_cell_angle_beta 154.298049
_cell_angle_gamma 115.075889
_cell_volume 698.288852
_symmetry_space_group_name_H-M "P -1"
_symmetry_group_IT_number 2
_symmetry_cell_setting 'triclinic'
loop_
_space_group_symop_operation_xyz
x,y,z
-x,-y,-z
loop_
_atom_site_type_symbol
_atom_site_label
_atom_site_fract_x
_atom_site_fract_y
_atom_site_fract_z
Si Si1 0.942124 0.100485 0.856035
Si Si2 0.373257 0.209162 0.512646
Si Si3 0.783624 0.133822 0.525228
Si Si4 0.160655 0.406606 0.923731
Si Si5 0.301393 0.127425 0.652619
Si Si6 0.742854 0.551044 0.877378
Si Si7 0.767931 0.127136 0.027396
Si Si8 0.268493 0.729853 0.712552
O O1 0.626136 0.228116 0.624773
O O2 0.098765 0.241312 0.897084
O O3 0.036951 0.940221 0.901922
O O4 0.000000 0.000000 0.000000
O O5 0.430332 0.146718 0.649706
O O6 0.106549 0.402468 0.292412
O O7 0.309968 0.044666 0.484265
O O8 0.551124 0.306863 0.373136
O O9 0.792902 0.211183 0.426749
O O10 0.073804 0.037816 0.767016
O O11 0.224045 0.339649 0.065670
O O12 0.426717 0.427932 0.050654
O O13 0.997572 0.291877 0.416925
O O14 0.280053 0.917198 0.702469
O O15 0.484571 0.137901 0.824863
O O16 0.736072 0.344106 0.961328
O O17 0.000000 0.500000 0.000000
#
# Coordination Sequence:
#
# PCOD9011739 Si02
#       8
#     2   2   2   2   2   2   2   2
#     4  12  22  39  61  93 132 163 211 262 309 379
#     4  11  22  39  64  93 128 170 207 260 318 378
#     4  10  23  42  62  90 133 168 207 261 323 372
#     4  11  22  40  62  94 126 170 209 259 319 377
#     4  10  21  40  67  90 123 166 216 261 317 369
#     4  11  24  39  61  91 134 172 207 251 323 385
#     4  12  23  40  65  98 125 168 213 260 317 379
#     4   9  20  44  65  88 124 170 208 266 316 374
#
# _framework density 22.913153000000001
#
# number of rings (size 3 to 8) (size 9 to 14) (size 15 to 20)
#    0.000    1.250    3.750    3.375    1.750    3.000 
#    0.000    2.500    0.000    0.000    0.000    0.000 
#    0.000    0.000    0.000    0.000    0.000    0.000 
#
# Total GULP energy -89404.270775 kJ/mol
# GULP energy per Si atom -5587.766923 kJ/mol
# Density = 2.286100 g / cm^3
# Si number density = 22.913153 Si / 1000 Ang^3
#
#
#
# Elastic Constant Matrix: (Units=GPa)
#
#
# Indices 1 2 3 4 5 6 
#
# 1 46.5734 3.3861 12.4369 15.6036 24.6591 0.2774
# 2 3.3861 48.5146 26.8427 -1.1327 5.0955 -9.8211
# 3 12.4369 26.8427 162.9157 1.4879 29.3316 4.6355
# 4 15.6036 -1.1327 1.4879 41.6749 -3.9894 2.8499
# 5 24.6591 5.0955 29.3316 -3.9894 44.8295 1.8198
# 6 0.2774 -9.8211 4.6355 2.8499 1.8198 18.1051
#
#
#
# Elastic Compliance Matrix: (Units=1/GPa)
#
#
# Indices 1 2 3 4 5 6 
#
# 1 0.040128 -0.000689 0.001557 -0.017734 -0.024750 0.003892
# 2 -0.000689 0.026441 -0.004718 0.000065 -0.000166 0.015568
# 3 0.001557 -0.004718 0.007898 -0.001250 -0.005442 -0.003861
# 4 -0.017734 0.000065 -0.001250 0.032392 0.013686 -0.005847
# 5 -0.024750 -0.000166 -0.005442 0.013686 0.040905 -0.004583
# 6 0.003892 0.015568 -0.003861 -0.005847 -0.004583 0.065988
#
#
# Mechanical properties :
#
#
# Convention : Reuss Voigt Hill
#
# Bulk Modulus (GPa) = 14.97718 38.14836 26.56277
# Shear Modulus (GPa) = 20.51651 35.27777 27.89714
#
# Velocity S-wave (km/s) = 2.99558 3.92807 3.49308
# Velocity P-wave (km/s) = 4.30294 6.10395 5.28079
#
# Compressibility (1/GPa) = 0.06676823
#
# Stress axis : x y z
#
# Youngs Moduli (GPa) = 24.91999 37.81993 126.61934
#
# Poissons Ratio (x) = 0.02607 -0.19721
# Poissons Ratio (y) = 0.01718 0.59735
# Poissons Ratio (z) = -0.03881 0.17842
#
# Static dielectric constant tensor:
#      x y z
#    x 1.867850 0.004590 -0.006190 
#    y 0.004590 1.803060 -0.005020 
#    z -0.006190 -0.005020 1.950060 
# 
# From -- ./inp_files/187957.got.cif
#   From: 2010.05.17/outbox.cif.g08.bks.cpg/sg2_94_cif.got.tgz:187957.got - 2010.06.03 11:33:40.
