data_PCOD9011023
_publ_section_title
;
Structure prediction by ZEFSAII (Michael W. Deem and Ramdas Pophale) SiO2 
 PCOD9011023
Probable space group: P -1
;
_chemical_formula_sum "Si O2"
_cell_formula_units_Z 15
_cell_length_a 7.498714
_cell_length_b 11.021991
_cell_length_c 9.613464
_cell_angle_alpha 48.624459
_cell_angle_beta 106.616560
_cell_angle_gamma 88.726797
_cell_volume 546.123663
_symmetry_space_group_name_H-M "P -1"
_symmetry_group_IT_number 2
_symmetry_cell_setting 'triclinic'
loop_
_space_group_symop_operation_xyz
x,y,z
-x,-y,-z
loop_
_atom_site_type_symbol
_atom_site_label
_atom_site_fract_x
_atom_site_fract_y
_atom_site_fract_z
Si Si1 0.501379 0.551808 0.212271
Si Si2 0.250033 0.459993 0.979911
Si Si3 0.874851 0.048552 0.720247
Si Si4 0.744637 0.466967 0.609024
Si Si5 0.427599 0.164489 0.571752
Si Si6 0.888161 0.779179 0.172531
Si Si7 0.500000 0.000000 0.000000
Si Si8 0.058088 0.217261 0.271436
O O1 0.624072 0.609317 0.075617
O O2 0.652113 0.467382 0.435427
O O3 0.327407 0.654011 0.203482
O O4 0.385291 0.462828 0.143508
O O5 0.119827 0.655444 0.782752
O O6 0.114029 0.344037 0.076438
O O7 0.981664 0.938246 0.698623
O O8 0.644299 0.135128 0.578573
O O9 0.886294 0.914993 0.949237
O O10 0.991992 0.170299 0.711557
O O11 0.660439 0.648205 0.524020
O O12 0.975668 0.403167 0.701758
O O13 0.260340 0.143865 0.451002
O O14 0.461579 0.030216 0.803804
O O15 0.670614 0.819933 0.143988
#
# Coordination Sequence:
#
# PCOD9011023 Si02
#       8
#     2   2   2   2   2   2   1   2
#     4  10  21  40  65 107 140 180 235 306 343 419
#     4  10  23  40  65 106 147 182 245 294 357 416
#     4  10  22  43  68  94 142 190 231 281 367 417
#     4  11  22  41  78  99 139 187 245 294 358 413
#     4  11  24  44  67 104 141 191 234 297 352 434
#     4  10  23  43  72 101 135 187 234 296 352 428
#     4  10  26  46  66 106 144 168 242 296 368 422
#     4  11  23  42  68  98 149 197 230 292 358 428
#
# _framework density 27.466307
#
# number of rings (size 3 to 8) (size 9 to 14) (size 15 to 20)
#    0.000    1.600    1.333    2.800    3.733    4.800 
#    0.000    3.333    0.000    0.000    0.000    0.000 
#    0.000    0.000    0.000    0.000    0.000    0.000 
#
# Total GULP energy -83621.851613 kJ/mol
# GULP energy per Si atom -5574.790108 kJ/mol
# Density = 2.740379 g / cm^3
# Si number density = 27.466307 Si / 1000 Ang^3
#
#
#
# Elastic Constant Matrix: (Units=GPa)
#
#
# Indices 1 2 3 4 5 6 
#
# 1 85.4226 39.1404 38.8640 -7.9010 15.1795 -30.5367
# 2 39.1404 143.3519 49.2484 7.4788 26.3258 -16.5535
# 3 38.8640 49.2484 113.6708 19.8252 22.8293 -23.1483
# 4 -7.9010 7.4788 19.8252 50.7861 -15.6789 9.7920
# 5 15.1795 26.3258 22.8293 -15.6789 50.3976 2.9869
# 6 -30.5367 -16.5535 -23.1483 9.7920 2.9869 40.3320
#
#
#
# Elastic Compliance Matrix: (Units=1/GPa)
#
#
# Indices 1 2 3 4 5 6 
#
# 1 0.018932 -0.002255 -0.002284 0.000556 -0.004044 0.012262
# 2 -0.002255 0.009364 -0.001234 -0.003228 -0.004809 0.002567
# 3 -0.002284 -0.001234 0.016562 -0.012013 -0.010557 0.010968
# 4 0.000556 -0.003228 -0.012013 0.034041 0.018584 -0.017439
# 5 -0.004044 -0.004809 -0.010557 0.018584 0.035215 -0.018214
# 6 0.012262 0.002567 0.010968 -0.017439 -0.018214 0.047010
#
#
# Mechanical properties :
#
#
# Convention : Reuss Voigt Hill
#
# Bulk Modulus (GPa) = 30.01965 66.32787 48.17376
# Shear Modulus (GPa) = 27.20729 42.64932 34.92831
#
# Velocity S-wave (km/s) = 3.15075 3.94482 3.56993
# Velocity P-wave (km/s) = 4.91829 6.70448 5.87961
#
# Compressibility (1/GPa) = 0.03331151
#
# Stress axis : x y z
#
# Youngs Moduli (GPa) = 52.81978 106.79683 60.37989
#
# Poissons Ratio (x) = 0.24084 0.13789
# Poissons Ratio (y) = 0.11911 0.07453
# Poissons Ratio (z) = 0.12062 0.13182
#
# Static dielectric constant tensor:
#      x y z
#    x 2.789000 -0.367340 0.507720 
#    y -0.367340 2.610290 -0.658540 
#    z 0.507720 -0.658540 2.945660 
# 
# From -- ./inp_files/175288.got.cif
#   From: 2010.05.17/outbox.cif.g08.bks.cpg/sg2_88_cif.got.tgz:175288.got - 2010.06.03 11:33:40.
