data_PCOD9011417
_publ_section_title
;
Structure prediction by ZEFSAII (Michael W. Deem and Ramdas Pophale) SiO2 
 PCOD9011417
Probable space group: P -1
;
_chemical_formula_sum "Si O2"
_cell_formula_units_Z 16
_cell_length_a 9.403705
_cell_length_b 12.416908
_cell_length_c 21.816644
_cell_angle_alpha 37.914428
_cell_angle_beta 144.546305
_cell_angle_gamma 115.576153
_cell_volume 731.892877
_symmetry_space_group_name_H-M "P -1"
_symmetry_group_IT_number 2
_symmetry_cell_setting 'triclinic'
loop_
_space_group_symop_operation_xyz
x,y,z
-x,-y,-z
loop_
_atom_site_type_symbol
_atom_site_label
_atom_site_fract_x
_atom_site_fract_y
_atom_site_fract_z
Si Si1 0.965133 0.489956 0.187011
Si Si2 0.604574 0.993100 0.440339
Si Si3 0.727051 0.331493 0.708291
Si Si4 0.447668 0.713962 0.989733
Si Si5 0.228073 0.872643 0.440005
Si Si6 0.797938 0.823354 0.145850
Si Si7 0.244565 0.515391 0.544883
Si Si8 0.211911 0.424856 0.048867
O O1 0.615851 0.652270 0.011433
O O2 0.098605 0.245534 0.363419
O O3 0.151722 0.558630 0.257466
O O4 0.980177 0.498791 0.115300
O O5 0.375702 0.945686 0.410412
O O6 0.679860 0.097056 0.474478
O O7 0.449003 0.165251 0.254025
O O8 0.500000 0.500000 0.500000
O O9 0.522718 0.312233 0.694927
O O10 0.025183 0.138655 0.861954
O O11 0.687394 0.694559 0.130247
O O12 0.369577 0.547059 0.051135
O O13 0.135881 0.955042 0.771670
O O14 0.335936 0.631004 0.571746
O O15 0.049901 0.691158 0.344917
O O16 0.500000 0.000000 0.000000
O O17 0.000000 0.500000 0.500000
O O18 0.000000 0.500000 0.000000
#
# Coordination Sequence:
#
# PCOD9011417 Si02
#       8
#     2   2   2   2   2   2   2   2
#     4  11  23  44  67  95 138 174 218 283 337 388
#     4  11  23  40  68  97 128 183 217 266 338 397
#     4   9  21  42  68  90 126 177 219 270 337 399
#     4  11  23  41  65  93 134 173 217 285 334 391
#     4  11  21  42  65  92 135 174 219 272 339 395
#     4  10  21  40  66  90 122 176 222 265 341 394
#     4  11  23  39  66  97 130 171 223 276 333 402
#     4  12  24  39  66 103 130 171 228 267 332 406
#
# _framework density 21.861122000000002
#
# number of rings (size 3 to 8) (size 9 to 14) (size 15 to 20)
#    0.000    1.250    5.000    1.125    1.750    0.500 
#    0.000    0.625    0.000    0.000    0.000    0.000 
#    0.000    0.000    0.000    0.000    0.000    0.000 
#
# Total GULP energy -89279.094805 kJ/mol
# GULP energy per Si atom -5579.943425 kJ/mol
# Density = 2.181136 g / cm^3
# Si number density = 21.861122 Si / 1000 Ang^3
#
#
#
# Elastic Constant Matrix: (Units=GPa)
#
#
# Indices 1 2 3 4 5 6 
#
# 1 134.7773 29.4488 13.9394 -9.8211 37.1790 -6.0582
# 2 29.4488 62.7391 -7.6146 15.5392 2.3524 -3.5643
# 3 13.9394 -7.6146 63.8487 -6.6831 7.5176 -7.5275
# 4 -9.8211 15.5392 -6.6831 22.0515 -2.2387 8.8796
# 5 37.1790 2.3524 7.5176 -2.2387 43.4990 -2.9987
# 6 -6.0582 -3.5643 -7.5275 8.8796 -2.9987 24.5728
#
#
#
# Elastic Compliance Matrix: (Units=1/GPa)
#
#
# Indices 1 2 3 4 5 6 
#
# 1 0.013214 -0.009500 -0.002033 0.012789 -0.010087 -0.004596
# 2 -0.009500 0.028350 0.003479 -0.028097 0.005480 0.013658
# 3 -0.002033 0.003479 0.017232 -0.000372 -0.001083 0.005285
# 4 0.012789 -0.028097 -0.000372 0.082818 -0.007281 -0.031852
# 5 -0.010087 0.005480 -0.001083 -0.007281 0.031433 0.004443
# 6 -0.004596 0.013658 0.005285 -0.031852 0.004443 0.055215
#
#
# Mechanical properties :
#
#
# Convention : Reuss Voigt Hill
#
# Bulk Modulus (GPa) = 23.42570 36.99026 30.20798
# Shear Modulus (GPa) = 19.33499 33.06407 26.19953
#
# Velocity S-wave (km/s) = 2.97719 3.89326 3.46562
# Velocity P-wave (km/s) = 4.74944 6.09649 5.46463
#
# Compressibility (1/GPa) = 0.04268815
#
# Stress axis : x y z
#
# Youngs Moduli (GPa) = 75.67970 35.27370 58.03017
#
# Poissons Ratio (x) = 0.33508 0.11798
# Poissons Ratio (y) = 0.71892 -0.20188
# Poissons Ratio (z) = 0.15387 -0.12271
#
# Static dielectric constant tensor:
#      x y z
#    x 1.863440 -0.030340 0.083970 
#    y -0.030340 1.777080 -0.036200 
#    z 0.083970 -0.036200 1.863760 
# 
# From -- ./inp_files/179328.got.cif
#   From: 2010.05.17/outbox.cif.g08.bks.cpg/sg2_90_cif.got.tgz:179328.got - 2010.06.03 11:33:40.
