data_PCOD9011694
_publ_section_title
;
Structure prediction by ZEFSAII (Michael W. Deem and Ramdas Pophale) SiO2 
 PCOD9011694
Probable space group: P -1
;
_chemical_formula_sum "Si O2"
_cell_formula_units_Z 12
_cell_length_a 5.239219
_cell_length_b 16.371435
_cell_length_c 8.346865
_cell_angle_alpha 125.604040
_cell_angle_beta 56.147005
_cell_angle_gamma 95.117674
_cell_volume 453.166390
_symmetry_space_group_name_H-M "P -1"
_symmetry_group_IT_number 2
_symmetry_cell_setting 'triclinic'
loop_
_space_group_symop_operation_xyz
x,y,z
-x,-y,-z
loop_
_atom_site_type_symbol
_atom_site_label
_atom_site_fract_x
_atom_site_fract_y
_atom_site_fract_z
Si Si1 0.947280 0.131977 0.005367
Si Si2 0.864827 0.640346 0.743439
Si Si3 0.382490 0.536091 0.905111
Si Si4 0.863994 0.916972 0.780296
Si Si5 0.159823 0.775096 0.208195
Si Si6 0.438718 0.340673 0.457496
O O1 0.958950 0.168970 0.858536
O O2 0.118223 0.143632 0.126692
O O3 0.051397 0.003440 0.815644
O O4 0.584825 0.212567 0.284396
O O5 0.713382 0.548505 0.730643
O O6 0.820774 0.647854 0.577008
O O7 0.211132 0.641383 0.688021
O O8 0.557817 0.741155 0.037392
O O9 0.302242 0.440441 0.738470
O O10 0.500000 0.500000 0.000000
O O11 0.129310 0.657206 0.105054
O O12 0.995643 0.845753 0.497452
O O13 0.500000 0.000000 0.000000
#
# Coordination Sequence:
#
# PCOD9011694 Si02
#       6
#     2   2   2   2   2   2
#     4  10  24  42  67  96 132 177 222 286 338 407
#     4   9  23  40  68  95 134 178 225 268 334 409
#     4  10  21  40  67 100 139 174 223 282 335 409
#     4  11  24  44  67  99 131 174 234 285 340 402
#     4   9  22  44  65  98 134 176 228 273 346 402
#     4  11  21  45  68  99 133 181 225 267 345 413
#
# _framework density 26.480343999999999
#
# number of rings (size 3 to 8) (size 9 to 14) (size 15 to 20)
#    1.000    1.000    0.000    2.500    4.667    0.667 
#   12.000    3.333    0.000    0.000    0.000    0.000 
#    0.000    0.000    0.000    0.000    0.000    0.000 
#
# Total GULP energy -66859.058279 kJ/mol
# GULP energy per Si atom -5571.588190 kJ/mol
# Density = 2.642007 g / cm^3
# Si number density = 26.480344 Si / 1000 Ang^3
#
#
#
# Elastic Constant Matrix: (Units=GPa)
#
#
# Indices 1 2 3 4 5 6 
#
# 1 86.9763 37.8109 49.1392 0.4994 13.6356 -10.7528
# 2 37.8109 153.6026 67.3759 4.4781 18.5704 -10.1404
# 3 49.1392 67.3759 251.7964 11.5315 29.3886 -5.1670
# 4 0.4994 4.4781 11.5315 36.3441 -5.9656 7.0532
# 5 13.6356 18.5704 29.3886 -5.9656 43.6244 9.2029
# 6 -10.7528 -10.1404 -5.1670 7.0532 9.2029 55.1880
#
#
#
# Elastic Compliance Matrix: (Units=1/GPa)
#
#
# Indices 1 2 3 4 5 6 
#
# 1 0.014257 -0.002178 -0.001780 -0.000384 -0.002964 0.002754
# 2 -0.002178 0.008060 -0.001380 -0.001185 -0.002291 0.001461
# 3 -0.001780 -0.001380 0.005104 -0.001978 -0.002687 0.000579
# 4 -0.000384 -0.001185 -0.001978 0.030584 0.007322 -0.005607
# 5 -0.002964 -0.002291 -0.002687 0.007322 0.029122 -0.007042
# 6 0.002754 0.001461 0.000579 -0.005607 -0.007042 0.020870
#
#
# Mechanical properties :
#
#
# Convention : Reuss Voigt Hill
#
# Bulk Modulus (GPa) = 59.71446 89.00304 74.35875
# Shear Modulus (GPa) = 40.24053 49.56791 44.90422
#
# Velocity S-wave (km/s) = 3.90248 4.33121 4.12242
# Velocity P-wave (km/s) = 6.55021 7.66136 7.12747
#
# Compressibility (1/GPa) = 0.01674636
#
# Stress axis : x y z
#
# Youngs Moduli (GPa) = 70.14182 124.07583 195.91831
#
# Poissons Ratio (x) = 0.27018 0.34865
# Poissons Ratio (y) = 0.15273 0.27037
# Poissons Ratio (z) = 0.12482 0.17123
#
# Static dielectric constant tensor:
#      x y z
#    x 2.183170 0.107750 -0.012980 
#    y 0.107750 2.465300 0.082840 
#    z -0.012980 0.082840 2.205220 
# 
# From -- ./inp_files/136950.got.cif
#   From: 2010.05.17/outbox.cif.g08.bks.cpg/sg2_69_cif.got.tgz:136950.got - 2010.06.03 11:33:40.
