data_PCOD9011302
_publ_section_title
;
Structure prediction by ZEFSAII (Michael W. Deem and Ramdas Pophale) SiO2 
 PCOD9011302
Probable space group: P -1
;
_chemical_formula_sum "Si O2"
_cell_formula_units_Z 16
_cell_length_a 9.736221
_cell_length_b 12.347375
_cell_length_c 8.819923
_cell_angle_alpha 77.336540
_cell_angle_beta 91.944642
_cell_angle_gamma 53.061211
_cell_volume 807.984988
_symmetry_space_group_name_H-M "P -1"
_symmetry_group_IT_number 2
_symmetry_cell_setting 'triclinic'
loop_
_space_group_symop_operation_xyz
x,y,z
-x,-y,-z
loop_
_atom_site_type_symbol
_atom_site_label
_atom_site_fract_x
_atom_site_fract_y
_atom_site_fract_z
Si Si1 0.361778 0.166032 0.254766
Si Si2 0.707336 0.386293 0.569873
Si Si3 0.797382 0.131213 0.472592
Si Si4 0.454539 0.710138 0.856131
Si Si5 0.176384 0.447603 0.608947
Si Si6 0.707842 0.386346 0.904990
Si Si7 0.507117 0.856049 0.391209
Si Si8 0.961928 0.404815 0.117419
O O1 0.429560 0.237178 0.136829
O O2 0.407121 0.171615 0.429883
O O3 0.153355 0.258888 0.204452
O O4 0.456966 0.001345 0.278009
O O5 0.500000 0.500000 0.500000
O O6 0.786016 0.261596 0.492060
O O7 0.769946 0.476578 0.513551
O O8 0.765804 0.323557 0.759524
O O9 0.703655 0.173361 0.293353
O O10 0.672468 0.122293 0.585068
O O11 0.000000 0.000000 0.500000
O O12 0.569572 0.557256 0.823514
O O13 0.382746 0.675784 0.005178
O O14 0.342592 0.280564 0.658939
O O15 0.135144 0.510609 0.757424
O O16 0.000000 0.500000 0.500000
O O17 0.849260 0.373014 0.025526
O O18 0.000000 0.500000 0.000000
#
# Coordination Sequence:
#
# PCOD9011302 Si02
#       8
#     2   2   2   2   2   2   2   2
#     4  10  21  41  66  95 135 176 211 272 330 401
#     4  12  23  43  69  96 129 171 229 277 319 393
#     4  11  24  41  69 100 131 175 224 272 333 399
#     4  10  21  40  65  97 130 172 217 267 338 389
#     4  12  24  41  70 102 129 171 229 276 320 394
#     4  11  23  39  67  98 131 169 221 280 328 386
#     4  10  22  41  67  98 135 168 227 275 326 386
#     4  12  24  40  68 101 134 174 220 271 337 399
#
# _framework density 19.802347999999999
#
# number of rings (size 3 to 8) (size 9 to 14) (size 15 to 20)
#    0.000    1.000    5.000    2.250    5.250    1.000 
#    0.000    1.250    2.750    0.000    0.000    0.000 
#    0.000    0.000    0.000    0.000    0.000    0.000 
#
# Total GULP energy -89318.253077 kJ/mol
# GULP energy per Si atom -5582.390817 kJ/mol
# Density = 1.975728 g / cm^3
# Si number density = 19.802348 Si / 1000 Ang^3
#
#
#
# Elastic Constant Matrix: (Units=GPa)
#
#
# Indices 1 2 3 4 5 6 
#
# 1 122.0529 50.5167 29.7463 -10.4840 -0.6119 -13.1481
# 2 50.5167 130.2148 23.2242 -10.6288 4.3816 -19.5805
# 3 29.7463 23.2242 58.0998 3.4376 -0.4744 -9.0364
# 4 -10.4840 -10.6288 3.4376 26.8752 3.5103 -1.2472
# 5 -0.6119 4.3816 -0.4744 3.5103 38.9959 -13.7123
# 6 -13.1481 -19.5805 -9.0364 -1.2472 -13.7123 34.1830
#
#
#
# Elastic Compliance Matrix: (Units=1/GPa)
#
#
# Indices 1 2 3 4 5 6 
#
# 1 0.010992 -0.002933 -0.004382 0.003674 0.000761 0.001828
# 2 -0.002933 0.010092 -0.002072 0.003310 -0.000020 0.004218
# 3 -0.004382 -0.002072 0.021139 -0.005349 0.002083 0.003356
# 4 0.003674 0.003310 -0.005349 0.041170 -0.003365 0.002047
# 5 0.000761 -0.000020 0.002083 -0.003365 0.030544 0.012962
# 6 0.001828 0.004218 0.003356 0.002047 0.012962 0.038535
#
#
# Mechanical properties :
#
#
# Convention : Reuss Voigt Hill
#
# Bulk Modulus (GPa) = 42.64789 57.48242 50.06516
# Shear Modulus (GPa) = 27.92318 33.80284 30.86301
#
# Velocity S-wave (km/s) = 3.75920 4.13608 3.95213
# Velocity P-wave (km/s) = 6.35811 7.20421 6.79435
#
# Compressibility (1/GPa) = 0.02344782
#
# Stress axis : x y z
#
# Youngs Moduli (GPa) = 90.97926 99.08477 47.30599
#
# Poissons Ratio (x) = 0.29066 0.20728
# Poissons Ratio (y) = 0.26689 0.09804
# Poissons Ratio (z) = 0.39864 0.20534
#
# Static dielectric constant tensor:
#      x y z
#    x 1.698560 0.017480 -0.003240 
#    y 0.017480 1.643500 0.021660 
#    z -0.003240 0.021660 1.738500 
# 
# From -- ./inp_files/186734.got.cif
#   From: 2010.05.17/outbox.cif.g08.bks.cpg/sg2_94_cif.got.tgz:186734.got - 2010.06.03 11:33:40.
