data_PCOD9011571
_publ_section_title
;
Structure prediction by ZEFSAII (Michael W. Deem and Ramdas Pophale) SiO2 
 PCOD9011571
Probable space group: P -1
;
_chemical_formula_sum "Si O2"
_cell_formula_units_Z 16
_cell_length_a 10.753692
_cell_length_b 11.432169
_cell_length_c 13.344306
_cell_angle_alpha 66.348992
_cell_angle_beta 31.624983
_cell_angle_gamma 50.479395
_cell_volume 622.136064
_symmetry_space_group_name_H-M "P -1"
_symmetry_group_IT_number 2
_symmetry_cell_setting 'triclinic'
loop_
_space_group_symop_operation_xyz
x,y,z
-x,-y,-z
loop_
_atom_site_type_symbol
_atom_site_label
_atom_site_fract_x
_atom_site_fract_y
_atom_site_fract_z
Si Si1 0.118502 0.210147 0.735366
Si Si2 0.002616 0.958607 0.863080
Si Si3 0.712925 0.549833 0.341115
Si Si4 0.325873 0.907027 0.474214
Si Si5 0.479748 0.493521 0.896049
Si Si6 0.646469 0.653565 0.582105
Si Si7 0.357866 0.257277 0.999356
Si Si8 0.394911 0.041589 0.211645
O O1 0.446840 0.101245 0.599082
O O2 0.166022 0.276029 0.577332
O O3 0.878390 0.358812 0.921307
O O4 0.990248 0.112452 0.840326
O O5 0.071060 0.924992 0.709036
O O6 0.294656 0.807774 0.768908
O O7 0.697080 0.986709 0.081077
O O8 0.500000 0.500000 0.500000
O O9 0.537984 0.724707 0.348712
O O10 0.725118 0.575990 0.443487
O O11 0.035307 0.406131 0.127103
O O12 0.199411 0.043367 0.431937
O O13 0.527322 0.332646 0.883930
O O14 0.500000 0.500000 0.000000
O O15 0.666696 0.538767 0.691826
O O16 0.291315 0.198269 0.167135
O O17 0.521445 0.101553 0.870532
#
# Coordination Sequence:
#
# PCOD9011571 Si02
#       8
#     2   2   2   2   2   2   2   2
#     4  10  21  41  62  97 130 162 222 277 307 387
#     4  10  21  40  66  97 127 165 222 265 323 387
#     4  10  21  42  69  96 127 168 216 266 320 384
#     4  10  21  40  66  96 123 169 219 262 325 379
#     4  12  25  41  63  94 132 178 215 259 331 389
#     4  10  22  40  64  96 128 167 219 269 319 373
#     4  11  24  46  60  95 141 162 221 272 313 398
#     4  11  25  42  64  93 132 175 208 271 330 379
#
# _framework density 25.717846000000002
#
# number of rings (size 3 to 8) (size 9 to 14) (size 15 to 20)
#    0.000    1.750    2.500    4.500    1.750    6.000 
#    4.500    1.875    0.000    0.000    0.000    0.000 
#    0.000    0.000    0.000    0.000    0.000    0.000 
#
# Total GULP energy -89529.837125 kJ/mol
# GULP energy per Si atom -5595.614820 kJ/mol
# Density = 2.565931 g / cm^3
# Si number density = 25.717846 Si / 1000 Ang^3
#
#
#
# Elastic Constant Matrix: (Units=GPa)
#
#
# Indices 1 2 3 4 5 6 
#
# 1 47.5455 35.1558 15.5630 -22.0058 -7.6590 11.6793
# 2 35.1558 146.9288 37.7746 -28.7957 8.7652 13.4908
# 3 15.5630 37.7746 97.6622 -31.5936 12.1836 -5.4108
# 4 -22.0058 -28.7957 -31.5936 54.6739 -14.8522 6.5089
# 5 -7.6590 8.7652 12.1836 -14.8522 33.3794 -19.0506
# 6 11.6793 13.4908 -5.4108 6.5089 -19.0506 39.9463
#
#
#
# Elastic Compliance Matrix: (Units=1/GPa)
#
#
# Indices 1 2 3 4 5 6 
#
# 1 0.036221 -0.005966 -0.000460 0.015637 0.014591 -0.004227
# 2 -0.005966 0.009622 -0.002193 0.000452 -0.005447 -0.004474
# 3 -0.000460 -0.002193 0.013267 0.005894 -0.001061 0.001206
# 4 0.015637 0.000452 0.005894 0.032421 0.014410 -0.002337
# 5 0.014591 -0.005447 -0.001061 0.014410 0.053213 0.020459
# 6 -0.004227 -0.004474 0.001206 -0.002337 0.020459 0.038082
#
#
# Mechanical properties :
#
#
# Convention : Reuss Voigt Hill
#
# Bulk Modulus (GPa) = 23.88280 52.12482 38.00381
# Shear Modulus (GPa) = 23.36235 39.17612 31.26924
#
# Velocity S-wave (km/s) = 3.01725 3.90719 3.49070
# Velocity P-wave (km/s) = 4.63088 6.37705 5.57278
#
# Compressibility (1/GPa) = 0.04187114
#
# Stress axis : x y z
#
# Youngs Moduli (GPa) = 27.60852 103.93332 75.37552
#
# Poissons Ratio (x) = 0.62005 0.03469
# Poissons Ratio (y) = 0.16471 0.16529
# Poissons Ratio (z) = 0.01271 0.22792
#
# Static dielectric constant tensor:
#      x y z
#    x 2.073480 -0.027970 0.004900 
#    y -0.027970 2.069480 0.024000 
#    z 0.004900 0.024000 2.020740 
# 
# From -- ./inp_files/347229.got.cif
#   From: 2010.05.17/outbox.cif.g08.bks.cpg/sg2_174_cif.got.tgz:347229.got - 2010.06.03 11:33:40.
