data_PCOD9011460
_publ_section_title
;
Structure prediction by ZEFSAII (Michael W. Deem and Ramdas Pophale) SiO2 
 PCOD9011460
Probable space group: P -1
;
_chemical_formula_sum "Si O2"
_cell_formula_units_Z 14
_cell_length_a 18.875019
_cell_length_b 5.624096
_cell_length_c 4.823082
_cell_angle_alpha 86.037859
_cell_angle_beta 94.630514
_cell_angle_gamma 97.233799
_cell_volume 505.360939
_symmetry_space_group_name_H-M "P -1"
_symmetry_group_IT_number 2
_symmetry_cell_setting 'triclinic'
loop_
_space_group_symop_operation_xyz
x,y,z
-x,-y,-z
loop_
_atom_site_type_symbol
_atom_site_label
_atom_site_fract_x
_atom_site_fract_y
_atom_site_fract_z
Si Si1 0.594516 0.136041 0.067388
Si Si2 0.159197 0.267221 0.869866
Si Si3 0.305215 0.850700 0.395717
Si Si4 0.946973 0.163135 0.117765
Si Si5 0.441827 0.393391 0.711289
Si Si6 0.277497 0.333340 0.482847
Si Si7 0.083874 0.440558 0.346808
O O1 0.666507 0.157991 0.279634
O O2 0.563678 0.389031 0.089025
O O3 0.551629 0.879923 0.165959
O O4 0.623125 0.113093 0.769570
O O5 0.238517 0.304555 0.769656
O O6 0.120038 0.010088 0.777478
O O7 0.135278 0.298678 0.175241
O O8 0.263160 0.080499 0.337975
O O9 0.264156 0.590791 0.333126
O O10 0.003416 0.302633 0.336352
O O11 0.921584 0.325219 0.853039
O O12 0.000000 0.000000 0.000000
O O13 0.500000 0.500000 0.500000
O O14 0.363240 0.363550 0.547664
O O15 0.119198 0.454024 0.657086
#
# Coordination Sequence:
#
# PCOD9011460 Si02
#       7
#     2   2   2   2   2   2   2
#     4  10  21  40  66  92 125 167 218 274 331 394
#     4  11  24  40  64  95 132 174 221 274 339 398
#     4  10  22  42  64  91 130 170 217 268 335 393
#     4   9  21  42  66  96 130 170 218 274 329 403
#     4  10  21  42  68  98 132 176 226 278 336 399
#     4  10  24  43  64  98 134 178 222 282 335 404
#     4  10  23  41  66  95 130 171 221 270 336 400
#
# _framework density 27.702976
#
# number of rings (size 3 to 8) (size 9 to 14) (size 15 to 20)
#    0.000    2.000    0.000    1.714    2.000   12.000 
#    2.571   17.143    0.000    0.000    0.000    0.000 
#    0.000    0.000    0.000    0.000    0.000    0.000 
#
# Total GULP energy -78452.834957 kJ/mol
# GULP energy per Si atom -5603.773925 kJ/mol
# Density = 2.763992 g / cm^3
# Si number density = 27.702976 Si / 1000 Ang^3
#
#
#
# Elastic Constant Matrix: (Units=GPa)
#
#
# Indices 1 2 3 4 5 6 
#
# 1 119.1539 46.4194 17.6824 -17.7805 -25.1374 14.1593
# 2 46.4194 228.2556 30.3862 -19.0911 -14.9393 -18.6912
# 3 17.6824 30.3862 107.8949 -9.0424 -19.3647 -0.1879
# 4 -17.7805 -19.0911 -9.0424 47.1987 3.1155 -4.5182
# 5 -25.1374 -14.9393 -19.3647 3.1155 50.7948 -11.1833
# 6 14.1593 -18.6912 -0.1879 -4.5182 -11.1833 55.9097
#
#
#
# Elastic Compliance Matrix: (Units=1/GPa)
#
#
# Indices 1 2 3 4 5 6 
#
# 1 0.010666 -0.001830 -0.000298 0.002739 0.003952 -0.002302
# 2 -0.001830 0.005248 -0.000919 0.001446 0.000745 0.002481
# 3 -0.000298 -0.000919 0.010329 0.001319 0.003577 0.000625
# 4 0.002739 0.001446 0.001319 0.023156 0.001287 0.001923
# 5 0.003952 0.000745 0.003577 0.001287 0.024066 0.004178
# 6 -0.002302 0.002481 0.000625 0.001923 0.004178 0.020292
#
#
# Mechanical properties :
#
#
# Convention : Reuss Voigt Hill
#
# Bulk Modulus (GPa) = 49.62812 71.58673 60.60742
# Shear Modulus (GPa) = 46.91862 54.83506 50.87684
#
# Velocity S-wave (km/s) = 4.11984 4.45386 4.29010
# Velocity P-wave (km/s) = 6.37056 7.23506 6.81653
#
# Compressibility (1/GPa) = 0.02014987
#
# Stress axis : x y z
#
# Youngs Moduli (GPa) = 93.75866 190.53358 96.81026
#
# Poissons Ratio (x) = 0.34871 0.02882
# Poissons Ratio (y) = 0.17159 0.08896
# Poissons Ratio (z) = 0.02791 0.17509
#
# Static dielectric constant tensor:
#      x y z
#    x 2.200850 -0.025800 0.099300 
#    y -0.025800 2.272290 0.082270 
#    z 0.099300 0.082270 2.112640 
# 
# From -- ./inp_files/102808.got.cif
#   From: 2010.05.17/outbox.cif.g08.bks.cpg/sg2_52_cif.got.tgz:102808.got - 2010.06.03 11:33:40.
