data_PCOD9011033
_publ_section_title
;
Structure prediction by ZEFSAII (Michael W. Deem and Ramdas Pophale) SiO2 
 PCOD9011033
Probable space group: P -1
;
_chemical_formula_sum "Si O2"
_cell_formula_units_Z 16
_cell_length_a 7.881724
_cell_length_b 17.513895
_cell_length_c 8.006006
_cell_angle_alpha 89.538706
_cell_angle_beta 117.917486
_cell_angle_gamma 56.150163
_cell_volume 754.626389
_symmetry_space_group_name_H-M "P -1"
_symmetry_group_IT_number 2
_symmetry_cell_setting 'triclinic'
loop_
_space_group_symop_operation_xyz
x,y,z
-x,-y,-z
loop_
_atom_site_type_symbol
_atom_site_label
_atom_site_fract_x
_atom_site_fract_y
_atom_site_fract_z
Si Si1 0.165352 0.455119 0.409429
Si Si2 0.886587 0.785596 0.885402
Si Si3 0.690684 0.989336 0.956568
Si Si4 0.564867 0.725960 0.683035
Si Si5 0.312581 0.440034 0.018239
Si Si6 0.591952 0.416988 0.806723
Si Si7 0.982948 0.078118 0.602835
Si Si8 0.672842 0.901351 0.464761
O O1 0.284395 0.344612 0.406411
O O2 0.401057 0.449130 0.565828
O O3 0.000000 0.500000 0.500000
O O4 0.961957 0.518681 0.167383
O O5 0.701364 0.762227 0.834922
O O6 0.842065 0.807920 0.665083
O O7 0.808229 0.886035 0.923272
O O8 0.154533 0.695041 0.078605
O O9 0.899789 0.974002 0.165086
O O10 0.500000 0.000000 0.000000
O O11 0.535392 0.080641 0.755641
O O12 0.560213 0.657228 0.811838
O O13 0.292978 0.821425 0.506552
O O14 0.329853 0.515105 0.126952
O O15 0.454803 0.422844 0.911924
O O16 0.146345 0.098091 0.574719
O O17 0.000000 0.000000 0.500000
O O18 0.500000 0.000000 0.500000
#
# Coordination Sequence:
#
# PCOD9011033 Si02
#       8
#     2   2   2   2   2   2   2   2
#     4  10  22  41  61  93 126 166 218 261 313 377
#     4  11  21  38  62  90 123 167 209 256 323 376
#     4   9  19  38  59  87 119 158 207 251 311 375
#     4  12  23  39  63  93 127 165 213 264 314 376
#     4  10  22  42  62  91 127 164 211 265 317 373
#     4  10  21  40  65  86 128 166 203 266 323 370
#     4  11  22  40  64  93 126 160 208 268 319 376
#     4   9  19  38  61  86 122 165 204 256 319 376
#
# _framework density 21.202545000000001
#
# number of rings (size 3 to 8) (size 9 to 14) (size 15 to 20)
#    0.000    1.750    1.250    4.125    0.000    0.500 
#    2.250   13.125    0.000    0.000    0.000    0.000 
#    0.000    0.000    0.000    0.000    0.000    0.000 
#
# Total GULP energy -89218.575133 kJ/mol
# GULP energy per Si atom -5576.160946 kJ/mol
# Density = 2.115429 g / cm^3
# Si number density = 21.202545 Si / 1000 Ang^3
#
#
#
# Elastic Constant Matrix: (Units=GPa)
#
#
# Indices 1 2 3 4 5 6 
#
# 1 53.4758 1.6510 24.0913 -3.0604 9.6064 -1.1440
# 2 1.6510 49.9893 32.5655 11.6309 5.9946 -2.4934
# 3 24.0913 32.5655 173.7921 5.4659 20.1353 2.5934
# 4 -3.0604 11.6309 5.4659 32.8876 -3.9353 4.6633
# 5 9.6064 5.9946 20.1353 -3.9353 34.0335 -5.4514
# 6 -1.1440 -2.4934 2.5934 4.6633 -5.4514 34.8663
#
#
#
# Elastic Compliance Matrix: (Units=1/GPa)
#
#
# Indices 1 2 3 4 5 6 
#
# 1 0.020713 0.001239 -0.002649 0.001398 -0.004320 0.000103
# 2 0.001239 0.025351 -0.004363 -0.008874 -0.002791 0.002929
# 3 -0.002649 -0.004363 0.007315 -0.000084 -0.003047 -0.001408
# 4 0.001398 -0.008874 -0.000084 0.034874 0.004524 -0.004540
# 5 -0.004320 -0.002791 -0.003047 0.004524 0.034160 0.004621
# 6 0.000103 0.002929 -0.001408 -0.004540 0.004621 0.030328
#
#
# Mechanical properties :
#
#
# Convention : Reuss Voigt Hill
#
# Bulk Modulus (GPa) = 23.90368 43.76363 33.83366
# Shear Modulus (GPa) = 28.05323 34.95411 31.50367
#
# Velocity S-wave (km/s) = 3.64140 4.06468 3.85885
# Velocity P-wave (km/s) = 5.38314 6.53562 5.98717
#
# Compressibility (1/GPa) = 0.04183455
#
# Stress axis : x y z
#
# Youngs Moduli (GPa) = 48.27844 39.44550 136.69644
#
# Poissons Ratio (x) = -0.04888 0.36204
# Poissons Ratio (y) = -0.05983 0.59647
# Poissons Ratio (z) = 0.12787 0.17212
#
# Static dielectric constant tensor:
#      x y z
#    x 1.773180 -0.011740 0.018650 
#    y -0.011740 1.729970 0.016300 
#    z 0.018650 0.016300 1.811270 
# 
# From -- ./inp_files/217719.got.cif
#   From: 2010.05.17/outbox.cif.g08.bks.cpg/sg2_109_cif.got.tgz:217719.got - 2010.06.03 11:33:40.
