data_PCOD9011709
_publ_section_title
;
Structure prediction by ZEFSAII (Michael W. Deem and Ramdas Pophale) SiO2 
 PCOD9011709
Probable space group: P -1
;
_chemical_formula_sum "Si O2"
_cell_formula_units_Z 14
_cell_length_a 11.229805
_cell_length_b 13.409346
_cell_length_c 18.323761
_cell_angle_alpha 31.795925
_cell_angle_beta 155.358335
_cell_angle_gamma 133.734829
_cell_volume 563.233823
_symmetry_space_group_name_H-M "P -1"
_symmetry_group_IT_number 2
_symmetry_cell_setting 'triclinic'
loop_
_space_group_symop_operation_xyz
x,y,z
-x,-y,-z
loop_
_atom_site_type_symbol
_atom_site_label
_atom_site_fract_x
_atom_site_fract_y
_atom_site_fract_z
Si Si1 0.191767 0.992996 0.794311
Si Si2 0.345947 0.116302 0.999740
Si Si3 0.223011 0.796465 0.209461
Si Si4 0.761627 0.309859 0.454723
Si Si5 0.152139 0.297224 0.164066
Si Si6 0.569793 0.368075 0.046963
Si Si7 0.878852 0.543480 0.722445
O O1 0.032000 0.841846 0.827408
O O2 0.329183 0.936410 0.826743
O O3 0.929525 0.201649 0.541472
O O4 0.500000 0.000000 0.000000
O O5 0.411976 0.201716 0.060826
O O6 0.042134 0.270559 0.692528
O O7 0.288438 0.905420 0.105368
O O8 0.567200 0.683502 0.502042
O O9 0.153677 0.593374 0.278635
O O10 0.000000 0.000000 0.000000
O O11 0.523701 0.223972 0.415201
O O12 0.558992 0.523225 0.171643
O O13 0.000000 0.500000 0.000000
O O14 0.071454 0.363539 0.994944
O O15 0.500000 0.500000 0.000000
O O16 0.932113 0.314551 0.276867
#
# Coordination Sequence:
#
# PCOD9011709 Si02
#       7
#     2   2   2   2   2   2   2
#     4  10  21  40  67 102 136 172 226 290 340 402
#     4  11  24  45  70 105 132 181 233 284 350 408
#     4  11  25  46  71 100 138 188 230 279 350 422
#     4  10  23  42  70 101 133 184 230 279 343 417
#     4  11  23  43  67 101 136 179 230 281 344 411
#     4  11  24  44  66 102 140 178 226 291 351 408
#     4  10  24  46  67  99 142 181 230 281 344 419
#
# _framework density 24.856460999999999
#
# number of rings (size 3 to 8) (size 9 to 14) (size 15 to 20)
#    0.000    1.429    0.000    5.143    4.000    2.857 
#   10.286    0.000    0.000    0.000    0.000    0.000 
#    0.000    0.000    0.000    0.000    0.000    0.000 
#
# Total GULP energy -77946.027859 kJ/mol
# GULP energy per Si atom -5567.573418 kJ/mol
# Density = 2.479989 g / cm^3
# Si number density = 24.856461 Si / 1000 Ang^3
#
#
#
# Elastic Constant Matrix: (Units=GPa)
#
#
# Indices 1 2 3 4 5 6 
#
# 1 63.9809 23.9487 28.7567 19.4510 25.6954 3.6033
# 2 23.9487 138.5273 60.8463 23.8403 8.6464 1.3446
# 3 28.7567 60.8463 115.4860 19.0181 30.1129 2.7755
# 4 19.4510 23.8403 19.0181 37.1032 2.5096 9.4240
# 5 25.6954 8.6464 30.1129 2.5096 49.0696 -0.0643
# 6 3.6033 1.3446 2.7755 9.4240 -0.0643 41.1060
#
#
#
# Elastic Compliance Matrix: (Units=1/GPa)
#
#
# Indices 1 2 3 4 5 6 
#
# 1 0.024350 -0.001380 -0.000511 -0.010940 -0.011634 0.000435
# 2 -0.001380 0.010125 -0.004988 -0.003617 0.002186 0.000959
# 3 -0.000511 -0.004988 0.013794 -0.003107 -0.007159 -0.000022
# 4 -0.010940 -0.003617 -0.003107 0.038063 0.006316 -0.007429
# 5 -0.011634 0.002186 -0.007159 0.006316 0.030156 0.000031
# 6 0.000435 0.000959 -0.000022 -0.007429 0.000031 0.025963
#
#
# Mechanical properties :
#
#
# Convention : Reuss Voigt Hill
#
# Bulk Modulus (GPa) = 28.97877 60.56640 44.77258
# Shear Modulus (GPa) = 29.81268 39.08527 34.44897
#
# Velocity S-wave (km/s) = 3.46698 3.96970 3.72683
# Velocity P-wave (km/s) = 5.26407 6.74023 6.04736
#
# Compressibility (1/GPa) = 0.03450802
#
# Stress axis : x y z
#
# Youngs Moduli (GPa) = 41.06826 98.76320 72.49732
#
# Poissons Ratio (x) = 0.13633 0.03708
# Poissons Ratio (y) = 0.05669 0.36165
# Poissons Ratio (z) = 0.02100 0.49268
#
# Static dielectric constant tensor:
#      x y z
#    x 2.093420 0.029770 -0.091970 
#    y 0.029770 2.102670 0.151270 
#    z -0.091970 0.151270 0.474350 
# 
# From -- ./inp_files/226602.got.cif
#   From: 2010.05.17/outbox.cif.g08.bks.cpg/sg2_114_cif.got.tgz:226602.got - 2010.06.03 11:33:40.
