data_PCOD9011642
_publ_section_title
;
Structure prediction by ZEFSAII (Michael W. Deem and Ramdas Pophale) SiO2 
 PCOD9011642
Probable space group: P -1
;
_chemical_formula_sum "Si O2"
_cell_formula_units_Z 15
_cell_length_a 6.426871
_cell_length_b 16.155772
_cell_length_c 10.967712
_cell_angle_alpha 148.019466
_cell_angle_beta 70.542071
_cell_angle_gamma 107.386977
_cell_volume 568.388976
_symmetry_space_group_name_H-M "P -1"
_symmetry_group_IT_number 2
_symmetry_cell_setting 'triclinic'
loop_
_space_group_symop_operation_xyz
x,y,z
-x,-y,-z
loop_
_atom_site_type_symbol
_atom_site_label
_atom_site_fract_x
_atom_site_fract_y
_atom_site_fract_z
Si Si1 0.123021 0.615679 0.029506
Si Si2 0.661256 0.223686 0.172283
Si Si3 0.526512 0.437001 0.667432
Si Si4 0.831373 0.867263 0.410515
Si Si5 0.266714 0.266251 0.125953
Si Si6 0.358575 0.770302 0.399997
Si Si7 0.000000 0.500000 0.500000
Si Si8 0.013285 0.029727 0.236823
O O1 0.267446 0.727563 0.231065
O O2 0.927381 0.714590 0.137627
O O3 0.299099 0.522710 0.805008
O O4 0.000000 0.500000 0.000000
O O5 0.534571 0.287191 0.393203
O O6 0.491493 0.214607 0.080489
O O7 0.835245 0.368190 0.294394
O O8 0.785248 0.063513 0.976724
O O9 0.712850 0.565676 0.743001
O O10 0.565532 0.379142 0.724428
O O11 0.572785 0.878181 0.463601
O O12 0.000000 0.000000 0.500000
O O13 0.872002 0.874475 0.556367
O O14 0.108068 0.342959 0.353099
O O15 0.153666 0.122164 0.896566
O O16 0.170237 0.849454 0.616691
#
# Coordination Sequence:
#
# PCOD9011642 Si02
#       8
#     2   2   2   2   2   2   1   2
#     4  11  25  45  66 101 133 171 223 275 336 399
#     4  10  21  42  63 100 134 173 221 274 329 395
#     4  11  23  41  70  96 132 177 216 275 339 389
#     4  11  26  44  70  97 131 177 224 276 333 393
#     4  10  21  40  66  98 133 169 221 275 326 393
#     4  11  25  46  65  97 139 171 224 276 330 402
#     4   8  16  34  56  92 128 160 210 264 314 386
#     4  10  24  43  67  95 136 171 225 274 329 398
#
# _framework density 26.390378999999999
#
# number of rings (size 3 to 8) (size 9 to 14) (size 15 to 20)
#    0.000    1.600    1.333    2.800    5.600    1.600 
#   12.000    2.667    0.000    0.000    0.000    0.000 
#    0.000    0.000    0.000    0.000    0.000    0.000 
#
# Total GULP energy -83503.599003 kJ/mol
# GULP energy per Si atom -5566.906600 kJ/mol
# Density = 2.633031 g / cm^3
# Si number density = 26.390379 Si / 1000 Ang^3
#
#
#
# Elastic Constant Matrix: (Units=GPa)
#
#
# Indices 1 2 3 4 5 6 
#
# 1 136.2905 4.6006 59.8768 -9.3352 -2.7962 4.8535
# 2 4.6006 49.9746 -0.2934 -2.8719 -4.2574 6.9988
# 3 59.8768 -0.2934 118.1264 -11.1527 -40.6684 4.1980
# 4 -9.3352 -2.8719 -11.1527 24.6251 5.0334 6.5159
# 5 -2.7962 -4.2574 -40.6684 5.0334 61.0648 5.7119
# 6 4.8535 6.9988 4.1980 6.5159 5.7119 22.7739
#
#
#
# Elastic Compliance Matrix: (Units=1/GPa)
#
#
# Indices 1 2 3 4 5 6 
#
# 1 0.010229 -0.001210 -0.006407 0.001682 -0.004012 -0.000102
# 2 -0.001210 0.022082 0.002799 0.005109 0.003812 -0.009462
# 3 -0.006407 0.002799 0.016143 0.004718 0.010876 -0.006548
# 4 0.001682 0.005109 0.004718 0.048206 0.001182 -0.016887
# 5 -0.004012 0.003812 0.010876 0.001182 0.024426 -0.008786
# 6 -0.000102 -0.009462 -0.006548 -0.016887 -0.008786 0.055082
#
#
# Mechanical properties :
#
#
# Convention : Reuss Voigt Hill
#
# Bulk Modulus (GPa) = 25.76116 48.08439 36.92278
# Shear Modulus (GPa) = 25.15817 37.70660 31.43238
#
# Velocity S-wave (km/s) = 3.09092 3.78405 3.45491
# Velocity P-wave (km/s) = 4.74564 6.11163 5.47143
#
# Compressibility (1/GPa) = 0.03881813
#
# Stress axis : x y z
#
# Youngs Moduli (GPa) = 97.75673 45.28678 61.94744
#
# Poissons Ratio (x) = 0.05480 0.39690
# Poissons Ratio (y) = 0.11830 -0.17341
# Poissons Ratio (z) = 0.62633 -0.12677
#
# Static dielectric constant tensor:
#      x y z
#    x 2.048010 -0.107460 0.086310 
#    y -0.107460 1.997530 0.104190 
#    z 0.086310 0.104190 1.947440 
# 
# From -- ./inp_files/369595.got.cif
#   From: 2010.05.17/outbox.cif.g08.bks.cpg/sg2_185_cif.got.tgz:369595.got - 2010.06.03 11:33:40.
