data_PCOD9011936
_publ_section_title
;
Structure prediction by ZEFSAII (Michael W. Deem and Ramdas Pophale) SiO2 
 PCOD9011936
Probable space group: P -1
;
_chemical_formula_sum "Si O2"
_cell_formula_units_Z 16
_cell_length_a 8.786630
_cell_length_b 9.057717
_cell_length_c 17.786246
_cell_angle_alpha 127.754589
_cell_angle_beta 58.055365
_cell_angle_gamma 133.886460
_cell_volume 792.899293
_symmetry_space_group_name_H-M "P -1"
_symmetry_group_IT_number 2
_symmetry_cell_setting 'triclinic'
loop_
_space_group_symop_operation_xyz
x,y,z
-x,-y,-z
loop_
_atom_site_type_symbol
_atom_site_label
_atom_site_fract_x
_atom_site_fract_y
_atom_site_fract_z
Si Si1 0.083197 0.467929 0.865909
Si Si2 0.756765 0.102354 0.959130
Si Si3 0.423351 0.346495 0.192134
Si Si4 0.292899 0.501069 0.534879
Si Si5 0.939469 0.245960 0.673256
Si Si6 0.772505 0.155491 0.414094
Si Si7 0.331369 0.719837 0.367821
Si Si8 0.178892 0.178764 0.337421
O O1 0.318310 0.514568 0.841428
O O2 0.020784 0.398638 0.774281
O O3 0.892931 0.263549 0.902224
O O4 0.122537 0.709956 0.949218
O O5 0.728782 0.861573 0.888722
O O6 0.500000 0.000000 0.000000
O O7 0.339343 0.507316 0.277451
O O8 0.366003 0.215287 0.245953
O O9 0.500000 0.500000 0.500000
O O10 0.125458 0.351720 0.596052
O O11 0.282349 0.717271 0.592997
O O12 0.252845 0.402285 0.431460
O O13 0.741781 0.219047 0.670132
O O14 0.883673 0.009476 0.643878
O O15 0.807590 0.273789 0.524049
O O16 0.967498 0.130325 0.335236
O O17 0.566937 0.905739 0.393164
#
# Coordination Sequence:
#
# PCOD9011936 Si02
#       8
#     2   2   2   2   2   2   2   2
#     4  10  21  40  68 100 122 158 213 265 319 387
#     4   9  20  41  71  95 123 158 209 263 324 389
#     4  11  21  40  67  95 123 170 212 258 317 381
#     4  12  24  37  57  88 128 173 216 263 315 364
#     4  12  24  39  59  95 128 166 214 269 314 368
#     4  11  24  41  57  85 130 183 222 253 303 372
#     4  11  24  39  60  87 130 173 217 260 308 371
#     4  12  22  38  62  88 129 175 216 259 306 374
#
# _framework density 20.179107999999999
#
# number of rings (size 3 to 8) (size 9 to 14) (size 15 to 20)
#    0.000    1.000    3.750    3.750    3.500    0.000 
#    0.000    0.625    0.000    6.750    0.000    0.000 
#    0.000    0.000    0.000    0.000    0.000    0.000 
#
# Total GULP energy -89071.443844 kJ/mol
# GULP energy per Si atom -5566.965240 kJ/mol
# Density = 2.013318 g / cm^3
# Si number density = 20.179108 Si / 1000 Ang^3
#
#
#
# Elastic Constant Matrix: (Units=GPa)
#
#
# Indices 1 2 3 4 5 6 
#
# 1 79.7759 21.1659 16.7271 2.6390 -4.7557 2.5405
# 2 21.1659 80.6028 16.4866 5.1419 -17.9888 6.0169
# 3 16.7271 16.4866 68.0024 17.3617 -2.0418 6.1184
# 4 2.6390 5.1419 17.3617 45.2970 3.9428 -7.2262
# 5 -4.7557 -17.9888 -2.0418 3.9428 25.0957 2.9789
# 6 2.5405 6.0169 6.1184 -7.2262 2.9789 36.0601
#
#
#
# Elastic Compliance Matrix: (Units=1/GPa)
#
#
# Indices 1 2 3 4 5 6 
#
# 1 0.013937 -0.003117 -0.002851 0.000654 0.000054 0.000148
# 2 -0.003117 0.016781 -0.001919 -0.002649 0.012148 -0.003789
# 3 -0.002851 -0.001919 0.018153 -0.007337 0.001204 -0.004129
# 4 0.000654 -0.002649 -0.007337 0.027032 -0.007531 0.007680
# 5 0.000054 0.012148 0.001204 -0.007531 0.050789 -0.007940
# 6 0.000148 -0.003789 -0.004129 0.007680 -0.007940 0.031249
#
#
# Mechanical properties :
#
#
# Convention : Reuss Voigt Hill
#
# Bulk Modulus (GPa) = 30.21613 37.46001 33.83807
# Shear Modulus (GPa) = 27.06401 32.89065 29.97733
#
# Velocity S-wave (km/s) = 3.66620 4.04163 3.85848
# Velocity P-wave (km/s) = 5.73828 6.35482 6.05440
#
# Compressibility (1/GPa) = 0.03309491
#
# Stress axis : x y z
#
# Youngs Moduli (GPa) = 71.75222 59.59237 55.08781
#
# Poissons Ratio (x) = 0.18577 0.15706
# Poissons Ratio (y) = 0.22367 0.10574
# Poissons Ratio (z) = 0.20457 0.11439
#
# Static dielectric constant tensor:
#      x y z
#    x 1.870820 0.010160 -0.059670 
#    y 0.010160 1.770990 0.018230 
#    z -0.059670 0.018230 1.800600 
# 
# From -- ./inp_files/216966.got.cif
#   From: 2010.05.17/outbox.cif.g08.bks.cpg/sg2_109_cif.got.tgz:216966.got - 2010.06.03 11:33:40.
