data_PCOD9011324
_publ_section_title
;
Structure prediction by ZEFSAII (Michael W. Deem and Ramdas Pophale) SiO2 
 PCOD9011324
Probable space group: P -1
;
_chemical_formula_sum "Si O2"
_cell_formula_units_Z 16
_cell_length_a 6.643652
_cell_length_b 12.632332
_cell_length_c 19.232774
_cell_angle_alpha 141.594255
_cell_angle_beta 135.702905
_cell_angle_gamma 49.673585
_cell_volume 686.296973
_symmetry_space_group_name_H-M "P -1"
_symmetry_group_IT_number 2
_symmetry_cell_setting 'triclinic'
loop_
_space_group_symop_operation_xyz
x,y,z
-x,-y,-z
loop_
_atom_site_type_symbol
_atom_site_label
_atom_site_fract_x
_atom_site_fract_y
_atom_site_fract_z
Si Si1 0.261169 0.389775 0.361501
Si Si2 0.639641 0.356822 0.186260
Si Si3 0.500546 0.216879 0.788168
Si Si4 0.168991 0.661071 0.185156
Si Si5 0.710373 0.821557 0.603355
Si Si6 0.126514 0.826417 0.395559
Si Si7 0.524192 0.809185 0.071876
Si Si8 0.359777 0.819233 0.760349
O O1 0.500000 0.500000 0.500000
O O2 0.294545 0.237632 0.348719
O O3 0.372657 0.313118 0.275696
O O4 0.910850 0.458540 0.311884
O O5 0.333244 0.493702 0.181375
O O6 0.645052 0.218116 0.178107
O O7 0.668102 0.255319 0.068097
O O8 0.648099 0.337774 0.839165
O O9 0.592117 0.192486 0.878932
O O10 0.148506 0.270124 0.719813
O O11 0.609366 0.027659 0.684219
O O12 0.169409 0.827268 0.322891
O O13 0.836667 0.678381 0.088885
O O14 0.449367 0.748271 0.464204
O O15 0.044149 0.777947 0.635908
O O16 0.000000 0.000000 0.500000
O O17 0.602555 0.991250 0.158532
#
# Coordination Sequence:
#
# PCOD9011324 Si02
#       8
#     2   2   2   2   2   2   2   2
#     4  11  27  43  67  98 138 179 225 279 342 409
#     4  11  28  44  68 104 135 184 223 281 347 401
#     4  10  21  40  66 100 133 175 227 281 335 397
#     4  11  24  42  69 102 139 176 224 285 344 401
#     4  10  21  40  65  98 129 178 226 275 341 394
#     4   9  22  37  64  99 134 173 223 279 332 403
#     4  11  23  47  72  98 135 176 238 281 332 404
#     4  11  24  45  71  97 134 181 230 285 332 401
#
# _framework density 23.313524000000001
#
# number of rings (size 3 to 8) (size 9 to 14) (size 15 to 20)
#    0.000    1.500    2.500    0.750    5.250    6.000 
#    0.000    0.000    0.000    0.000    0.000    0.000 
#    0.000    0.000    0.000    0.000    0.000    0.000 
#
# Total GULP energy -89266.431760 kJ/mol
# GULP energy per Si atom -5579.151985 kJ/mol
# Density = 2.326046 g / cm^3
# Si number density = 23.313524 Si / 1000 Ang^3
#
#
#
# Elastic Constant Matrix: (Units=GPa)
#
#
# Indices 1 2 3 4 5 6 
#
# 1 116.3698 26.3773 35.7058 -7.4532 -10.7765 14.0010
# 2 26.3773 73.6363 17.4420 -7.5616 5.5967 8.2418
# 3 35.7058 17.4420 95.7695 -14.6519 -12.6616 14.5043
# 4 -7.4532 -7.5616 -14.6519 29.5141 2.1340 -0.9176
# 5 -10.7765 5.5967 -12.6616 2.1340 20.2744 -7.9497
# 6 14.0010 8.2418 14.5043 -0.9176 -7.9497 34.7226
#
#
#
# Elastic Compliance Matrix: (Units=1/GPa)
#
#
# Indices 1 2 3 4 5 6 
#
# 1 0.010747 -0.003405 -0.002546 0.000209 0.004480 -0.001431
# 2 -0.003405 0.016735 -0.001989 0.003007 -0.009504 -0.003864
# 3 -0.002546 -0.001989 0.013769 0.005151 0.006195 -0.002699
# 4 0.000209 0.003007 0.005151 0.037359 -0.002421 -0.002517
# 5 0.004480 -0.009504 0.006195 -0.002421 0.063267 0.012283
# 6 -0.001431 -0.003864 -0.002699 -0.002517 0.012283 0.034167
#
#
# Mechanical properties :
#
#
# Convention : Reuss Voigt Hill
#
# Bulk Modulus (GPa) = 39.41704 49.42507 44.42105
# Shear Modulus (GPa) = 24.95244 30.65226 27.80235
#
# Velocity S-wave (km/s) = 3.27509 3.62993 3.45707
# Velocity P-wave (km/s) = 5.58979 6.23015 5.91863
#
# Compressibility (1/GPa) = 0.02536974
#
# Stress axis : x y z
#
# Youngs Moduli (GPa) = 93.05268 59.75496 72.62760
#
# Poissons Ratio (x) = 0.20349 0.18488
# Poissons Ratio (y) = 0.31689 0.14448
# Poissons Ratio (z) = 0.23687 0.11888
#
# Static dielectric constant tensor:
#      x y z
#    x 1.901830 -0.030640 -0.011410 
#    y -0.030640 1.874070 0.032330 
#    z -0.011410 0.032330 1.948160 
# 
# From -- ./inp_files/368033.got.cif
#   From: 2010.05.17/outbox.cif.g08.bks.cpg/sg2_185_cif.got.tgz:368033.got - 2010.06.03 11:33:40.
