data_PCOD9011122
_publ_section_title
;
Structure prediction by ZEFSAII (Michael W. Deem and Ramdas Pophale) SiO2 
 PCOD9011122
Probable space group: P -1
;
_chemical_formula_sum "Si O2"
_cell_formula_units_Z 16
_cell_length_a 12.258427
_cell_length_b 8.414226
_cell_length_c 21.181570
_cell_angle_alpha 29.467995
_cell_angle_beta 38.054828
_cell_angle_gamma 52.013370
_cell_volume 644.573976
_symmetry_space_group_name_H-M "P -1"
_symmetry_group_IT_number 2
_symmetry_cell_setting 'triclinic'
loop_
_space_group_symop_operation_xyz
x,y,z
-x,-y,-z
loop_
_atom_site_type_symbol
_atom_site_label
_atom_site_fract_x
_atom_site_fract_y
_atom_site_fract_z
Si Si1 0.788454 0.344484 0.664200
Si Si2 0.235491 0.762268 0.427894
Si Si3 0.534228 0.875140 0.597863
Si Si4 0.273394 0.717708 0.877035
Si Si5 0.132140 0.779682 0.193020
Si Si6 0.425172 0.470741 0.114357
Si Si7 0.606991 0.587840 0.343565
Si Si8 0.925887 0.791094 0.041991
O O1 0.733725 0.158026 0.688248
O O2 0.665889 0.619292 0.629925
O O3 0.792388 0.150929 0.794542
O O4 0.000000 0.500000 0.500000
O O5 0.395071 0.578284 0.435690
O O6 0.039070 0.537377 0.611516
O O7 0.282979 0.120213 0.313724
O O8 0.340793 0.730648 0.770075
O O9 0.500000 0.000000 0.500000
O O10 0.624657 0.214189 0.478651
O O11 0.408075 0.538223 0.913897
O O12 0.066331 0.558743 0.046382
O O13 0.316620 0.100564 0.752537
O O14 0.308174 0.731525 0.091874
O O15 0.058650 0.023092 0.096135
O O16 0.500000 0.500000 0.000000
O O17 0.718417 0.662874 0.201410
O O18 0.000000 0.000000 0.000000
#
# Coordination Sequence:
#
# PCOD9011122 Si02
#       8
#     2   2   2   2   2   2   2   2
#     4  10  23  42  60  93 125 164 208 258 308 363
#     4  10  21  40  65  92 125 160 213 254 309 370
#     4  12  22  40  68  88 126 164 213 259 301 372
#     4  10  22  41  62  95 123 162 209 256 310 372
#     4  11  21  41  66  91 125 165 210 252 311 373
#     4  11  22  40  63  94 127 161 205 263 313 368
#     4  10  21  40  66  95 124 161 208 259 317 358
#     4  10  22  41  64  92 130 160 203 261 313 367
#
# _framework density 24.822596000000001
#
# number of rings (size 3 to 8) (size 9 to 14) (size 15 to 20)
#    0.000    1.500    2.500    3.750    1.750    3.000 
#   13.500    4.375    0.000    0.000    0.000    0.000 
#    0.000    0.000    0.000    0.000    0.000    0.000 
#
# Total GULP energy -89372.334745 kJ/mol
# GULP energy per Si atom -5585.770922 kJ/mol
# Density = 2.476610 g / cm^3
# Si number density = 24.822596 Si / 1000 Ang^3
#
#
#
# Elastic Constant Matrix: (Units=GPa)
#
#
# Indices 1 2 3 4 5 6 
#
# 1 98.7068 36.4986 36.1049 5.6836 17.5658 -11.9680
# 2 36.4986 104.1177 29.6837 35.5482 -17.4443 -15.7790
# 3 36.1049 29.6837 92.8592 26.7406 9.9548 10.2427
# 4 5.6836 35.5482 26.7406 57.7034 11.6142 -1.3670
# 5 17.5658 -17.4443 9.9548 11.6142 26.6152 9.1438
# 6 -11.9680 -15.7790 10.2427 -1.3670 9.1438 30.7656
#
#
#
# Elastic Compliance Matrix: (Units=1/GPa)
#
#
# Indices 1 2 3 4 5 6 
#
# 1 0.032087 -0.022974 -0.009400 0.026098 -0.051032 0.020155
# 2 -0.022974 0.035992 0.001712 -0.032007 0.055121 -0.008852
# 3 -0.009400 0.001712 0.017106 -0.010230 0.009421 -0.011728
# 4 0.026098 -0.032007 -0.010230 0.052449 -0.063574 0.018368
# 5 -0.051032 0.055121 0.009421 -0.063574 0.145625 -0.040824
# 6 0.020155 -0.008852 -0.011728 0.018368 -0.040824 0.052658
#
#
# Mechanical properties :
#
#
# Convention : Reuss Voigt Hill
#
# Bulk Modulus (GPa) = 41.90952 55.58422 48.74687
# Shear Modulus (GPa) = 12.33974 35.90994 24.12484
#
# Velocity S-wave (km/s) = 2.23203 3.80763 3.12090
# Velocity P-wave (km/s) = 4.85416 6.46312 5.71554
#
# Compressibility (1/GPa) = 0.02386093
#
# Stress axis : x y z
#
# Youngs Moduli (GPa) = 31.16513 27.78406 58.45893
#
# Poissons Ratio (x) = 0.63832 0.54949
# Poissons Ratio (y) = 0.71600 -0.10008
# Poissons Ratio (z) = 0.29294 -0.04756
#
# Static dielectric constant tensor:
#      x y z
#    x 2.048360 0.088530 -0.011300 
#    y 0.088530 1.933790 -0.043410 
#    z -0.011300 -0.043410 1.933180 
# 
# From -- ./inp_files/295492.got.cif
#   From: 2010.05.17/outbox.cif.g08.bks.cpg/sg2_148_cif.got.tgz:295492.got - 2010.06.03 11:33:40.
