data_PCOD9011228
_publ_section_title
;
Structure prediction by ZEFSAII (Michael W. Deem and Ramdas Pophale) SiO2 
 PCOD9011228
Probable space group: P -1
;
_chemical_formula_sum "Si O2"
_cell_formula_units_Z 14
_cell_length_a 9.003032
_cell_length_b 11.053290
_cell_length_c 12.623278
_cell_angle_alpha 146.648793
_cell_angle_beta 87.504290
_cell_angle_gamma 79.440254
_cell_volume 632.390304
_symmetry_space_group_name_H-M "P -1"
_symmetry_group_IT_number 2
_symmetry_cell_setting 'triclinic'
loop_
_space_group_symop_operation_xyz
x,y,z
-x,-y,-z
loop_
_atom_site_type_symbol
_atom_site_label
_atom_site_fract_x
_atom_site_fract_y
_atom_site_fract_z
Si Si1 0.404222 0.482737 0.656848
Si Si2 0.424926 0.839844 0.758565
Si Si3 0.842224 0.150455 0.385299
Si Si4 0.211787 0.377744 0.137696
Si Si5 0.367430 0.897731 0.468619
Si Si6 0.894798 0.290693 0.023788
Si Si7 0.309339 0.593898 0.092856
O O1 0.458544 0.675244 0.739645
O O2 0.430200 0.274529 0.415488
O O3 0.518168 0.346041 0.651318
O O4 0.227737 0.630119 0.816731
O O5 0.279982 0.797555 0.670703
O O6 0.345645 0.123261 0.987400
O O7 0.828018 0.394942 0.618644
O O8 0.775147 0.004568 0.365844
O O9 0.018630 0.987263 0.216662
O O10 0.278227 0.436822 0.069737
O O11 0.044682 0.355780 0.097428
O O12 0.274839 0.851929 0.336569
O O13 0.500000 0.000000 0.500000
O O14 0.790537 0.411366 0.011194
O O15 0.500000 0.500000 0.000000
#
# Coordination Sequence:
#
# PCOD9011228 Si02
#       7
#     2   2   2   2   2   2   2
#     4  10  21  40  65  95 122 171 212 262 317 374
#     4   9  21  44  66  86 130 167 214 266 310 373
#     4   9  22  42  62  94 128 167 213 258 317 385
#     4  10  23  43  65  93 130 172 205 261 324 373
#     4  10  22  39  63  90 130 168 211 259 315 375
#     4  11  23  40  65  93 134 164 208 265 324 371
#     4  11  23  39  62  96 129 163 214 259 311 384
#
# _framework density 22.138227000000001
#
# number of rings (size 3 to 8) (size 9 to 14) (size 15 to 20)
#    0.000    2.000    1.429    0.429    6.000    6.857 
#    0.000   15.714    0.000    0.000    0.000    0.000 
#    0.000    0.000    0.000    0.000    0.000    0.000 
#
# Total GULP energy -78067.418952 kJ/mol
# GULP energy per Si atom -5576.244211 kJ/mol
# Density = 2.208784 g / cm^3
# Si number density = 22.138227 Si / 1000 Ang^3
#
#
#
# Elastic Constant Matrix: (Units=GPa)
#
#
# Indices 1 2 3 4 5 6 
#
# 1 73.6141 31.2624 56.9482 -9.2175 -5.5119 8.8820
# 2 31.2624 93.6390 46.4520 -1.5678 -1.6723 1.3268
# 3 56.9482 46.4520 147.9859 -1.0372 -12.8002 19.1007
# 4 -9.2175 -1.5678 -1.0372 24.4965 7.0880 -7.9910
# 5 -5.5119 -1.6723 -12.8002 7.0880 52.7581 -9.5518
# 6 8.8820 1.3268 19.1007 -7.9910 -9.5518 20.0468
#
#
#
# Elastic Compliance Matrix: (Units=1/GPa)
#
#
# Indices 1 2 3 4 5 6 
#
# 1 0.021574 -0.003484 -0.007264 0.007911 -0.000598 0.000462
# 2 -0.003484 0.013503 -0.003445 0.000812 -0.000121 0.004198
# 3 -0.007264 -0.003445 0.011950 -0.005953 0.001055 -0.009810
# 4 0.007911 0.000812 -0.005953 0.051483 -0.003733 0.020857
# 5 -0.000598 -0.000121 0.001055 -0.003733 0.021060 0.007815
# 6 0.000462 0.004198 -0.009810 0.020857 0.007815 0.070785
#
#
# Mechanical properties :
#
#
# Convention : Reuss Voigt Hill
#
# Bulk Modulus (GPa) = 53.64451 64.95158 59.29804
# Shear Modulus (GPa) = 22.22683 31.49871 26.86277
#
# Velocity S-wave (km/s) = 3.17204 3.77612 3.48718
# Velocity P-wave (km/s) = 6.14003 6.95808 6.56182
#
# Compressibility (1/GPa) = 0.01864124
#
# Stress axis : x y z
#
# Youngs Moduli (GPa) = 46.35291 74.05730 83.68351
#
# Poissons Ratio (x) = 0.25799 0.60791
# Poissons Ratio (y) = 0.16148 0.28825
# Poissons Ratio (z) = 0.33673 0.25509
#
# Static dielectric constant tensor:
#      x y z
#    x 1.836800 -0.004640 -0.006270 
#    y -0.004640 1.822770 -0.020140 
#    z -0.006270 -0.020140 1.970860 
# 
# From -- ./inp_files/501097.got.cif
#   From: 2010.05.17/outbox.cif.g08.bks.cpg/sg2_251_cif.got.tgz:501097.got - 2010.06.03 11:33:40.
