data_PCOD9011426
_publ_section_title
;
Structure prediction by ZEFSAII (Michael W. Deem and Ramdas Pophale) SiO2 
 PCOD9011426
Probable space group: P -1
;
_chemical_formula_sum "Si O2"
_cell_formula_units_Z 14
_cell_length_a 12.558475
_cell_length_b 8.846792
_cell_length_c 8.839979
_cell_angle_alpha 57.503176
_cell_angle_beta 130.183096
_cell_angle_gamma 106.970938
_cell_volume 630.564912
_symmetry_space_group_name_H-M "P -1"
_symmetry_group_IT_number 2
_symmetry_cell_setting 'triclinic'
loop_
_space_group_symop_operation_xyz
x,y,z
-x,-y,-z
loop_
_atom_site_type_symbol
_atom_site_label
_atom_site_fract_x
_atom_site_fract_y
_atom_site_fract_z
Si Si1 0.178822 0.400750 0.679596
Si Si2 0.719087 0.559220 0.559707
Si Si3 0.125435 0.760059 0.951905
Si Si4 0.121875 0.091277 0.970479
Si Si5 0.782377 0.233078 0.300693
Si Si6 0.189464 0.149900 0.314523
Si Si7 0.474918 0.361979 0.917245
O O1 0.162641 0.439268 0.466133
O O2 0.196250 0.583886 0.687047
O O3 0.330882 0.282784 0.878913
O O4 0.079190 0.274163 0.741686
O O5 0.770252 0.401813 0.804066
O O6 0.710604 0.743413 0.546327
O O7 0.578775 0.543621 0.340316
O O8 0.170589 0.940093 0.976124
O O9 0.131106 0.773761 0.770240
O O10 0.964759 0.745893 0.861935
O O11 0.222875 0.142729 0.171256
O O12 0.000000 0.000000 0.000000
O O13 0.817063 0.052818 0.524328
O O14 0.618166 0.241244 0.099662
O O15 0.500000 0.500000 0.000000
#
# Coordination Sequence:
#
# PCOD9011426 Si02
#       7
#     2   2   2   2   2   2   2
#     4   9  20  41  64  90 121 166 207 255 313 365
#     4  10  21  40  66  90 128 162 210 254 313 366
#     4  11  23  39  60  93 129 166 207 258 306 373
#     4  10  22  41  60  88 128 163 211 254 304 374
#     4  11  21  40  67  90 131 165 205 260 308 368
#     4  11  23  39  60  94 128 164 212 254 311 371
#     4   8  20  40  68  89 124 162 214 249 314 369
#
# _framework density 22.202314999999999
#
# number of rings (size 3 to 8) (size 9 to 14) (size 15 to 20)
#    0.857    1.143    0.000    3.429    0.000    3.429 
#    0.000    7.143    0.000    0.000    0.000    0.000 
#    0.000    0.000    0.000    0.000    0.000    0.000 
#
# Total GULP energy -78073.444969 kJ/mol
# GULP energy per Si atom -5576.674641 kJ/mol
# Density = 2.215178 g / cm^3
# Si number density = 22.202315 Si / 1000 Ang^3
#
#
#
# Elastic Constant Matrix: (Units=GPa)
#
#
# Indices 1 2 3 4 5 6 
#
# 1 29.9071 -9.6453 -4.5456 -4.2481 4.3496 -5.4726
# 2 -9.6453 102.9481 2.9395 -0.6970 -10.7161 -13.6440
# 3 -4.5456 2.9395 83.4876 -8.6808 -3.8230 4.7804
# 4 -4.2481 -0.6970 -8.6808 35.7777 -0.8852 -9.9306
# 5 4.3496 -10.7161 -3.8230 -0.8852 40.7891 12.6763
# 6 -5.4726 -13.6440 4.7804 -9.9306 12.6763 26.2888
#
#
#
# Elastic Compliance Matrix: (Units=1/GPa)
#
#
# Indices 1 2 3 4 5 6 
#
# 1 0.041872 0.005637 0.001677 0.010704 -0.008674 0.019563
# 2 0.005637 0.011365 -0.000254 0.003155 -0.000180 0.008397
# 3 0.001677 -0.000254 0.012538 0.002789 0.001534 -0.001749
# 4 0.010704 0.003155 0.002789 0.035149 -0.005244 0.019165
# 5 -0.008674 -0.000180 0.001534 -0.005244 0.031426 -0.019313
# 6 0.019563 0.008397 -0.001749 0.019165 -0.019313 0.063340
#
#
# Mechanical properties :
#
#
# Convention : Reuss Voigt Hill
#
# Bulk Modulus (GPa) = 12.51646 21.53778 17.02712
# Shear Modulus (GPa) = 24.01529 35.74406 29.87967
#
# Velocity S-wave (km/s) = 3.29242 4.01674 3.67248
# Velocity P-wave (km/s) = 4.48365 5.58874 5.06641
#
# Compressibility (1/GPa) = 0.07989479
#
# Stress axis : x y z
#
# Youngs Moduli (GPa) = 23.88250 87.99315 79.75492
#
# Poissons Ratio (x) = -0.49606 -0.13374
# Poissons Ratio (y) = -0.13464 0.02027
# Poissons Ratio (z) = -0.04005 0.02237
#
# Static dielectric constant tensor:
#      x y z
#    x 1.904420 0.042310 0.024560 
#    y 0.042310 1.824840 0.038360 
#    z 0.024560 0.038360 1.826030 
# 
# From -- ./inp_files/291948.got.cif
#   From: 2010.05.17/outbox.cif.g08.bks.cpg/sg2_146_cif.got.tgz:291948.got - 2010.06.03 11:33:40.
