data_PCOD9011636
_publ_section_title
;
Structure prediction by ZEFSAII (Michael W. Deem and Ramdas Pophale) SiO2 
 PCOD9011636
Probable space group: P -1
;
_chemical_formula_sum "Si O2"
_cell_formula_units_Z 16
_cell_length_a 8.066724
_cell_length_b 11.202854
_cell_length_c 23.394587
_cell_angle_alpha 31.480146
_cell_angle_beta 49.131100
_cell_angle_gamma 69.757839
_cell_volume 704.314421
_symmetry_space_group_name_H-M "P -1"
_symmetry_group_IT_number 2
_symmetry_cell_setting 'triclinic'
loop_
_space_group_symop_operation_xyz
x,y,z
-x,-y,-z
loop_
_atom_site_type_symbol
_atom_site_label
_atom_site_fract_x
_atom_site_fract_y
_atom_site_fract_z
Si Si1 0.499030 0.600050 0.154223
Si Si2 0.200553 0.001484 0.498796
Si Si3 0.357577 0.208546 0.078392
Si Si4 0.693606 0.688679 0.255250
Si Si5 0.917669 0.676854 0.809549
Si Si6 0.938562 0.464919 0.354154
Si Si7 0.939138 0.727043 0.068496
Si Si8 0.821515 0.411810 0.630780
O O1 0.238913 0.608121 0.204941
O O2 0.733557 0.798570 0.061519
O O3 0.416658 0.315731 0.319008
O O4 0.627653 0.652504 0.042082
O O5 0.076031 0.879130 0.638398
O O6 0.247463 0.795507 0.537533
O O7 0.000000 0.000000 0.500000
O O8 0.147553 0.189851 0.178346
O O9 0.297497 0.908993 0.200989
O O10 0.640476 0.426741 0.951300
O O11 0.871368 0.671752 0.173011
O O12 0.405420 0.538766 0.355970
O O13 0.784550 0.615326 0.322428
O O14 0.784556 0.000330 0.113107
O O15 0.060772 0.522381 0.857318
O O16 0.999151 0.425501 0.421598
O O17 0.000000 0.500000 0.500000
#
# Coordination Sequence:
#
# PCOD9011636 Si02
#       8
#     2   2   2   2   2   2   2   2
#     4  11  23  41  70 101 135 184 230 281 339 409
#     4  10  21  40  66  98 129 178 227 281 335 391
#     4  11  24  42  65  97 135 184 223 275 348 406
#     4  11  23  42  69 102 137 175 230 290 336 409
#     4  11  22  41  68  96 138 176 225 283 341 403
#     4  11  23  44  69  99 138 177 234 281 336 404
#     4  11  22  40  68 103 135 173 235 285 338 402
#     4  12  28  45  70 101 139 186 227 278 354 413
#
# _framework density 22.717127000000001
#
# number of rings (size 3 to 8) (size 9 to 14) (size 15 to 20)
#    0.000    1.000    6.250    0.750    5.250    2.500 
#    2.250    0.000    0.000    0.000    0.000    0.000 
#    0.000    0.000    0.000    0.000    0.000    0.000 
#
# Total GULP energy -89178.310197 kJ/mol
# GULP energy per Si atom -5573.644387 kJ/mol
# Density = 2.266542 g / cm^3
# Si number density = 22.717127 Si / 1000 Ang^3
#
#
#
# Elastic Constant Matrix: (Units=GPa)
#
#
# Indices 1 2 3 4 5 6 
#
# 1 115.2817 31.2001 16.9500 14.8920 8.7324 -7.7961
# 2 31.2001 72.4398 36.9236 11.3926 11.6798 6.5706
# 3 16.9500 36.9236 87.7617 13.4634 16.6390 -3.4302
# 4 14.8920 11.3926 13.4634 32.8759 3.6435 11.0658
# 5 8.7324 11.6798 16.6390 3.6435 25.2077 -1.9850
# 6 -7.7961 6.5706 -3.4302 11.0658 -1.9850 28.6655
#
#
#
# Elastic Compliance Matrix: (Units=1/GPa)
#
#
# Indices 1 2 3 4 5 6 
#
# 1 0.011106 -0.004933 0.001293 -0.005931 -0.001044 0.006523
# 2 -0.004933 0.020945 -0.007626 0.001121 -0.003734 -0.007746
# 3 0.001293 -0.007626 0.016782 -0.006101 -0.006637 0.006004
# 4 -0.005931 0.001121 -0.006101 0.041781 -0.001962 -0.018865
# 5 -0.001044 -0.003734 -0.006637 -0.001962 0.046724 0.003771
# 6 0.006523 -0.007746 0.006004 -0.018865 0.003771 0.046697
#
#
# Mechanical properties :
#
#
# Convention : Reuss Voigt Hill
#
# Bulk Modulus (GPa) = 38.02120 49.51453 43.76786
# Shear Modulus (GPa) = 23.21985 30.04380 26.63182
#
# Velocity S-wave (km/s) = 3.20054 3.64059 3.42764
# Velocity P-wave (km/s) = 5.51644 6.28612 5.91381
#
# Compressibility (1/GPa) = 0.02630112
#
# Stress axis : x y z
#
# Youngs Moduli (GPa) = 90.04397 47.74467 59.58701
#
# Poissons Ratio (x) = 0.23553 -0.07706
# Poissons Ratio (y) = 0.44419 0.45441
# Poissons Ratio (z) = -0.11646 0.36410
#
# Static dielectric constant tensor:
#      x y z
#    x 1.878680 -0.020200 0.076370 
#    y -0.020200 1.944380 -0.206670 
#    z 0.076370 -0.206670 2.301970 
# 
# From -- ./inp_files/607462.got.cif
#   From: 2010.05.17/outbox.cif.g08.bks.cpg/sg2_304_cif.got.tgz:607462.got - 2010.06.03 11:33:40.
