data_PCOD9011696
_publ_section_title
;
Structure prediction by ZEFSAII (Michael W. Deem and Ramdas Pophale) SiO2 
 PCOD9011696
Probable space group: P -1
;
_chemical_formula_sum "Si O2"
_cell_formula_units_Z 16
_cell_length_a 7.905552
_cell_length_b 10.959155
_cell_length_c 8.106455
_cell_angle_alpha 86.416459
_cell_angle_beta 63.569374
_cell_angle_gamma 92.977286
_cell_volume 625.182388
_symmetry_space_group_name_H-M "P -1"
_symmetry_group_IT_number 2
_symmetry_cell_setting 'triclinic'
loop_
_space_group_symop_operation_xyz
x,y,z
-x,-y,-z
loop_
_atom_site_type_symbol
_atom_site_label
_atom_site_fract_x
_atom_site_fract_y
_atom_site_fract_z
Si Si1 0.546444 0.189406 0.589873
Si Si2 0.553884 0.145601 0.219590
Si Si3 0.114323 0.839000 0.335286
Si Si4 0.051729 0.588722 0.231049
Si Si5 0.791729 0.932379 0.075762
Si Si6 0.396503 0.571481 0.895423
Si Si7 0.309241 0.534567 0.444491
Si Si8 0.860391 0.881485 0.710476
O O1 0.610618 0.141688 0.388468
O O2 0.669506 0.151859 0.696944
O O3 0.595637 0.333948 0.554793
O O4 0.328878 0.141631 0.723891
O O5 0.664230 0.045793 0.085261
O O6 0.584507 0.280821 0.119229
O O7 0.329609 0.116346 0.311351
O O8 0.059962 0.737158 0.231027
O O9 0.998195 0.801417 0.557729
O O10 0.058338 0.976099 0.316044
O O11 0.176944 0.555870 0.339806
O O12 0.838816 0.530725 0.356154
O O13 0.172357 0.543473 0.029490
O O14 0.804602 0.841729 0.922432
O O15 0.000000 0.000000 0.000000
O O16 0.518306 0.538905 0.687181
O O17 0.500000 0.500000 0.000000
#
# Coordination Sequence:
#
# PCOD9011696 Si02
#       8
#     2   2   2   2   2   2   2   2
#     4  11  25  45  68  97 150 187 228 298 361 418
#     4  12  25  44  71 104 142 187 238 291 358 428
#     4  10  21  40  67 100 141 182 233 294 355 420
#     4   9  18  38  65  97 132 177 232 284 342 421
#     4  12  27  45  68 104 147 187 237 292 356 425
#     4  10  22  40  70 101 138 180 239 295 348 417
#     4   9  20  40  64  95 132 183 227 285 353 409
#     4  11  24  38  71 104 133 183 238 285 358 434
#
# _framework density 25.592533
#
# number of rings (size 3 to 8) (size 9 to 14) (size 15 to 20)
#    0.000    1.500    1.250    3.000    8.750    1.500 
#    4.500    0.625    0.000    0.000    0.000    0.000 
#    0.000    0.000    0.000    0.000    0.000    0.000 
#
# Total GULP energy -89471.400748 kJ/mol
# GULP energy per Si atom -5591.962547 kJ/mol
# Density = 2.553428 g / cm^3
# Si number density = 25.592533 Si / 1000 Ang^3
#
#
#
# Elastic Constant Matrix: (Units=GPa)
#
#
# Indices 1 2 3 4 5 6 
#
# 1 103.5412 27.3479 32.9621 -7.5558 -23.5499 15.6843
# 2 27.3479 99.7965 44.5369 -17.8961 -26.5990 6.8808
# 3 32.9621 44.5369 160.3759 8.4029 -39.6655 8.7170
# 4 -7.5558 -17.8961 8.4029 39.4173 -3.0867 -4.9673
# 5 -23.5499 -26.5990 -39.6655 -3.0867 53.4064 -8.7946
# 6 15.6843 6.8808 8.7170 -4.9673 -8.7946 26.7595
#
#
#
# Elastic Compliance Matrix: (Units=1/GPa)
#
#
# Indices 1 2 3 4 5 6 
#
# 1 0.011929 -0.001337 -0.001144 0.001529 0.003009 -0.005003
# 2 -0.001337 0.014246 -0.002899 0.007350 0.004951 0.001057
# 3 -0.001144 -0.002899 0.008477 -0.003097 0.004072 -0.000582
# 4 0.001529 0.007350 -0.003097 0.030719 0.004711 0.005474
# 5 0.003009 0.004951 0.004072 0.004711 0.026683 0.005281
# 6 -0.005003 0.001057 -0.000582 0.005474 0.005281 0.042971
#
#
# Mechanical properties :
#
#
# Convention : Reuss Voigt Hill
#
# Bulk Modulus (GPa) = 41.85940 63.71194 52.78567
# Shear Modulus (GPa) = 32.52024 41.17441 36.84732
#
# Velocity S-wave (km/s) = 3.56854 4.01539 3.79854
# Velocity P-wave (km/s) = 5.77676 6.81518 6.31734
#
# Compressibility (1/GPa) = 0.02388950
#
# Stress axis : x y z
#
# Youngs Moduli (GPa) = 83.82773 70.19743 117.96887
#
# Poissons Ratio (x) = 0.09388 0.13501
# Poissons Ratio (y) = 0.11210 0.34202
# Poissons Ratio (z) = 0.09594 0.20352
#
# Static dielectric constant tensor:
#      x y z
#    x 1.991340 -0.026530 0.071130 
#    y -0.026530 2.019050 -0.032700 
#    z 0.071130 -0.032700 2.108780 
# 
# From -- ./inp_files/188208.got.cif
#   From: 2010.05.17/outbox.cif.g08.bks.cpg/sg2_95_cif.got.tgz:188208.got - 2010.06.03 11:33:40.
