data_PCOD9011509
_publ_section_title
;
Structure prediction by ZEFSAII (Michael W. Deem and Ramdas Pophale) SiO2 
 PCOD9011509
Probable space group: P -1
;
_chemical_formula_sum "Si O2"
_cell_formula_units_Z 16
_cell_length_a 11.822055
_cell_length_b 11.711908
_cell_length_c 24.257564
_cell_angle_alpha 41.488264
_cell_angle_beta 21.159115
_cell_angle_gamma 39.945090
_cell_volume 769.908223
_symmetry_space_group_name_H-M "P -1"
_symmetry_group_IT_number 2
_symmetry_cell_setting 'triclinic'
loop_
_space_group_symop_operation_xyz
x,y,z
-x,-y,-z
loop_
_atom_site_type_symbol
_atom_site_label
_atom_site_fract_x
_atom_site_fract_y
_atom_site_fract_z
Si Si1 0.253742 0.875854 0.042909
Si Si2 0.656377 0.458598 0.679583
Si Si3 0.120533 0.887343 0.541243
Si Si4 0.982612 0.837060 0.299137
Si Si5 0.764588 0.787089 0.224908
Si Si6 0.619077 0.136547 0.741842
Si Si7 0.708933 0.224526 0.333057
Si Si8 0.096972 0.377821 0.194045
O O1 0.075199 0.867275 0.184069
O O2 0.993505 0.901029 0.102823
O O3 0.533542 0.690991 0.970078
O O4 0.445581 0.026297 0.900102
O O5 0.599139 0.329950 0.703708
O O6 0.381704 0.647035 0.726681
O O7 0.000000 0.500000 0.500000
O O8 0.727501 0.327316 0.747696
O O9 0.498649 0.794432 0.391440
O O10 0.943596 0.737346 0.691895
O O11 0.000000 0.000000 0.500000
O O12 0.997053 0.029851 0.595333
O O13 0.637406 0.790685 0.479884
O O14 0.924648 0.025548 0.290036
O O15 0.570350 0.855103 0.232671
O O16 0.971501 0.584876 0.190872
O O17 0.879893 0.319236 0.266385
#
# Coordination Sequence:
#
# PCOD9011509 Si02
#       8
#     2   2   2   2   2   2   2   2
#     4  11  24  39  60  90 131 169 199 248 319 384
#     4  10  21  40  66  94 122 156 212 268 309 367
#     4   9  20  35  60  90 116 163 209 253 307 364
#     4  10  22  41  64  93 126 162 209 263 317 370
#     4  11  21  39  62  90 126 162 212 251 306 376
#     4  10  21  41  63  89 126 163 204 258 313 372
#     4  10  21  41  68  90 120 165 214 267 311 362
#     4  11  21  38  61  87 127 165 206 257 313 364
#
# _framework density 20.781697999999999
#
# number of rings (size 3 to 8) (size 9 to 14) (size 15 to 20)
#    0.000    1.750    1.250    3.375    0.000    4.000 
#    4.500    1.250    0.000    0.000    0.000    0.000 
#    0.000    0.000    0.000    0.000    0.000    0.000 
#
# Total GULP energy -89253.184696 kJ/mol
# GULP energy per Si atom -5578.324044 kJ/mol
# Density = 2.073440 g / cm^3
# Si number density = 20.781698 Si / 1000 Ang^3
#
#
#
# Elastic Constant Matrix: (Units=GPa)
#
#
# Indices 1 2 3 4 5 6 
#
# 1 105.4106 11.6614 39.8870 -7.9683 -5.0344 -6.2549
# 2 11.6614 67.3292 25.0454 -3.9314 6.3429 -3.5850
# 3 39.8870 25.0454 74.3291 11.2480 7.1621 16.2617
# 4 -7.9683 -3.9314 11.2480 23.7299 1.0008 0.9183
# 5 -5.0344 6.3429 7.1621 1.0008 30.3167 -9.3429
# 6 -6.2549 -3.5850 16.2617 0.9183 -9.3429 27.7354
#
#
#
# Elastic Compliance Matrix: (Units=1/GPa)
#
#
# Indices 1 2 3 4 5 6 
#
# 1 0.019796 0.005051 -0.020597 0.015881 0.013065 0.021069
# 2 0.005051 0.020394 -0.014526 0.011295 0.003686 0.013160
# 3 -0.020597 -0.014526 0.044244 -0.027864 -0.021908 -0.038921
# 4 0.015881 0.011295 -0.027864 0.061138 0.012054 0.023415
# 5 0.013065 0.003686 -0.021908 0.012054 0.049154 0.032427
# 6 0.021069 0.013160 -0.038921 0.023415 0.032427 0.075475
#
#
# Mechanical properties :
#
#
# Convention : Reuss Voigt Hill
#
# Bulk Modulus (GPa) = 41.16790 44.47293 42.82041
# Shear Modulus (GPa) = 14.77361 27.72141 21.24751
#
# Velocity S-wave (km/s) = 2.66915 3.65627 3.20099
# Velocity P-wave (km/s) = 5.41774 6.26665 5.85759
#
# Compressibility (1/GPa) = 0.02429077
#
# Stress axis : x y z
#
# Youngs Moduli (GPa) = 50.51447 49.03417 22.60213
#
# Poissons Ratio (x) = -0.24768 0.46553
# Poissons Ratio (y) = -0.25516 0.32832
# Poissons Ratio (z) = 1.04044 0.71227
#
# Static dielectric constant tensor:
#      x y z
#    x 1.780840 -0.059210 -0.009640 
#    y -0.059210 1.758270 0.017120 
#    z -0.009640 0.017120 1.721280 
# 
# From -- ./inp_files/314232.got.cif
#   From: 2010.05.17/outbox.cif.g08.bks.cpg/sg2_158_cif.got.tgz:314232.got - 2010.06.03 11:33:40.
