data_PCOD9011153
_publ_section_title
;
Structure prediction by ZEFSAII (Michael W. Deem and Ramdas Pophale) SiO2 
 PCOD9011153
Probable space group: P -1
;
_chemical_formula_sum "Si O2"
_cell_formula_units_Z 12
_cell_length_a 14.707953
_cell_length_b 5.058161
_cell_length_c 8.092918
_cell_angle_alpha 126.453380
_cell_angle_beta 101.997193
_cell_angle_gamma 94.982421
_cell_volume 456.450264
_symmetry_space_group_name_H-M "P -1"
_symmetry_group_IT_number 2
_symmetry_cell_setting 'triclinic'
loop_
_space_group_symop_operation_xyz
x,y,z
-x,-y,-z
loop_
_atom_site_type_symbol
_atom_site_label
_atom_site_fract_x
_atom_site_fract_y
_atom_site_fract_z
Si Si1 0.478662 0.288464 0.717872
Si Si2 0.768596 0.837544 0.714661
Si Si3 0.709712 0.052516 0.302111
Si Si4 0.879689 0.066510 0.178742
Si Si5 0.069787 0.133843 0.424598
Si Si6 0.598642 0.994461 0.889720
O O1 0.519273 0.640579 0.766938
O O2 0.500000 0.000000 0.500000
O O3 0.367100 0.175481 0.686591
O O4 0.543373 0.252469 0.889676
O O5 0.739637 0.431425 0.528614
O O6 0.838838 0.991400 0.645091
O O7 0.673746 0.952556 0.762265
O O8 0.832654 0.943359 0.941732
O O9 0.799370 0.900670 0.227345
O O10 0.657380 0.076319 0.114068
O O11 0.893271 0.464354 0.375026
O O12 0.987846 0.034144 0.215267
O O13 0.000000 0.000000 0.500000
#
# Coordination Sequence:
#
# PCOD9011153 Si02
#       6
#     2   2   2   2   2   2
#     4  12  24  44  70  97 135 178 224 271 328 388
#     4  10  21  43  63  95 129 168 218 269 331 392
#     4  10  22  42  66  94 130 176 216 272 329 389
#     4   9  21  42  62  91 130 164 215 268 326 395
#     4  10  21  40  65  93 124 167 214 269 333 389
#     4  11  25  46  66  99 135 177 223 272 326 391
#
# _framework density 26.289828
#
# number of rings (size 3 to 8) (size 9 to 14) (size 15 to 20)
#    0.000    1.667    1.667    2.000    0.000    2.000 
#   24.000    0.000    0.000    0.000    0.000    0.000 
#    0.000    0.000    0.000    0.000    0.000    0.000 
#
# Total GULP energy -67217.827842 kJ/mol
# GULP energy per Si atom -5601.485653 kJ/mol
# Density = 2.622999 g / cm^3
# Si number density = 26.289828 Si / 1000 Ang^3
#
#
#
# Elastic Constant Matrix: (Units=GPa)
#
#
# Indices 1 2 3 4 5 6 
#
# 1 236.8537 72.6082 40.0365 4.2146 -23.5926 44.5800
# 2 72.6082 101.1423 22.6560 -3.9561 -3.5428 15.6081
# 3 40.0365 22.6560 117.1697 -12.0488 17.1636 15.1396
# 4 4.2146 -3.9561 -12.0488 31.6997 11.8466 -7.6822
# 5 -23.5926 -3.5428 17.1636 11.8466 37.5723 -10.5169
# 6 44.5800 15.6081 15.1396 -7.6822 -10.5169 50.4394
#
#
#
# Elastic Compliance Matrix: (Units=1/GPa)
#
#
# Indices 1 2 3 4 5 6 
#
# 1 0.007436 -0.004107 -0.002738 -0.005861 0.006241 -0.004071
# 2 -0.004107 0.013023 -0.000507 0.002676 -0.002037 -0.000265
# 3 -0.002738 -0.000507 0.012245 0.008419 -0.010581 -0.002023
# 4 -0.005861 0.002676 0.008419 0.044419 -0.020045 0.004411
# 5 0.006241 -0.002037 -0.010581 -0.020045 0.042652 0.004131
# 6 -0.004071 -0.000265 -0.002023 0.004411 0.004131 0.025646
#
#
# Mechanical properties :
#
#
# Convention : Reuss Voigt Hill
#
# Bulk Modulus (GPa) = 55.55217 80.64080 68.09648
# Shear Modulus (GPa) = 30.09764 45.26660 37.68212
#
# Velocity S-wave (km/s) = 3.38722 4.15399 3.79005
# Velocity P-wave (km/s) = 6.03939 7.33130 6.71648
#
# Compressibility (1/GPa) = 0.01800110
#
# Stress axis : x y z
#
# Youngs Moduli (GPa) = 134.48028 76.78486 81.66447
#
# Poissons Ratio (x) = 0.31539 0.22356
# Poissons Ratio (y) = 0.55237 0.04139
# Poissons Ratio (z) = 0.36814 0.03892
#
# Static dielectric constant tensor:
#      x y z
#    x 2.134000 0.027520 0.048660 
#    y 0.027520 2.131020 -0.122150 
#    z 0.048660 -0.122150 2.150930 
# 
# From -- ./inp_files/87087.got.cif
#   From: 2010.05.17/outbox.cif.g08.bks.cpg/sg2_44_cif.got.tgz:87087.got - 2010.06.03 11:33:40.
