data_PCOD9011199
_publ_section_title
;
Structure prediction by ZEFSAII (Michael W. Deem and Ramdas Pophale) SiO2 
 PCOD9011199
Probable space group: P -1
;
_chemical_formula_sum "Si O2"
_cell_formula_units_Z 14
_cell_length_a 13.794288
_cell_length_b 12.701011
_cell_length_c 20.879274
_cell_angle_alpha 24.857291
_cell_angle_beta 32.709041
_cell_angle_gamma 49.398570
_cell_volume 721.491745
_symmetry_space_group_name_H-M "P -1"
_symmetry_group_IT_number 2
_symmetry_cell_setting 'triclinic'
loop_
_space_group_symop_operation_xyz
x,y,z
-x,-y,-z
loop_
_atom_site_type_symbol
_atom_site_label
_atom_site_fract_x
_atom_site_fract_y
_atom_site_fract_z
Si Si1 0.198687 0.585476 0.386398
Si Si2 0.627233 0.758628 0.464410
Si Si3 0.504943 0.177857 0.239683
Si Si4 0.246055 0.145947 0.283834
Si Si5 0.628040 0.871645 0.915304
Si Si6 0.245576 0.976119 0.616965
Si Si7 0.792068 0.634039 0.046999
O O1 0.200599 0.336319 0.567851
O O2 0.000000 0.500000 0.500000
O O3 0.257008 0.846512 0.259185
O O4 0.392178 0.696603 0.167733
O O5 0.411250 0.452590 0.749652
O O6 0.611577 0.980104 0.301884
O O7 0.642528 0.910234 0.440884
O O8 0.337014 0.060313 0.341264
O O9 0.379280 0.174904 0.374919
O O10 0.665089 0.509266 0.952837
O O11 0.333844 0.075315 0.209920
O O12 0.000000 0.000000 0.500000
O O13 0.739034 0.690750 0.974377
O O14 0.208643 0.664983 0.787985
O O15 0.009224 0.903062 0.796937
#
# Coordination Sequence:
#
# PCOD9011199 Si02
#       7
#     2   2   2   2   2   2   2
#     4  10  21  36  59  82 107 143 181 230 276 317
#     4  10  19  33  52  79 110 139 181 228 270 320
#     4  10  21  34  52  81 110 144 184 223 271 327
#     4  11  23  38  57  80 113 150 182 222 273 330
#     4  10  20  36  54  81 110 140 185 223 267 326
#     4  10  17  29  52  80 110 138 171 222 280 329
#     4   9  17  28  50  79 107 136 167 219 279 325
#
# _framework density 19.404242
#
# number of rings (size 3 to 8) (size 9 to 14) (size 15 to 20)
#    0.000    2.000    0.000    6.000    0.000    4.571 
#    0.000    0.714    0.000    1.714    0.000    0.000 
#    0.000    0.000    0.000    0.000    0.000    0.000 
#
# Total GULP energy -77951.601783 kJ/mol
# GULP energy per Si atom -5567.971556 kJ/mol
# Density = 1.936008 g / cm^3
# Si number density = 19.404242 Si / 1000 Ang^3
#
#
#
# Elastic Constant Matrix: (Units=GPa)
#
#
# Indices 1 2 3 4 5 6 
#
# 1 152.0529 29.0213 49.6694 2.1246 -5.0515 -13.2805
# 2 29.0213 43.3953 8.2528 -0.4398 2.1379 -4.7558
# 3 49.6694 8.2528 69.2438 0.5527 -16.0302 -13.3301
# 4 2.1246 -0.4398 0.5527 17.6306 -6.1641 7.2582
# 5 -5.0515 2.1379 -16.0302 -6.1641 38.0015 2.2900
# 6 -13.2805 -4.7558 -13.3301 7.2582 2.2900 31.8331
#
#
#
# Elastic Compliance Matrix: (Units=1/GPa)
#
#
# Indices 1 2 3 4 5 6 
#
# 1 0.009759 -0.005102 -0.006513 -0.002139 -0.001582 0.001183
# 2 -0.005102 0.026736 0.000404 -0.000455 -0.002224 0.002299
# 3 -0.006513 0.000404 0.022082 0.000534 0.008159 0.005881
# 4 -0.002139 -0.000455 0.000534 0.068235 0.012069 -0.017163
# 5 -0.001582 -0.002224 0.008159 0.012069 0.031786 -0.002614
# 6 0.001183 0.002299 0.005881 -0.017163 -0.002614 0.038815
#
#
# Mechanical properties :
#
#
# Convention : Reuss Voigt Hill
#
# Bulk Modulus (GPa) = 27.65833 48.73100 38.19467
# Shear Modulus (GPa) = 21.56234 29.34295 25.45265
#
# Velocity S-wave (km/s) = 3.33711 3.89291 3.62568
# Velocity P-wave (km/s) = 5.39751 6.73606 6.10359
#
# Compressibility (1/GPa) = 0.03615547
#
# Stress axis : x y z
#
# Youngs Moduli (GPa) = 102.47287 37.40304 45.28518
#
# Poissons Ratio (x) = 0.19082 0.29495
# Poissons Ratio (y) = 0.52278 -0.01831
# Poissons Ratio (z) = 0.66743 -0.01512
#
# Static dielectric constant tensor:
#      x y z
#    x 1.728390 -0.077200 -0.028790 
#    y -0.077200 1.756170 0.005000 
#    z -0.028790 0.005000 1.737390 
# 
# From -- ./inp_files/278546.got.cif
#   From: 2010.05.17/outbox.cif.g08.bks.cpg/sg2_140_cif.got.tgz:278546.got - 2010.06.03 11:33:40.
