data_PCOD9011185
_publ_section_title
;
Structure prediction by ZEFSAII (Michael W. Deem and Ramdas Pophale) SiO2 
 PCOD9011185
Probable space group: P -1
;
_chemical_formula_sum "Si O2"
_cell_formula_units_Z 16
_cell_length_a 12.086887
_cell_length_b 11.795006
_cell_length_c 4.987450
_cell_angle_alpha 74.812498
_cell_angle_beta 76.258789
_cell_angle_gamma 96.307625
_cell_volume 655.233172
_symmetry_space_group_name_H-M "P -1"
_symmetry_group_IT_number 2
_symmetry_cell_setting 'triclinic'
loop_
_space_group_symop_operation_xyz
x,y,z
-x,-y,-z
loop_
_atom_site_type_symbol
_atom_site_label
_atom_site_fract_x
_atom_site_fract_y
_atom_site_fract_z
Si Si1 0.117075 0.979710 0.157834
Si Si2 0.317810 0.901286 0.435326
Si Si3 0.209233 0.666273 0.957501
Si Si4 0.299580 0.113419 0.611059
Si Si5 0.551136 0.390532 0.156399
Si Si6 0.900810 0.810202 0.565536
Si Si7 0.948638 0.383300 0.428870
Si Si8 0.507077 0.766007 0.201185
O O1 0.205411 0.924519 0.327689
O O2 0.998266 0.886614 0.267515
O O3 0.096133 0.101567 0.237632
O O4 0.190113 0.014273 0.829783
O O5 0.273969 0.794730 0.734589
O O6 0.412689 0.850547 0.238516
O O7 0.369077 0.031213 0.449293
O O8 0.311121 0.590962 0.982585
O O9 0.120201 0.607792 0.813354
O O10 0.145514 0.681283 0.261894
O O11 0.230667 0.206846 0.453754
O O12 0.371888 0.167077 0.791088
O O13 0.527874 0.347931 0.503713
O O14 0.500000 0.500000 0.000000
O O15 0.493722 0.279418 0.071497
O O16 0.950201 0.690051 0.652871
O O17 0.000000 0.500000 0.500000
#
# Coordination Sequence:
#
# PCOD9011185 Si02
#       8
#     2   2   2   2   2   2   2   2
#     4  10  21  40  65  93 133 182 226 268 336 413
#     4  10  22  40  68  97 134 182 223 276 334 419
#     4  11  24  46  70  97 132 177 230 276 333 409
#     4  11  24  38  65 100 143 176 218 285 348 396
#     4  11  26  48  74  96 132 181 232 275 339 406
#     4  10  23  39  63  96 134 181 229 266 339 405
#     4  12  26  44  69 102 135 176 229 287 339 390
#     4  11  26  43  69 107 134 172 226 288 341 400
#
# _framework density 24.418786999999998
#
# number of rings (size 3 to 8) (size 9 to 14) (size 15 to 20)
#    0.000    1.250    1.250    3.750    8.750    2.500 
#    0.000    0.000    0.000    0.000    0.000    0.000 
#    0.000    0.000    0.000    0.000    0.000    0.000 
#
# Total GULP energy -89560.186516 kJ/mol
# GULP energy per Si atom -5597.511657 kJ/mol
# Density = 2.436321 g / cm^3
# Si number density = 24.418787 Si / 1000 Ang^3
#
#
#
# Elastic Constant Matrix: (Units=GPa)
#
#
# Indices 1 2 3 4 5 6 
#
# 1 154.8257 60.3246 15.6850 10.1271 25.8462 -25.6361
# 2 60.3246 124.6893 -0.2325 5.0467 13.0098 -26.5213
# 3 15.6850 -0.2325 62.9767 4.3367 12.5735 -11.8206
# 4 10.1271 5.0467 4.3367 18.9477 9.4194 6.7800
# 5 25.8462 13.0098 12.5735 9.4194 37.7358 0.9807
# 6 -25.6361 -26.5213 -11.8206 6.7800 0.9807 52.1885
#
#
#
# Elastic Compliance Matrix: (Units=1/GPa)
#
#
# Indices 1 2 3 4 5 6 
#
# 1 0.009223 -0.003206 -0.000634 -0.002916 -0.004356 0.003218
# 2 -0.003206 0.010898 0.002286 -0.002544 -0.001814 0.004846
# 3 -0.000634 0.002286 0.018501 -0.003657 -0.005751 0.005624
# 4 -0.002916 -0.002544 -0.003657 0.066133 -0.012104 -0.011918
# 5 -0.004356 -0.001814 -0.005751 -0.012104 0.035136 -0.003452
# 6 0.003218 0.004846 0.005624 -0.011918 -0.003452 0.026092
#
#
# Mechanical properties :
#
#
# Convention : Reuss Voigt Hill
#
# Bulk Modulus (GPa) = 28.15917 54.89397 41.52657
# Shear Modulus (GPa) = 27.63492 39.55539 33.59515
#
# Velocity S-wave (km/s) = 3.36774 4.02913 3.71319
# Velocity P-wave (km/s) = 5.16517 6.64637 5.95203
#
# Compressibility (1/GPa) = 0.03551241
#
# Stress axis : x y z
#
# Youngs Moduli (GPa) = 108.42141 91.75758 54.05131
#
# Poissons Ratio (x) = 0.29420 0.03429
# Poissons Ratio (y) = 0.34763 -0.12354
# Poissons Ratio (z) = 0.06878 -0.20972
#
# Static dielectric constant tensor:
#      x y z
#    x 1.970500 -0.000960 -0.027200 
#    y -0.000960 1.974530 -0.056670 
#    z -0.027200 -0.056670 1.983970 
# 
# From -- ./inp_files/66230.got.cif
#   From: 2010.05.17/outbox.cif.g08.bks.cpg/sg2_34_cif.got.tgz:66230.got - 2010.06.03 11:33:40.
