data_PCOD9011781
_publ_section_title
;
Structure prediction by ZEFSAII (Michael W. Deem and Ramdas Pophale) SiO2 
 PCOD9011781
Probable space group: P -1
;
_chemical_formula_sum "Si O2"
_cell_formula_units_Z 14
_cell_length_a 8.295972
_cell_length_b 9.465297
_cell_length_c 11.340826
_cell_angle_alpha 90.132240
_cell_angle_beta 77.193756
_cell_angle_gamma 48.544813
_cell_volume 637.144089
_symmetry_space_group_name_H-M "P -1"
_symmetry_group_IT_number 2
_symmetry_cell_setting 'triclinic'
loop_
_space_group_symop_operation_xyz
x,y,z
-x,-y,-z
loop_
_atom_site_type_symbol
_atom_site_label
_atom_site_fract_x
_atom_site_fract_y
_atom_site_fract_z
Si Si1 0.538184 0.818011 0.690234
Si Si2 0.556203 0.818152 0.303397
Si Si3 0.370905 0.723645 0.511161
Si Si4 0.753416 0.159997 0.094837
Si Si5 0.942923 0.217568 0.265507
Si Si6 0.986559 0.503460 0.359765
Si Si7 0.438196 0.886822 0.073260
O O1 0.492110 0.763651 0.578101
O O2 0.320637 0.925139 0.807461
O O3 0.754040 0.621723 0.717242
O O4 0.582443 0.955933 0.661665
O O5 0.411724 0.772795 0.379663
O O6 0.788348 0.710194 0.336598
O O7 0.599703 0.768820 0.157989
O O8 0.500000 0.500000 0.500000
O O9 0.129402 0.836633 0.610875
O O10 0.771139 0.278930 0.185366
O O11 0.584380 0.231354 0.013345
O O12 0.000000 0.000000 0.000000
O O13 0.926101 0.385352 0.316471
O O14 0.190123 0.048197 0.172738
O O15 0.000000 0.500000 0.500000
O O16 0.500000 0.000000 0.000000
#
# Coordination Sequence:
#
# PCOD9011781 Si02
#       7
#     2   2   2   2   2   2   2
#     4  11  22  43  69  97 136 178 225 278 336 401
#     4  12  24  39  73 100 134 182 230 262 353 400
#     4  11  22  41  66  99 141 169 218 286 339 407
#     4   9  20  40  71  92 130 180 220 282 330 383
#     4  10  21  40  67  92 135 177 208 286 344 373
#     4  12  23  41  66 100 140 171 224 278 332 412
#     4  11  21  43  68  96 133 178 234 279 320 406
#
# _framework density 21.973051000000002
#
# number of rings (size 3 to 8) (size 9 to 14) (size 15 to 20)
#    0.000    1.143    5.714    0.429    0.000    0.571 
#    0.000    9.286    0.000    0.000    0.000    0.000 
#    0.000    0.000    0.000    0.000    0.000    0.000 
#
# Total GULP energy -78015.990877 kJ/mol
# GULP energy per Si atom -5572.570777 kJ/mol
# Density = 2.192304 g / cm^3
# Si number density = 21.973051 Si / 1000 Ang^3
#
#
#
# Elastic Constant Matrix: (Units=GPa)
#
#
# Indices 1 2 3 4 5 6 
#
# 1 83.1975 12.4094 44.4554 -2.2508 14.5454 5.3521
# 2 12.4094 40.4763 29.6679 1.2571 0.2210 -2.2439
# 3 44.4554 29.6679 133.9682 -10.8458 -1.0860 1.7294
# 4 -2.2508 1.2571 -10.8458 24.6812 1.7665 5.8900
# 5 14.5454 0.2210 -1.0860 1.7665 74.2120 10.9656
# 6 5.3521 -2.2439 1.7294 5.8900 10.9656 41.5562
#
#
#
# Elastic Compliance Matrix: (Units=1/GPa)
#
#
# Indices 1 2 3 4 5 6 
#
# 1 0.015367 -0.001179 -0.004866 -0.000220 -0.002921 -0.001038
# 2 -0.001179 0.030384 -0.006808 -0.005320 -0.000261 0.002899
# 3 -0.004866 -0.006808 0.011013 0.004947 0.001197 -0.001216
# 4 -0.000220 -0.005320 0.004947 0.044559 0.000076 -0.006800
# 5 -0.002921 -0.000261 0.001197 0.000076 0.014588 -0.003548
# 6 -0.001038 0.002899 -0.001216 -0.006800 -0.003548 0.026305
#
#
# Mechanical properties :
#
#
# Convention : Reuss Voigt Hill
#
# Bulk Modulus (GPa) = 32.19786 47.85636 40.02711
# Shear Modulus (GPa) = 28.04652 39.49718 33.77185
#
# Velocity S-wave (km/s) = 3.57656 4.24433 3.92467
# Velocity P-wave (km/s) = 5.63390 6.77096 6.22843
#
# Compressibility (1/GPa) = 0.03105797
#
# Stress axis : x y z
#
# Youngs Moduli (GPa) = 65.07340 32.91156 90.80363
#
# Poissons Ratio (x) = 0.03881 0.44188
# Poissons Ratio (y) = 0.07674 0.61816
# Poissons Ratio (z) = 0.31667 0.22405
#
# Static dielectric constant tensor:
#      x y z
#    x 1.858040 -0.047330 0.010360 
#    y -0.047330 1.836570 0.009900 
#    z 0.010360 0.009900 1.881810 
# 
# From -- ./inp_files/378620.got.cif
#   From: 2010.05.17/outbox.cif.g08.bks.cpg/sg2_190_cif.got.tgz:378620.got - 2010.06.03 11:33:40.
