data_PCOD9011850
_publ_section_title
;
Structure prediction by ZEFSAII (Michael W. Deem and Ramdas Pophale) SiO2 
 PCOD9011850
Probable space group: P -1
;
_chemical_formula_sum "Si O2"
_cell_formula_units_Z 15
_cell_length_a 9.714500
_cell_length_b 8.906161
_cell_length_c 9.365807
_cell_angle_alpha 101.663524
_cell_angle_beta 115.203451
_cell_angle_gamma 47.425930
_cell_volume 535.405851
_symmetry_space_group_name_H-M "P -1"
_symmetry_group_IT_number 2
_symmetry_cell_setting 'triclinic'
loop_
_space_group_symop_operation_xyz
x,y,z
-x,-y,-z
loop_
_atom_site_type_symbol
_atom_site_label
_atom_site_fract_x
_atom_site_fract_y
_atom_site_fract_z
Si Si1 0.338815 0.816090 0.823332
Si Si2 0.688683 0.711107 0.109789
Si Si3 0.358563 0.216073 0.568405
Si Si4 0.380165 0.509813 0.582595
Si Si5 0.000000 0.000000 0.500000
Si Si6 0.021281 0.288980 0.612525
Si Si7 0.139486 0.738355 0.957796
Si Si8 0.787375 0.097979 0.734064
O O1 0.427992 0.601617 0.749785
O O2 0.240501 0.808318 0.920987
O O3 0.177041 0.002976 0.677381
O O4 0.510123 0.826566 0.935986
O O5 0.592701 0.801454 0.239950
O O6 0.888868 0.684357 0.202614
O O7 0.765859 0.484239 0.089325
O O8 0.222199 0.451226 0.469385
O O9 0.145948 0.261852 0.524599
O O10 0.500000 0.000000 0.500000
O O11 0.500000 0.500000 0.500000
O O12 0.543308 0.254506 0.640621
O O13 0.140984 0.740478 0.508368
O O14 0.108214 0.976421 0.385010
O O15 0.163587 0.775725 0.137993
O O16 0.901628 0.896852 0.841557
#
# Coordination Sequence:
#
# PCOD9011850 Si02
#       8
#     2   2   2   2   1   2   2   2
#     4  11  17  33  51  73 104 127 169 196 240 291
#     4  10  17  29  54  76  97 128 156 211 248 291
#     4   8  15  28  48  75  96 130 149 199 250 290
#     4   9  15  29  49  72 105 129 152 195 252 303
#     4  10  24  32  50  74  92 136 170 212 238 274
#     4   9  18  31  50  70  99 127 170 203 244 279
#     4  11  16  29  49  84 104 127 153 201 248 302
#     4   9  18  25  48  84 108 125 151 188 267 299
#
# _framework density 28.016131000000001
#
# number of rings (size 3 to 8) (size 9 to 14) (size 15 to 20)
#    1.600    0.800    4.000    0.800    0.000    0.533 
#    0.000    0.667    0.000    3.200    0.000    2.800 
#    0.000    0.000    0.000    0.000    0.000    0.000 
#
# Total GULP energy -83670.531469 kJ/mol
# GULP energy per Si atom -5578.035431 kJ/mol
# Density = 2.795236 g / cm^3
# Si number density = 28.016131 Si / 1000 Ang^3
#
#
#
# Elastic Constant Matrix: (Units=GPa)
#
#
# Indices 1 2 3 4 5 6 
#
# 1 189.2711 77.4220 82.8732 1.5274 26.1825 -20.3454
# 2 77.4220 197.7417 89.2878 21.0503 31.7452 -26.5392
# 3 82.8732 89.2878 209.8084 21.2268 43.3363 -21.5274
# 4 1.5274 21.0503 21.2268 59.3613 -16.4343 17.9903
# 5 26.1825 31.7452 43.3363 -16.4343 70.4926 1.0383
# 6 -20.3454 -26.5392 -21.5274 17.9903 1.0383 86.2851
#
#
#
# Elastic Compliance Matrix: (Units=1/GPa)
#
#
# Indices 1 2 3 4 5 6 
#
# 1 0.006976 -0.001842 -0.001958 0.000961 -0.000339 0.000394
# 2 -0.001842 0.007508 -0.001281 -0.003642 -0.002793 0.002348
# 3 -0.001958 -0.001281 0.007573 -0.003976 -0.004306 0.001914
# 4 0.000961 -0.003642 -0.003976 0.024306 0.009498 -0.007067
# 5 -0.000339 -0.002793 -0.004306 0.009498 0.020494 -0.004240
# 6 0.000394 0.002348 0.001914 -0.007067 -0.004240 0.014407
#
#
# Mechanical properties :
#
#
# Convention : Reuss Voigt Hill
#
# Bulk Modulus (GPa) = 84.07678 121.77635 102.92657
# Shear Modulus (GPa) = 52.41572 66.37700 59.39636
#
# Velocity S-wave (km/s) = 4.33010 4.87277 4.60942
# Velocity P-wave (km/s) = 7.42125 8.67291 8.07138
#
# Compressibility (1/GPa) = 0.01189389
#
# Stress axis : x y z
#
# Youngs Moduli (GPa) = 143.35220 133.18985 132.04445
#
# Poissons Ratio (x) = 0.24534 0.25857
# Poissons Ratio (y) = 0.26406 0.16920
# Poissons Ratio (z) = 0.28072 0.17067
#
# Static dielectric constant tensor:
#      x y z
#    x 2.306580 0.117500 0.129910 
#    y 0.117500 2.960010 -0.078590 
#    z 0.129910 -0.078590 2.177820 
# 
# From -- ./inp_files/240590.got.cif
#   From: 2010.05.17/outbox.cif.g08.bks.cpg/sg2_121_cif.got.tgz:240590.got - 2010.06.03 11:33:40.
