data_PCOD9011665
_publ_section_title
;
Structure prediction by ZEFSAII (Michael W. Deem and Ramdas Pophale) SiO2 
 PCOD9011665
Probable space group: P -1
;
_chemical_formula_sum "Si O2"
_cell_formula_units_Z 15
_cell_length_a 20.181767
_cell_length_b 5.145165
_cell_length_c 5.617952
_cell_angle_alpha 83.379168
_cell_angle_beta 100.516899
_cell_angle_gamma 73.442846
_cell_volume 541.044619
_symmetry_space_group_name_H-M "P -1"
_symmetry_group_IT_number 2
_symmetry_cell_setting 'triclinic'
loop_
_space_group_symop_operation_xyz
x,y,z
-x,-y,-z
loop_
_atom_site_type_symbol
_atom_site_label
_atom_site_fract_x
_atom_site_fract_y
_atom_site_fract_z
Si Si1 0.137568 0.122161 0.389340
Si Si2 0.590790 0.811754 0.470123
Si Si3 0.686468 0.183827 0.578472
Si Si4 0.555228 0.661704 0.963480
Si Si5 0.718265 0.268809 0.087281
Si Si6 0.000000 0.500000 0.000000
Si Si7 0.164575 0.594345 0.114769
Si Si8 0.057411 0.984368 0.738243
O O1 0.126509 0.035109 0.659344
O O2 0.059207 0.334037 0.259474
O O3 0.153618 0.855210 0.255649
O O4 0.180284 0.326626 0.313394
O O5 0.654221 0.517052 0.537116
O O6 0.546198 0.778587 0.676256
O O7 0.624126 0.052955 0.512143
O O8 0.557673 0.840319 0.181480
O O9 0.732606 0.132610 0.371683
O O10 0.717938 0.089155 0.870396
O O11 0.500000 0.500000 0.000000
O O12 0.636151 0.455140 0.032500
O O13 0.772188 0.430069 0.026364
O O14 0.973648 0.780817 0.120548
O O15 0.088958 0.676732 0.910661
O O16 0.000000 0.000000 0.500000
#
# Coordination Sequence:
#
# PCOD9011665 Si02
#       8
#     2   2   2   2   2   1   2   2
#     4  11  24  44  71 102 142 188 237 299 370 440
#     4  10  21  40  66  99 133 178 231 292 358 431
#     4  10  22  42  69  94 136 183 232 291 361 425
#     4  10  21  42  70 104 141 188 241 303 367 436
#     4  10  24  46  67 103 143 190 242 307 364 448
#     4  10  22  44  68 108 138 184 238 302 364 448
#     4  11  27  44  68 106 142 189 250 298 373 449
#     4  11  24  46  76 106 149 193 246 311 379 451
#
# _framework density 27.724148
#
# number of rings (size 3 to 8) (size 9 to 14) (size 15 to 20)
#    0.000    1.600    0.000    3.200    1.867    9.600 
#    0.000   18.000    2.933    0.000    0.000    0.000 
#    0.000    0.000    0.000    0.000    0.000    0.000 
#
# Total GULP energy -83876.917216 kJ/mol
# GULP energy per Si atom -5591.794481 kJ/mol
# Density = 2.766105 g / cm^3
# Si number density = 27.724148 Si / 1000 Ang^3
#
#
#
# Elastic Constant Matrix: (Units=GPa)
#
#
# Indices 1 2 3 4 5 6 
#
# 1 117.5527 24.3772 48.1431 0.0715 -41.8521 -1.4316
# 2 24.3772 122.8190 50.8413 -24.1610 -1.7065 -9.9934
# 3 48.1431 50.8413 221.7156 -8.7187 -18.9593 5.3797
# 4 0.0715 -24.1610 -8.7187 55.4916 9.6053 -1.7575
# 5 -41.8521 -1.7065 -18.9593 9.6053 67.9544 2.9535
# 6 -1.4316 -9.9934 5.3797 -1.7575 2.9535 42.6783
#
#
#
# Elastic Compliance Matrix: (Units=1/GPa)
#
#
# Indices 1 2 3 4 5 6 
#
# 1 0.012263 -0.002205 -0.001609 -0.002531 0.007429 -0.000520
# 2 -0.002205 0.010586 -0.002044 0.004815 -0.002475 0.003032
# 3 -0.001609 -0.002044 0.005399 -0.000174 0.000543 -0.001258
# 4 -0.002531 0.004815 -0.000174 0.020951 -0.004545 0.002242
# 5 0.007429 -0.002475 0.000543 -0.004545 0.020109 -0.001978
# 6 -0.000520 0.003032 -0.001258 0.002242 -0.001978 0.024511
#
#
# Mechanical properties :
#
#
# Convention : Reuss Voigt Hill
#
# Bulk Modulus (GPa) = 60.49388 78.75672 69.62530
# Shear Modulus (GPa) = 45.02686 55.80658 50.41672
#
# Velocity S-wave (km/s) = 4.03439 4.49143 4.26903
# Velocity P-wave (km/s) = 6.60068 7.44084 7.03332
#
# Compressibility (1/GPa) = 0.01653060
#
# Stress axis : x y z
#
# Youngs Moduli (GPa) = 81.54616 94.46856 185.23447
#
# Poissons Ratio (x) = 0.20831 0.29800
# Poissons Ratio (y) = 0.17981 0.37870
# Poissons Ratio (z) = 0.13119 0.19313
#
# Static dielectric constant tensor:
#      x y z
#    x 2.254340 -0.139880 0.116820 
#    y -0.139880 2.158540 -0.188750 
#    z 0.116820 -0.188750 2.334280 
# 
# From -- ./inp_files/114547.got.cif
#   From: 2010.05.17/outbox.cif.g08.bks.cpg/sg2_58_cif.got.tgz:114547.got - 2010.06.03 11:33:40.
