data_PCOD9011072
_publ_section_title
;
Structure prediction by ZEFSAII (Michael W. Deem and Ramdas Pophale) SiO2 
 PCOD9011072
Probable space group: P -1
;
_chemical_formula_sum "Si O2"
_cell_formula_units_Z 16
_cell_length_a 11.111707
_cell_length_b 17.483395
_cell_length_c 19.414927
_cell_angle_alpha 22.779747
_cell_angle_beta 147.087860
_cell_angle_gamma 136.927033
_cell_volume 776.322703
_symmetry_space_group_name_H-M "P -1"
_symmetry_group_IT_number 2
_symmetry_cell_setting 'triclinic'
loop_
_space_group_symop_operation_xyz
x,y,z
-x,-y,-z
loop_
_atom_site_type_symbol
_atom_site_label
_atom_site_fract_x
_atom_site_fract_y
_atom_site_fract_z
Si Si1 0.690964 0.888788 0.734987
Si Si2 0.602590 0.375446 0.800099
Si Si3 0.311903 0.261237 0.992409
Si Si4 0.165665 0.327830 0.394651
Si Si5 0.170618 0.452959 0.444476
Si Si6 0.665968 0.460892 0.045429
Si Si7 0.546272 0.929315 0.919945
Si Si8 0.834015 0.994729 0.134570
O O1 0.618135 0.865088 0.798815
O O2 0.500000 0.000000 0.500000
O O3 0.752032 0.668540 0.912265
O O4 0.908883 0.984759 0.764366
O O5 0.770485 0.531250 0.752762
O O6 0.376939 0.495919 0.552974
O O7 0.530715 0.270183 0.921272
O O8 0.704631 0.178565 0.966152
O O9 0.499008 0.400576 0.959350
O O10 0.323209 0.127599 0.041319
O O11 0.065384 0.399227 0.773316
O O12 0.206999 0.449336 0.383249
O O13 0.904735 0.304305 0.293103
O O14 0.332718 0.111339 0.655082
O O15 0.164596 0.221523 0.651490
O O16 0.500000 0.500000 0.000000
O O17 0.707383 0.996518 0.999484
#
# Coordination Sequence:
#
# PCOD9011072 Si02
#       8
#     2   2   2   2   2   2   2   2
#     4  11  23  39  66  98 124 169 228 274 314 397
#     4  11  22  39  66 102 130 174 223 267 325 393
#     4  11  25  44  62  98 134 178 215 271 339 383
#     4  12  21  40  70  94 128 175 222 269 321 391
#     4  11  20  39  68  92 133 171 219 273 322 388
#     4  10  21  40  65  90 122 172 220 264 323 382
#     4  11  26  43  64 100 143 169 212 276 341 388
#     4  11  21  39  68 102 128 169 225 275 323 389
#
# _framework density 20.609987
#
# number of rings (size 3 to 8) (size 9 to 14) (size 15 to 20)
#    0.000    1.000    6.250    1.875    3.500    3.000 
#    4.500    0.625    0.000    0.000    0.000    0.000 
#    0.000    0.000    0.000    0.000    0.000    0.000 
#
# Total GULP energy -89318.088622 kJ/mol
# GULP energy per Si atom -5582.380539 kJ/mol
# Density = 2.056308 g / cm^3
# Si number density = 20.609987 Si / 1000 Ang^3
#
#
#
# Elastic Constant Matrix: (Units=GPa)
#
#
# Indices 1 2 3 4 5 6 
#
# 1 79.2681 22.7244 37.3411 11.5976 0.1262 -2.3252
# 2 22.7244 47.2402 9.5188 11.4450 1.4053 19.2077
# 3 37.3411 9.5188 110.4930 21.3353 10.4368 1.0124
# 4 11.5976 11.4450 21.3353 15.8887 4.9107 4.6731
# 5 0.1262 1.4053 10.4368 4.9107 23.9161 0.4274
# 6 -2.3252 19.2077 1.0124 4.6731 0.4274 39.1925
#
#
#
# Elastic Compliance Matrix: (Units=1/GPa)
#
#
# Indices 1 2 3 4 5 6 
#
# 1 0.018471 -0.010015 -0.005367 -0.001885 0.003107 0.006334
# 2 -0.010015 0.036593 0.004212 -0.020072 0.000476 -0.016248
# 3 -0.005367 0.004212 0.014036 -0.016871 -0.002868 -0.000702
# 4 -0.001885 -0.020072 -0.016871 0.106204 -0.013213 -0.002358
# 5 0.003107 0.000476 -0.002868 -0.013213 0.045713 0.001102
# 6 0.006334 -0.016248 -0.000702 -0.002358 0.001102 0.034141
#
#
# Mechanical properties :
#
#
# Convention : Reuss Voigt Hill
#
# Bulk Modulus (GPa) = 21.38596 41.79668 31.59132
# Shear Modulus (GPa) = 17.05982 26.96061 22.01021
#
# Velocity S-wave (km/s) = 2.88018 3.62074 3.27148
# Velocity P-wave (km/s) = 4.63245 6.14845 5.44349
#
# Compressibility (1/GPa) = 0.04675966
#
# Stress axis : x y z
#
# Youngs Moduli (GPa) = 54.13760 27.32783 71.24333
#
# Poissons Ratio (x) = 0.27369 0.38238
# Poissons Ratio (y) = 0.54219 -0.30007
# Poissons Ratio (z) = 0.29057 -0.11510
#
# Static dielectric constant tensor:
#      x y z
#    x 1.791610 0.063260 -0.012490 
#    y 0.063260 1.782570 0.011280 
#    z -0.012490 0.011280 1.783070 
# 
# From -- ./inp_files/282958.got.cif
#   From: 2010.05.17/outbox.cif.g08.bks.cpg/sg2_142_cif.got.tgz:282958.got - 2010.06.03 11:33:40.
