data_PCOD9011294
_publ_section_title
;
Structure prediction by ZEFSAII (Michael W. Deem and Ramdas Pophale) SiO2 
 PCOD9011294
Probable space group: P -1
;
_chemical_formula_sum "Si O2"
_cell_formula_units_Z 16
_cell_length_a 13.770599
_cell_length_b 8.097680
_cell_length_c 8.105583
_cell_angle_alpha 106.000182
_cell_angle_beta 70.824577
_cell_angle_gamma 134.114107
_cell_volume 611.447407
_symmetry_space_group_name_H-M "P -1"
_symmetry_group_IT_number 2
_symmetry_cell_setting 'triclinic'
loop_
_space_group_symop_operation_xyz
x,y,z
-x,-y,-z
loop_
_atom_site_type_symbol
_atom_site_label
_atom_site_fract_x
_atom_site_fract_y
_atom_site_fract_z
Si Si1 0.050761 0.768518 0.374214
Si Si2 0.218222 0.672579 0.066963
Si Si3 0.102772 0.271171 0.833616
Si Si4 0.595517 0.813445 0.961248
Si Si5 0.169485 0.017012 0.897749
Si Si6 0.768803 0.448270 0.630320
Si Si7 0.454432 0.559154 0.307535
Si Si8 0.298328 0.997579 0.536254
O O1 0.984714 0.840040 0.314285
O O2 0.924188 0.588914 0.518583
O O3 0.096683 0.665801 0.195119
O O4 0.190797 0.952327 0.449312
O O5 0.229336 0.544552 0.170476
O O6 0.352484 0.941887 0.050886
O O7 0.191073 0.541837 0.877076
O O8 0.187066 0.199062 0.818472
O O9 0.986147 0.165457 0.009767
O O10 0.540167 0.635463 0.794827
O O11 0.733308 0.869564 0.966704
O O12 0.501295 0.699061 0.144558
O O13 0.217299 0.912521 0.732033
O O14 0.696215 0.528395 0.606571
O O15 0.681598 0.178624 0.567053
O O16 0.562885 0.742923 0.433580
#
# Coordination Sequence:
#
# PCOD9011294 Si02
#       8
#     2   2   2   2   2   2   2   2
#     4  11  23  40  67 104 136 171 217 275 340 399
#     4  11  22  41  68 102 130 176 229 277 333 391
#     4  11  22  37  68 103 131 173 222 281 332 394
#     4  10  22  42  71  95 129 177 232 282 325 389
#     4  10  21  40  65  96 139 169 221 277 337 390
#     4  11  23  42  68 100 141 172 217 276 340 404
#     4  10  23  44  69  93 135 182 224 275 333 393
#     4  10  22  42  66  94 134 183 211 267 340 399
#
# _framework density 26.167418999999999
#
# number of rings (size 3 to 8) (size 9 to 14) (size 15 to 20)
#    0.000    1.500    1.250    4.500    3.500    2.000 
#    4.500    2.500    5.500    0.000    0.000    0.000 
#    0.000    0.000    0.000    0.000    0.000    0.000 
#
# Total GULP energy -89552.492580 kJ/mol
# GULP energy per Si atom -5597.030786 kJ/mol
# Density = 2.610786 g / cm^3
# Si number density = 26.167419 Si / 1000 Ang^3
#
#
#
# Elastic Constant Matrix: (Units=GPa)
#
#
# Indices 1 2 3 4 5 6 
#
# 1 104.0360 29.7931 13.5814 14.9963 17.2527 13.5454
# 2 29.7931 88.6276 29.6512 11.8149 9.0740 7.0492
# 3 13.5814 29.6512 76.0278 27.5023 13.6217 -1.7440
# 4 14.9963 11.8149 27.5023 47.4875 8.9727 10.3231
# 5 17.2527 9.0740 13.6217 8.9727 38.0148 -5.3848
# 6 13.5454 7.0492 -1.7440 10.3231 -5.3848 28.3528
#
#
#
# Elastic Compliance Matrix: (Units=1/GPa)
#
#
# Indices 1 2 3 4 5 6 
#
# 1 0.012259 -0.003033 0.000179 -0.000918 -0.005509 -0.005804
# 2 -0.003033 0.014273 -0.005450 0.001398 -0.000848 -0.003105
# 3 0.000179 -0.005450 0.019808 -0.011030 -0.002419 0.006044
# 4 -0.000918 0.001398 -0.011030 0.031168 -0.005151 -0.012914
# 5 -0.005509 -0.000848 -0.002419 -0.005151 0.032615 0.010764
# 6 -0.005804 -0.003105 0.006044 -0.012914 0.010764 0.045933
#
#
# Mechanical properties :
#
#
# Convention : Reuss Voigt Hill
#
# Bulk Modulus (GPa) = 33.63298 46.08252 39.85775
# Shear Modulus (GPa) = 27.38591 35.81540 31.60065
#
# Velocity S-wave (km/s) = 3.23858 3.70361 3.47887
# Velocity P-wave (km/s) = 5.18318 5.99482 5.60372
#
# Compressibility (1/GPa) = 0.02973272
#
# Stress axis : x y z
#
# Youngs Moduli (GPa) = 81.57454 70.06050 50.48343
#
# Poissons Ratio (x) = 0.21247 -0.00903
# Poissons Ratio (y) = 0.24739 0.27514
# Poissons Ratio (z) = -0.01459 0.38183
#
# Static dielectric constant tensor:
#      x y z
#    x 2.045150 -0.016510 0.020310 
#    y -0.016510 2.111160 -0.013750 
#    z 0.020310 -0.013750 2.049360 
# 
# From -- ./inp_files/299146.got.cif
#   From: 2010.05.17/outbox.cif.g08.bks.cpg/sg2_150_cif.got.tgz:299146.got - 2010.06.03 11:33:40.
