data_PCOD9011064
_publ_section_title
;
Structure prediction by ZEFSAII (Michael W. Deem and Ramdas Pophale) SiO2 
 PCOD9011064
Probable space group: P -1
;
_chemical_formula_sum "Si O2"
_cell_formula_units_Z 10
_cell_length_a 9.534147
_cell_length_b 9.101539
_cell_length_c 7.411515
_cell_angle_alpha 90.176614
_cell_angle_beta 112.644648
_cell_angle_gamma 47.123650
_cell_volume 401.845023
_symmetry_space_group_name_H-M "P -1"
_symmetry_group_IT_number 2
_symmetry_cell_setting 'triclinic'
loop_
_space_group_symop_operation_xyz
x,y,z
-x,-y,-z
loop_
_atom_site_type_symbol
_atom_site_label
_atom_site_fract_x
_atom_site_fract_y
_atom_site_fract_z
Si Si1 0.761265 0.247127 0.342438
Si Si2 0.982862 0.227722 0.155580
Si Si3 0.615737 0.706160 0.891019
Si Si4 0.314342 0.018509 0.040968
Si Si5 0.982595 0.683128 0.452025
O O1 0.559090 0.283146 0.283217
O O2 0.785706 0.387476 0.452485
O O3 0.785564 0.266626 0.140697
O O4 0.000000 0.000000 0.500000
O O5 0.105066 0.192953 0.398742
O O6 0.855587 0.457483 0.007212
O O7 0.159909 0.040592 0.102496
O O8 0.525439 0.789334 0.053871
O O9 0.623404 0.870000 0.833897
O O10 0.165190 0.170138 0.792627
O O11 0.000000 0.500000 0.500000
#
# Coordination Sequence:
#
# PCOD9011064 Si02
#       5
#     2   2   2   2   2
#     4  10  21  42  63  91 134 159 204 272 306 360
#     4  10  23  39  67  90 125 168 208 254 311 378
#     4  11  21  39  66  94 125 163 211 260 308 370
#     4  11  22  41  66  92 126 167 208 254 315 375
#     4  10  21  40  65  89 129 165 201 262 311 363
#
# _framework density 24.885214999999999
#
# number of rings (size 3 to 8) (size 9 to 14) (size 15 to 20)
#    1.200    0.400    4.000    1.200    0.000    0.800 
#    0.000   14.000    0.000    0.000    0.000    0.000 
#    0.000    0.000    0.000    0.000    0.000    0.000 
#
# Total GULP energy -55751.393887 kJ/mol
# GULP energy per Si atom -5575.139389 kJ/mol
# Density = 2.482858 g / cm^3
# Si number density = 24.885215 Si / 1000 Ang^3
#
#
#
# Elastic Constant Matrix: (Units=GPa)
#
#
# Indices 1 2 3 4 5 6 
#
# 1 92.6103 0.5672 30.8052 5.4513 38.6205 11.7165
# 2 0.5672 61.3047 -0.6529 4.8789 2.9672 -8.5129
# 3 30.8052 -0.6529 89.5489 2.0180 20.7105 4.1371
# 4 5.4513 4.8789 2.0180 22.1425 4.4099 -1.0229
# 5 38.6205 2.9672 20.7105 4.4099 41.2937 4.8475
# 6 11.7165 -8.5129 4.1371 -1.0229 4.8475 43.8435
#
#
#
# Elastic Compliance Matrix: (Units=1/GPa)
#
#
# Indices 1 2 3 4 5 6 
#
# 1 0.018658 0.000255 -0.002627 -0.001432 -0.015647 -0.002992
# 2 0.000255 0.017126 0.000346 -0.003381 -0.001673 0.003330
# 3 -0.002627 0.000346 0.013022 0.000204 -0.004120 0.000001
# 4 -0.001432 -0.003381 0.000204 0.047031 -0.003685 0.001212
# 5 -0.015647 -0.001673 -0.004120 -0.003685 0.041481 -0.000427
# 6 -0.002992 0.003330 0.000001 0.001212 -0.000427 0.024330
#
#
# Mechanical properties :
#
#
# Convention : Reuss Voigt Hill
#
# Bulk Modulus (GPa) = 22.34444 33.87810 28.11127
# Shear Modulus (GPa) = 27.68283 35.63891 31.66087
#
# Velocity S-wave (km/s) = 3.33892 3.78846 3.57077
# Velocity P-wave (km/s) = 4.88497 5.72537 5.32179
#
# Compressibility (1/GPa) = 0.04475387
#
# Stress axis : x y z
#
# Youngs Moduli (GPa) = 53.59572 58.39149 76.79458
#
# Poissons Ratio (x) = -0.01490 0.20177
# Poissons Ratio (y) = -0.01368 -0.02659
# Poissons Ratio (z) = 0.14082 -0.02022
#
# Static dielectric constant tensor:
#      x y z
#    x 2.182250 0.089890 0.016180 
#    y 0.089890 1.988360 -0.005770 
#    z 0.016180 -0.005770 2.017170 
# 
# From -- ./inp_files/161792.got.cif
#   From: 2010.05.17/outbox.cif.g08.bks.cpg/sg2_81_cif.got.tgz:161792.got - 2010.06.03 11:33:40.
