data_PCOD9011257
_publ_section_title
;
Structure prediction by ZEFSAII (Michael W. Deem and Ramdas Pophale) SiO2 
 PCOD9011257
Probable space group: P -1
;
_chemical_formula_sum "Si O2"
_cell_formula_units_Z 15
_cell_length_a 17.291497
_cell_length_b 11.901214
_cell_length_c 7.067969
_cell_angle_alpha 121.076193
_cell_angle_beta 46.437064
_cell_angle_gamma 135.572912
_cell_volume 736.950726
_symmetry_space_group_name_H-M "P -1"
_symmetry_group_IT_number 2
_symmetry_cell_setting 'triclinic'
loop_
_space_group_symop_operation_xyz
x,y,z
-x,-y,-z
loop_
_atom_site_type_symbol
_atom_site_label
_atom_site_fract_x
_atom_site_fract_y
_atom_site_fract_z
Si Si1 0.753073 0.664050 0.307908
Si Si2 0.655821 0.604504 0.844131
Si Si3 0.736777 0.884278 0.241191
Si Si4 0.000000 0.500000 0.000000
Si Si5 0.173381 0.714022 0.251485
Si Si6 0.960535 0.251427 0.143512
Si Si7 0.592557 0.941053 0.814144
Si Si8 0.357068 0.615014 0.022735
O O1 0.720154 0.648806 0.569449
O O2 0.757757 0.807213 0.322359
O O3 0.648168 0.497805 0.232242
O O4 0.892308 0.695472 0.067294
O O5 0.689394 0.495293 0.808728
O O6 0.500000 0.500000 0.000000
O O7 0.700533 0.760529 0.027300
O O8 0.625132 0.903947 0.520631
O O9 0.862647 0.058917 0.132036
O O10 0.062624 0.666804 0.918647
O O11 0.900988 0.398695 0.898126
O O12 0.071651 0.698928 0.562200
O O13 0.261606 0.665234 0.164639
O O14 0.272174 0.904330 0.199948
O O15 0.504563 0.774272 0.931051
O O16 0.500000 0.000000 0.000000
#
# Coordination Sequence:
#
# PCOD9011257 Si02
#       8
#     2   2   2   1   2   2   2   2
#     4  11  23  40  65  93 129 176 214 263 321 384
#     4  11  24  39  65  97 128 169 218 269 317 387
#     4  10  23  43  64  93 132 169 212 266 325 380
#     4  12  24  38  66  94 132 166 218 262 320 382
#     4  10  23  42  64  95 131 172 211 272 323 381
#     4  11  25  41  64  94 130 171 217 268 322 384
#     4   9  19  40  68  92 125 170 208 260 327 383
#     4  10  21  40  65  95 132 167 215 264 326 380
#
# _framework density 20.354140999999998
#
# number of rings (size 3 to 8) (size 9 to 14) (size 15 to 20)
#    0.000    1.600    1.333    2.400    1.867    6.933 
#    0.000    0.000    0.000   11.200    0.000    0.000 
#    0.000    0.000    0.000    0.000    0.000    0.000 
#
# Total GULP energy -83550.650380 kJ/mol
# GULP energy per Si atom -5570.043359 kJ/mol
# Density = 2.030781 g / cm^3
# Si number density = 20.354141 Si / 1000 Ang^3
#
#
#
# Elastic Constant Matrix: (Units=GPa)
#
#
# Indices 1 2 3 4 5 6 
#
# 1 91.1030 53.2272 64.6107 -3.0698 17.1021 -0.5278
# 2 53.2272 180.1815 65.3536 -4.2594 17.6179 -8.1562
# 3 64.6107 65.3536 106.6388 -8.3410 1.8238 -3.1818
# 4 -3.0698 -4.2594 -8.3410 19.4449 0.9116 -2.1924
# 5 17.1021 17.6179 1.8238 0.9116 32.2228 -3.7341
# 6 -0.5278 -8.1562 -3.1818 -2.1924 -3.7341 23.7211
#
#
#
# Elastic Compliance Matrix: (Units=1/GPa)
#
#
# Indices 1 2 3 4 5 6 
#
# 1 0.023198 -0.001071 -0.013489 -0.002239 -0.011323 -0.003651
# 2 -0.001071 0.007691 -0.003949 0.000153 -0.003232 0.001596
# 3 -0.013489 -0.003949 0.020359 0.005675 0.008343 0.002911
# 4 -0.002239 0.000153 0.005675 0.054195 -0.000082 0.005760
# 5 -0.011323 -0.003232 0.008343 -0.000082 0.039023 0.005891
# 6 -0.003651 0.001596 0.002911 0.005760 0.005891 0.044474
#
#
# Mechanical properties :
#
#
# Convention : Reuss Voigt Hill
#
# Bulk Modulus (GPa) = 70.28459 82.70068 76.49264
# Shear Modulus (GPa) = 21.67293 28.05990 24.86642
#
# Velocity S-wave (km/s) = 3.26666 3.71696 3.49906
# Velocity P-wave (km/s) = 6.98812 7.69026 7.34758
#
# Compressibility (1/GPa) = 0.01422787
#
# Stress axis : x y z
#
# Youngs Moduli (GPa) = 43.10710 130.02527 49.11898
#
# Poissons Ratio (x) = 0.13930 0.66257
# Poissons Ratio (y) = 0.04618 0.19399
# Poissons Ratio (z) = 0.58148 0.51351
#
# Static dielectric constant tensor:
#      x y z
#    x 1.725120 -0.016290 -0.029780 
#    y -0.016290 1.762690 0.006730 
#    z -0.029780 0.006730 1.696440 
# 
# From -- ./inp_files/68296.got.cif
#   From: 2010.05.17/outbox.cif.g08.bks.cpg/sg2_35_cif.got.tgz:68296.got - 2010.06.03 11:33:40.
