data_PCOD9011093
_publ_section_title
;
Structure prediction by ZEFSAII (Michael W. Deem and Ramdas Pophale) SiO2 
 PCOD9011093
Probable space group: P -1
;
_chemical_formula_sum "Si O2"
_cell_formula_units_Z 10
_cell_length_a 5.132527
_cell_length_b 16.743278
_cell_length_c 6.698031
_cell_angle_alpha 71.926733
_cell_angle_beta 73.241763
_cell_angle_gamma 114.185724
_cell_volume 438.162919
_symmetry_space_group_name_H-M "P -1"
_symmetry_group_IT_number 2
_symmetry_cell_setting 'triclinic'
loop_
_space_group_symop_operation_xyz
x,y,z
-x,-y,-z
loop_
_atom_site_type_symbol
_atom_site_label
_atom_site_fract_x
_atom_site_fract_y
_atom_site_fract_z
Si Si1 0.847389 0.565685 0.973631
Si Si2 0.740155 0.212410 0.382757
Si Si3 0.870692 0.283835 0.870562
Si Si4 0.270241 0.192804 0.811893
Si Si5 0.890529 0.065474 0.366672
O O1 0.054043 0.667942 0.719729
O O2 0.500000 0.500000 0.000000
O O3 0.000000 0.500000 0.000000
O O4 0.882523 0.611386 0.153310
O O5 0.421842 0.163140 0.625514
O O6 0.952516 0.164268 0.392612
O O7 0.681554 0.210072 0.159136
O O8 0.590530 0.275024 0.804022
O O9 0.067437 0.241049 0.759323
O O10 0.050200 0.102995 0.084350
O O11 0.500000 0.000000 0.500000
O O12 0.000000 0.000000 0.500000
#
# Coordination Sequence:
#
# PCOD9011093 Si02
#       5
#     2   2   2   2   2
#     4  10  21  40  65  91 126 166 204 254 313 363
#     4   9  24  41  67  89 131 165 206 260 311 363
#     4   9  22  38  63  88 129 162 202 257 304 360
#     4  11  21  42  64  91 125 168 206 251 319 367
#     4  11  24  41  64  92 125 163 208 260 311 369
#
# _framework density 22.822562000000001
#
# number of rings (size 3 to 8) (size 9 to 14) (size 15 to 20)
#    1.200    0.800    0.000    3.600    0.000    8.000 
#    0.000    6.000    0.000    0.000    0.000    0.000 
#    0.000    0.000    0.000    0.000    0.000    0.000 
#
# Total GULP energy -55809.916910 kJ/mol
# GULP energy per Si atom -5580.991691 kJ/mol
# Density = 2.277062 g / cm^3
# Si number density = 22.822562 Si / 1000 Ang^3
#
#
#
# Elastic Constant Matrix: (Units=GPa)
#
#
# Indices 1 2 3 4 5 6 
#
# 1 129.6554 41.7412 30.8038 -13.8917 -23.5754 -25.1290
# 2 41.7412 89.2945 44.5964 -1.2591 5.0619 -33.3019
# 3 30.8038 44.5964 116.5414 15.7355 -17.1521 -22.9511
# 4 -13.8917 -1.2591 15.7355 45.3002 -6.4103 -2.1992
# 5 -23.5754 5.0619 -17.1521 -6.4103 22.6852 -0.2554
# 6 -25.1290 -33.3019 -22.9511 -2.1992 -0.2554 59.6598
#
#
#
# Elastic Compliance Matrix: (Units=1/GPa)
#
#
# Indices 1 2 3 4 5 6 
#
# 1 0.014771 -0.007731 0.001702 0.006737 0.020299 0.002897
# 2 -0.007731 0.021986 -0.007846 -0.001469 -0.019222 0.005862
# 3 0.001702 -0.007846 0.013729 -0.002519 0.013206 0.001582
# 4 0.006737 -0.001469 -0.002519 0.026924 0.013056 0.002096
# 5 0.020299 -0.019222 0.013206 0.013056 0.083182 0.003738
# 6 0.002897 0.005862 0.001582 0.002096 0.003738 0.021956
#
#
# Mechanical properties :
#
#
# Convention : Reuss Voigt Hill
#
# Bulk Modulus (GPa) = 43.98087 63.30822 53.64455
# Shear Modulus (GPa) = 22.94879 40.08572 31.51725
#
# Velocity S-wave (km/s) = 3.17445 4.19550 3.72017
# Velocity P-wave (km/s) = 5.72266 7.16025 6.48143
#
# Compressibility (1/GPa) = 0.02273716
#
# Stress axis : x y z
#
# Youngs Moduli (GPa) = 67.69871 45.48312 72.84113
#
# Poissons Ratio (x) = 0.35161 -0.12400
# Poissons Ratio (y) = 0.52335 0.57153
# Poissons Ratio (z) = -0.11525 0.35687
#
# Static dielectric constant tensor:
#      x y z
#    x 1.848700 0.069150 0.012370 
#    y 0.069150 1.937140 -0.001090 
#    z 0.012370 -0.001090 1.874350 
# 
# From -- ./inp_files/33986.got.cif
#   From: 2010.05.17/outbox.cif.g08.bks.cpg/sg2_17_cif.got.tgz:33986.got - 2010.06.03 11:33:40.
