data_PCOD9011244
_publ_section_title
;
Structure prediction by ZEFSAII (Michael W. Deem and Ramdas Pophale) SiO2 
 PCOD9011244
Probable space group: P -1
;
_chemical_formula_sum "Si O2"
_cell_formula_units_Z 16
_cell_length_a 17.940544
_cell_length_b 17.883680
_cell_length_c 6.486981
_cell_angle_alpha 133.864424
_cell_angle_beta 57.468739
_cell_angle_gamma 150.250739
_cell_volume 732.634788
_symmetry_space_group_name_H-M "P -1"
_symmetry_group_IT_number 2
_symmetry_cell_setting 'triclinic'
loop_
_space_group_symop_operation_xyz
x,y,z
-x,-y,-z
loop_
_atom_site_type_symbol
_atom_site_label
_atom_site_fract_x
_atom_site_fract_y
_atom_site_fract_z
Si Si1 0.946120 0.181324 0.749038
Si Si2 0.645022 0.066050 0.425770
Si Si3 0.424758 0.720457 0.346489
Si Si4 0.873250 0.444004 0.707347
Si Si5 0.979346 0.062869 0.831807
Si Si6 0.461758 0.583619 0.699835
Si Si7 0.159812 0.238105 0.282708
Si Si8 0.616992 0.887318 0.760382
O O1 0.954706 0.146251 0.906525
O O2 0.026915 0.178350 0.471867
O O3 0.767830 0.012582 0.643541
O O4 0.035063 0.374797 0.976379
O O5 0.789041 0.277219 0.655887
O O6 0.500000 0.000000 0.500000
O O7 0.578863 0.920720 0.406941
O O8 0.658374 0.024708 0.104435
O O9 0.269695 0.636564 0.358662
O O10 0.466911 0.756553 0.593268
O O11 0.421921 0.607287 0.014712
O O12 0.000000 0.500000 0.500000
O O13 0.854615 0.890744 0.841040
O O14 0.000000 0.000000 0.500000
O O15 0.128763 0.208530 0.030696
O O16 0.500000 0.500000 0.500000
O O17 0.311205 0.438923 0.508506
O O18 0.587515 0.765917 0.731714
#
# Coordination Sequence:
#
# PCOD9011244 Si02
#       8
#     2   2   2   2   2   2   2   2
#     4  11  22  40  63  95 134 164 217 270 323 380
#     4   9  21  42  64  86 128 167 214 269 328 380
#     4  10  24  44  67  92 134 173 216 269 326 388
#     4  11  21  42  69  93 126 172 218 277 328 381
#     4   9  21  38  65  92 128 168 207 265 319 375
#     4  11  24  41  66  97 136 174 215 263 320 392
#     4  10  21  40  65  95 128 171 222 256 322 388
#     4  11  24  41  65  97 131 175 216 266 330 388
#
# _framework density 21.838984
#
# number of rings (size 3 to 8) (size 9 to 14) (size 15 to 20)
#    0.000    1.750    2.500    0.750    1.750    7.500 
#    0.000    1.875    0.000    0.000    0.000    0.000 
#    0.000    0.000    0.000    0.000    0.000    0.000 
#
# Total GULP energy -89208.109548 kJ/mol
# GULP energy per Si atom -5575.506847 kJ/mol
# Density = 2.178928 g / cm^3
# Si number density = 21.838984 Si / 1000 Ang^3
#
#
#
# Elastic Constant Matrix: (Units=GPa)
#
#
# Indices 1 2 3 4 5 6 
#
# 1 77.9775 15.4455 44.4479 -4.6181 -3.0387 9.2410
# 2 15.4455 97.0191 22.1170 13.2496 -14.9565 12.8369
# 3 44.4479 22.1170 82.5741 10.6118 -9.2679 -11.0908
# 4 -4.6181 13.2496 10.6118 29.9947 -2.4640 -8.3152
# 5 -3.0387 -14.9565 -9.2679 -2.4640 36.5559 0.8924
# 6 9.2410 12.8369 -11.0908 -8.3152 0.8924 29.9993
#
#
#
# Elastic Compliance Matrix: (Units=1/GPa)
#
#
# Indices 1 2 3 4 5 6 
#
# 1 0.022628 0.000253 -0.014528 0.005396 -0.001068 -0.010922
# 2 0.000253 0.014077 -0.003766 -0.007134 0.004579 -0.009608
# 3 -0.014528 -0.003766 0.023671 -0.005030 0.002587 0.013367
# 4 0.005396 -0.007134 -0.005030 0.042120 -0.001181 0.011241
# 5 -0.001068 0.004579 0.002587 -0.001181 0.029763 -0.001886
# 6 -0.010922 -0.009608 0.013367 0.011241 -0.001886 0.048924
#
#
# Mechanical properties :
#
#
# Convention : Reuss Voigt Hill
#
# Bulk Modulus (GPa) = 41.16368 46.84350 44.00359
# Shear Modulus (GPa) = 22.18646 31.01399 26.60022
#
# Velocity S-wave (km/s) = 3.19079 3.77254 3.49379
# Velocity P-wave (km/s) = 5.69776 6.36177 6.03890
#
# Compressibility (1/GPa) = 0.02429326
#
# Stress axis : x y z
#
# Youngs Moduli (GPa) = 44.19396 71.03788 42.24496
#
# Poissons Ratio (x) = -0.01798 0.61374
# Poissons Ratio (y) = -0.01118 0.15911
# Poissons Ratio (z) = 0.64205 0.26755
#
# Static dielectric constant tensor:
#      x y z
#    x 1.857900 -0.056030 0.015690 
#    y -0.056030 1.829490 0.018500 
#    z 0.015690 0.018500 1.772860 
# 
# From -- ./inp_files/111709.got.cif
#   From: 2010.05.17/outbox.cif.g08.bks.cpg/sg2_56_cif.got.tgz:111709.got - 2010.06.03 11:33:40.
