data_PCOD9011631
_publ_section_title
;
Structure prediction by ZEFSAII (Michael W. Deem and Ramdas Pophale) SiO2 
 PCOD9011631
Probable space group: P -1
;
_chemical_formula_sum "Si O2"
_cell_formula_units_Z 16
_cell_length_a 7.812119
_cell_length_b 16.269404
_cell_length_c 5.212690
_cell_angle_alpha 101.542149
_cell_angle_beta 107.996400
_cell_angle_gamma 98.041502
_cell_volume 602.732219
_symmetry_space_group_name_H-M "P -1"
_symmetry_group_IT_number 2
_symmetry_cell_setting 'triclinic'
loop_
_space_group_symop_operation_xyz
x,y,z
-x,-y,-z
loop_
_atom_site_type_symbol
_atom_site_label
_atom_site_fract_x
_atom_site_fract_y
_atom_site_fract_z
Si Si1 0.030146 0.710010 0.301897
Si Si2 0.187024 0.569590 0.170833
Si Si3 0.403308 0.689971 0.943549
Si Si4 0.441611 0.151883 0.180948
Si Si5 0.829918 0.018877 0.110171
Si Si6 0.679447 0.591638 0.772369
Si Si7 0.249413 0.887097 0.363728
Si Si8 0.265293 0.273867 0.485754
O O1 0.150246 0.641107 0.399571
O O2 0.142017 0.787787 0.237094
O O3 0.935509 0.753127 0.509052
O O4 0.853796 0.650925 0.039873
O O5 0.240811 0.630437 0.988992
O O6 0.326054 0.507633 0.248521
O O7 0.000000 0.500000 0.000000
O O8 0.564018 0.726209 0.250392
O O9 0.402101 0.777531 0.846648
O O10 0.499735 0.624103 0.792134
O O11 0.549220 0.115144 0.433896
O O12 0.300219 0.210558 0.240646
O O13 0.312139 0.070183 0.942037
O O14 0.741366 0.070087 0.883563
O O15 0.849847 0.067719 0.425926
O O16 0.000000 0.000000 0.000000
O O17 0.717746 0.627023 0.525861
#
# Coordination Sequence:
#
# PCOD9011631 Si02
#       8
#     2   2   2   2   2   2   2   2
#     4  10  23  40  66 101 139 192 232 305 360 436
#     4  10  21  40  66  97 143 182 247 297 366 431
#     4  10  22  40  68  97 141 188 238 295 365 432
#     4  11  26  45  73 103 143 191 237 299 361 436
#     4  12  29  49  77 112 149 192 243 304 365 442
#     4   9  21  40  65  98 136 190 237 304 357 435
#     4  12  28  46  76 110 151 192 246 299 368 436
#     4  10  22  40  68  97 142 185 245 291 369 434
#
# _framework density 26.545784000000001
#
# number of rings (size 3 to 8) (size 9 to 14) (size 15 to 20)
#    0.000    1.500    0.000    3.000   12.250    2.000 
#    0.000    5.000    0.000    0.000    0.000    0.000 
#    0.000    0.000    0.000    0.000    0.000    0.000 
#
# Total GULP energy -89492.179311 kJ/mol
# GULP energy per Si atom -5593.261207 kJ/mol
# Density = 2.648536 g / cm^3
# Si number density = 26.545784 Si / 1000 Ang^3
#
#
#
# Elastic Constant Matrix: (Units=GPa)
#
#
# Indices 1 2 3 4 5 6 
#
# 1 100.5492 38.9988 -6.9478 16.9540 -3.4284 2.8011
# 2 38.9988 168.5717 34.3641 23.8092 -7.1376 6.4149
# 3 -6.9478 34.3641 64.4502 9.1620 -6.2223 -0.7147
# 4 16.9540 23.8092 9.1620 51.8446 0.3273 8.0571
# 5 -3.4284 -7.1376 -6.2223 0.3273 27.9274 -2.3318
# 6 2.8011 6.4149 -0.7147 8.0571 -2.3318 47.6136
#
#
#
# Elastic Compliance Matrix: (Units=1/GPa)
#
#
# Indices 1 2 3 4 5 6 
#
# 1 0.011919 -0.002959 0.003474 -0.003220 0.001550 0.000370
# 2 -0.002959 0.007764 -0.004149 -0.001776 0.000667 -0.000601
# 3 0.003474 -0.004149 0.018872 -0.002790 0.003711 0.001292
# 4 -0.003220 -0.001776 -0.002790 0.022202 -0.002021 -0.003469
# 5 0.001550 0.000667 0.003711 -0.002021 0.037189 0.002038
# 6 0.000370 -0.000601 0.001292 -0.003469 0.002038 0.021768
#
#
# Mechanical properties :
#
#
# Convention : Reuss Voigt Hill
#
# Bulk Modulus (GPa) = 31.96216 51.82238 41.89227
# Shear Modulus (GPa) = 36.38750 43.28755 39.83753
#
# Velocity S-wave (km/s) = 3.70637 4.04254 3.87810
# Velocity P-wave (km/s) = 5.51206 6.43069 5.98902
#
# Compressibility (1/GPa) = 0.03128699
#
# Stress axis : x y z
#
# Youngs Moduli (GPa) = 83.90214 128.79139 52.98943
#
# Poissons Ratio (x) = 0.38113 -0.18409
# Poissons Ratio (y) = 0.24829 0.21984
# Poissons Ratio (z) = -0.29149 0.53433
#
# Static dielectric constant tensor:
#      x y z
#    x 2.203360 -0.054930 -0.021930 
#    y -0.054930 2.029950 -0.047280 
#    z -0.021930 -0.047280 2.188080 
# 
# From -- ./inp_files/39539.got.cif
#   From: 2010.05.17/outbox.cif.g08.bks.cpg/sg2_20_cif.got.tgz:39539.got - 2010.06.03 11:33:40.
