data_PCOD9011118
_publ_section_title
;
Structure prediction by ZEFSAII (Michael W. Deem and Ramdas Pophale) SiO2 
 PCOD9011118
Probable space group: P -1
;
_chemical_formula_sum "Si O2"
_cell_formula_units_Z 16
_cell_length_a 12.475276
_cell_length_b 14.681601
_cell_length_c 10.853785
_cell_angle_alpha 118.870965
_cell_angle_beta 127.327242
_cell_angle_gamma 29.466356
_cell_volume 772.424472
_symmetry_space_group_name_H-M "P -1"
_symmetry_group_IT_number 2
_symmetry_cell_setting 'triclinic'
loop_
_space_group_symop_operation_xyz
x,y,z
-x,-y,-z
loop_
_atom_site_type_symbol
_atom_site_label
_atom_site_fract_x
_atom_site_fract_y
_atom_site_fract_z
Si Si1 0.493281 0.038964 0.879649
Si Si2 0.610849 0.084197 0.668948
Si Si3 0.488211 0.479077 0.175556
Si Si4 0.101822 0.817091 0.941415
Si Si5 0.788901 0.814212 0.437228
Si Si6 0.201216 0.347144 0.215007
Si Si7 0.667793 0.650787 0.963831
Si Si8 0.327608 0.430520 0.568958
O O1 0.240125 0.175569 0.723553
O O2 0.676651 0.844356 0.813105
O O3 0.518104 0.147574 0.973071
O O4 0.500000 0.000000 0.000000
O O5 0.396981 0.150865 0.615816
O O6 0.497375 0.269513 0.685609
O O7 0.700940 0.980917 0.534027
O O8 0.849159 0.921159 0.809851
O O9 0.710917 0.316928 0.129703
O O10 0.421441 0.409713 0.137707
O O11 0.570168 0.519375 0.350598
O O12 0.254366 0.673078 0.066656
O O13 0.000000 0.000000 0.000000
O O14 0.052917 0.621746 0.545137
O O15 0.272903 0.348574 0.132555
O O16 0.294283 0.369504 0.395334
O O17 0.915650 0.507302 0.119174
#
# Coordination Sequence:
#
# PCOD9011118 Si02
#       8
#     2   2   2   2   2   2   2   2
#     4  10  21  40  65  92 123 162 214 268 310 369
#     4  11  24  40  62  90 128 169 214 258 314 380
#     4  11  26  40  64  93 133 169 204 261 325 381
#     4  11  24  42  60  88 128 171 210 250 312 388
#     4  11  23  38  63  97 123 164 214 268 315 369
#     4  10  22  40  68  90 124 164 216 264 314 372
#     4  10  23  41  62  96 124 166 212 264 313 378
#     4  12  22  42  64  94 132 163 207 268 320 380
#
# _framework density 20.713998
#
# number of rings (size 3 to 8) (size 9 to 14) (size 15 to 20)
#    0.000    1.250    5.000    0.375    3.500    0.500 
#    0.000    0.000    0.000    2.250    0.000    0.000 
#    0.000    0.000    0.000    0.000    0.000    0.000 
#
# Total GULP energy -89243.860565 kJ/mol
# GULP energy per Si atom -5577.741285 kJ/mol
# Density = 2.066685 g / cm^3
# Si number density = 20.713998 Si / 1000 Ang^3
#
#
#
# Elastic Constant Matrix: (Units=GPa)
#
#
# Indices 1 2 3 4 5 6 
#
# 1 69.1349 41.8570 30.8574 -0.4239 29.7459 15.6927
# 2 41.8570 152.6233 51.2589 -4.6416 18.3114 20.1644
# 3 30.8574 51.2589 99.5594 -0.2941 25.4330 2.2728
# 4 -0.4239 -4.6416 -0.2941 37.8660 4.0237 8.4195
# 5 29.7459 18.3114 25.4330 4.0237 33.7851 8.0588
# 6 15.6927 20.1644 2.2728 8.4195 8.0588 27.1144
#
#
#
# Elastic Compliance Matrix: (Units=1/GPa)
#
#
# Indices 1 2 3 4 5 6 
#
# 1 0.027764 -0.003444 -0.001567 0.003916 -0.019787 -0.008711
# 2 -0.003444 0.009533 -0.004276 0.002211 0.002277 -0.006101
# 3 -0.001567 -0.004276 0.014830 -0.000761 -0.008729 0.005675
# 4 0.003916 0.002211 -0.000761 0.029827 -0.004842 -0.011670
# 5 -0.019787 0.002277 -0.008729 -0.004842 0.053894 -0.004024
# 6 -0.008711 -0.006101 0.005675 -0.011670 -0.004024 0.050803
#
#
# Mechanical properties :
#
#
# Convention : Reuss Voigt Hill
#
# Bulk Modulus (GPa) = 29.80465 63.25160 46.52813
# Shear Modulus (GPa) = 23.10432 32.90939 28.00686
#
# Velocity S-wave (km/s) = 3.34338 3.99024 3.68104
# Velocity P-wave (km/s) = 5.41518 7.19940 6.37006
#
# Compressibility (1/GPa) = 0.03355181
#
# Stress axis : x y z
#
# Youngs Moduli (GPa) = 36.01839 104.89806 67.43170
#
# Poissons Ratio (x) = 0.36127 0.10565
# Poissons Ratio (y) = 0.12405 0.28837
# Poissons Ratio (z) = 0.05643 0.44860
#
# Static dielectric constant tensor:
#      x y z
#    x 1.723090 0.011730 -0.021720 
#    y 0.011730 1.776800 0.013100 
#    z -0.021720 0.013100 1.801830 
# 
# From -- ./inp_files/433128.got.cif
#   From: 2010.05.17/outbox.cif.g08.bks.cpg/sg2_217_cif.got.tgz:433128.got - 2010.06.03 11:33:40.
