data_PCOD9011644
_publ_section_title
;
Structure prediction by ZEFSAII (Michael W. Deem and Ramdas Pophale) SiO2 
 PCOD9011644
Probable space group: P -1
;
_chemical_formula_sum "Si O2"
_cell_formula_units_Z 14
_cell_length_a 9.091423
_cell_length_b 14.962571
_cell_length_c 12.130813
_cell_angle_alpha 121.874599
_cell_angle_beta 50.350666
_cell_angle_gamma 149.625041
_cell_volume 641.404294
_symmetry_space_group_name_H-M "P -1"
_symmetry_group_IT_number 2
_symmetry_cell_setting 'triclinic'
loop_
_space_group_symop_operation_xyz
x,y,z
-x,-y,-z
loop_
_atom_site_type_symbol
_atom_site_label
_atom_site_fract_x
_atom_site_fract_y
_atom_site_fract_z
Si Si1 0.250565 0.330993 0.088647
Si Si2 0.766026 0.493653 0.622746
Si Si3 0.084112 0.186828 0.518634
Si Si4 0.126905 0.093938 0.672844
Si Si5 0.327551 0.007194 0.006288
Si Si6 0.258472 0.634067 0.061203
Si Si7 0.201322 0.476892 0.629308
O O1 0.145411 0.368982 0.255436
O O2 0.500000 0.500000 0.000000
O O3 0.461280 0.328824 0.037769
O O4 0.942216 0.160607 0.054261
O O5 0.441112 0.295392 0.692526
O O6 0.745393 0.520133 0.523604
O O7 0.000000 0.500000 0.500000
O O8 0.047762 0.116979 0.610047
O O9 0.080635 0.309712 0.618279
O O10 0.438475 0.325839 0.385119
O O11 0.840209 0.014627 0.444585
O O12 0.855651 0.993197 0.825995
O O13 0.500000 0.000000 0.000000
O O14 0.575933 0.182656 0.929219
O O15 0.055484 0.554806 0.220577
O O16 0.000000 0.500000 0.000000
#
# Coordination Sequence:
#
# PCOD9011644 Si02
#       7
#     2   2   2   2   2   2   2
#     4  12  26  48  72 102 144 186 239 300 353 424
#     4  11  25  44  68  96 137 186 230 290 359 412
#     4   9  20  38  66  98 134 173 230 287 340 414
#     4  10  21  40  66  98 133 176 230 287 343 418
#     4  12  26  45  74 102 144 185 242 290 362 420
#     4  12  27  44  74 107 145 190 237 289 358 425
#     4  10  22  40  67  98 137 177 233 279 352 408
#
# _framework density 21.827106000000001
#
# number of rings (size 3 to 8) (size 9 to 14) (size 15 to 20)
#    0.000    1.143    1.429    3.857    8.000    4.571 
#    0.000    1.429    0.000    0.000    0.000    0.000 
#    0.000    0.000    0.000    0.000    0.000    0.000 
#
# Total GULP energy -78135.808525 kJ/mol
# GULP energy per Si atom -5581.129180 kJ/mol
# Density = 2.177743 g / cm^3
# Si number density = 21.827106 Si / 1000 Ang^3
#
#
#
# Elastic Constant Matrix: (Units=GPa)
#
#
# Indices 1 2 3 4 5 6 
#
# 1 90.9147 37.2769 20.6803 12.9151 -5.8875 11.0238
# 2 37.2769 131.8767 43.2796 19.6178 16.8162 15.0550
# 3 20.6803 43.2796 130.0292 9.2653 -10.9800 9.6589
# 4 12.9151 19.6178 9.2653 43.6028 -1.7893 11.3593
# 5 -5.8875 16.8162 -10.9800 -1.7893 19.7194 -5.2249
# 6 11.0238 15.0550 9.6589 11.3593 -5.2249 30.7744
#
#
#
# Elastic Compliance Matrix: (Units=1/GPa)
#
#
# Indices 1 2 3 4 5 6 
#
# 1 0.013652 -0.004585 0.000175 -0.001481 0.007726 -0.000844
# 2 -0.004585 0.013711 -0.004679 -0.003125 -0.017379 -0.005394
# 3 0.000175 -0.004679 0.009985 0.000151 0.009801 0.000700
# 4 -0.001481 -0.003125 0.000151 0.026790 0.002775 -0.007406
# 5 0.007726 -0.017379 0.009801 0.002775 0.077466 0.014786
# 6 -0.000844 -0.005394 0.000700 -0.007406 0.014786 0.040460
#
#
# Mechanical properties :
#
#
# Convention : Reuss Voigt Hill
#
# Bulk Modulus (GPa) = 52.16037 61.69936 56.92987
# Shear Modulus (GPa) = 24.19776 35.59157 29.89466
#
# Velocity S-wave (km/s) = 3.33319 4.04247 3.70484
# Velocity P-wave (km/s) = 6.22595 7.07936 6.66633
#
# Compressibility (1/GPa) = 0.01917164
#
# Stress axis : x y z
#
# Youngs Moduli (GPa) = 73.24682 72.93412 100.15244
#
# Poissons Ratio (x) = 0.33441 -0.01757
# Poissons Ratio (y) = 0.33584 0.46858
# Poissons Ratio (z) = -0.01285 0.34123
#
# Static dielectric constant tensor:
#      x y z
#    x 1.762610 0.064870 0.056290 
#    y 0.064870 1.799360 -0.019140 
#    z 0.056290 -0.019140 1.892980 
# 
# From -- ./inp_files/245579.got.cif
#   From: 2010.05.17/outbox.cif.g08.bks.cpg/sg2_123_cif.got.tgz:245579.got - 2010.06.03 11:33:40.
