data_PCOD9011839
_publ_section_title
;
Structure prediction by ZEFSAII (Michael W. Deem and Ramdas Pophale) SiO2 
 PCOD9011839
Probable space group: P -1
;
_chemical_formula_sum "Si O2"
_cell_formula_units_Z 16
_cell_length_a 17.853747
_cell_length_b 14.660882
_cell_length_c 9.400014
_cell_angle_alpha 107.039493
_cell_angle_beta 61.275233
_cell_angle_gamma 157.742427
_cell_volume 726.974751
_symmetry_space_group_name_H-M "P -1"
_symmetry_group_IT_number 2
_symmetry_cell_setting 'triclinic'
loop_
_space_group_symop_operation_xyz
x,y,z
-x,-y,-z
loop_
_atom_site_type_symbol
_atom_site_label
_atom_site_fract_x
_atom_site_fract_y
_atom_site_fract_z
Si Si1 0.736405 0.737756 0.489145
Si Si2 0.703677 0.490271 0.343750
Si Si3 0.541283 0.624110 0.901731
Si Si4 0.833349 0.444496 0.393382
Si Si5 0.290350 0.881415 0.701694
Si Si6 0.170202 0.859185 0.515901
Si Si7 0.980488 0.845448 0.803955
Si Si8 0.148183 0.938742 0.964432
O O1 0.500000 0.500000 0.500000
O O2 0.762778 0.651653 0.440992
O O3 0.319370 0.269023 0.314735
O O4 0.939138 0.999003 0.324281
O O5 0.788374 0.491327 0.363811
O O6 0.421939 0.181159 0.420523
O O7 0.868748 0.656555 0.130934
O O8 0.500000 0.500000 0.000000
O O9 0.273187 0.383810 0.008065
O O10 0.698793 0.866152 0.952798
O O11 0.841933 0.356192 0.254284
O O12 0.063186 0.700155 0.400591
O O13 0.579143 0.169377 0.586334
O O14 0.225611 0.839019 0.576768
O O15 0.212854 0.897280 0.856006
O O16 0.975612 0.734290 0.690419
O O17 0.173666 0.031881 0.842451
#
# Coordination Sequence:
#
# PCOD9011839 Si02
#       8
#     2   2   2   2   2   2   2   2
#     4  12  25  45  66  96 140 182 224 274 333 393
#     4  11  25  40  64  95 136 175 222 279 336 391
#     4  12  28  42  69 101 133 179 232 274 331 400
#     4  10  21  40  68  96 128 170 223 276 337 399
#     4   9  21  42  67  95 130 172 216 279 337 399
#     4  10  21  40  67  95 130 176 223 265 338 404
#     4  11  25  45  67  94 137 184 220 279 331 393
#     4  11  25  46  65  99 138 170 227 281 333 400
#
# _framework density 22.009017
#
# number of rings (size 3 to 8) (size 9 to 14) (size 15 to 20)
#    0.000    1.250    1.250    3.375    7.000    3.000 
#    0.000    0.625    0.000    0.000    0.000    0.000 
#    0.000    0.000    0.000    0.000    0.000    0.000 
#
# Total GULP energy -89449.169986 kJ/mol
# GULP energy per Si atom -5590.573124 kJ/mol
# Density = 2.195892 g / cm^3
# Si number density = 22.009017 Si / 1000 Ang^3
#
#
#
# Elastic Constant Matrix: (Units=GPa)
#
#
# Indices 1 2 3 4 5 6 
#
# 1 115.3063 57.8487 43.9160 21.2172 -21.0905 -24.0346
# 2 57.8487 118.9338 55.3939 27.1950 -9.4602 -0.6049
# 3 43.9160 55.3939 116.8964 15.8569 -12.1622 -13.0036
# 4 21.2172 27.1950 15.8569 30.3629 3.8409 -3.2562
# 5 -21.0905 -9.4602 -12.1622 3.8409 29.2014 2.3548
# 6 -24.0346 -0.6049 -13.0036 -3.2562 2.3548 27.3970
#
#
#
# Elastic Compliance Matrix: (Units=1/GPa)
#
#
# Indices 1 2 3 4 5 6 
#
# 1 0.017884 -0.006113 -0.000279 -0.006747 0.010602 0.013708
# 2 -0.006113 0.015428 -0.004828 -0.007950 0.000286 -0.008283
# 3 -0.000279 -0.004828 0.012032 -0.001627 0.003065 0.004903
# 4 -0.006747 -0.007950 -0.001627 0.047438 -0.014366 0.000006
# 5 0.010602 0.000286 0.003065 -0.014366 0.044741 0.005209
# 6 0.013708 -0.008283 0.004903 0.000006 0.005209 0.050224
#
#
# Mechanical properties :
#
#
# Convention : Reuss Voigt Hill
#
# Bulk Modulus (GPa) = 43.65784 73.93930 58.79857
# Shear Modulus (GPa) = 22.95473 30.32412 26.63943
#
# Velocity S-wave (km/s) = 3.23301 3.71591 3.48284
# Velocity P-wave (km/s) = 5.81514 7.21655 6.55341
#
# Compressibility (1/GPa) = 0.02290539
#
# Stress axis : x y z
#
# Youngs Moduli (GPa) = 55.91721 64.81576 83.11233
#
# Poissons Ratio (x) = 0.39621 0.02316
# Poissons Ratio (y) = 0.34182 0.40124
# Poissons Ratio (z) = 0.01558 0.31291
#
# Static dielectric constant tensor:
#      x y z
#    x 1.842540 -0.006590 0.009430 
#    y -0.006590 1.825810 -0.016300 
#    z 0.009430 -0.016300 1.826890 
# 
# From -- ./inp_files/318758.got.cif
#   From: 2010.05.17/outbox.cif.g08.bks.cpg/sg2_160_cif.got.tgz:318758.got - 2010.06.03 11:33:40.
