data_PCOD9011853
_publ_section_title
;
Structure prediction by ZEFSAII (Michael W. Deem and Ramdas Pophale) SiO2 
 PCOD9011853
Probable space group: P -1
;
_chemical_formula_sum "Si O2"
_cell_formula_units_Z 12
_cell_length_a 11.357703
_cell_length_b 6.403311
_cell_length_c 8.916294
_cell_angle_alpha 72.027020
_cell_angle_beta 63.286959
_cell_angle_gamma 88.352702
_cell_volume 546.344977
_symmetry_space_group_name_H-M "P -1"
_symmetry_group_IT_number 2
_symmetry_cell_setting 'triclinic'
loop_
_space_group_symop_operation_xyz
x,y,z
-x,-y,-z
loop_
_atom_site_type_symbol
_atom_site_label
_atom_site_fract_x
_atom_site_fract_y
_atom_site_fract_z
Si Si1 0.946507 0.790204 0.984648
Si Si2 0.946362 0.767756 0.653563
Si Si3 0.828646 0.387516 0.272682
Si Si4 0.562925 0.298085 0.583329
Si Si5 0.473675 0.866628 0.888705
Si Si6 0.322629 0.484219 0.219550
O O1 0.895281 0.817664 0.839732
O O2 0.085605 0.688343 0.897923
O O3 0.832887 0.644078 0.176240
O O4 0.000000 0.000000 0.000000
O O5 0.829064 0.623071 0.667266
O O6 0.072936 0.640651 0.639481
O O7 0.000000 0.000000 0.500000
O O8 0.686403 0.259474 0.414779
O O9 0.500000 0.500000 0.500000
O O10 0.626773 0.399709 0.680194
O O11 0.474878 0.064459 0.723261
O O12 0.590899 0.716484 0.819614
O O13 0.350184 0.675831 0.033486
O O14 0.500000 0.000000 0.000000
#
# Coordination Sequence:
#
# PCOD9011853 Si02
#       6
#     2   2   2   2   2   2
#     4   9  21  43  62  91 131 170 206 263 329 387
#     4  10  21  40  67  96 127 163 217 272 323 389
#     4   9  22  42  60  97 132 158 225 257 334 386
#     4  11  24  42  65  96 132 175 224 268 317 398
#     4   9  21  43  62  91 129 170 225 263 323 392
#     4  10  22  42  65  94 132 171 217 276 333 378
#
# _framework density 21.964143
#
# number of rings (size 3 to 8) (size 9 to 14) (size 15 to 20)
#    1.000    1.333    0.000    1.000    2.333    5.333 
#    9.000    1.667    0.000    0.000    0.000    0.000 
#    0.000    0.000    0.000    0.000    0.000    0.000 
#
# Total GULP energy -66858.507140 kJ/mol
# GULP energy per Si atom -5571.542262 kJ/mol
# Density = 2.191415 g / cm^3
# Si number density = 21.964143 Si / 1000 Ang^3
#
#
#
# Elastic Constant Matrix: (Units=GPa)
#
#
# Indices 1 2 3 4 5 6 
#
# 1 65.1307 14.1574 36.9704 -23.5081 -2.4466 6.5527
# 2 14.1574 92.3126 41.9770 -22.2796 -1.4760 9.5057
# 3 36.9704 41.9770 131.5855 -55.2348 -0.0517 -0.6124
# 4 -23.5081 -22.2796 -55.2348 53.1115 -1.3422 -4.0262
# 5 -2.4466 -1.4760 -0.0517 -1.3422 27.4676 1.8004
# 6 6.5527 9.5057 -0.6124 -4.0262 1.8004 23.3848
#
#
#
# Elastic Compliance Matrix: (Units=1/GPa)
#
#
# Indices 1 2 3 4 5 6 
#
# 1 0.019668 0.000361 -0.003700 0.004679 0.002329 -0.005128
# 2 0.000361 0.013445 -0.003805 0.001455 0.001179 -0.005506
# 3 -0.003700 -0.003805 0.015415 0.013192 -0.000206 0.005274
# 4 0.004679 0.001455 0.013192 0.035614 0.001970 0.004423
# 5 0.002329 0.001179 -0.000206 0.001970 0.037012 -0.003648
# 6 -0.005128 -0.005506 0.005274 0.004423 -0.003648 0.047619
#
#
# Mechanical properties :
#
#
# Convention : Reuss Voigt Hill
#
# Bulk Modulus (GPa) = 29.20592 52.80427 41.00509
# Shear Modulus (GPa) = 25.71049 33.85439 29.78244
#
# Velocity S-wave (km/s) = 3.42507 3.93026 3.68633
# Velocity P-wave (km/s) = 5.38214 6.68500 6.06863
#
# Compressibility (1/GPa) = 0.03423964
#
# Stress axis : x y z
#
# Youngs Moduli (GPa) = 50.84467 74.37971 64.87233
#
# Poissons Ratio (x) = -0.02683 0.24002
# Poissons Ratio (y) = -0.01834 0.24681
# Poissons Ratio (z) = 0.18812 0.28299
#
# Static dielectric constant tensor:
#      x y z
#    x 1.812950 -0.032220 0.000420 
#    y -0.032220 2.050680 -0.362790 
#    z 0.000420 -0.362790 2.439090 
# 
# From -- ./inp_files/228864.got.cif
#   From: 2010.05.17/outbox.cif.g08.bks.cpg/sg2_115_cif.got.tgz:228864.got - 2010.06.03 11:33:40.
