data_PCOD9011450
_publ_section_title
;
Structure prediction by ZEFSAII (Michael W. Deem and Ramdas Pophale) SiO2 
 PCOD9011450
Probable space group: P -1
;
_chemical_formula_sum "Si O2"
_cell_formula_units_Z 14
_cell_length_a 7.487975
_cell_length_b 8.144419
_cell_length_c 12.195395
_cell_angle_alpha 96.245029
_cell_angle_beta 107.153283
_cell_angle_gamma 125.918782
_cell_volume 536.007024
_symmetry_space_group_name_H-M "P -1"
_symmetry_group_IT_number 2
_symmetry_cell_setting 'triclinic'
loop_
_space_group_symop_operation_xyz
x,y,z
-x,-y,-z
loop_
_atom_site_type_symbol
_atom_site_label
_atom_site_fract_x
_atom_site_fract_y
_atom_site_fract_z
Si Si1 0.787583 0.515564 0.977255
Si Si2 0.654301 0.979488 0.692147
Si Si3 0.853245 0.653238 0.246194
Si Si4 0.652198 0.645601 0.763732
Si Si5 0.434998 0.024363 0.868089
Si Si6 0.082813 0.933528 0.643372
Si Si7 0.582004 0.763877 0.452653
O O1 0.791499 0.656533 0.895609
O O2 0.536578 0.268648 0.901374
O O3 0.792989 0.593928 0.103960
O O4 0.000000 0.500000 0.000000
O O5 0.776183 0.876494 0.750658
O O6 0.499381 0.810953 0.551284
O O7 0.573805 0.009891 0.794771
O O8 0.854785 0.219646 0.691521
O O9 0.622692 0.447330 0.255654
O O10 0.863781 0.844543 0.305867
O O11 0.602591 0.461211 0.661568
O O12 0.158454 0.867853 0.757384
O O13 0.500000 0.000000 0.000000
O O14 0.288072 0.028013 0.590456
O O15 0.810741 0.775216 0.532417
#
# Coordination Sequence:
#
# PCOD9011450 Si02
#       7
#     2   2   2   2   2   2   2
#     4  12  24  42  62  94 137 173 217 271 330 391
#     4  11  24  40  69 101 128 176 222 270 327 397
#     4  10  21  40  66  91 132 176 216 265 329 390
#     4  11  23  43  68  95 134 175 220 272 329 394
#     4  12  25  42  63 102 137 170 221 277 332 387
#     4   9  20  40  69  95 128 179 215 274 328 391
#     4   9  19  42  67  94 128 174 227 262 326 396
#
# _framework density 26.119059
#
# number of rings (size 3 to 8) (size 9 to 14) (size 15 to 20)
#    0.000    1.429    4.286    2.571    2.000    3.429 
#    0.000    0.714    0.000    0.000    0.000    0.000 
#    0.000    0.000    0.000    0.000    0.000    0.000 
#
# Total GULP energy -78159.904207 kJ/mol
# GULP energy per Si atom -5582.850301 kJ/mol
# Density = 2.605961 g / cm^3
# Si number density = 26.119059 Si / 1000 Ang^3
#
#
#
# Elastic Constant Matrix: (Units=GPa)
#
#
# Indices 1 2 3 4 5 6 
#
# 1 75.8957 0.0478 39.5129 1.2447 -22.7649 4.6494
# 2 0.0478 62.8952 14.2855 -15.3404 -1.8000 9.5605
# 3 39.5129 14.2855 190.4061 -9.7789 -28.9182 -9.5359
# 4 1.2447 -15.3404 -9.7789 52.4679 -7.4356 -1.6198
# 5 -22.7649 -1.8000 -28.9182 -7.4356 62.4363 2.8468
# 6 4.6494 9.5605 -9.5359 -1.6198 2.8468 33.7849
#
#
#
# Elastic Compliance Matrix: (Units=1/GPa)
#
#
# Indices 1 2 3 4 5 6 
#
# 1 0.016408 0.001400 -0.002970 0.000031 0.004829 -0.003898
# 2 0.001400 0.018371 -0.001511 0.005051 0.001201 -0.005677
# 3 -0.002970 -0.001511 0.006457 0.001178 0.001888 0.002556
# 4 0.000031 0.005051 0.001178 0.021204 0.003244 -0.000358
# 5 0.004829 0.001201 0.001888 0.003244 0.019160 -0.001930
# 6 -0.003898 -0.005677 0.002556 -0.000358 -0.001930 0.032609
#
#
# Mechanical properties :
#
#
# Convention : Reuss Voigt Hill
#
# Bulk Modulus (GPa) = 28.51176 48.54327 38.52751
# Shear Modulus (GPa) = 37.86066 48.09455 42.97761
#
# Velocity S-wave (km/s) = 3.81142 4.29576 4.06082
# Velocity P-wave (km/s) = 5.50536 6.57499 6.06380
#
# Compressibility (1/GPa) = 0.03507325
#
# Stress axis : x y z
#
# Youngs Moduli (GPa) = 60.94522 54.43353 154.87022
#
# Poissons Ratio (x) = -0.07623 0.46003
# Poissons Ratio (y) = -0.08535 0.23408
# Poissons Ratio (z) = 0.18103 0.08228
#
# Static dielectric constant tensor:
#      x y z
#    x 2.397670 0.130050 0.098420 
#    y 0.130050 2.053960 -0.014770 
#    z 0.098420 -0.014770 2.105740 
# 
# From -- ./inp_files/245335.got.cif
#   From: 2010.05.17/outbox.cif.g08.bks.cpg/sg2_123_cif.got.tgz:245335.got - 2010.06.03 11:33:40.
