data_PCOD9011973
_publ_section_title
;
Structure prediction by ZEFSAII (Michael W. Deem and Ramdas Pophale) SiO2 
 PCOD9011973
Probable space group: P -1
;
_chemical_formula_sum "Si O2"
_cell_formula_units_Z 14
_cell_length_a 6.292530
_cell_length_b 5.352516
_cell_length_c 21.928776
_cell_angle_alpha 128.093599
_cell_angle_beta 106.736071
_cell_angle_gamma 86.791399
_cell_volume 549.340365
_symmetry_space_group_name_H-M "P -1"
_symmetry_group_IT_number 2
_symmetry_cell_setting 'triclinic'
loop_
_space_group_symop_operation_xyz
x,y,z
-x,-y,-z
loop_
_atom_site_type_symbol
_atom_site_label
_atom_site_fract_x
_atom_site_fract_y
_atom_site_fract_z
Si Si1 0.025044 0.379096 0.554560
Si Si2 0.838478 0.758403 0.023862
Si Si3 0.337276 0.232471 0.407498
Si Si4 0.543858 0.199337 0.301707
Si Si5 0.143044 0.549911 0.274353
Si Si6 0.318835 0.946405 0.829245
Si Si7 0.752390 0.675530 0.872381
O O1 0.258806 0.505050 0.625504
O O2 0.000000 0.500000 0.500000
O O3 0.839991 0.551406 0.598745
O O4 0.000000 0.000000 0.500000
O O5 0.726159 0.794033 0.085225
O O6 0.694929 0.649902 0.935528
O O7 0.007190 0.090000 0.076073
O O8 0.000000 0.500000 0.000000
O O9 0.500000 0.500000 0.500000
O O10 0.496587 0.095965 0.351513
O O11 0.186551 0.895606 0.363714
O O12 0.325260 0.331311 0.278478
O O13 0.633233 0.967466 0.225076
O O14 0.193477 0.596107 0.211539
O O15 0.895816 0.341270 0.230069
O O16 0.545169 0.824593 0.850996
#
# Coordination Sequence:
#
# PCOD9011973 Si02
#       7
#     2   2   2   2   2   2   2
#     4  12  28  46  74 107 142 189 250 312 381 451
#     4  10  21  40  68 101 139 183 231 288 353 429
#     4  12  26  45  71 100 138 186 241 307 369 439
#     4  11  25  43  68  97 140 181 240 300 373 433
#     4  10  24  44  69  99 139 186 236 301 365 440
#     4  10  22  43  69 101 144 184 235 292 360 438
#     4   9  21  41  65 100 139 178 231 288 358 433
#
# _framework density 25.485109999999999
#
# number of rings (size 3 to 8) (size 9 to 14) (size 15 to 20)
#    0.000    1.429    1.429    2.143    4.000    7.429 
#    0.000    7.143    0.000    0.000    0.000    0.000 
#    0.000    0.000    0.000    0.000    0.000    0.000 
#
# Total GULP energy -78146.437202 kJ/mol
# GULP energy per Si atom -5581.888372 kJ/mol
# Density = 2.542710 g / cm^3
# Si number density = 25.485110 Si / 1000 Ang^3
#
#
#
# Elastic Constant Matrix: (Units=GPa)
#
#
# Indices 1 2 3 4 5 6 
#
# 1 92.8169 -1.5192 40.6372 -18.8305 -25.9483 5.0640
# 2 -1.5192 57.3113 26.0362 0.9476 -16.2296 -2.7032
# 3 40.6372 26.0362 167.1892 -4.9841 -22.8610 26.6498
# 4 -18.8305 0.9476 -4.9841 43.2884 6.0105 -1.0008
# 5 -25.9483 -16.2296 -22.8610 6.0105 70.0161 -13.1734
# 6 5.0640 -2.7032 26.6498 -1.0008 -13.1734 24.6616
#
#
#
# Elastic Compliance Matrix: (Units=1/GPa)
#
#
# Indices 1 2 3 4 5 6 
#
# 1 0.015045 0.004046 -0.004167 0.005309 0.005656 0.005094
# 2 0.004046 0.022495 -0.005295 -0.000068 0.007087 0.011139
# 3 -0.004167 -0.005295 0.009269 -0.000641 -0.001699 -0.010674
# 4 0.005309 -0.000068 -0.000641 0.025397 -0.000356 0.000435
# 5 0.005656 0.007087 -0.001699 -0.000356 0.019752 0.011988
# 6 0.005094 0.011139 -0.010674 0.000435 0.011988 0.058680
#
#
# Mechanical properties :
#
#
# Convention : Reuss Voigt Hill
#
# Bulk Modulus (GPa) = 27.79670 49.73621 38.76646
# Shear Modulus (GPa) = 28.82468 44.40411 36.61440
#
# Velocity S-wave (km/s) = 3.36674 4.17868 3.79449
# Velocity P-wave (km/s) = 5.10333 6.54523 5.86873
#
# Compressibility (1/GPa) = 0.03597549
#
# Stress axis : x y z
#
# Youngs Moduli (GPa) = 66.46806 44.45493 107.88852
#
# Poissons Ratio (x) = -0.17986 0.44960
# Poissons Ratio (y) = -0.26893 0.57129
# Poissons Ratio (z) = 0.27699 0.23540
#
# Static dielectric constant tensor:
#      x y z
#    x 2.672870 0.109420 1.083500 
#    y 0.109420 2.166220 -0.265710 
#    z 1.083500 -0.265710 4.428530 
# 
# From -- ./inp_files/107753.got.cif
#   From: 2010.05.17/outbox.cif.g08.bks.cpg/sg2_54_cif.got.tgz:107753.got - 2010.06.03 11:33:40.
