data_PCOD9011616
_publ_section_title
;
Structure prediction by ZEFSAII (Michael W. Deem and Ramdas Pophale) SiO2 
 PCOD9011616
Probable space group: P -1
;
_chemical_formula_sum "Si O2"
_cell_formula_units_Z 16
_cell_length_a 21.521122
_cell_length_b 11.339188
_cell_length_c 17.196291
_cell_angle_alpha 145.848020
_cell_angle_beta 22.627121
_cell_angle_gamma 145.757850
_cell_volume 867.192419
_symmetry_space_group_name_H-M "P -1"
_symmetry_group_IT_number 2
_symmetry_cell_setting 'triclinic'
loop_
_space_group_symop_operation_xyz
x,y,z
-x,-y,-z
loop_
_atom_site_type_symbol
_atom_site_label
_atom_site_fract_x
_atom_site_fract_y
_atom_site_fract_z
Si Si1 0.809909 0.846491 0.124395
Si Si2 0.873098 0.082470 0.541461
Si Si3 0.397580 0.405036 0.903912
Si Si4 0.067651 0.542583 0.190315
Si Si5 0.597410 0.831430 0.825675
Si Si6 0.873758 0.043401 0.736598
Si Si7 0.714816 0.250053 0.502034
Si Si8 0.189804 0.653044 0.376850
O O1 0.751800 0.777084 0.065826
O O2 0.697010 0.995713 0.366144
O O3 0.819645 0.622986 0.031736
O O4 0.000000 0.000000 0.000000
O O5 0.880821 0.291268 0.703846
O O6 0.806643 0.137775 0.566621
O O7 0.744239 0.868269 0.612009
O O8 0.057833 0.045516 0.314364
O O9 0.483717 0.588033 0.839242
O O10 0.544338 0.311367 0.715232
O O11 0.317628 0.529309 0.127432
O O12 0.099524 0.699174 0.163902
O O13 0.871840 0.405554 0.355245
O O14 0.690283 0.913356 0.845706
O O15 0.500000 0.000000 0.000000
O O16 0.000000 0.000000 0.500000
O O17 0.771653 0.294835 0.549793
O O18 0.000000 0.500000 0.500000
#
# Coordination Sequence:
#
# PCOD9011616 Si02
#       8
#     2   2   2   2   2   2   2   2
#     4  10  20  36  56  75 109 147 186 218 264 330
#     4  10  17  33  51  83 109 140 178 214 275 316
#     4  12  21  37  55  83 108 138 188 233 271 311
#     4   9  15  34  54  80 108 141 184 217 265 319
#     4  10  17  29  53  81 106 129 173 237 268 298
#     4   8  16  27  51  80 107 134 174 225 260 309
#     4  11  22  33  52  84 112 147 176 224 272 318
#     4  12  22  35  54  76 119 151 174 214 272 340
#
# _framework density 18.450344999999999
#
# number of rings (size 3 to 8) (size 9 to 14) (size 15 to 20)
#    0.000    2.000    3.750    4.500    0.000    0.000 
#    0.000    0.000    0.000    1.500    0.000    0.000 
#    0.000    0.000    0.000    0.000    0.000    0.000 
#
# Total GULP energy -89125.515311 kJ/mol
# GULP energy per Si atom -5570.344707 kJ/mol
# Density = 1.840835 g / cm^3
# Si number density = 18.450345 Si / 1000 Ang^3
#
#
#
# Elastic Constant Matrix: (Units=GPa)
#
#
# Indices 1 2 3 4 5 6 
#
# 1 67.4742 17.3839 26.0548 12.2498 -22.7145 1.7595
# 2 17.3839 64.2443 19.8580 12.5414 -4.0358 -2.8554
# 3 26.0548 19.8580 80.9656 17.4485 -31.4158 -9.3980
# 4 12.2498 12.5414 17.4485 32.6154 -4.2384 -6.9818
# 5 -22.7145 -4.0358 -31.4158 -4.2384 33.5733 0.5499
# 6 1.7595 -2.8554 -9.3980 -6.9818 0.5499 17.4284
#
#
#
# Elastic Compliance Matrix: (Units=1/GPa)
#
#
# Indices 1 2 3 4 5 6 
#
# 1 0.021662 -0.004056 -0.000181 -0.005980 0.013338 -0.005765
# 2 -0.004056 0.018460 -0.004406 -0.003965 -0.005143 -0.000368
# 3 -0.000181 -0.004406 0.024020 -0.006449 0.020863 0.009007
# 4 -0.005980 -0.003965 -0.006449 0.039836 -0.005734 0.012616
# 5 0.013338 -0.005143 0.020863 -0.005734 0.056908 0.004968
# 6 -0.005765 -0.000368 0.009007 0.012616 0.004968 0.067653
#
#
# Mechanical properties :
#
#
# Convention : Reuss Voigt Hill
#
# Bulk Modulus (GPa) = 21.34265 37.69751 29.52008
# Shear Modulus (GPa) = 19.12459 26.68259 22.90359
#
# Velocity S-wave (km/s) = 3.22303 3.80700 3.52712
# Velocity P-wave (km/s) = 5.04414 6.30877 5.71156
#
# Compressibility (1/GPa) = 0.04685454
#
# Stress axis : x y z
#
# Youngs Moduli (GPa) = 46.16477 54.17236 41.63197
#
# Poissons Ratio (x) = 0.21975 0.00754
# Poissons Ratio (y) = 0.18726 0.18342
# Poissons Ratio (z) = 0.00836 0.23867
#
# Static dielectric constant tensor:
#      x y z
#    x 1.673670 -0.017420 -0.046010 
#    y -0.017420 1.699140 -0.010640 
#    z -0.046010 -0.010640 1.693510 
# 
# From -- ./inp_files/602083.got.cif
#   From: 2010.05.17/outbox.cif.g08.bks.cpg/sg2_302_cif.got.tgz:602083.got - 2010.06.03 11:33:40.
