data_PCOD9011720
_publ_section_title
;
Structure prediction by ZEFSAII (Michael W. Deem and Ramdas Pophale) SiO2 
 PCOD9011720
Probable space group: P -1
;
_chemical_formula_sum "Si O2"
_cell_formula_units_Z 14
_cell_length_a 9.254087
_cell_length_b 11.371801
_cell_length_c 10.806335
_cell_angle_alpha 125.337919
_cell_angle_beta 63.951100
_cell_angle_gamma 139.164509
_cell_volume 606.601522
_symmetry_space_group_name_H-M "P -1"
_symmetry_group_IT_number 2
_symmetry_cell_setting 'triclinic'
loop_
_space_group_symop_operation_xyz
x,y,z
-x,-y,-z
loop_
_atom_site_type_symbol
_atom_site_label
_atom_site_fract_x
_atom_site_fract_y
_atom_site_fract_z
Si Si1 0.185178 0.436315 0.133173
Si Si2 0.759290 0.942958 0.672194
Si Si3 0.759603 0.191587 0.000163
Si Si4 0.694683 0.448039 0.279437
Si Si5 0.922969 0.355941 0.556268
Si Si6 0.433682 0.446924 0.824253
Si Si7 0.814066 0.981397 0.385574
O O1 0.199299 0.606586 0.284531
O O2 0.303047 0.404219 0.168667
O O3 0.327901 0.490682 0.989840
O O4 0.930084 0.249220 0.079835
O O5 0.528712 0.748281 0.695563
O O6 0.945317 0.945064 0.647991
O O7 0.822762 0.137545 0.824270
O O8 0.740316 0.947199 0.535541
O O9 0.778959 0.375449 0.109417
O O10 0.500000 0.000000 0.000000
O O11 0.641234 0.554601 0.284669
O O12 0.870788 0.573322 0.397165
O O13 0.804575 0.135784 0.427842
O O14 0.000000 0.500000 0.500000
O O15 0.334808 0.228248 0.754086
#
# Coordination Sequence:
#
# PCOD9011720 Si02
#       7
#     2   2   2   2   2   2   2
#     4  10  24  45  68 100 145 179 236 282 341 423
#     4  10  21  40  67 107 133 178 239 283 341 409
#     4   9  19  41  68 101 137 181 231 285 340 402
#     4  10  23  41  73  99 138 186 233 285 346 417
#     4  11  27  46  66 102 138 185 229 291 350 409
#     4  11  24  45  71 106 134 190 228 285 356 400
#     4  11  24  40  69  99 139 181 228 289 344 412
#
# _framework density 23.079404
#
# number of rings (size 3 to 8) (size 9 to 14) (size 15 to 20)
#    0.000    1.714    1.429    1.714    6.000    2.857 
#    0.000   12.143    0.000    0.000    0.000    0.000 
#    0.000    0.000    0.000    0.000    0.000    0.000 
#
# Total GULP energy -78245.367243 kJ/mol
# GULP energy per Si atom -5588.954803 kJ/mol
# Density = 2.302687 g / cm^3
# Si number density = 23.079404 Si / 1000 Ang^3
#
#
#
# Elastic Constant Matrix: (Units=GPa)
#
#
# Indices 1 2 3 4 5 6 
#
# 1 137.5790 45.9920 26.2880 -0.9336 9.1290 8.4309
# 2 45.9920 63.5730 30.4538 10.3143 -17.3515 0.1864
# 3 26.2880 30.4538 118.4889 10.6178 -25.8232 -10.2780
# 4 -0.9336 10.3143 10.6178 25.0365 0.5045 -5.8684
# 5 9.1290 -17.3515 -25.8232 0.5045 30.4396 1.4332
# 6 8.4309 0.1864 -10.2780 -5.8684 1.4332 32.7711
#
#
#
# Elastic Compliance Matrix: (Units=1/GPa)
#
#
# Indices 1 2 3 4 5 6 
#
# 1 0.013602 -0.013262 -0.003707 0.007220 -0.014779 -0.002647
# 2 -0.013262 0.034088 0.000857 -0.015475 0.024408 -0.000352
# 3 -0.003707 0.000857 0.012434 -0.005214 0.012076 0.003387
# 4 0.007220 -0.015475 -0.005214 0.050628 -0.016550 0.006385
# 5 -0.014779 0.024408 0.012076 -0.016550 0.061632 0.001792
# 6 -0.002647 -0.000352 0.003387 0.006385 0.001792 0.033325
#
#
# Mechanical properties :
#
#
# Convention : Reuss Voigt Hill
#
# Bulk Modulus (GPa) = 35.84146 58.34537 47.09341
# Shear Modulus (GPa) = 20.22386 32.10991 26.16689
#
# Velocity S-wave (km/s) = 2.96340 3.73403 3.37081
# Velocity P-wave (km/s) = 5.22229 6.62766 5.96650
#
# Compressibility (1/GPa) = 0.02790065
#
# Stress axis : x y z
#
# Youngs Moduli (GPa) = 73.51800 29.33609 80.42151
#
# Poissons Ratio (x) = 0.38906 0.29809
# Poissons Ratio (y) = 0.97501 -0.06891
# Poissons Ratio (z) = 0.27250 -0.02514
#
# Static dielectric constant tensor:
#      x y z
#    x 1.894200 0.043970 -0.001240 
#    y 0.043970 1.887800 0.033890 
#    z -0.001240 0.033890 1.902050 
# 
# From -- ./inp_files/393043.got.cif
#   From: 2010.05.17/outbox.cif.g08.bks.cpg/sg2_197_cif.got.tgz:393043.got - 2010.06.03 11:33:40.
