data_PCOD9011902
_publ_section_title
;
Structure prediction by ZEFSAII (Michael W. Deem and Ramdas Pophale) SiO2 
 PCOD9011902
Probable space group: P -1
;
_chemical_formula_sum "Si O2"
_cell_formula_units_Z 14
_cell_length_a 14.623705
_cell_length_b 11.254166
_cell_length_c 16.792526
_cell_angle_alpha 131.379181
_cell_angle_beta 158.452592
_cell_angle_gamma 37.352837
_cell_volume 576.538945
_symmetry_space_group_name_H-M "P -1"
_symmetry_group_IT_number 2
_symmetry_cell_setting 'triclinic'
loop_
_space_group_symop_operation_xyz
x,y,z
-x,-y,-z
loop_
_atom_site_type_symbol
_atom_site_label
_atom_site_fract_x
_atom_site_fract_y
_atom_site_fract_z
Si Si1 0.224832 0.464273 0.738741
Si Si2 0.660433 0.211212 0.285510
Si Si3 0.827212 0.737487 0.982326
Si Si4 0.463977 0.171347 0.598494
Si Si5 0.561749 0.359003 0.633127
Si Si6 0.699923 0.249099 0.146440
Si Si7 0.519893 0.078371 0.379732
O O1 0.411795 0.526329 0.869037
O O2 0.000000 0.500000 0.500000
O O3 0.923835 0.629959 0.627389
O O4 0.471852 0.255706 0.899501
O O5 0.374180 0.205560 0.075358
O O6 0.599213 0.406401 0.367630
O O7 0.659257 0.233311 0.199145
O O8 0.000000 0.000000 0.500000
O O9 0.575765 0.866323 0.763991
O O10 0.000000 0.500000 0.000000
O O11 0.126246 0.733703 0.211635
O O12 0.643858 0.240421 0.731369
O O13 0.500000 0.000000 0.500000
O O14 0.579379 0.052363 0.723568
O O15 0.380364 0.291722 0.408090
O O16 0.084157 0.084035 0.363510
#
# Coordination Sequence:
#
# PCOD9011902 Si02
#       7
#     2   2   2   2   2   2   2
#     4  10  21  40  67  98 131 172 220 281 344 399
#     4  11  22  43  69  97 138 183 228 279 330 407
#     4  10  23  41  65  95 138 180 229 278 330 399
#     4   9  20  39  67  98 130 171 224 285 337 406
#     4  10  23  42  67  97 133 183 224 279 345 394
#     4  10  22  41  65  95 137 173 219 285 338 389
#     4  10  21  42  67  98 137 176 226 282 339 410
#
# _framework density 24.282834999999999
#
# number of rings (size 3 to 8) (size 9 to 14) (size 15 to 20)
#    0.000    2.000    1.429    0.857    0.000    9.714 
#    2.571    6.429    0.000    0.000    0.000    0.000 
#    0.000    0.000    0.000    0.000    0.000    0.000 
#
# Total GULP energy -78031.493192 kJ/mol
# GULP energy per Si atom -5573.678085 kJ/mol
# Density = 2.422757 g / cm^3
# Si number density = 24.282835 Si / 1000 Ang^3
#
#
#
# Elastic Constant Matrix: (Units=GPa)
#
#
# Indices 1 2 3 4 5 6 
#
# 1 163.6084 34.5578 13.2987 0.4167 4.4418 26.1207
# 2 34.5578 98.1993 26.1797 3.4675 -0.1665 11.1406
# 3 13.2987 26.1797 27.6559 -13.0709 -1.8824 12.4817
# 4 0.4167 3.4675 -13.0709 29.0299 8.7753 3.8368
# 5 4.4418 -0.1665 -1.8824 8.7753 48.7503 2.1823
# 6 26.1207 11.1406 12.4817 3.8368 2.1823 41.0710
#
#
#
# Elastic Compliance Matrix: (Units=1/GPa)
#
#
# Indices 1 2 3 4 5 6 
#
# 1 0.007262 -0.002611 0.001922 0.001907 -0.000732 -0.004634
# 2 -0.002611 0.017512 -0.024520 -0.014345 0.001682 0.005613
# 3 0.001922 -0.024520 0.094544 0.050488 -0.004453 -0.027784
# 4 0.001907 -0.014345 0.050488 0.063981 -0.008977 -0.018166
# 5 -0.000732 0.001682 -0.004453 -0.008977 0.021983 0.001033
# 6 -0.004634 0.005613 -0.027784 -0.018166 0.001033 0.035858
#
#
# Mechanical properties :
#
#
# Convention : Reuss Voigt Hill
#
# Bulk Modulus (GPa) = 14.51362 48.61512 31.56437
# Shear Modulus (GPa) = 15.89701 38.13205 27.01453
#
# Velocity S-wave (km/s) = 2.56141 3.96704 3.33903
# Velocity P-wave (km/s) = 3.83896 6.40679 5.28132
#
# Compressibility (1/GPa) = 0.06890081
#
# Stress axis : x y z
#
# Youngs Moduli (GPa) = 137.69823 57.10421 10.57706
#
# Poissons Ratio (x) = 0.14910 -0.02033
# Poissons Ratio (y) = 0.35954 0.25935
# Poissons Ratio (z) = -0.26471 1.40020
#
# Static dielectric constant tensor:
#      x y z
#    x 2.048910 -0.058650 -0.060350 
#    y -0.058650 2.027490 0.089720 
#    z -0.060350 0.089720 1.922290 
# 
# From -- ./inp_files/573239.got.cif
#   From: 2010.05.17/outbox.cif.g08.bks.cpg/sg2_287_cif.got.tgz:573239.got - 2010.06.03 11:33:40.
