data_PCOD9011047
_publ_section_title
;
Structure prediction by ZEFSAII (Michael W. Deem and Ramdas Pophale) SiO2 
 PCOD9011047
Probable space group: P -1
;
_chemical_formula_sum "Si O2"
_cell_formula_units_Z 14
_cell_length_a 13.622459
_cell_length_b 12.892569
_cell_length_c 11.761630
_cell_angle_alpha 39.098726
_cell_angle_beta 119.240317
_cell_angle_gamma 148.188620
_cell_volume 588.873777
_symmetry_space_group_name_H-M "P -1"
_symmetry_group_IT_number 2
_symmetry_cell_setting 'triclinic'
loop_
_space_group_symop_operation_xyz
x,y,z
-x,-y,-z
loop_
_atom_site_type_symbol
_atom_site_label
_atom_site_fract_x
_atom_site_fract_y
_atom_site_fract_z
Si Si1 0.069998 0.309628 0.742941
Si Si2 0.358543 0.054315 0.900541
Si Si3 0.336680 0.732930 0.734760
Si Si4 0.247625 0.914780 0.699128
Si Si5 0.725614 0.670163 0.324699
Si Si6 0.287433 0.897239 0.239860
Si Si7 0.124604 0.296974 0.387431
O O1 0.148508 0.416092 0.826563
O O2 0.148842 0.240156 0.790689
O O3 0.191235 0.611432 0.485390
O O4 0.830519 0.085027 0.800694
O O5 0.262968 0.889183 0.863665
O O6 0.296802 0.167909 0.791382
O O7 0.620821 0.361764 0.790496
O O8 0.273057 0.855159 0.132914
O O9 0.500000 0.000000 0.500000
O O10 0.257822 0.778525 0.732692
O O11 0.468574 0.781156 0.851859
O O12 0.475467 0.297894 0.487112
O O13 0.036948 0.755170 0.683145
O O14 0.849524 0.731409 0.444413
O O15 0.000000 0.000000 0.500000
#
# Coordination Sequence:
#
# PCOD9011047 Si02
#       7
#     2   2   2   2   2   2   2
#     4  10  23  42  68  85 121 172 208 243 308 374
#     4  11  24  40  61  97 129 153 204 265 305 354
#     4  10  21  40  65  88 121 164 212 247 294 374
#     4  11  21  39  65  93 122 161 207 252 302 369
#     4  11  21  39  66  92 122 163 206 254 302 367
#     4  10  23  42  61  92 126 162 204 256 307 360
#     4  11  21  38  64  90 123 169 202 240 318 370
#
# _framework density 23.774197000000001
#
# number of rings (size 3 to 8) (size 9 to 14) (size 15 to 20)
#    0.000    1.429    5.714    0.857    6.000    2.286 
#    0.000    2.143    0.000    0.000    0.000    0.000 
#    0.000    0.000    0.000    0.000    0.000    0.000 
#
# Total GULP energy -78311.019758 kJ/mol
# GULP energy per Si atom -5593.644268 kJ/mol
# Density = 2.372009 g / cm^3
# Si number density = 23.774197 Si / 1000 Ang^3
#
#
#
# Elastic Constant Matrix: (Units=GPa)
#
#
# Indices 1 2 3 4 5 6 
#
# 1 216.3335 102.3949 56.2931 23.5806 0.6137 5.7063
# 2 102.3949 171.5641 59.9145 38.1710 8.8267 13.3288
# 3 56.2931 59.9145 69.5321 21.6247 -11.8487 -0.3096
# 4 23.5806 38.1710 21.6247 32.8303 -7.1292 3.9176
# 5 0.6137 8.8267 -11.8487 -7.1292 34.6432 8.7300
# 6 5.7063 13.3288 -0.3096 3.9176 8.7300 53.6753
#
#
#
# Elastic Compliance Matrix: (Units=1/GPa)
#
#
# Indices 1 2 3 4 5 6 
#
# 1 0.006840 -0.003161 -0.003082 0.000742 -0.000223 0.000022
# 2 -0.003161 0.012522 -0.006508 -0.009416 -0.007052 -0.000977
# 3 -0.003082 -0.006508 0.025690 -0.005268 0.009167 0.000986
# 4 0.000742 -0.009416 -0.005268 0.047099 0.011034 -0.003003
# 5 -0.000223 -0.007052 0.009167 0.011034 0.037345 -0.005052
# 6 0.000022 -0.000977 0.000986 -0.003003 -0.005052 0.019917
#
#
# Mechanical properties :
#
#
# Convention : Reuss Voigt Hill
#
# Bulk Modulus (GPa) = 51.15432 99.40387 75.27910
# Shear Modulus (GPa) = 27.55834 40.15159 33.85496
#
# Velocity S-wave (km/s) = 3.40835 4.11405 3.77771
# Velocity P-wave (km/s) = 6.08708 8.02930 7.12468
#
# Compressibility (1/GPa) = 0.01954869
#
# Stress axis : x y z
#
# Youngs Moduli (GPa) = 146.19878 79.85933 38.92566
#
# Poissons Ratio (x) = 0.25245 0.11998
# Poissons Ratio (y) = 0.46217 0.25333
# Poissons Ratio (z) = 0.45062 0.51974
#
# Static dielectric constant tensor:
#      x y z
#    x 1.909600 0.005780 0.002310 
#    y 0.005780 1.891540 -0.062480 
#    z 0.002310 -0.062480 1.997160 
# 
# From -- ./inp_files/454527.got.cif
#   From: 2010.05.17/outbox.cif.g08.bks.cpg/sg2_228_cif.got.tgz:454527.got - 2010.06.03 11:33:40.
