data_PCOD9011809
_publ_section_title
;
Structure prediction by ZEFSAII (Michael W. Deem and Ramdas Pophale) SiO2 
 PCOD9011809
Probable space group: P -1
;
_chemical_formula_sum "Si O2"
_cell_formula_units_Z 12
_cell_length_a 4.815315
_cell_length_b 17.469118
_cell_length_c 7.543215
_cell_angle_alpha 47.170044
_cell_angle_beta 77.572849
_cell_angle_gamma 73.146732
_cell_volume 445.213471
_symmetry_space_group_name_H-M "P -1"
_symmetry_group_IT_number 2
_symmetry_cell_setting 'triclinic'
loop_
_space_group_symop_operation_xyz
x,y,z
-x,-y,-z
loop_
_atom_site_type_symbol
_atom_site_label
_atom_site_fract_x
_atom_site_fract_y
_atom_site_fract_z
Si Si1 0.043211 0.128874 0.974726
Si Si2 0.813750 0.272538 0.457878
Si Si3 0.875126 0.596354 0.052472
Si Si4 0.437217 0.185121 0.111696
Si Si5 0.571841 0.529504 0.646969
Si Si6 0.982281 0.922352 0.458438
O O1 0.005311 0.198433 0.694429
O O2 0.775578 0.184450 0.052157
O O3 0.341476 0.134358 0.023810
O O4 0.996904 0.008082 0.169143
O O5 0.982619 0.352094 0.209572
O O6 0.548011 0.348267 0.474451
O O7 0.780169 0.183800 0.454677
O O8 0.102889 0.513015 0.266451
O O9 0.737703 0.695327 0.038574
O O10 0.616002 0.542912 0.106511
O O11 0.311441 0.120372 0.387698
O O12 0.500000 0.500000 0.500000
O O13 0.000000 0.000000 0.500000
#
# Coordination Sequence:
#
# PCOD9011809 Si02
#       6
#     2   2   2   2   2   2
#     4  11  22  41  64  97 129 167 215 264 316 380
#     4  11  24  41  67  97 131 170 212 263 321 381
#     4  11  24  43  65  96 132 168 212 263 318 379
#     4  10  21  40  67  94 128 172 214 261 318 375
#     4  12  25  44  68  96 129 169 214 263 316 380
#     4   9  21  43  67  94 129 170 215 266 318 375
#
# _framework density 26.95336
#
# number of rings (size 3 to 8) (size 9 to 14) (size 15 to 20)
#    0.000    1.333    0.000    5.500    0.000    2.667 
#    0.000   19.167    0.000    0.000    0.000    0.000 
#    0.000    0.000    0.000    0.000    0.000    0.000 
#
# Total GULP energy -67184.270392 kJ/mol
# GULP energy per Si atom -5598.689199 kJ/mol
# Density = 2.689201 g / cm^3
# Si number density = 26.953360 Si / 1000 Ang^3
#
#
#
# Elastic Constant Matrix: (Units=GPa)
#
#
# Indices 1 2 3 4 5 6 
#
# 1 99.5298 18.5794 10.8077 -4.0962 -8.3124 7.0117
# 2 18.5794 172.1277 27.6781 -8.0366 -4.5594 -0.3697
# 3 10.8077 27.6781 127.6580 7.5889 0.7617 15.0076
# 4 -4.0962 -8.0366 7.5889 40.6758 4.2675 11.7422
# 5 -8.3124 -4.5594 0.7617 4.2675 27.7102 1.4223
# 6 7.0117 -0.3697 15.0076 11.7422 1.4223 28.2529
#
#
#
# Elastic Compliance Matrix: (Units=1/GPa)
#
#
# Indices 1 2 3 4 5 6 
#
# 1 0.010823 -0.000949 -0.000438 0.001617 0.003022 -0.003290
# 2 -0.000949 0.006209 -0.001403 0.001176 0.000566 0.000545
# 3 -0.000438 -0.001403 0.008716 -0.000695 -0.000277 -0.004236
# 4 0.001617 0.001176 -0.000695 0.028861 -0.003139 -0.011853
# 5 0.003022 0.000566 -0.000277 -0.003139 0.037639 -0.001186
# 6 -0.003290 0.000545 -0.004236 -0.011853 -0.001186 0.043454
#
#
# Mechanical properties :
#
#
# Convention : Reuss Voigt Hill
#
# Bulk Modulus (GPa) = 49.58670 57.04954 53.31812
# Shear Modulus (GPa) = 33.78273 42.14447 37.96360
#
# Velocity S-wave (km/s) = 3.54415 3.95854 3.75706
# Velocity P-wave (km/s) = 5.93171 6.48886 6.21653
#
# Compressibility (1/GPa) = 0.02016670
#
# Stress axis : x y z
#
# Youngs Moduli (GPa) = 92.39838 161.06112 114.73481
#
# Poissons Ratio (x) = 0.15290 0.05023
# Poissons Ratio (y) = 0.08772 0.16099
# Poissons Ratio (z) = 0.04045 0.22599
#
# Static dielectric constant tensor:
#      x y z
#    x 2.060480 0.004340 0.050030 
#    y 0.004340 2.156360 0.090840 
#    z 0.050030 0.090840 2.200400 
# 
# From -- ./inp_files/140959.got.cif
#   From: 2010.05.17/outbox.cif.g08.bks.cpg/sg2_71_cif.got.tgz:140959.got - 2010.06.03 11:33:40.
