data_PCOD9011464
_publ_section_title
;
Structure prediction by ZEFSAII (Michael W. Deem and Ramdas Pophale) SiO2 
 PCOD9011464
Probable space group: P -1
;
_chemical_formula_sum "Si O2"
_cell_formula_units_Z 12
_cell_length_a 9.237922
_cell_length_b 7.896053
_cell_length_c 13.501409
_cell_angle_alpha 108.881026
_cell_angle_beta 147.497137
_cell_angle_gamma 76.864825
_cell_volume 498.694519
_symmetry_space_group_name_H-M "P -1"
_symmetry_group_IT_number 2
_symmetry_cell_setting 'triclinic'
loop_
_space_group_symop_operation_xyz
x,y,z
-x,-y,-z
loop_
_atom_site_type_symbol
_atom_site_label
_atom_site_fract_x
_atom_site_fract_y
_atom_site_fract_z
Si Si1 0.531432 0.718486 0.616586
Si Si2 0.235910 0.767775 0.821015
Si Si3 0.715519 0.683794 0.938441
Si Si4 0.935607 0.047434 0.582267
Si Si5 0.981127 0.041122 0.112722
Si Si6 0.041069 0.438839 0.771983
O O1 0.625264 0.655692 0.767474
O O2 0.369347 0.898326 0.574316
O O3 0.282797 0.583352 0.408071
O O4 0.778549 0.799887 0.707070
O O5 0.465056 0.751165 0.868481
O O6 0.139040 0.569557 0.765343
O O7 0.015709 0.885258 0.665597
O O8 0.276772 0.876578 0.969675
O O9 0.964572 0.841211 0.110590
O O10 0.817493 0.523589 0.033109
O O11 0.105618 0.237466 0.741332
O O12 0.000000 0.000000 0.500000
O O13 0.000000 0.000000 0.000000
#
# Coordination Sequence:
#
# PCOD9011464 Si02
#       6
#     2   2   2   2   2   2
#     4   9  22  42  61  97 129 159 221 257 312 381
#     4  12  22  40  68  95 125 172 211 257 325 371
#     4  11  21  41  66  92 131 165 211 264 310 380
#     4  10  21  40  66  92 126 166 204 263 314 368
#     4  10  22  39  65  92 127 171 211 261 312 378
#     4  10  24  39  65  97 128 162 215 262 314 378
#
# _framework density 24.062826999999999
#
# number of rings (size 3 to 8) (size 9 to 14) (size 15 to 20)
#    1.000    0.667    3.333    1.000    0.000    6.000 
#    0.000    6.667    0.000    0.000    0.000    0.000 
#    0.000    0.000    0.000    0.000    0.000    0.000 
#
# Total GULP energy -66882.083922 kJ/mol
# GULP energy per Si atom -5573.506994 kJ/mol
# Density = 2.400806 g / cm^3
# Si number density = 24.062827 Si / 1000 Ang^3
#
#
#
# Elastic Constant Matrix: (Units=GPa)
#
#
# Indices 1 2 3 4 5 6 
#
# 1 137.1346 31.6691 23.9327 -12.6125 -11.3489 21.8809
# 2 31.6691 102.3818 33.1965 -20.6733 -13.5842 49.3423
# 3 23.9327 33.1965 92.4271 -20.7977 -11.9667 17.5118
# 4 -12.6125 -20.6733 -20.7977 32.9628 3.9276 -4.5367
# 5 -11.3489 -13.5842 -11.9667 3.9276 37.3828 -1.8458
# 6 21.8809 49.3423 17.5118 -4.5367 -1.8458 49.2238
#
#
#
# Elastic Compliance Matrix: (Units=1/GPa)
#
#
# Indices 1 2 3 4 5 6 
#
# 1 0.008281 -0.000316 -0.000851 0.001831 0.001795 -0.002826
# 2 -0.000316 0.023766 -0.001178 0.010287 0.005991 -0.022090
# 3 -0.000851 -0.001178 0.013915 0.007006 0.002901 -0.002636
# 4 0.001831 0.010287 0.007006 0.040341 0.001813 -0.009832
# 5 0.001795 0.005991 0.002901 0.001813 0.029887 -0.006548
# 6 -0.002826 -0.022090 -0.002636 -0.009832 -0.006548 0.043501
#
#
# Mechanical properties :
#
#
# Convention : Reuss Voigt Hill
#
# Bulk Modulus (GPa) = 24.23020 56.61557 40.42289
# Shear Modulus (GPa) = 28.06808 40.12356 34.09582
#
# Velocity S-wave (km/s) = 3.41904 4.08787 3.76832
# Velocity P-wave (km/s) = 5.06733 6.77202 5.98072
#
# Compressibility (1/GPa) = 0.04127081
#
# Stress axis : x y z
#
# Youngs Moduli (GPa) = 120.75255 42.07772 71.86720
#
# Poissons Ratio (x) = 0.01330 0.06117
# Poissons Ratio (y) = 0.03817 0.08467
# Poissons Ratio (z) = 0.10278 0.04957
#
# Static dielectric constant tensor:
#      x y z
#    x 1.931550 -0.061610 0.007620 
#    y -0.061610 2.028810 0.014170 
#    z 0.007620 0.014170 2.079140 
# 
# From -- ./inp_files/295578.got.cif
#   From: 2010.05.17/outbox.cif.g08.bks.cpg/sg2_148_cif.got.tgz:295578.got - 2010.06.03 11:33:40.
