data_PCOD9011715
_publ_section_title
;
Structure prediction by ZEFSAII (Michael W. Deem and Ramdas Pophale) SiO2 
 PCOD9011715
Probable space group: P -1
;
_chemical_formula_sum "Si O2"
_cell_formula_units_Z 8
_cell_length_a 5.962747
_cell_length_b 10.497032
_cell_length_c 5.482716
_cell_angle_alpha 69.001471
_cell_angle_beta 106.065422
_cell_angle_gamma 102.557651
_cell_volume 305.181103
_symmetry_space_group_name_H-M "P -1"
_symmetry_group_IT_number 2
_symmetry_cell_setting 'triclinic'
loop_
_space_group_symop_operation_xyz
x,y,z
-x,-y,-z
loop_
_atom_site_type_symbol
_atom_site_label
_atom_site_fract_x
_atom_site_fract_y
_atom_site_fract_z
Si Si1 0.088078 0.648235 0.307750
Si Si2 0.431832 0.188914 0.473857
Si Si3 0.352730 0.478350 0.218626
Si Si4 0.223834 0.114879 0.965828
O O1 0.302025 0.737769 0.454140
O O2 0.187457 0.597976 0.114429
O O3 0.000000 0.500000 0.500000
O O4 0.881468 0.740313 0.166284
O O5 0.273429 0.315561 0.323808
O O6 0.646916 0.892738 0.247921
O O7 0.384493 0.112765 0.255558
O O8 0.500000 0.500000 0.500000
O O9 0.500000 0.500000 0.000000
O O10 0.000000 0.000000 0.000000
#
# Coordination Sequence:
#
# PCOD9011715 Si02
#       4
#     2   2   2   2
#     4  11  25  46  77 113 142 195 237 301 379 428
#     4  11  25  46  72 105 151 181 246 307 350 434
#     4  10  21  40  67 104 140 174 228 298 355 415
#     4  12  28  48  72 105 147 198 246 293 360 436
#
# _framework density 26.213941999999999
#
# number of rings (size 3 to 8) (size 9 to 14) (size 15 to 20)
#    0.000    1.000    2.500    3.750    3.500    9.000 
#    0.000    0.000    0.000    0.000    0.000    0.000 
#    0.000    0.000    0.000    0.000    0.000    0.000 
#
# Total GULP energy -44802.330292 kJ/mol
# GULP energy per Si atom -5600.291286 kJ/mol
# Density = 2.615428 g / cm^3
# Si number density = 26.213942 Si / 1000 Ang^3
#
#
#
# Elastic Constant Matrix: (Units=GPa)
#
#
# Indices 1 2 3 4 5 6 
#
# 1 116.3545 45.8782 100.5819 8.2391 -12.7999 16.6764
# 2 45.8782 110.0458 72.6249 -0.5549 -12.8571 4.2667
# 3 100.5819 72.6249 256.8887 23.1193 -22.6898 23.0878
# 4 8.2391 -0.5549 23.1193 51.0888 4.8012 3.8678
# 5 -12.7999 -12.8571 -22.6898 4.8012 65.6299 3.0843
# 6 16.6764 4.2667 23.0878 3.8678 3.0843 79.2015
#
#
#
# Elastic Compliance Matrix: (Units=1/GPa)
#
#
# Indices 1 2 3 4 5 6 
#
# 1 0.013783 -0.002688 -0.004421 -0.000206 0.000718 -0.001486
# 2 -0.002688 0.011890 -0.002421 0.001541 0.000831 0.000524
# 3 -0.004421 -0.002421 0.006703 -0.002397 0.001195 -0.000822
# 4 -0.000206 0.001541 -0.002397 0.020926 -0.002085 -0.000282
# 5 0.000718 0.000831 0.001195 -0.002085 0.016156 -0.001072
# 6 -0.001486 0.000524 -0.000822 -0.000282 -0.001072 0.013206
#
#
# Mechanical properties :
#
#
# Convention : Reuss Voigt Hill
#
# Bulk Modulus (GPa) = 75.09936 102.38435 88.74186
# Shear Modulus (GPa) = 47.09757 56.79762 51.94760
#
# Velocity S-wave (km/s) = 4.24330 4.65983 4.45643
# Velocity P-wave (km/s) = 7.26074 8.25191 7.77214
#
# Compressibility (1/GPa) = 0.01331569
#
# Stress axis : x y z
#
# Youngs Moduli (GPa) = 72.55572 84.10256 149.17721
#
# Poissons Ratio (x) = 0.22606 0.65950
# Poissons Ratio (y) = 0.19502 0.36122
# Poissons Ratio (z) = 0.32077 0.20365
#
# Static dielectric constant tensor:
#      x y z
#    x 2.255510 -0.086440 0.050960 
#    y -0.086440 2.077710 -0.017340 
#    z 0.050960 -0.017340 2.069490 
# 
# From -- ./inp_files/1389.got.cif
#   From: 2010.05.17/outbox.cif.g08.bks.cpg/sg2_1_cif.got.tgz:1389.got - 2010.06.03 11:33:40.
