data_PCOD9011566
_publ_section_title
;
Structure prediction by ZEFSAII (Michael W. Deem and Ramdas Pophale) SiO2 
 PCOD9011566
Probable space group: P -1
;
_chemical_formula_sum "Si O2"
_cell_formula_units_Z 16
_cell_length_a 22.449011
_cell_length_b 11.155628
_cell_length_c 10.538637
_cell_angle_alpha 39.576721
_cell_angle_beta 32.173146
_cell_angle_gamma 30.577613
_cell_volume 706.238697
_symmetry_space_group_name_H-M "P -1"
_symmetry_group_IT_number 2
_symmetry_cell_setting 'triclinic'
loop_
_space_group_symop_operation_xyz
x,y,z
-x,-y,-z
loop_
_atom_site_type_symbol
_atom_site_label
_atom_site_fract_x
_atom_site_fract_y
_atom_site_fract_z
Si Si1 0.802113 0.286256 0.009027
Si Si2 0.572102 0.770211 0.469050
Si Si3 0.816988 0.795526 0.994738
Si Si4 0.345077 0.729476 0.247607
Si Si5 0.509319 0.772888 0.133837
Si Si6 0.912259 0.111012 0.235177
Si Si7 0.072864 0.337877 0.807315
Si Si8 0.658995 0.070367 0.447734
O O1 0.675771 0.561730 0.018090
O O2 0.847356 0.176637 0.158151
O O3 0.725088 0.185855 0.168188
O O4 0.953000 0.169039 0.768994
O O5 0.586743 0.544471 0.683804
O O6 0.473823 0.860739 0.449204
O O7 0.500000 0.000000 0.500000
O O8 0.723186 0.705014 0.217337
O O9 0.959057 0.623356 0.794807
O O10 0.721548 0.072407 0.903383
O O11 0.860872 0.752481 0.097701
O O12 0.448967 0.752425 0.127612
O O13 0.210608 0.810863 0.510380
O O14 0.407111 0.795777 0.409138
O O15 0.500000 0.000000 0.000000
O O16 0.982775 0.243643 0.016243
O O17 0.206603 0.210054 0.573743
#
# Coordination Sequence:
#
# PCOD9011566 Si02
#       8
#     2   2   2   2   2   2   2   2
#     4  10  21  40  66  95 133 178 219 270 339 414
#     4  12  24  45  71  98 137 186 226 279 344 401
#     4  11  25  45  67  98 136 179 235 283 332 405
#     4  12  25  44  70 104 137 177 231 284 339 409
#     4  12  25  40  65 104 142 172 221 284 347 408
#     4  10  21  40  68  96 129 181 224 274 341 397
#     4  10  23  44  67  94 134 182 233 278 337 403
#     4  11  21  42  69  94 134 179 222 276 346 403
#
# _framework density 22.65523
#
# number of rings (size 3 to 8) (size 9 to 14) (size 15 to 20)
#    0.000    1.000    5.000    1.875    1.750    2.000 
#    0.000    2.500    0.000    0.000    0.000    0.000 
#    0.000    0.000    0.000    0.000    0.000    0.000 
#
# Total GULP energy -89323.130503 kJ/mol
# GULP energy per Si atom -5582.695656 kJ/mol
# Density = 2.260367 g / cm^3
# Si number density = 22.655230 Si / 1000 Ang^3
#
#
#
# Elastic Constant Matrix: (Units=GPa)
#
#
# Indices 1 2 3 4 5 6 
#
# 1 96.3594 29.3426 23.0006 0.3238 -27.8870 -6.8199
# 2 29.3426 197.4888 30.9450 11.5973 -4.5928 2.2539
# 3 23.0006 30.9450 46.8630 -5.1288 -8.8889 -4.7266
# 4 0.3238 11.5973 -5.1288 34.2746 5.7301 -5.0825
# 5 -27.8870 -4.5928 -8.8889 5.7301 25.0808 -0.2377
# 6 -6.8199 2.2539 -4.7266 -5.0825 -0.2377 22.2560
#
#
#
# Elastic Compliance Matrix: (Units=1/GPa)
#
#
# Indices 1 2 3 4 5 6 
#
# 1 0.017361 -0.001417 -0.003991 -0.002718 0.018290 0.004190
# 2 -0.001417 0.006089 -0.004145 -0.002833 -0.001307 -0.002592
# 3 -0.003991 -0.004145 0.028003 0.006032 0.003412 0.006558
# 4 -0.002718 -0.002833 0.006032 0.033816 -0.009050 0.008361
# 5 0.018290 -0.001307 0.003412 -0.009050 0.063293 0.005071
# 6 0.004190 -0.002592 0.006558 0.008361 0.005071 0.049835
#
#
# Mechanical properties :
#
#
# Convention : Reuss Voigt Hill
#
# Bulk Modulus (GPa) = 30.91337 56.36530 43.63933
# Shear Modulus (GPa) = 21.90248 33.48382 27.69315
#
# Velocity S-wave (km/s) = 3.11267 3.84861 3.50004
# Velocity P-wave (km/s) = 5.15685 6.68451 5.96975
#
# Compressibility (1/GPa) = 0.03234847
#
# Stress axis : x y z
#
# Youngs Moduli (GPa) = 57.60080 164.22739 35.71014
#
# Poissons Ratio (x) = 0.23271 0.14251
# Poissons Ratio (y) = 0.08162 0.14801
# Poissons Ratio (z) = 0.22987 0.68067
#
# Static dielectric constant tensor:
#      x y z
#    x 1.736090 -0.002340 -0.191010 
#    y -0.002340 1.931350 -0.067300 
#    z -0.191010 -0.067300 1.406090 
# 
# From -- ./inp_files/474840.got.cif
#   From: 2010.05.17/outbox.cif.g08.bks.cpg/sg2_238_cif.got.tgz:474840.got - 2010.06.03 11:33:40.
