data_PCOD9011608
_publ_section_title
;
Structure prediction by ZEFSAII (Michael W. Deem and Ramdas Pophale) SiO2 
 PCOD9011608
Probable space group: P -1
;
_chemical_formula_sum "Si O2"
_cell_formula_units_Z 14
_cell_length_a 18.438942
_cell_length_b 17.101147
_cell_length_c 9.111211
_cell_angle_alpha 141.100502
_cell_angle_beta 26.628017
_cell_angle_gamma 151.963323
_cell_volume 604.460526
_symmetry_space_group_name_H-M "P -1"
_symmetry_group_IT_number 2
_symmetry_cell_setting 'triclinic'
loop_
_space_group_symop_operation_xyz
x,y,z
-x,-y,-z
loop_
_atom_site_type_symbol
_atom_site_label
_atom_site_fract_x
_atom_site_fract_y
_atom_site_fract_z
Si Si1 0.927640 0.835169 0.469578
Si Si2 0.920182 0.346595 0.210400
Si Si3 0.352373 0.073577 0.214841
Si Si4 0.512609 0.392052 0.203504
Si Si5 0.819864 0.008689 0.300866
Si Si6 0.008618 0.641220 0.565814
Si Si7 0.495036 0.074253 0.464246
O O1 0.668175 0.695181 0.725515
O O2 0.000000 0.000000 0.500000
O O3 0.093590 0.922939 0.433290
O O4 0.991847 0.740614 0.129752
O O5 0.064281 0.544471 0.235224
O O6 0.706758 0.265359 0.384019
O O7 0.880720 0.309638 0.402207
O O8 0.445256 0.235538 0.189846
O O9 0.367737 0.103292 0.402759
O O10 0.462315 0.005672 0.855675
O O11 0.500000 0.500000 0.500000
O O12 0.753002 0.511340 0.877255
O O13 0.925325 0.199004 0.397336
O O14 0.712623 0.953738 0.251846
O O15 0.000000 0.000000 0.000000
O O16 0.500000 0.000000 0.500000
#
# Coordination Sequence:
#
# PCOD9011608 Si02
#       7
#     2   2   2   2   2   2   2
#     4   9  20  38  65  96 136 175 232 276 334 407
#     4  10  21  40  66  97 126 177 235 279 319 406
#     4  10  24  42  65  98 133 182 228 282 341 411
#     4  11  20  36  65  99 132 177 232 280 333 401
#     4  12  27  44  66 102 147 178 222 290 356 402
#     4  11  23  40  66 101 136 175 232 280 343 407
#     4  11  22  44  72  95 130 185 240 270 332 426
#
# _framework density 23.161145999999999
#
# number of rings (size 3 to 8) (size 9 to 14) (size 15 to 20)
#    0.000    1.429    2.857    2.143    4.000    2.286 
#    0.000    7.143    0.000    0.000    0.000    0.000 
#    0.000    0.000    0.000    0.000    0.000    0.000 
#
# Total GULP energy -78184.579316 kJ/mol
# GULP energy per Si atom -5584.612808 kJ/mol
# Density = 2.310843 g / cm^3
# Si number density = 23.161146 Si / 1000 Ang^3
#
#
#
# Elastic Constant Matrix: (Units=GPa)
#
#
# Indices 1 2 3 4 5 6 
#
# 1 106.3688 33.9184 36.0301 -5.4060 -32.3230 5.3882
# 2 33.9184 108.3060 37.4056 11.4154 -18.1468 9.4999
# 3 36.0301 37.4056 88.4058 8.9151 -12.1512 7.3286
# 4 -5.4060 11.4154 8.9151 56.4468 3.4390 -10.7125
# 5 -32.3230 -18.1468 -12.1512 3.4390 37.4667 -5.0948
# 6 5.3882 9.4999 7.3286 -10.7125 -5.0948 39.3504
#
#
#
# Elastic Compliance Matrix: (Units=1/GPa)
#
#
# Indices 1 2 3 4 5 6 
#
# 1 0.014505 -0.001708 -0.004051 0.001944 0.010336 0.001048
# 2 -0.001708 0.011980 -0.003480 -0.002670 0.003128 -0.002332
# 3 -0.004051 -0.003480 0.014785 -0.002384 -0.000447 -0.002066
# 4 0.001944 -0.002670 -0.002384 0.020062 -0.001401 0.006103
# 5 0.010336 0.003128 -0.000447 -0.001401 0.037430 0.002377
# 6 0.001048 -0.002332 -0.002066 0.006103 0.002377 0.028186
#
#
# Mechanical properties :
#
#
# Convention : Reuss Voigt Hill
#
# Bulk Modulus (GPa) = 43.87652 57.53207 50.70429
# Shear Modulus (GPa) = 32.67475 39.70122 36.18798
#
# Velocity S-wave (km/s) = 3.76008 4.14470 3.95706
# Velocity P-wave (km/s) = 6.15110 6.91365 6.54349
#
# Compressibility (1/GPa) = 0.02279124
#
# Stress axis : x y z
#
# Youngs Moduli (GPa) = 68.94261 83.47170 67.63575
#
# Poissons Ratio (x) = 0.14260 0.27398
# Poissons Ratio (y) = 0.11778 0.23539
# Poissons Ratio (z) = 0.27927 0.29050
#
# Static dielectric constant tensor:
#      x y z
#    x 1.910270 0.045530 -0.040180 
#    y 0.045530 1.902910 -0.023950 
#    z -0.040180 -0.023950 1.961200 
# 
# From -- ./inp_files/242790.got.cif
#   From: 2010.05.17/outbox.cif.g08.bks.cpg/sg2_122_cif.got.tgz:242790.got - 2010.06.03 11:33:40.
