data_PCOD9011074
_publ_section_title
;
Structure prediction by ZEFSAII (Michael W. Deem and Ramdas Pophale) SiO2 
 PCOD9011074
Probable space group: P -1
;
_chemical_formula_sum "Si O2"
_cell_formula_units_Z 16
_cell_length_a 14.926986
_cell_length_b 14.923211
_cell_length_c 9.568046
_cell_angle_alpha 78.144087
_cell_angle_beta 103.155600
_cell_angle_gamma 33.594841
_cell_volume 780.933553
_symmetry_space_group_name_H-M "P -1"
_symmetry_group_IT_number 2
_symmetry_cell_setting 'triclinic'
loop_
_space_group_symop_operation_xyz
x,y,z
-x,-y,-z
loop_
_atom_site_type_symbol
_atom_site_label
_atom_site_fract_x
_atom_site_fract_y
_atom_site_fract_z
Si Si1 0.807026 0.623518 0.210539
Si Si2 0.047783 0.656947 0.216378
Si Si3 0.224725 0.805450 0.455071
Si Si4 0.437882 0.809334 0.034890
Si Si5 0.182932 0.258700 0.079310
Si Si6 0.687536 0.248141 0.176891
Si Si7 0.445544 0.409097 0.573807
Si Si8 0.711666 0.750476 0.457932
O O1 0.657779 0.670425 0.110966
O O2 0.734195 0.720716 0.308616
O O3 0.096135 0.348996 0.397773
O O4 0.747395 0.757835 0.037777
O O5 0.239722 0.559550 0.348585
O O6 0.179734 0.444405 0.385254
O O7 0.951563 0.712968 0.012070
O O8 0.805116 0.908308 0.129514
O O9 0.283949 0.789883 0.634369
O O10 0.353699 0.588559 0.550674
O O11 0.323776 0.779343 0.376903
O O12 0.943488 0.044855 0.273288
O O13 0.498534 0.711696 0.241089
O O14 0.392730 0.769177 0.924727
O O15 0.438027 0.012621 0.322093
O O16 0.000000 0.500000 0.000000
O O17 0.500000 0.500000 0.000000
#
# Coordination Sequence:
#
# PCOD9011074 Si02
#       8
#     2   2   2   2   2   2   2   2
#     4  10  22  36  65  93 121 166 215 260 308 376
#     4  11  22  39  66  93 127 166 218 262 310 381
#     4  10  24  42  64  94 127 166 213 266 333 379
#     4  12  23  39  68  98 127 169 223 263 315 389
#     4  11  24  41  62  93 135 168 207 262 326 380
#     4  11  23  43  65  94 132 166 207 270 328 383
#     4  11  22  41  66  95 125 166 217 270 316 382
#     4  10  21  40  65  90 123 164 214 261 308 371
#
# _framework density 20.488299000000001
#
# number of rings (size 3 to 8) (size 9 to 14) (size 15 to 20)
#    0.000    1.250    5.000    0.375    3.500    4.500 
#    0.000    2.500    0.000    0.000    0.000    0.000 
#    0.000    0.000    0.000    0.000    0.000    0.000 
#
# Total GULP energy -89330.295578 kJ/mol
# GULP energy per Si atom -5583.143474 kJ/mol
# Density = 2.044167 g / cm^3
# Si number density = 20.488299 Si / 1000 Ang^3
#
#
#
# Elastic Constant Matrix: (Units=GPa)
#
#
# Indices 1 2 3 4 5 6 
#
# 1 88.3540 28.4990 39.4008 3.7153 35.7451 8.0466
# 2 28.4990 91.2314 36.1148 -22.4461 28.3220 11.5518
# 3 39.4008 36.1148 93.5243 -19.1813 31.7466 4.3526
# 4 3.7153 -22.4461 -19.1813 33.6919 7.6732 1.0379
# 5 35.7451 28.3220 31.7466 7.6732 44.3423 8.0283
# 6 8.0466 11.5518 4.3526 1.0379 8.0283 31.8291
#
#
#
# Elastic Compliance Matrix: (Units=1/GPa)
#
#
# Indices 1 2 3 4 5 6 
#
# 1 0.017825 -0.001603 -0.004270 -0.003259 -0.009576 -0.000819
# 2 -0.001603 0.020815 0.002247 0.019136 -0.016200 -0.003995
# 3 -0.004270 0.002247 0.020462 0.017183 -0.015776 0.000885
# 4 -0.003259 0.019136 0.017183 0.059894 -0.031828 -0.002396
# 5 -0.009576 -0.016200 -0.015776 -0.031828 0.057987 -0.003131
# 6 -0.000819 -0.003995 0.000885 -0.002396 -0.003131 0.033821
#
#
# Mechanical properties :
#
#
# Convention : Reuss Voigt Hill
#
# Bulk Modulus (GPa) = 19.28655 53.45986 36.37321
# Shear Modulus (GPa) = 21.24578 33.24565 27.24572
#
# Velocity S-wave (km/s) = 3.22370 4.03260 3.65062
# Velocity P-wave (km/s) = 4.82599 6.91607 5.96331
#
# Compressibility (1/GPa) = 0.05184961
#
# Stress axis : x y z
#
# Youngs Moduli (GPa) = 56.10046 48.04126 48.87171
#
# Poissons Ratio (x) = 0.07702 0.20869
# Poissons Ratio (y) = 0.08994 -0.10981
# Poissons Ratio (z) = 0.23956 -0.10795
#
# Static dielectric constant tensor:
#      x y z
#    x 1.728550 -0.002510 0.029350 
#    y -0.002510 1.721710 0.011640 
#    z 0.029350 0.011640 1.774230 
# 
# From -- ./inp_files/315116.got.cif
#   From: 2010.05.17/outbox.cif.g08.bks.cpg/sg2_158_cif.got.tgz:315116.got - 2010.06.03 11:33:40.
