data_PCOD9011104
_publ_section_title
;
Structure prediction by ZEFSAII (Michael W. Deem and Ramdas Pophale) SiO2 
 PCOD9011104
Probable space group: P -1
;
_chemical_formula_sum "Si O2"
_cell_formula_units_Z 10
_cell_length_a 15.640364
_cell_length_b 11.060242
_cell_length_c 19.304325
_cell_angle_alpha 155.883642
_cell_angle_beta 159.464605
_cell_angle_gamma 25.347057
_cell_volume 449.773575
_symmetry_space_group_name_H-M "P -1"
_symmetry_group_IT_number 2
_symmetry_cell_setting 'triclinic'
loop_
_space_group_symop_operation_xyz
x,y,z
-x,-y,-z
loop_
_atom_site_type_symbol
_atom_site_label
_atom_site_fract_x
_atom_site_fract_y
_atom_site_fract_z
Si Si1 0.466404 0.418483 0.180169
Si Si2 0.289521 0.983103 0.728598
Si Si3 0.002225 0.637557 0.497964
Si Si4 0.043956 0.017240 0.124184
Si Si5 0.506674 0.141508 0.833784
O O1 0.539525 0.345549 0.277752
O O2 0.313654 0.773609 0.228040
O O3 0.740412 0.282828 0.276712
O O4 0.287481 0.231476 0.916963
O O5 0.423401 0.078185 0.813773
O O6 0.000000 0.000000 0.500000
O O7 0.721981 0.896744 0.407367
O O8 0.000000 0.500000 0.500000
O O9 0.969105 0.637289 0.680803
O O10 0.000000 0.000000 0.000000
O O11 0.802674 0.945433 0.938952
O O12 0.500000 0.500000 0.000000
#
# Coordination Sequence:
#
# PCOD9011104 Si02
#       5
#     2   2   2   2   2
#     4  11  23  39  69  95 131 180 222 270 337 391
#     4  11  23  44  66  94 139 179 217 272 341 401
#     4  11  21  40  67  98 131 173 226 271 326 398
#     4  11  23  40  67 102 136 169 224 281 326 387
#     4  10  21  40  65  91 130 175 216 267 326 393
#
# _framework density 22.233408000000001
#
# number of rings (size 3 to 8) (size 9 to 14) (size 15 to 20)
#    0.000    1.200    2.000    6.600    0.000    0.800 
#    0.000    1.000    0.000    0.000    0.000    0.000 
#    0.000    0.000    0.000    0.000    0.000    0.000 
#
# Total GULP energy -55839.377567 kJ/mol
# GULP energy per Si atom -5583.937757 kJ/mol
# Density = 2.218280 g / cm^3
# Si number density = 22.233408 Si / 1000 Ang^3
#
#
#
# Elastic Constant Matrix: (Units=GPa)
#
#
# Indices 1 2 3 4 5 6 
#
# 1 179.0129 20.3124 43.7657 -16.0534 5.4169 29.9117
# 2 20.3124 38.8934 25.5182 -21.1940 1.0841 15.6636
# 3 43.7657 25.5182 145.0134 -27.9831 5.2763 -0.7474
# 4 -16.0534 -21.1940 -27.9831 37.9678 -3.0710 -7.9769
# 5 5.4169 1.0841 5.2763 -3.0710 47.2214 -9.3747
# 6 29.9117 15.6636 -0.7474 -7.9769 -9.3747 32.1781
#
#
#
# Elastic Compliance Matrix: (Units=1/GPa)
#
#
# Indices 1 2 3 4 5 6 
#
# 1 0.007489 0.001059 -0.002387 0.000104 -0.002229 -0.008156
# 2 0.001059 0.046654 -0.004981 0.018275 -0.003476 -0.020292
# 3 -0.002387 -0.004981 0.009359 0.004487 0.000871 0.006227
# 4 0.000104 0.018275 0.004487 0.040417 0.002038 0.001725
# 5 -0.002229 -0.003476 0.000871 0.002038 0.023774 0.011216
# 6 -0.008156 -0.020292 0.006227 0.001725 0.011216 0.052377
#
#
# Mechanical properties :
#
#
# Convention : Reuss Voigt Hill
#
# Bulk Modulus (GPa) = 19.65282 60.23471 39.94377
# Shear Modulus (GPa) = 23.84907 41.69503 32.77205
#
# Velocity S-wave (km/s) = 3.27871 4.33521 3.84344
# Velocity P-wave (km/s) = 4.81579 7.22561 6.14009
#
# Compressibility (1/GPa) = 0.05088329
#
# Stress axis : x y z
#
# Youngs Moduli (GPa) = 133.52176 21.43433 106.84681
#
# Poissons Ratio (x) = -0.02269 0.25510
# Poissons Ratio (y) = -0.14136 0.53220
# Poissons Ratio (z) = 0.31878 0.10676
#
# Static dielectric constant tensor:
#      x y z
#    x 1.834570 0.010240 0.016120 
#    y 0.010240 1.939300 -0.000460 
#    z 0.016120 -0.000460 1.888610 
# 
# From -- ./inp_files/573659.got.cif
#   From: 2010.05.17/outbox.cif.g08.bks.cpg/sg2_287_cif.got.tgz:573659.got - 2010.06.03 11:33:40.
