data_PCOD9011678
_publ_section_title
;
Structure prediction by ZEFSAII (Michael W. Deem and Ramdas Pophale) SiO2 
 PCOD9011678
Probable space group: P -1
;
_chemical_formula_sum "Si O2"
_cell_formula_units_Z 14
_cell_length_a 7.868961
_cell_length_b 18.977090
_cell_length_c 8.336377
_cell_angle_alpha 52.168785
_cell_angle_beta 76.507015
_cell_angle_gamma 116.601162
_cell_volume 610.762168
_symmetry_space_group_name_H-M "P -1"
_symmetry_group_IT_number 2
_symmetry_cell_setting 'triclinic'
loop_
_space_group_symop_operation_xyz
x,y,z
-x,-y,-z
loop_
_atom_site_type_symbol
_atom_site_label
_atom_site_fract_x
_atom_site_fract_y
_atom_site_fract_z
Si Si1 0.666013 0.857878 0.955204
Si Si2 0.220029 0.542337 0.509867
Si Si3 0.671471 0.158091 0.751058
Si Si4 0.876063 0.069210 0.372072
Si Si5 0.187789 0.300589 0.242083
Si Si6 0.980246 0.726663 0.171996
Si Si7 0.513952 0.404718 0.335344
O O1 0.975613 0.944864 0.754480
O O2 0.652445 0.928406 0.720998
O O3 0.482257 0.700772 0.173034
O O4 0.557627 0.855703 0.150213
O O5 0.166995 0.416600 0.672229
O O6 0.251200 0.559817 0.674291
O O7 0.000000 0.500000 0.500000
O O8 0.912827 0.243159 0.448540
O O9 0.845230 0.235314 0.767782
O O10 0.500000 0.000000 0.000000
O O11 0.080579 0.186861 0.299403
O O12 0.837735 0.141478 0.170551
O O13 0.368360 0.326184 0.307977
O O14 0.374442 0.451051 0.915686
O O15 0.735603 0.689118 0.353105
#
# Coordination Sequence:
#
# PCOD9011678 Si02
#       7
#     2   2   2   2   2   2   2
#     4  11  24  41  67 101 136 167 227 281 326 401
#     4  12  22  40  67 100 137 170 223 283 331 391
#     4  11  23  44  63  96 142 177 212 281 345 394
#     4  11  22  43  72  98 126 182 229 271 329 405
#     4  10  21  40  72  95 132 179 223 272 329 405
#     4  11  22  41  75  92 130 189 224 268 341 403
#     4  10  21  40  67 100 126 178 227 267 332 404
#
# _framework density 22.922180000000001
#
# number of rings (size 3 to 8) (size 9 to 14) (size 15 to 20)
#    0.000    1.143    5.714    1.286    0.000    0.571 
#    2.571    5.000    0.000    0.000    0.000    0.000 
#    0.000    0.000    0.000    0.000    0.000    0.000 
#
# Total GULP energy -77956.759402 kJ/mol
# GULP energy per Si atom -5568.339957 kJ/mol
# Density = 2.287001 g / cm^3
# Si number density = 22.922180 Si / 1000 Ang^3
#
#
#
# Elastic Constant Matrix: (Units=GPa)
#
#
# Indices 1 2 3 4 5 6 
#
# 1 63.3250 18.0972 -4.7938 19.8970 0.4899 5.9793
# 2 18.0972 68.4629 -8.2357 10.1673 1.1164 0.8033
# 3 -4.7938 -8.2357 100.4725 0.8672 16.4563 -6.5902
# 4 19.8970 10.1673 0.8672 26.7455 -1.5621 8.1800
# 5 0.4899 1.1164 16.4563 -1.5621 41.9271 5.7285
# 6 5.9793 0.8033 -6.5902 8.1800 5.7285 35.6954
#
#
#
# Elastic Compliance Matrix: (Units=1/GPa)
#
#
# Indices 1 2 3 4 5 6 
#
# 1 0.021493 -0.003318 0.001096 -0.014921 -0.001188 0.000287
# 2 -0.003318 0.016326 0.001560 -0.004394 -0.001406 0.001709
# 3 0.001096 0.001560 0.011204 -0.003095 -0.005027 0.003366
# 4 -0.014921 -0.004394 -0.003095 0.053964 0.005040 -0.011148
# 5 -0.001188 -0.001406 -0.005027 0.005040 0.026906 -0.006170
# 6 0.000287 0.001709 0.003366 -0.011148 -0.006170 0.032095
#
#
# Mechanical properties :
#
#
# Convention : Reuss Voigt Hill
#
# Bulk Modulus (GPa) = 20.96440 26.93286 23.94863
# Shear Modulus (GPa) = 27.89987 36.01976 31.95982
#
# Velocity S-wave (km/s) = 3.49256 3.96838 3.73805
# Velocity P-wave (km/s) = 5.04279 5.72474 5.39455
#
# Compressibility (1/GPa) = 0.04769990
#
# Stress axis : x y z
#
# Youngs Moduli (GPa) = 46.52688 61.25016 89.25380
#
# Poissons Ratio (x) = 0.20321 -0.09779
# Poissons Ratio (y) = 0.15436 -0.13925
# Poissons Ratio (z) = -0.05098 -0.09556
#
# Static dielectric constant tensor:
#      x y z
#    x 2.089850 -0.008520 -0.064290 
#    y -0.008520 1.837740 0.028280 
#    z -0.064290 0.028280 1.891120 
# 
# From -- ./inp_files/218241.got.cif
#   From: 2010.05.17/outbox.cif.g08.bks.cpg/sg2_110_cif.got.tgz:218241.got - 2010.06.03 11:33:40.
