data_PCOD9011481
_publ_section_title
;
Structure prediction by ZEFSAII (Michael W. Deem and Ramdas Pophale) SiO2 
 PCOD9011481
Probable space group: P -1
;
_chemical_formula_sum "Si O2"
_cell_formula_units_Z 14
_cell_length_a 7.877333
_cell_length_b 15.695131
_cell_length_c 23.490997
_cell_angle_alpha 152.385060
_cell_angle_beta 145.618338
_cell_angle_gamma 41.440301
_cell_volume 758.348754
_symmetry_space_group_name_H-M "P -1"
_symmetry_group_IT_number 2
_symmetry_cell_setting 'triclinic'
loop_
_space_group_symop_operation_xyz
x,y,z
-x,-y,-z
loop_
_atom_site_type_symbol
_atom_site_label
_atom_site_fract_x
_atom_site_fract_y
_atom_site_fract_z
Si Si1 0.762231 0.618044 0.043949
Si Si2 0.864841 0.548435 0.252955
Si Si3 0.145238 0.168797 0.112075
Si Si4 0.684683 0.817835 0.465488
Si Si5 0.229097 0.151779 0.000239
Si Si6 0.802913 0.423750 0.756097
Si Si7 0.801799 0.999684 0.216248
O O1 0.452779 0.517779 0.897158
O O2 0.916360 0.618687 0.148672
O O3 0.724783 0.823843 0.129152
O O4 0.000000 0.500000 0.000000
O O5 0.798636 0.701761 0.373118
O O6 0.073877 0.600813 0.288732
O O7 0.041962 0.115821 0.382499
O O8 0.029574 0.367022 0.220157
O O9 0.047160 0.166281 0.017083
O O10 0.000000 0.000000 0.000000
O O11 0.501313 0.127483 0.194446
O O12 0.461192 0.701146 0.371866
O O13 0.500000 0.000000 0.500000
O O14 0.081774 0.085309 0.862386
O O15 0.315235 0.361607 0.139938
O O16 0.500000 0.000000 0.000000
#
# Coordination Sequence:
#
# PCOD9011481 Si02
#       7
#     2   2   2   2   2   2   2
#     4  12  19  38  68  92 125 166 214 270 313 361
#     4  11  24  42  65  94 127 165 218 268 312 379
#     4  10  21  40  66  93 120 162 216 272 313 359
#     4  12  25  43  62  92 140 174 201 257 324 388
#     4   9  20  38  64  91 119 159 218 263 303 371
#     4  11  23  41  64  96 127 168 216 261 319 369
#     4  11  21  40  63  94 127 169 213 256 323 378
#
# _framework density 18.461162000000002
#
# number of rings (size 3 to 8) (size 9 to 14) (size 15 to 20)
#    0.000    1.143    5.714    0.429    2.000    1.143 
#    2.571    6.429    0.000    0.000    0.000    0.000 
#    0.000    0.000    0.000    0.000    0.000    0.000 
#
# Total GULP energy -78124.955831 kJ/mol
# GULP energy per Si atom -5580.353988 kJ/mol
# Density = 1.841914 g / cm^3
# Si number density = 18.461162 Si / 1000 Ang^3
#
#
#
# Elastic Constant Matrix: (Units=GPa)
#
#
# Indices 1 2 3 4 5 6 
#
# 1 104.7273 39.1757 82.4120 0.9842 -3.1096 2.6701
# 2 39.1757 93.2803 57.9542 7.3607 -7.4276 1.8739
# 3 82.4120 57.9542 150.8745 -5.5985 -9.6374 2.5478
# 4 0.9842 7.3607 -5.5985 44.5206 -6.2767 0.4823
# 5 -3.1096 -7.4276 -9.6374 -6.2767 25.9399 6.0494
# 6 2.6701 1.8739 2.5478 0.4823 6.0494 32.6215
#
#
#
# Elastic Compliance Matrix: (Units=1/GPa)
#
#
# Indices 1 2 3 4 5 6 
#
# 1 0.017144 -0.001719 -0.008887 -0.001500 -0.002054 -0.000207
# 2 -0.001719 0.014729 -0.004698 -0.002734 0.001749 -0.000622
# 3 -0.008887 -0.004698 0.013651 0.003209 0.003621 -0.000788
# 4 -0.001500 -0.002734 0.003209 0.024278 0.006460 -0.001528
# 5 -0.002054 0.001749 0.003621 0.006460 0.043675 -0.008410
# 6 -0.000207 -0.000622 -0.000788 -0.001528 -0.008410 0.032351
#
#
# Mechanical properties :
#
#
# Convention : Reuss Voigt Hill
#
# Bulk Modulus (GPa) = 67.04906 78.66288 72.85597
# Shear Modulus (GPa) = 27.56232 31.90574 29.73403
#
# Velocity S-wave (km/s) = 3.86811 4.16175 4.01761
# Velocity P-wave (km/s) = 7.50650 8.11147 7.81484
#
# Compressibility (1/GPa) = 0.01491445
#
# Stress axis : x y z
#
# Youngs Moduli (GPa) = 58.33027 67.89480 73.25674
#
# Poissons Ratio (x) = 0.11674 0.65105
# Poissons Ratio (y) = 0.10030 0.34413
# Poissons Ratio (z) = 0.51839 0.31894
#
# Static dielectric constant tensor:
#      x y z
#    x 1.670770 0.001510 -0.018890 
#    y 0.001510 1.673140 0.016220 
#    z -0.018890 0.016220 1.631610 
# 
# From -- ./inp_files/617382.got.cif
#   From: 2010.05.17/outbox.cif.g08.bks.cpg/sg2_309_cif.got.tgz:617382.got - 2010.06.03 11:33:40.
