data_PCOD9011775
_publ_section_title
;
Structure prediction by ZEFSAII (Michael W. Deem and Ramdas Pophale) SiO2 
 PCOD9011775
Probable space group: P -1
;
_chemical_formula_sum "Si O2"
_cell_formula_units_Z 12
_cell_length_a 9.537646
_cell_length_b 11.825539
_cell_length_c 9.116021
_cell_angle_alpha 127.271022
_cell_angle_beta 50.821348
_cell_angle_gamma 93.985932
_cell_volume 546.506405
_symmetry_space_group_name_H-M "P -1"
_symmetry_group_IT_number 2
_symmetry_cell_setting 'triclinic'
loop_
_space_group_symop_operation_xyz
x,y,z
-x,-y,-z
loop_
_atom_site_type_symbol
_atom_site_label
_atom_site_fract_x
_atom_site_fract_y
_atom_site_fract_z
Si Si1 0.979600 0.336710 0.908094
Si Si2 0.791908 0.826469 0.108212
Si Si3 0.507630 0.481621 0.301598
Si Si4 0.426875 0.817073 0.528439
Si Si5 0.654007 0.853544 0.673704
Si Si6 0.209143 0.350181 0.309051
O O1 0.998582 0.298074 0.040276
O O2 0.170101 0.167530 0.577640
O O3 0.756066 0.382503 0.029452
O O4 0.000000 0.500000 0.000000
O O5 0.616723 0.804082 0.294075
O O6 0.761253 0.008078 0.263860
O O7 0.751541 0.790809 0.942546
O O8 0.500000 0.500000 0.500000
O O9 0.408025 0.656455 0.419714
O O10 0.395061 0.388596 0.237776
O O11 0.498724 0.823808 0.652310
O O12 0.808359 0.706095 0.562677
O O13 0.500000 0.000000 0.000000
O O14 0.000000 0.500000 0.500000
#
# Coordination Sequence:
#
# PCOD9011775 Si02
#       6
#     2   2   2   2   2   2
#     4  11  21  43  70  97 130 183 223 266 338 401
#     4  10  21  40  67  94 130 169 222 272 332 393
#     4  12  23  42  70  97 135 176 228 273 330 401
#     4  10  21  40  67  92 130 180 214 269 338 394
#     4  11  21  42  68  94 137 178 218 270 340 396
#     4  12  25  40  66  99 130 172 227 281 327 388
#
# _framework density 21.957657999999999
#
# number of rings (size 3 to 8) (size 9 to 14) (size 15 to 20)
#    0.000    1.000    6.667    2.000    0.000    0.667 
#    0.000    5.833    0.000    0.000    0.000    0.000 
#    0.000    0.000    0.000    0.000    0.000    0.000 
#
# Total GULP energy -66851.284805 kJ/mol
# GULP energy per Si atom -5570.940400 kJ/mol
# Density = 2.190768 g / cm^3
# Si number density = 21.957658 Si / 1000 Ang^3
#
#
#
# Elastic Constant Matrix: (Units=GPa)
#
#
# Indices 1 2 3 4 5 6 
#
# 1 93.8127 10.8619 -0.4222 2.2118 -15.9884 -12.8631
# 2 10.8619 71.4469 -9.1800 9.2855 -6.0877 -25.2876
# 3 -0.4222 -9.1800 70.2232 0.5709 -2.8650 8.7091
# 4 2.2118 9.2855 0.5709 22.6494 -7.1829 -3.8587
# 5 -15.9884 -6.0877 -2.8650 -7.1829 27.2252 -5.2862
# 6 -12.8631 -25.2876 8.7091 -3.8587 -5.2862 43.0121
#
#
#
# Elastic Compliance Matrix: (Units=1/GPa)
#
#
# Indices 1 2 3 4 5 6 
#
# 1 0.012908 0.000453 -0.000187 0.002481 0.009393 0.005541
# 2 0.000453 0.019209 0.001360 -0.004141 0.005845 0.011500
# 3 -0.000187 0.001360 0.014740 -0.000945 0.001070 -0.002195
# 4 0.002481 -0.004141 -0.000945 0.051192 0.014894 0.004922
# 5 0.009393 0.005845 0.001070 0.014894 0.050224 0.013537
# 6 0.005541 0.011500 -0.002195 0.004922 0.013537 0.034217
#
#
# Mechanical properties :
#
#
# Convention : Reuss Voigt Hill
#
# Bulk Modulus (GPa) = 19.95719 26.44468 23.20094
# Shear Modulus (GPa) = 25.51754 34.19223 29.85488
#
# Velocity S-wave (km/s) = 3.41269 3.95040 3.69135
# Velocity P-wave (km/s) = 4.96360 5.73387 5.36258
#
# Compressibility (1/GPa) = 0.05010725
#
# Stress axis : x y z
#
# Youngs Moduli (GPa) = 77.46898 52.05975 67.84057
#
# Poissons Ratio (x) = -0.02356 0.01271
# Poissons Ratio (y) = -0.03506 -0.09224
# Poissons Ratio (z) = 0.01452 -0.07078
#
# Static dielectric constant tensor:
#      x y z
#    x 1.791200 -0.013240 0.039250 
#    y -0.013240 1.822940 0.066930 
#    z 0.039250 0.066930 2.053480 
# 
# From -- ./inp_files/148964.got.cif
#   From: 2010.05.17/outbox.cif.g08.bks.cpg/sg2_75_cif.got.tgz:148964.got - 2010.06.03 11:33:40.
