data_PCOD9011792
_publ_section_title
;
Structure prediction by ZEFSAII (Michael W. Deem and Ramdas Pophale) SiO2 
 PCOD9011792
Probable space group: P -1
;
_chemical_formula_sum "Si O2"
_cell_formula_units_Z 14
_cell_length_a 9.534024
_cell_length_b 9.688680
_cell_length_c 11.807311
_cell_angle_alpha 145.895029
_cell_angle_beta 76.272373
_cell_angle_gamma 110.275287
_cell_volume 571.096859
_symmetry_space_group_name_H-M "P -1"
_symmetry_group_IT_number 2
_symmetry_cell_setting 'triclinic'
loop_
_space_group_symop_operation_xyz
x,y,z
-x,-y,-z
loop_
_atom_site_type_symbol
_atom_site_label
_atom_site_fract_x
_atom_site_fract_y
_atom_site_fract_z
Si Si1 0.595102 0.719551 0.709815
Si Si2 0.151178 0.455951 0.395079
Si Si3 0.842631 0.309033 0.949105
Si Si4 0.935522 0.693702 0.927990
Si Si5 0.471236 0.755974 0.000273
Si Si6 0.845579 0.083402 0.573560
Si Si7 0.713893 0.952890 0.275479
O O1 0.500000 0.500000 0.500000
O O2 0.761737 0.691586 0.643577
O O3 0.558470 0.978898 0.856393
O O4 0.553059 0.670618 0.818919
O O5 0.101229 0.275966 0.173447
O O6 0.256483 0.744862 0.552204
O O7 0.000000 0.500000 0.500000
O O8 0.698684 0.414740 0.060948
O O9 0.791334 0.086186 0.714376
O O10 0.000000 0.500000 0.000000
O O11 0.894860 0.241562 0.015914
O O12 0.879913 0.383504 0.737709
O O13 0.846999 0.845014 0.125604
O O14 0.568649 0.801705 0.127901
O O15 0.732014 0.947511 0.404565
O O16 0.000000 0.000000 0.500000
#
# Coordination Sequence:
#
# PCOD9011792 Si02
#       7
#     2   2   2   2   2   2   2
#     4  11  24  45  64 102 138 176 226 269 346 405
#     4  11  25  39  66 101 132 175 225 282 330 398
#     4  10  23  45  66  96 131 179 229 276 335 399
#     4  10  22  40  64  91 136 167 221 274 331 404
#     4  11  25  43  70  95 141 183 216 284 340 404
#     4  10  21  40  67  93 126 169 221 279 327 392
#     4  11  22  42  63  97 135 173 221 274 341 403
#
# _framework density 24.514230000000001
#
# number of rings (size 3 to 8) (size 9 to 14) (size 15 to 20)
#    0.000    1.429    4.286    0.000    4.000    1.143 
#    2.571    2.857    0.000    0.000    0.000    0.000 
#    0.000    0.000    0.000    0.000    0.000    0.000 
#
# Total GULP energy -78166.699774 kJ/mol
# GULP energy per Si atom -5583.335698 kJ/mol
# Density = 2.445843 g / cm^3
# Si number density = 24.514230 Si / 1000 Ang^3
#
#
#
# Elastic Constant Matrix: (Units=GPa)
#
#
# Indices 1 2 3 4 5 6 
#
# 1 169.0880 21.9006 43.4463 -15.4489 27.4026 -25.3666
# 2 21.9006 57.7999 35.2892 9.8532 17.1645 -10.1582
# 3 43.4463 35.2892 127.4716 0.1485 14.6413 -17.7842
# 4 -15.4489 9.8532 0.1485 50.4782 -15.0631 3.0824
# 5 27.4026 17.1645 14.6413 -15.0631 53.7088 -10.7178
# 6 -25.3666 -10.1582 -17.7842 3.0824 -10.7178 39.3517
#
#
#
# Elastic Compliance Matrix: (Units=1/GPa)
#
#
# Indices 1 2 3 4 5 6 
#
# 1 0.007386 -0.001001 -0.001585 0.001698 -0.001915 0.003132
# 2 -0.001001 0.024879 -0.005395 -0.007564 -0.007726 0.001827
# 3 -0.001585 -0.005395 0.010149 0.000508 0.000354 0.002228
# 4 0.001698 -0.007564 0.000508 0.024257 0.008154 -0.000308
# 5 -0.001915 -0.007726 0.000354 0.008154 0.024868 0.003065
# 6 0.003132 0.001827 0.002228 -0.000308 0.003065 0.029768
#
#
# Mechanical properties :
#
#
# Convention : Reuss Voigt Hill
#
# Bulk Modulus (GPa) = 37.80594 61.73687 49.77141
# Shear Modulus (GPa) = 34.22596 45.62263 39.92430
#
# Velocity S-wave (km/s) = 3.74059 4.31869 4.03999
# Velocity P-wave (km/s) = 5.84050 7.07862 6.48916
#
# Compressibility (1/GPa) = 0.02645087
#
# Stress axis : x y z
#
# Youngs Moduli (GPa) = 135.38237 40.19395 98.53616
#
# Poissons Ratio (x) = 0.04023 0.15623
# Poissons Ratio (y) = 0.13552 0.53163
# Poissons Ratio (z) = 0.21464 0.21686
#
# Static dielectric constant tensor:
#      x y z
#    x 1.959470 0.032330 0.058610 
#    y 0.032330 2.170430 -0.019940 
#    z 0.058610 -0.019940 1.927000 
# 
# From -- ./inp_files/393349.got.cif
#   From: 2010.05.17/outbox.cif.g08.bks.cpg/sg2_197_cif.got.tgz:393349.got - 2010.06.03 11:33:40.
