data_PCOD9011813
_publ_section_title
;
Structure prediction by ZEFSAII (Michael W. Deem and Ramdas Pophale) SiO2 
 PCOD9011813
Probable space group: P -1
;
_chemical_formula_sum "Si O2"
_cell_formula_units_Z 16
_cell_length_a 12.045295
_cell_length_b 8.261848
_cell_length_c 11.048125
_cell_angle_alpha 122.631086
_cell_angle_beta 45.409653
_cell_angle_gamma 109.266671
_cell_volume 657.227543
_symmetry_space_group_name_H-M "P -1"
_symmetry_group_IT_number 2
_symmetry_cell_setting 'triclinic'
loop_
_space_group_symop_operation_xyz
x,y,z
-x,-y,-z
loop_
_atom_site_type_symbol
_atom_site_label
_atom_site_fract_x
_atom_site_fract_y
_atom_site_fract_z
Si Si1 0.731981 0.771795 0.799626
Si Si2 0.626305 0.721281 0.604071
Si Si3 0.789962 0.509300 0.876932
Si Si4 0.945614 0.153133 0.502809
Si Si5 0.704366 0.016601 0.491504
Si Si6 0.085476 0.565006 0.836456
Si Si7 0.302398 0.884153 0.860467
Si Si8 0.598615 0.782018 0.265432
O O1 0.625941 0.720871 0.748916
O O2 0.725096 0.635182 0.864352
O O3 0.907038 0.734959 0.599675
O O4 0.712934 0.990906 0.953717
O O5 0.767302 0.577921 0.383320
O O6 0.449952 0.724090 0.690906
O O7 0.665448 0.938164 0.622169
O O8 0.816156 0.296249 0.722864
O O9 0.951835 0.569779 0.836756
O O10 0.663942 0.568506 0.099044
O O11 0.878743 0.069664 0.396832
O O12 0.000000 0.000000 0.500000
O O13 0.586698 0.187950 0.599901
O O14 0.664983 0.840872 0.366291
O O15 0.154180 0.769888 0.892986
O O16 0.000000 0.500000 0.000000
O O17 0.338208 0.047446 0.799275
#
# Coordination Sequence:
#
# PCOD9011813 Si02
#       8
#     2   2   2   2   2   2   2   2
#     4  11  24  42  67  95 131 174 220 272 322 391
#     4  11  22  45  65  94 136 172 220 268 326 394
#     4  11  25  42  63  96 132 169 219 275 324 388
#     4  12  24  40  66  97 131 176 215 268 334 388
#     4  10  21  40  67  94 131 174 219 267 329 388
#     4  12  26  41  66  97 133 170 221 278 322 387
#     4  10  25  41  68  95 127 181 221 263 335 390
#     4   9  22  43  64  94 132 173 218 274 322 392
#
# _framework density 24.344688999999999
#
# number of rings (size 3 to 8) (size 9 to 14) (size 15 to 20)
#    0.000    1.250    2.500    1.875    7.000    1.500 
#    0.000    2.500    0.000    0.000    0.000    0.000 
#    0.000    0.000    0.000    0.000    0.000    0.000 
#
# Total GULP energy -89393.565382 kJ/mol
# GULP energy per Si atom -5587.097836 kJ/mol
# Density = 2.428928 g / cm^3
# Si number density = 24.344689 Si / 1000 Ang^3
#
#
#
# Elastic Constant Matrix: (Units=GPa)
#
#
# Indices 1 2 3 4 5 6 
#
# 1 123.0207 20.1600 19.9297 -0.0928 11.9502 -1.9504
# 2 20.1600 37.0367 3.1102 1.7510 9.3285 7.0110
# 3 19.9297 3.1102 125.6519 28.1435 9.3686 -12.3868
# 4 -0.0928 1.7510 28.1435 27.8034 -7.2541 -5.3217
# 5 11.9502 9.3285 9.3686 -7.2541 21.2281 3.0251
# 6 -1.9504 7.0110 -12.3868 -5.3217 3.0251 23.3397
#
#
#
# Elastic Compliance Matrix: (Units=1/GPa)
#
#
# Indices 1 2 3 4 5 6 
#
# 1 0.009410 -0.004899 -0.001302 0.001458 -0.002386 0.002209
# 2 -0.004899 0.036121 0.002640 -0.011278 -0.016671 -0.010270
# 3 -0.001302 0.002640 0.012869 -0.015572 -0.011988 0.003931
# 4 0.001458 -0.011278 -0.015572 0.061618 0.031318 0.005236
# 5 -0.002386 -0.016671 -0.011988 0.031318 0.072308 -0.003785
# 6 0.002209 -0.010270 0.003931 0.005236 -0.003785 0.049886
#
#
# Mechanical properties :
#
#
# Convention : Reuss Voigt Hill
#
# Bulk Modulus (GPa) = 19.50172 41.34545 30.42358
# Shear Modulus (GPa) = 18.76677 30.64154 24.70415
#
# Velocity S-wave (km/s) = 2.77948 3.55160 3.18899
# Velocity P-wave (km/s) = 4.28121 5.81710 5.10722
#
# Compressibility (1/GPa) = 0.05127753
#
# Stress axis : x y z
#
# Youngs Moduli (GPa) = 106.26500 27.68442 77.70663
#
# Poissons Ratio (x) = 0.13562 0.10120
# Poissons Ratio (y) = 0.52058 -0.20512
# Poissons Ratio (z) = 0.13839 -0.07308
#
# Static dielectric constant tensor:
#      x y z
#    x 1.823590 0.079980 -0.043290 
#    y 0.079980 1.890660 -0.005190 
#    z -0.043290 -0.005190 2.027560 
# 
# From -- ./inp_files/419904.got.cif
#   From: 2010.05.17/outbox.cif.g08.bks.cpg/sg2_210_cif.got.tgz:419904.got - 2010.06.03 11:33:40.
