data_PCOD9011115
_publ_section_title
;
Structure prediction by ZEFSAII (Michael W. Deem and Ramdas Pophale) SiO2 
 PCOD9011115
Probable space group: P -1
;
_chemical_formula_sum "Si O2"
_cell_formula_units_Z 16
_cell_length_a 11.853849
_cell_length_b 9.332611
_cell_length_c 18.599106
_cell_angle_alpha 36.740435
_cell_angle_beta 39.580342
_cell_angle_gamma 37.926186
_cell_volume 700.690442
_symmetry_space_group_name_H-M "P -1"
_symmetry_group_IT_number 2
_symmetry_cell_setting 'triclinic'
loop_
_space_group_symop_operation_xyz
x,y,z
-x,-y,-z
loop_
_atom_site_type_symbol
_atom_site_label
_atom_site_fract_x
_atom_site_fract_y
_atom_site_fract_z
Si Si1 0.945689 0.144101 0.166133
Si Si2 0.777381 0.831440 0.782289
Si Si3 0.456100 0.017493 0.759897
Si Si4 0.657540 0.406976 0.082565
Si Si5 0.800566 0.740344 0.471310
Si Si6 0.368551 0.846324 0.138537
Si Si7 0.500295 0.229346 0.506655
Si Si8 0.795902 0.487282 0.238880
O O1 0.864445 0.235600 0.090201
O O2 0.870070 0.394233 0.158517
O O3 0.857142 0.948369 0.317403
O O4 0.178490 0.979414 0.127680
O O5 0.012170 0.666390 0.743245
O O6 0.679069 0.925762 0.715471
O O7 0.708499 0.080321 0.771762
O O8 0.683603 0.636162 0.933915
O O9 0.418604 0.206917 0.633176
O O10 0.308461 0.197886 0.821967
O O11 0.411543 0.773440 0.857921
O O12 0.501175 0.545539 0.168643
O O13 0.674770 0.657801 0.511028
O O14 0.000000 0.500000 0.500000
O O15 0.649881 0.923424 0.532934
O O16 0.500000 0.000000 0.000000
O O17 0.630895 0.387908 0.376971
#
# Coordination Sequence:
#
# PCOD9011115 Si02
#       8
#     2   2   2   2   2   2   2   2
#     4  10  21  40  65  92 121 165 209 258 313 366
#     4  10  24  42  62  95 127 172 210 250 312 375
#     4  12  24  40  64  92 131 170 205 257 313 372
#     4  11  23  40  65  94 128 163 212 261 307 368
#     4  10  22  39  65  94 122 155 207 266 315 364
#     4   9  21  39  64  92 122 162 210 260 304 361
#     4  10  23  42  63  94 123 165 208 258 315 369
#     4  10  24  42  63  89 131 167 211 257 310 376
#
# _framework density 22.834619
#
# number of rings (size 3 to 8) (size 9 to 14) (size 15 to 20)
#    0.000    1.750    1.250    1.500    1.750   12.500 
#    0.000    0.000    0.000    0.000    0.000    0.000 
#    0.000    0.000    0.000    0.000    0.000    0.000 
#
# Total GULP energy -89560.900481 kJ/mol
# GULP energy per Si atom -5597.556280 kJ/mol
# Density = 2.278265 g / cm^3
# Si number density = 22.834619 Si / 1000 Ang^3
#
#
#
# Elastic Constant Matrix: (Units=GPa)
#
#
# Indices 1 2 3 4 5 6 
#
# 1 160.0172 59.1528 12.3668 -6.4569 -28.3761 -12.2782
# 2 59.1528 73.6597 26.5176 -15.0646 -27.1999 -10.0642
# 3 12.3668 26.5176 59.6009 -4.3294 -15.5082 7.3713
# 4 -6.4569 -15.0646 -4.3294 25.1567 -3.5493 -11.5688
# 5 -28.3761 -27.1999 -15.5082 -3.5493 37.8724 0.5282
# 6 -12.2782 -10.0642 7.3713 -11.5688 0.5282 25.7875
#
#
#
# Elastic Compliance Matrix: (Units=1/GPa)
#
#
# Indices 1 2 3 4 5 6 
#
# 1 0.009239 -0.007593 0.001876 -0.001465 0.002098 0.000200
# 2 -0.007593 0.053307 -0.015981 0.051932 0.030299 0.044434
# 3 0.001876 -0.015981 0.024524 -0.013463 -0.001035 -0.018373
# 4 -0.001465 0.051932 -0.013463 0.106018 0.039644 0.070169
# 5 0.002098 0.030299 -0.001035 0.039644 0.052612 0.029827
# 6 0.000200 0.044434 -0.018373 0.070169 0.029827 0.092335
#
#
# Mechanical properties :
#
#
# Convention : Reuss Voigt Hill
#
# Bulk Modulus (GPa) = 22.89682 54.37245 38.63463
# Shear Modulus (GPa) = 12.62658 30.77936 21.70297
#
# Velocity S-wave (km/s) = 2.35406 3.67539 3.08627
# Velocity P-wave (km/s) = 4.17586 6.47105 5.44574
#
# Compressibility (1/GPa) = 0.04367419
#
# Stress axis : x y z
#
# Youngs Moduli (GPa) = 108.23359 18.75934 40.77572
#
# Poissons Ratio (x) = 0.14243 -0.07648
# Poissons Ratio (y) = 0.82177 0.65165
# Poissons Ratio (z) = -0.20302 0.29980
#
# Static dielectric constant tensor:
#      x y z
#    x 1.848400 0.010260 0.030490 
#    y 0.010260 1.856160 -0.004700 
#    z 0.030490 -0.004700 1.860480 
# 
# From -- ./inp_files/588581.got.cif
#   From: 2010.05.17/outbox.cif.g08.bks.cpg/sg2_295_cif.got.tgz:588581.got - 2010.06.03 11:33:40.
