data_PCOD9011919
_publ_section_title
;
Structure prediction by ZEFSAII (Michael W. Deem and Ramdas Pophale) SiO2 
 PCOD9011919
Probable space group: P -1
;
_chemical_formula_sum "Si O2"
_cell_formula_units_Z 12
_cell_length_a 15.217264
_cell_length_b 10.162277
_cell_length_c 5.236711
_cell_angle_alpha 56.591427
_cell_angle_beta 60.598207
_cell_angle_gamma 46.406648
_cell_volume 481.235534
_symmetry_space_group_name_H-M "P -1"
_symmetry_group_IT_number 2
_symmetry_cell_setting 'triclinic'
loop_
_space_group_symop_operation_xyz
x,y,z
-x,-y,-z
loop_
_atom_site_type_symbol
_atom_site_label
_atom_site_fract_x
_atom_site_fract_y
_atom_site_fract_z
Si Si1 0.485380 0.620890 0.143069
Si Si2 0.047582 0.704026 0.814766
Si Si3 0.145099 0.346818 0.718595
Si Si4 0.397976 0.148126 0.283134
Si Si5 0.891721 0.062172 0.288681
Si Si6 0.293085 0.996279 0.258251
O O1 0.500000 0.500000 0.500000
O O2 0.352384 0.826051 0.146775
O O3 0.500000 0.500000 0.000000
O O4 0.577057 0.688472 0.958062
O O5 0.102922 0.550127 0.675738
O O6 0.144204 0.732356 0.781015
O O7 0.949590 0.909382 0.602482
O O8 0.975065 0.652868 0.165731
O O9 0.254985 0.262863 0.454139
O O10 0.206132 0.200377 0.027350
O O11 0.500000 0.000000 0.500000
O O12 0.398204 0.009338 0.219108
O O13 0.778239 0.052519 0.387731
O O14 0.000000 0.000000 0.000000
#
# Coordination Sequence:
#
# PCOD9011919 Si02
#       6
#     2   2   2   2   2   2
#     4  12  29  47  71 107 147 190 250 307 368 435
#     4   9  21  40  64 101 135 177 229 295 355 432
#     4  10  22  41  69  97 136 184 237 289 362 436
#     4  12  25  46  73  98 143 191 244 300 369 436
#     4  10  21  40  67  98 143 175 231 293 373 421
#     4  11  25  43  70 101 139 189 243 296 366 437
#
# _framework density 24.935815999999999
#
# number of rings (size 3 to 8) (size 9 to 14) (size 15 to 20)
#    0.000    1.333    1.667    2.500    4.667    2.667 
#    0.000    5.000    0.000    0.000    0.000    0.000 
#    0.000    0.000    0.000    0.000    0.000    0.000 
#
# Total GULP energy -67073.454764 kJ/mol
# GULP energy per Si atom -5589.454564 kJ/mol
# Density = 2.487906 g / cm^3
# Si number density = 24.935816 Si / 1000 Ang^3
#
#
#
# Elastic Constant Matrix: (Units=GPa)
#
#
# Indices 1 2 3 4 5 6 
#
# 1 116.8562 47.3419 56.4899 -13.6801 -30.3272 43.4227
# 2 47.3419 139.4439 24.3581 -1.2122 -13.4078 37.5860
# 3 56.4899 24.3581 126.6448 -4.4961 -35.9026 32.7114
# 4 -13.6801 -1.2122 -4.4961 40.4828 -1.4923 -6.9206
# 5 -30.3272 -13.4078 -35.9026 -1.4923 53.7879 -6.0968
# 6 43.4227 37.5860 32.7114 -6.9206 -6.0968 47.2683
#
#
#
# Elastic Compliance Matrix: (Units=1/GPa)
#
#
# Indices 1 2 3 4 5 6 
#
# 1 0.016379 -0.001611 -0.002325 0.003603 0.006153 -0.010835
# 2 -0.001611 0.009481 0.000959 -0.001258 0.001296 -0.006739
# 3 -0.002325 0.000959 0.012147 -0.000244 0.006320 -0.006253
# 4 0.003603 -0.001258 -0.000244 0.026295 0.002515 0.002034
# 5 0.006153 0.001296 0.006320 0.002515 0.025839 -0.007356
# 6 -0.010835 -0.006739 -0.006253 0.002034 -0.007356 0.040145
#
#
# Mechanical properties :
#
#
# Convention : Reuss Voigt Hill
#
# Bulk Modulus (GPa) = 31.19915 71.03606 51.11760
# Shear Modulus (GPa) = 34.03088 45.29149 39.66118
#
# Velocity S-wave (km/s) = 3.69824 4.26646 3.99247
# Velocity P-wave (km/s) = 5.54752 7.26771 6.46508
#
# Compressibility (1/GPa) = 0.03205216
#
# Stress axis : x y z
#
# Youngs Moduli (GPa) = 61.05276 105.47271 82.32447
#
# Poissons Ratio (x) = 0.16993 0.19141
# Poissons Ratio (y) = 0.09836 -0.07891
# Poissons Ratio (z) = 0.14195 -0.10110
#
# Static dielectric constant tensor:
#      x y z
#    x 2.113870 -0.009600 -0.031000 
#    y -0.009600 1.980350 0.047500 
#    z -0.031000 0.047500 2.027870 
# 
# From -- ./inp_files/26667.got.cif
#   From: 2010.05.17/outbox.cif.g08.bks.cpg/sg2_14_cif.got.tgz:26667.got - 2010.06.03 11:33:40.
