data_PCOD9011844
_publ_section_title
;
Structure prediction by ZEFSAII (Michael W. Deem and Ramdas Pophale) SiO2 
 PCOD9011844
Probable space group: P -1
;
_chemical_formula_sum "Si O2"
_cell_formula_units_Z 16
_cell_length_a 19.501052
_cell_length_b 15.809102
_cell_length_c 9.883206
_cell_angle_alpha 37.222219
_cell_angle_beta 149.225289
_cell_angle_gamma 152.780791
_cell_volume 706.278869
_symmetry_space_group_name_H-M "P -1"
_symmetry_group_IT_number 2
_symmetry_cell_setting 'triclinic'
loop_
_space_group_symop_operation_xyz
x,y,z
-x,-y,-z
loop_
_atom_site_type_symbol
_atom_site_label
_atom_site_fract_x
_atom_site_fract_y
_atom_site_fract_z
Si Si1 0.806316 0.282797 0.687036
Si Si2 0.886752 0.331271 0.182436
Si Si3 0.731559 0.271890 0.279434
Si Si4 0.204124 0.036867 0.866134
Si Si5 0.497920 0.421518 0.240514
Si Si6 0.468473 0.588903 0.213934
Si Si7 0.444065 0.836670 0.366091
Si Si8 0.898612 0.756907 0.493071
O O1 0.837338 0.345319 0.506051
O O2 0.647257 0.255942 0.525351
O O3 0.978328 0.443255 0.864732
O O4 0.747525 0.080926 0.845665
O O5 0.821065 0.269316 0.302812
O O6 0.997627 0.272840 0.394738
O O7 0.717068 0.242714 0.911440
O O8 0.560344 0.055589 0.290975
O O9 0.665070 0.383321 0.998834
O O10 0.029837 0.876784 0.687359
O O11 0.354189 0.209069 0.802566
O O12 0.156713 0.120621 0.791743
O O13 0.401018 0.452110 0.145753
O O14 0.442455 0.221943 0.402508
O O15 0.709203 0.558751 0.463647
O O16 0.500000 0.500000 0.000000
O O17 0.500000 0.500000 0.500000
#
# Coordination Sequence:
#
# PCOD9011844 Si02
#       8
#     2   2   2   2   2   2   2   2
#     4  12  23  43  69  99 137 177 228 277 337 403
#     4  12  24  44  67 103 137 178 227 277 340 400
#     4  12  27  42  68 105 141 176 221 288 346 393
#     4  10  22  41  71  99 128 175 232 272 333 403
#     4  11  24  40  68  98 130 173 228 276 329 397
#     4  11  24  44  65  96 137 177 220 275 339 398
#     4  12  23  43  73  97 132 181 236 275 326 413
#     4  10  21  40  67  95 133 173 223 276 320 409
#
# _framework density 22.653942000000001
#
# number of rings (size 3 to 8) (size 9 to 14) (size 15 to 20)
#    0.000    0.750    3.750    3.750    3.500    3.000 
#    0.000    0.625    0.000    0.000    0.000    0.000 
#    0.000    0.000    0.000    0.000    0.000    0.000 
#
# Total GULP energy -89399.847452 kJ/mol
# GULP energy per Si atom -5587.490466 kJ/mol
# Density = 2.260238 g / cm^3
# Si number density = 22.653942 Si / 1000 Ang^3
#
#
#
# Elastic Constant Matrix: (Units=GPa)
#
#
# Indices 1 2 3 4 5 6 
#
# 1 136.2226 19.1062 28.4118 -14.6749 7.7003 -22.5339
# 2 19.1062 51.5728 36.6596 -3.7323 6.3881 -16.1436
# 3 28.4118 36.6596 76.1228 -19.0500 4.1346 -18.4195
# 4 -14.6749 -3.7323 -19.0500 35.9039 -9.7790 4.2376
# 5 7.7003 6.3881 4.1346 -9.7790 42.5404 -10.5188
# 6 -22.5339 -16.1436 -18.4195 4.2376 -10.5188 34.8158
#
#
#
# Elastic Compliance Matrix: (Units=1/GPa)
#
#
# Indices 1 2 3 4 5 6 
#
# 1 0.008675 -0.000871 -0.001172 0.002400 0.000312 0.004393
# 2 -0.000871 0.032455 -0.015303 -0.006717 -0.003232 0.006230
# 3 -0.001172 -0.015303 0.024868 0.011619 0.004026 0.005105
# 4 0.002400 -0.006717 0.011619 0.036282 0.008459 0.002725
# 5 0.000312 -0.003232 0.004026 0.008459 0.027495 0.008111
# 6 0.004393 0.006230 0.005105 0.002725 0.008111 0.039274
#
#
# Mechanical properties :
#
#
# Convention : Reuss Voigt Hill
#
# Bulk Modulus (GPa) = 31.94147 48.03038 39.98592
# Shear Modulus (GPa) = 23.34546 34.63472 28.99009
#
# Velocity S-wave (km/s) = 3.21366 3.91431 3.58116
# Velocity P-wave (km/s) = 5.28209 6.45576 5.89819
#
# Compressibility (1/GPa) = 0.03130727
#
# Stress axis : x y z
#
# Youngs Moduli (GPa) = 115.27250 30.81213 40.21284
#
# Poissons Ratio (x) = 0.02683 0.04712
# Poissons Ratio (y) = 0.10036 0.61536
# Poissons Ratio (z) = 0.13508 0.47151
#
# Static dielectric constant tensor:
#      x y z
#    x 1.848490 -0.003480 0.030370 
#    y -0.003480 1.868970 0.019900 
#    z 0.030370 0.019900 1.896490 
# 
# From -- ./inp_files/335642.got.cif
#   From: 2010.05.17/outbox.cif.g08.bks.cpg/sg2_168_cif.got.tgz:335642.got - 2010.06.03 11:33:40.
