data_PCOD9011193
_publ_section_title
;
Structure prediction by ZEFSAII (Michael W. Deem and Ramdas Pophale) SiO2 
 PCOD9011193
Probable space group: P -1
;
_chemical_formula_sum "Si O2"
_cell_formula_units_Z 16
_cell_length_a 11.809488
_cell_length_b 7.865956
_cell_length_c 9.707440
_cell_angle_alpha 122.496782
_cell_angle_beta 50.218575
_cell_angle_gamma 118.824529
_cell_volume 571.009211
_symmetry_space_group_name_H-M "P -1"
_symmetry_group_IT_number 2
_symmetry_cell_setting 'triclinic'
loop_
_space_group_symop_operation_xyz
x,y,z
-x,-y,-z
loop_
_atom_site_type_symbol
_atom_site_label
_atom_site_fract_x
_atom_site_fract_y
_atom_site_fract_z
Si Si1 0.682226 0.142486 0.480841
Si Si2 0.704584 0.334240 0.243107
Si Si3 0.221997 0.233095 0.883940
Si Si4 0.570077 0.001004 0.751795
Si Si5 0.084393 0.930688 0.088517
Si Si6 0.511438 0.402620 0.098113
Si Si7 0.958307 0.272765 0.501245
Si Si8 0.236702 0.297936 0.470509
O O1 0.716027 0.260509 0.363412
O O2 0.532571 0.085729 0.663415
O O3 0.783920 0.236628 0.574686
O O4 0.716077 0.919623 0.330814
O O5 0.733570 0.575786 0.354912
O O6 0.542234 0.224840 0.266944
O O7 0.819149 0.236344 0.020069
O O8 0.335299 0.452395 0.898194
O O9 0.047550 0.206105 0.962240
O O10 0.198641 0.110668 0.994257
O O11 0.722725 0.925922 0.645839
O O12 0.530178 0.170478 0.957301
O O13 0.011247 0.074855 0.307022
O O14 0.357703 0.402615 0.303326
O O15 0.500000 0.500000 0.000000
O O16 0.063284 0.295327 0.564887
O O17 0.000000 0.500000 0.500000
#
# Coordination Sequence:
#
# PCOD9011193 Si02
#       8
#     2   2   2   2   2   2   2   2
#     4  10  21  40  65  94 122 169 219 269 308 380
#     4  11  21  41  67  93 125 175 219 263 315 388
#     4   9  19  36  62  93 126 156 210 267 313 366
#     4  12  26  41  62  95 140 168 210 271 328 385
#     4   9  20  37  64  98 124 155 211 272 319 362
#     4  12  24  40  67  96 127 172 220 265 315 390
#     4  11  22  40  66  95 129 164 218 269 317 383
#     4  12  26  42  63  95 133 174 210 267 336 378
#
# _framework density 28.020561000000001
#
# number of rings (size 3 to 8) (size 9 to 14) (size 15 to 20)
#    0.000    1.250    1.250    6.375    1.750    0.500 
#    0.000    0.000    0.000    3.750    0.000    0.000 
#    0.000    0.000    0.000    0.000    0.000    0.000 
#
# Total GULP energy -89358.549446 kJ/mol
# GULP energy per Si atom -5584.909340 kJ/mol
# Density = 2.795679 g / cm^3
# Si number density = 28.020561 Si / 1000 Ang^3
#
#
#
# Elastic Constant Matrix: (Units=GPa)
#
#
# Indices 1 2 3 4 5 6 
#
# 1 123.5650 14.7264 6.9983 7.7286 -7.8893 1.2526
# 2 14.7264 100.3949 -6.2133 11.3855 8.6125 -15.8785
# 3 6.9983 -6.2133 107.5698 20.2576 -3.0493 -11.1751
# 4 7.7286 11.3855 20.2576 57.9969 -1.3259 -2.4143
# 5 -7.8893 8.6125 -3.0493 -1.3259 41.3886 7.9620
# 6 1.2526 -15.8785 -11.1751 -2.4143 7.9620 38.4304
#
#
#
# Elastic Compliance Matrix: (Units=1/GPa)
#
#
# Indices 1 2 3 4 5 6 
#
# 1 0.008526 -0.001676 -0.000648 -0.000599 0.002226 -0.001657
# 2 -0.001676 0.011924 0.001813 -0.002584 -0.003935 0.006161
# 3 -0.000648 0.001813 0.010529 -0.003806 -0.000560 0.003709
# 4 -0.000599 -0.002584 -0.003806 0.019133 0.000978 -0.001156
# 5 0.002226 -0.003935 -0.000560 0.000978 0.026809 -0.007354
# 6 -0.001657 0.006161 0.003709 -0.001156 -0.007354 0.031150
#
#
# Mechanical properties :
#
#
# Convention : Reuss Voigt Hill
#
# Bulk Modulus (GPa) = 33.38060 40.28360 36.83210
# Shear Modulus (GPa) = 41.98916 48.63108 45.31012
#
# Velocity S-wave (km/s) = 3.87526 4.17051 4.02560
# Velocity P-wave (km/s) = 5.65352 6.13177 5.89749
#
# Compressibility (1/GPa) = 0.02995752
#
# Stress axis : x y z
#
# Youngs Moduli (GPa) = 117.29256 83.86580 94.97329
#
# Poissons Ratio (x) = 0.14054 0.06152
# Poissons Ratio (y) = 0.19656 -0.17218
# Poissons Ratio (z) = 0.07598 -0.15204
#
# Static dielectric constant tensor:
#      x y z
#    x 2.314310 0.135990 -0.080780 
#    y 0.135990 2.931280 -0.483770 
#    z -0.080780 -0.483770 2.379730 
# 
# From -- ./inp_files/419911.got.cif
#   From: 2010.05.17/outbox.cif.g08.bks.cpg/sg2_210_cif.got.tgz:419911.got - 2010.06.03 11:33:40.
