data_PCOD9011310
_publ_section_title
;
Structure prediction by ZEFSAII (Michael W. Deem and Ramdas Pophale) SiO2 
 PCOD9011310
Probable space group: P -1
;
_chemical_formula_sum "Si O2"
_cell_formula_units_Z 14
_cell_length_a 9.101173
_cell_length_b 18.738470
_cell_length_c 20.823140
_cell_angle_alpha 18.397354
_cell_angle_beta 34.914361
_cell_angle_gamma 44.396530
_cell_volume 600.428760
_symmetry_space_group_name_H-M "P -1"
_symmetry_group_IT_number 2
_symmetry_cell_setting 'triclinic'
loop_
_space_group_symop_operation_xyz
x,y,z
-x,-y,-z
loop_
_atom_site_type_symbol
_atom_site_label
_atom_site_fract_x
_atom_site_fract_y
_atom_site_fract_z
Si Si1 0.104892 0.970233 0.198783
Si Si2 0.603598 0.718511 0.003311
Si Si3 0.920040 0.220797 0.499734
Si Si4 0.636551 0.166721 0.247991
Si Si5 0.562049 0.528895 0.328027
Si Si6 0.011351 0.541583 0.385319
Si Si7 0.453270 0.446867 0.975893
O O1 0.226860 0.894278 0.283430
O O2 0.007565 0.723635 0.405733
O O3 0.857123 0.062669 0.229026
O O4 0.333643 0.219854 0.883686
O O5 0.586041 0.591811 0.188190
O O6 0.619789 0.582319 0.047706
O O7 0.297381 0.732815 0.095612
O O8 0.851087 0.975202 0.693662
O O9 0.764707 0.387323 0.387379
O O10 0.231385 0.370285 0.282304
O O11 0.730650 0.429278 0.025514
O O12 0.500000 0.000000 0.500000
O O13 0.457408 0.210250 0.215391
O O14 0.261047 0.395115 0.579490
O O15 0.000000 0.500000 0.500000
#
# Coordination Sequence:
#
# PCOD9011310 Si02
#       7
#     2   2   2   2   2   2   2
#     4  11  21  41  67  92 135 173 215 275 324 383
#     4  10  23  43  65  98 138 168 219 272 317 392
#     4  11  22  41  66  97 133 172 218 263 327 387
#     4  11  22  40  72  95 125 175 219 267 330 390
#     4  10  23  41  66  97 135 175 218 270 325 383
#     4  10  21  40  65  97 132 174 221 263 326 387
#     4  11  23  43  68  98 130 172 221 264 330 392
#
# _framework density 23.316669999999998
#
# number of rings (size 3 to 8) (size 9 to 14) (size 15 to 20)
#    0.000    1.429    4.286    0.429    0.000    4.571 
#    0.000    7.143    3.143    0.000    0.000    0.000 
#    0.000    0.000    0.000    0.000    0.000    0.000 
#
# Total GULP energy -77975.933101 kJ/mol
# GULP energy per Si atom -5569.709507 kJ/mol
# Density = 2.326360 g / cm^3
# Si number density = 23.316670 Si / 1000 Ang^3
#
#
#
# Elastic Constant Matrix: (Units=GPa)
#
#
# Indices 1 2 3 4 5 6 
#
# 1 81.9526 51.9753 36.9596 -29.6805 2.7097 -5.0984
# 2 51.9753 119.5524 12.5797 -12.4137 -7.3808 -0.0590
# 3 36.9596 12.5797 57.8112 -5.5689 -6.2887 -8.1810
# 4 -29.6805 -12.4137 -5.5689 28.1128 0.0828 -12.1812
# 5 2.7097 -7.3808 -6.2887 0.0828 38.9252 -9.2385
# 6 -5.0984 -0.0590 -8.1810 -12.1812 -9.2385 40.7509
#
#
#
# Elastic Compliance Matrix: (Units=1/GPa)
#
#
# Indices 1 2 3 4 5 6 
#
# 1 0.051554 -0.015207 -0.023496 0.049571 -0.006818 0.014983
# 2 -0.015207 0.013547 0.005812 -0.010178 0.003906 -0.002873
# 3 -0.023496 0.005812 0.030333 -0.016233 0.007684 0.000048
# 4 0.049571 -0.010178 -0.016233 0.093486 -0.000925 0.030663
# 5 -0.006818 0.003906 0.007684 -0.000925 0.029855 0.007187
# 6 0.014983 -0.002873 0.000048 0.030663 0.007187 0.037215
#
#
# Mechanical properties :
#
#
# Convention : Reuss Voigt Hill
#
# Bulk Modulus (GPa) = 33.72426 51.37171 42.54798
# Shear Modulus (GPa) = 15.07590 32.07789 23.57689
#
# Velocity S-wave (km/s) = 2.54554 3.71313 3.18332
# Velocity P-wave (km/s) = 4.80985 6.36107 5.63905
#
# Compressibility (1/GPa) = 0.02965224
#
# Stress axis : x y z
#
# Youngs Moduli (GPa) = 19.39728 73.81690 32.96695
#
# Poissons Ratio (x) = 1.12252 0.77460
# Poissons Ratio (y) = 0.29497 -0.19160
# Poissons Ratio (z) = 0.45576 -0.42902
#
# Static dielectric constant tensor:
#      x y z
#    x 1.967100 0.001570 -0.078920 
#    y 0.001570 1.928710 0.009460 
#    z -0.078920 0.009460 2.184270 
# 
# From -- ./inp_files/87272.got.cif
#   From: 2010.05.17/outbox.cif.g08.bks.cpg/sg2_44_cif.got.tgz:87272.got - 2010.06.03 11:33:40.
