data_PCOD9011556
_publ_section_title
;
Structure prediction by ZEFSAII (Michael W. Deem and Ramdas Pophale) SiO2 
 PCOD9011556
Probable space group: P -1
;
_chemical_formula_sum "Si O2"
_cell_formula_units_Z 10
_cell_length_a 7.791539
_cell_length_b 16.395522
_cell_length_c 10.936086
_cell_angle_alpha 157.341348
_cell_angle_beta 48.924295
_cell_angle_gamma 126.254365
_cell_volume 405.176785
_symmetry_space_group_name_H-M "P -1"
_symmetry_group_IT_number 2
_symmetry_cell_setting 'triclinic'
loop_
_space_group_symop_operation_xyz
x,y,z
-x,-y,-z
loop_
_atom_site_type_symbol
_atom_site_label
_atom_site_fract_x
_atom_site_fract_y
_atom_site_fract_z
Si Si1 0.869049 0.018618 0.716971
Si Si2 0.996478 0.148332 0.089558
Si Si3 0.251402 0.412313 0.725280
Si Si4 0.644984 0.499369 0.807608
Si Si5 0.838220 0.476522 0.351088
O O1 0.000000 0.000000 0.500000
O O2 0.726097 0.815956 0.534293
O O3 0.020949 0.029833 0.786058
O O4 0.734269 0.248638 0.096382
O O5 0.754183 0.278653 0.395717
O O6 0.170881 0.336744 0.285790
O O7 0.000000 0.000000 0.000000
O O8 0.444449 0.560330 0.889850
O O9 0.240045 0.417581 0.591750
O O10 0.000000 0.500000 0.000000
O O11 0.887424 0.590645 0.862574
O O12 0.500000 0.500000 0.000000
#
# Coordination Sequence:
#
# PCOD9011556 Si02
#       5
#     2   2   2   2   2
#     4  12  22  39  69  97 129 174 217 270 325 385
#     4  10  22  43  69  94 132 176 214 268 329 385
#     4  12  21  41  68  94 130 176 215 267 330 385
#     4  10  21  40  66  95 131 172 218 265 324 394
#     4  10  23  43  65  91 134 170 217 266 326 382
#
# _framework density 24.680586000000002
#
# number of rings (size 3 to 8) (size 9 to 14) (size 15 to 20)
#    1.200    0.000    6.000    0.600    0.000    0.800 
#    0.000    6.000    0.000    0.000    0.000    0.000 
#    0.000    0.000    0.000    0.000    0.000    0.000 
#
# Total GULP energy -55695.444827 kJ/mol
# GULP energy per Si atom -5569.544483 kJ/mol
# Density = 2.462441 g / cm^3
# Si number density = 24.680586 Si / 1000 Ang^3
#
#
#
# Elastic Constant Matrix: (Units=GPa)
#
#
# Indices 1 2 3 4 5 6 
#
# 1 149.2361 62.5355 24.6038 -21.7497 19.3723 -2.7967
# 2 62.5355 135.2723 48.2445 9.4349 3.6968 -17.3705
# 3 24.6038 48.2445 94.0375 2.8379 19.9978 -6.6112
# 4 -21.7497 9.4349 2.8379 45.9167 -14.3427 2.7765
# 5 19.3723 3.6968 19.9978 -14.3427 40.0719 -16.7326
# 6 -2.7967 -17.3705 -6.6112 2.7765 -16.7326 51.0486
#
#
#
# Elastic Compliance Matrix: (Units=1/GPa)
#
#
# Indices 1 2 3 4 5 6 
#
# 1 0.010064 -0.005500 0.000748 0.004697 -0.004249 -0.002872
# 2 -0.005500 0.012759 -0.005752 -0.003543 0.005261 0.005212
# 3 0.000748 -0.005752 0.015259 -0.002180 -0.009444 -0.002917
# 4 0.004697 -0.003543 -0.002180 0.027717 0.009177 0.000270
# 5 -0.004249 0.005261 -0.009444 0.009177 0.039917 0.012919
# 6 -0.002872 0.005212 -0.002917 0.000270 0.012919 0.025047
#
#
# Mechanical properties :
#
#
# Convention : Reuss Voigt Hill
#
# Bulk Modulus (GPa) = 58.56635 72.14597 65.35616
# Shear Modulus (GPa) = 31.75360 43.61825 37.68593
#
# Velocity S-wave (km/s) = 3.59079 4.20850 3.91186
# Velocity P-wave (km/s) = 6.40101 7.27397 6.85141
#
# Compressibility (1/GPa) = 0.01707465
#
# Stress axis : x y z
#
# Youngs Moduli (GPa) = 99.35937 78.37391 65.53710
#
# Poissons Ratio (x) = 0.43105 -0.04905
# Poissons Ratio (y) = 0.54647 0.37699
# Poissons Ratio (z) = -0.07436 0.45083
#
# Static dielectric constant tensor:
#      x y z
#    x 2.057240 0.015150 0.069450 
#    y 0.015150 2.062710 0.035610 
#    z 0.069450 0.035610 1.993500 
# 
# From -- ./inp_files/156000.got.cif
#   From: 2010.05.17/outbox.cif.g08.bks.cpg/sg2_78_cif.got.tgz:156000.got - 2010.06.03 11:33:40.
