data_PCOD9011717
_publ_section_title
;
Structure prediction by ZEFSAII (Michael W. Deem and Ramdas Pophale) SiO2 
 PCOD9011717
Probable space group: P -1
;
_chemical_formula_sum "Si O2"
_cell_formula_units_Z 16
_cell_length_a 5.444337
_cell_length_b 19.277870
_cell_length_c 16.066452
_cell_angle_alpha 26.812000
_cell_angle_beta 80.940715
_cell_angle_gamma 69.043909
_cell_volume 655.848350
_symmetry_space_group_name_H-M "P -1"
_symmetry_group_IT_number 2
_symmetry_cell_setting 'triclinic'
loop_
_space_group_symop_operation_xyz
x,y,z
-x,-y,-z
loop_
_atom_site_type_symbol
_atom_site_label
_atom_site_fract_x
_atom_site_fract_y
_atom_site_fract_z
Si Si1 0.510331 0.093159 0.314475
Si Si2 0.251927 0.591928 0.172695
Si Si3 0.050148 0.806637 0.510985
Si Si4 0.145924 0.786705 0.210859
Si Si5 0.624965 0.848161 0.084468
Si Si6 0.887830 0.400960 0.420152
Si Si7 0.444664 0.469369 0.942337
Si Si8 0.736432 0.953565 0.795239
O O1 0.340299 0.084831 0.251169
O O2 0.500000 0.000000 0.500000
O O3 0.425213 0.292838 0.123174
O O4 0.832153 0.975262 0.392497
O O5 0.563910 0.518360 0.276249
O O6 0.317401 0.547972 0.117944
O O7 0.057974 0.508942 0.303337
O O8 0.059100 0.802288 0.960965
O O9 0.943962 0.749042 0.497712
O O10 0.166817 0.642398 0.741580
O O11 0.280829 0.857611 0.409052
O O12 0.467318 0.733316 0.225895
O O13 0.129967 0.695419 0.393456
O O14 0.959013 0.750804 0.192646
O O15 0.000000 0.000000 0.000000
O O16 0.570439 0.931436 0.906391
O O17 0.500000 0.000000 0.000000
O O18 0.500000 0.500000 0.000000
#
# Coordination Sequence:
#
# PCOD9011717 Si02
#       8
#     2   2   2   2   2   2   2   2
#     4  12  29  47  76 116 151 203 260 319 384 463
#     4  11  26  48  72 108 151 204 250 325 385 452
#     4  11  26  44  77 105 147 208 249 312 391 446
#     4  10  21  40  67 105 144 186 256 307 366 460
#     4  10  23  39  71 106 143 196 252 308 381 452
#     4  11  25  46  75 110 150 201 260 308 387 463
#     4  11  26  49  74 109 155 199 260 322 382 463
#     4  12  26  47  75 106 156 195 261 319 384 458
#
# _framework density 24.395880999999999
#
# number of rings (size 3 to 8) (size 9 to 14) (size 15 to 20)
#    0.000    1.000    1.250    4.500   12.250    1.500 
#    0.000    3.750    0.000    0.000    0.000    0.000 
#    0.000    0.000    0.000    0.000    0.000    0.000 
#
# Total GULP energy -89567.335191 kJ/mol
# GULP energy per Si atom -5597.958449 kJ/mol
# Density = 2.434036 g / cm^3
# Si number density = 24.395881 Si / 1000 Ang^3
#
#
#
# Elastic Constant Matrix: (Units=GPa)
#
#
# Indices 1 2 3 4 5 6 
#
# 1 132.3182 21.4546 38.6863 20.0898 -16.5102 4.9851
# 2 21.4546 115.4414 48.3088 29.0907 -2.2196 22.5509
# 3 38.6863 48.3088 160.3204 27.8111 -14.8728 5.2292
# 4 20.0898 29.0907 27.8111 56.7163 3.4811 -3.1537
# 5 -16.5102 -2.2196 -14.8728 3.4811 42.1494 2.1603
# 6 4.9851 22.5509 5.2292 -3.1537 2.1603 35.1791
#
#
#
# Elastic Compliance Matrix: (Units=1/GPa)
#
#
# Indices 1 2 3 4 5 6 
#
# 1 0.008827 -0.000060 -0.001280 -0.002753 0.003306 -0.001472
# 2 -0.000060 0.012857 -0.002505 -0.005855 0.000685 -0.008428
# 3 -0.001280 -0.002505 0.007901 -0.002264 0.002328 0.000267
# 4 -0.002753 -0.005855 -0.002264 0.023375 -0.004467 0.006850
# 5 0.003306 0.000685 0.002328 -0.004467 0.026414 -0.003276
# 6 -0.001472 -0.008428 0.000267 0.006850 -0.003276 0.034813
#
#
# Mechanical properties :
#
#
# Convention : Reuss Voigt Hill
#
# Bulk Modulus (GPa) = 45.67220 69.44214 57.55717
# Shear Modulus (GPa) = 38.70645 46.78431 42.74538
#
# Velocity S-wave (km/s) = 3.98753 4.38392 4.19042
# Velocity P-wave (km/s) = 6.32159 7.35877 6.85981
#
# Compressibility (1/GPa) = 0.02189516
#
# Stress axis : x y z
#
# Youngs Moduli (GPa) = 113.28353 77.77810 126.56142
#
# Poissons Ratio (x) = 0.00468 0.16196
# Poissons Ratio (y) = 0.00681 0.31710
# Poissons Ratio (z) = 0.14497 0.19487
#
# Static dielectric constant tensor:
#      x y z
#    x 1.974320 0.008610 0.038780 
#    y 0.008610 1.876900 -0.019480 
#    z 0.038780 -0.019480 1.913610 
# 
# From -- ./inp_files/485131.got.cif
#   From: 2010.05.17/outbox.cif.g08.bks.cpg/sg2_243_cif.got.tgz:485131.got - 2010.06.03 11:33:40.
