data_PCOD9011629
_publ_section_title
;
Structure prediction by ZEFSAII (Michael W. Deem and Ramdas Pophale) SiO2 
 PCOD9011629
Probable space group: P -1
;
_chemical_formula_sum "Si O2"
_cell_formula_units_Z 13
_cell_length_a 8.076683
_cell_length_b 11.177175
_cell_length_c 12.956315
_cell_angle_alpha 147.662561
_cell_angle_beta 47.560378
_cell_angle_gamma 124.167072
_cell_volume 461.605318
_symmetry_space_group_name_H-M "P -1"
_symmetry_group_IT_number 2
_symmetry_cell_setting 'triclinic'
loop_
_space_group_symop_operation_xyz
x,y,z
-x,-y,-z
loop_
_atom_site_type_symbol
_atom_site_label
_atom_site_fract_x
_atom_site_fract_y
_atom_site_fract_z
Si Si1 0.684540 0.805501 0.800347
Si Si2 0.740834 0.047960 0.620227
Si Si3 0.000000 0.000000 0.000000
Si Si4 0.138294 0.281876 0.922086
Si Si5 0.668820 0.193453 0.425447
Si Si6 0.678684 0.359630 0.048041
Si Si7 0.922213 0.390562 0.634942
O O1 0.837152 0.719730 0.576872
O O2 0.512175 0.613350 0.767090
O O3 0.500000 0.000000 0.000000
O O4 0.852328 0.892831 0.882658
O O5 0.597955 0.838810 0.495024
O O6 0.622505 0.154658 0.846982
O O7 0.769729 0.234316 0.657030
O O8 0.000000 0.000000 0.500000
O O9 0.785686 0.157347 0.240669
O O10 0.282493 0.451542 0.917508
O O11 0.083295 0.377119 0.130102
O O12 0.255784 0.043956 0.719691
O O13 0.908083 0.290203 0.960187
O O14 0.790001 0.380815 0.577422
#
# Coordination Sequence:
#
# PCOD9011629 Si02
#       7
#     2   2   1   2   2   2   2
#     4  11  21  41  69  99 141 184 227 287 351 407
#     4  11  21  39  67  98 131 175 230 276 333 413
#     4  10  22  40  68 106 124 184 230 270 352 412
#     4  10  23  44  68  99 136 177 230 284 340 412
#     4  11  22  43  71  94 140 178 224 288 347 398
#     4  10  21  40  66  97 137 184 223 278 349 408
#     4  10  24  39  67 102 128 174 233 276 344 409
#
# _framework density 28.162586999999998
#
# number of rings (size 3 to 8) (size 9 to 14) (size 15 to 20)
#    0.000    1.538    1.538    4.154    0.000    3.077 
#    0.000    6.154    3.385    0.000    0.000    0.000 
#    0.000    0.000    0.000    0.000    0.000    0.000 
#
# Total GULP energy -72585.474712 kJ/mol
# GULP energy per Si atom -5583.498055 kJ/mol
# Density = 2.809849 g / cm^3
# Si number density = 28.162587 Si / 1000 Ang^3
#
#
#
# Elastic Constant Matrix: (Units=GPa)
#
#
# Indices 1 2 3 4 5 6 
#
# 1 103.4116 29.4131 45.2458 5.5724 -4.0088 16.6067
# 2 29.4131 109.6776 2.5458 -25.5937 -3.8468 23.4741
# 3 45.2458 2.5458 139.7656 -18.8015 40.1125 22.6067
# 4 5.5724 -25.5937 -18.8015 50.9981 3.3718 -2.8859
# 5 -4.0088 -3.8468 40.1125 3.3718 64.5206 -0.7093
# 6 16.6067 23.4741 22.6067 -2.8859 -0.7093 47.4716
#
#
#
# Elastic Compliance Matrix: (Units=1/GPa)
#
#
# Indices 1 2 3 4 5 6 
#
# 1 0.015076 -0.005586 -0.007547 -0.007570 0.005699 0.000707
# 2 -0.005586 0.013980 0.004739 0.009193 -0.003014 -0.006702
# 3 -0.007547 0.004739 0.014499 0.008840 -0.009731 -0.006216
# 4 -0.007570 0.009193 0.008840 0.028515 -0.006958 -0.004478
# 5 0.005699 -0.003014 -0.009731 -0.006958 0.022131 0.004038
# 6 0.000707 -0.006702 -0.006216 -0.004478 0.004038 0.026880
#
#
# Mechanical properties :
#
#
# Convention : Reuss Voigt Hill
#
# Bulk Modulus (GPa) = 37.35840 56.36271 46.86055
# Shear Modulus (GPa) = 34.06206 50.97472 42.51839
#
# Velocity S-wave (km/s) = 3.48153 4.25904 3.88976
# Velocity P-wave (km/s) = 5.42729 6.65152 6.07034
#
# Compressibility (1/GPa) = 0.02676774
#
# Stress axis : x y z
#
# Youngs Moduli (GPa) = 66.32942 71.53282 68.96999
#
# Poissons Ratio (x) = 0.39957 0.52053
# Poissons Ratio (y) = 0.37051 -0.32688
# Poissons Ratio (z) = 0.50060 -0.33902
#
# Static dielectric constant tensor:
#      x y z
#    x 2.211940 -0.092440 -0.106220 
#    y -0.092440 2.042230 0.143180 
#    z -0.106220 0.143180 2.347980 
# 
# From -- ./inp_files/503353.got.cif
#   From: 2010.05.17/outbox.cif.g08.bks.cpg/sg2_252_cif.got.tgz:503353.got - 2010.06.03 11:33:40.
