data_PCOD9011776
_publ_section_title
;
Structure prediction by ZEFSAII (Michael W. Deem and Ramdas Pophale) SiO2 
 PCOD9011776
Probable space group: P -1
;
_chemical_formula_sum "Si O2"
_cell_formula_units_Z 14
_cell_length_a 15.625395
_cell_length_b 8.522537
_cell_length_c 10.519823
_cell_angle_alpha 139.786245
_cell_angle_beta 42.043678
_cell_angle_gamma 133.970393
_cell_volume 578.932604
_symmetry_space_group_name_H-M "P -1"
_symmetry_group_IT_number 2
_symmetry_cell_setting 'triclinic'
loop_
_space_group_symop_operation_xyz
x,y,z
-x,-y,-z
loop_
_atom_site_type_symbol
_atom_site_label
_atom_site_fract_x
_atom_site_fract_y
_atom_site_fract_z
Si Si1 0.089622 0.848635 0.693216
Si Si2 0.561611 0.139380 0.889100
Si Si3 0.714820 0.124186 0.281371
Si Si4 0.673733 0.709280 0.382181
Si Si5 0.492396 0.404911 0.742222
Si Si6 0.845976 0.377380 0.055841
Si Si7 0.858070 0.441866 0.784206
O O1 0.174210 0.774672 0.668576
O O2 0.084472 0.720978 0.480551
O O3 0.939979 0.732457 0.839331
O O4 0.184276 0.130416 0.736313
O O5 0.703012 0.358803 0.871108
O O6 0.602619 0.919695 0.632711
O O7 0.472427 0.320741 0.057434
O O8 0.500000 0.000000 0.000000
O O9 0.616023 0.295984 0.518112
O O10 0.786099 0.152955 0.083435
O O11 0.623564 0.835733 0.224843
O O12 0.564731 0.547719 0.304528
O O13 0.735915 0.533678 0.291987
O O14 0.855954 0.347583 0.873939
O O15 0.000000 0.500000 0.000000
#
# Coordination Sequence:
#
# PCOD9011776 Si02
#       7
#     2   2   2   2   2   2   2
#     4   9  20  43  66  91 135 177 224 264 331 417
#     4  11  23  40  68  98 129 180 229 268 326 409
#     4  10  22  40  69 104 134 173 226 281 327 399
#     4  10  23  41  70  97 133 180 225 267 338 413
#     4  10  22  44  70  93 138 184 222 271 338 398
#     4  12  23  39  69 105 134 168 224 287 342 385
#     4  10  21  40  67  92 130 180 217 269 339 396
#
# _framework density 24.182435000000002
#
# number of rings (size 3 to 8) (size 9 to 14) (size 15 to 20)
#    0.000    1.714    2.857    0.857    2.000    2.857 
#    0.000   14.286   22.000    0.000    0.000    0.000 
#    0.000    0.000    0.000    0.000    0.000    0.000 
#
# Total GULP energy -77968.572805 kJ/mol
# GULP energy per Si atom -5569.183772 kJ/mol
# Density = 2.412739 g / cm^3
# Si number density = 24.182435 Si / 1000 Ang^3
#
#
#
# Elastic Constant Matrix: (Units=GPa)
#
#
# Indices 1 2 3 4 5 6 
#
# 1 60.6198 26.6097 23.5698 15.1660 6.5396 -3.5844
# 2 26.6097 148.0175 36.4657 -24.4781 0.3889 -5.3970
# 3 23.5698 36.4657 144.6918 -5.9703 13.6293 -13.2005
# 4 15.1660 -24.4781 -5.9703 35.0364 -10.5639 -1.4365
# 5 6.5396 0.3889 13.6293 -10.5639 27.5226 -6.0861
# 6 -3.5844 -5.3970 -13.2005 -1.4365 -6.0861 34.8293
#
#
#
# Elastic Compliance Matrix: (Units=1/GPa)
#
#
# Indices 1 2 3 4 5 6 
#
# 1 0.028340 -0.008428 -0.002295 -0.023188 -0.015006 -0.002838
# 2 -0.008428 0.010932 -0.001389 0.013641 0.008282 0.002310
# 3 -0.002295 -0.001389 0.008117 0.000678 -0.002713 0.002179
# 4 -0.023188 0.013641 0.000678 0.057126 0.028528 0.007325
# 5 -0.015006 0.008282 -0.002713 0.028528 0.054143 0.009348
# 6 -0.002838 0.002310 0.002179 0.007325 0.009348 0.031539
#
#
# Mechanical properties :
#
#
# Convention : Reuss Voigt Hill
#
# Bulk Modulus (GPa) = 43.16619 58.51327 50.83973
# Shear Modulus (GPa) = 22.50815 37.25659 29.88237
#
# Velocity S-wave (km/s) = 3.05415 3.92937 3.51907
# Velocity P-wave (km/s) = 5.50691 6.69595 6.13033
#
# Compressibility (1/GPa) = 0.02316628
#
# Stress axis : x y z
#
# Youngs Moduli (GPa) = 35.28547 91.47842 123.19377
#
# Poissons Ratio (x) = 0.77100 0.28268
# Poissons Ratio (y) = 0.29739 0.17107
# Poissons Ratio (z) = 0.08097 0.12703
#
# Static dielectric constant tensor:
#      x y z
#    x 1.988120 -0.040010 -0.004790 
#    y -0.040010 1.945570 0.047700 
#    z -0.004790 0.047700 2.364060 
# 
# From -- ./inp_files/460848.got.cif
#   From: 2010.05.17/outbox.cif.g08.bks.cpg/sg2_231_cif.got.tgz:460848.got - 2010.06.03 11:33:40.
