data_PCOD9012938
_publ_section_title
;
Structure prediction by ZEFSAII (Michael W. Deem and Ramdas Pophale) SiO2 
 PCOD9012938
Probable space group: P -1
;
_chemical_formula_sum "Si O2"
_cell_formula_units_Z 16
_cell_length_a 20.387371
_cell_length_b 8.928011
_cell_length_c 8.103316
_cell_angle_alpha 125.871048
_cell_angle_beta 82.723605
_cell_angle_gamma 135.650550
_cell_volume 715.610282
_symmetry_space_group_name_H-M "P -1"
_symmetry_group_IT_number 2
_symmetry_cell_setting 'triclinic'
loop_
_space_group_symop_operation_xyz
x,y,z
-x,-y,-z
loop_
_atom_site_type_symbol
_atom_site_label
_atom_site_fract_x
_atom_site_fract_y
_atom_site_fract_z
Si Si1 0.417058 0.197186 0.935683
Si Si2 0.796034 0.031056 0.131963
Si Si3 0.223610 0.129414 0.299603
Si Si4 0.126759 0.239840 0.591566
Si Si5 0.853103 0.756430 0.046220
Si Si6 0.549437 0.425105 0.360850
Si Si7 0.885674 0.575275 0.610011
Si Si8 0.416152 0.803778 0.551269
O O1 0.319433 0.120723 0.955950
O O2 0.488695 0.277228 0.113282
O O3 0.500000 0.500000 0.000000
O O4 0.383589 0.940586 0.683678
O O5 0.841192 0.122302 0.986319
O O6 0.697189 0.564184 0.643101
O O7 0.795621 0.824874 0.075230
O O8 0.148864 0.084956 0.413096
O O9 0.318457 0.252484 0.463409
O O10 0.160849 0.443011 0.558472
O O11 0.178362 0.380100 0.847014
O O12 0.138650 0.694458 0.582479
O O13 0.000000 0.000000 0.500000
O O14 0.839763 0.573614 0.787976
O O15 0.983714 0.094631 0.219198
O O16 0.500000 0.500000 0.500000
O O17 0.524146 0.183342 0.316466
O O18 0.500000 0.000000 0.500000
#
# Coordination Sequence:
#
# PCOD9012938 Si02
#       8
#     2   2   2   2   2   2   2   2
#     4  12  24  40  62  98 135 182 229 279 336 418
#     4  12  23  41  69  96 139 175 231 280 344 408
#     4  10  22  40  67  94 142 174 229 282 348 402
#     4  10  21  44  69  95 134 180 224 283 350 408
#     4  10  23  43  69  99 134 177 224 288 345 412
#     4  10  21  41  62  90 133 173 221 283 337 401
#     4  10  22  45  69  97 136 175 226 288 348 405
#     4  10  22  42  66  91 129 180 226 279 348 399
#
# _framework density 22.358539
#
# number of rings (size 3 to 8) (size 9 to 14) (size 15 to 20)
#    0.750    0.750    2.500    3.000    1.750    0.000 
#    2.250    1.250    0.000    0.000    0.000    0.000 
#    0.000    0.000    0.000    0.000    0.000    0.000 
#
# Total GULP energy -89124.634332 kJ/mol
# GULP energy per Si atom -5570.289646 kJ/mol
# Density = 2.230765 g / cm^3
# Si number density = 22.358539 Si / 1000 Ang^3
#
#
#
# Elastic Constant Matrix: (Units=GPa)
#
#
# Indices 1 2 3 4 5 6 
#
# 1 133.7502 31.4829 38.2074 -18.3728 -16.2478 -2.3399
# 2 31.4829 64.9702 36.5352 -24.8041 1.6674 -5.1579
# 3 38.2074 36.5352 130.2798 -22.1566 -13.1194 2.1500
# 4 -18.3728 -24.8041 -22.1566 35.3570 -1.1738 0.8731
# 5 -16.2478 1.6674 -13.1194 -1.1738 43.2917 -10.6592
# 6 -2.3399 -5.1579 2.1500 0.8731 -10.6592 29.4274
#
#
#
# Elastic Compliance Matrix: (Units=1/GPa)
#
#
# Indices 1 2 3 4 5 6 
#
# 1 0.009281 -0.003022 -0.001181 0.002046 0.003683 0.001568
# 2 -0.003022 0.024318 -0.004024 0.012819 -0.002167 0.003151
# 3 -0.001181 -0.004024 0.009917 0.002881 0.002634 -0.000655
# 4 0.002046 0.012819 0.002881 0.040186 0.002728 0.001995
# 5 0.003683 -0.002167 0.002634 0.002728 0.027830 0.009720
# 6 0.001568 0.003151 -0.000655 0.001995 0.009720 0.038168
#
#
# Mechanical properties :
#
#
# Convention : Reuss Voigt Hill
#
# Bulk Modulus (GPa) = 36.95200 60.16125 48.55662
# Shear Modulus (GPa) = 28.54275 36.46687 32.50481
#
# Velocity S-wave (km/s) = 3.57682 4.04295 3.81701
# Velocity P-wave (km/s) = 5.79837 6.98283 6.41798
#
# Compressibility (1/GPa) = 0.02706213
#
# Stress axis : x y z
#
# Youngs Moduli (GPa) = 107.74224 41.12135 100.84013
#
# Poissons Ratio (x) = 0.12427 0.11914
# Poissons Ratio (y) = 0.32560 0.40574
# Poissons Ratio (z) = 0.12729 0.16546
#
# Static dielectric constant tensor:
#      x y z
#    x 1.796570 -0.087620 0.013670 
#    y -0.087620 1.663290 0.009440 
#    z 0.013670 0.009440 1.910810 
# 
# From -- ./inp_files/328037.got.cif
#   From: 2010.05.17/outbox.cif.g08.bks.cpg/sg2_165_cif.got.tgz:328037.got - 2010.06.03 11:33:40.
