data_PCOD9012424
_publ_section_title
;
Structure prediction by ZEFSAII (Michael W. Deem and Ramdas Pophale) SiO2 
 PCOD9012424
Probable space group: P -1
;
_chemical_formula_sum "Si O2"
_cell_formula_units_Z 15
_cell_length_a 11.613527
_cell_length_b 11.093069
_cell_length_c 8.391746
_cell_angle_alpha 91.397854
_cell_angle_beta 127.526137
_cell_angle_gamma 60.482554
_cell_volume 683.985320
_symmetry_space_group_name_H-M "P -1"
_symmetry_group_IT_number 2
_symmetry_cell_setting 'triclinic'
loop_
_space_group_symop_operation_xyz
x,y,z
-x,-y,-z
loop_
_atom_site_type_symbol
_atom_site_label
_atom_site_fract_x
_atom_site_fract_y
_atom_site_fract_z
Si Si1 0.350678 0.574611 0.011830
Si Si2 0.340934 0.443918 0.297887
Si Si3 0.957916 0.252899 0.761811
Si Si4 0.000000 0.000000 0.000000
Si Si5 0.640930 0.885171 0.398733
Si Si6 0.981774 0.363578 0.451160
Si Si7 0.689917 0.804652 0.810071
Si Si8 0.387496 0.795417 0.219152
O O1 0.171207 0.592870 0.806907
O O2 0.500000 0.500000 0.000000
O O3 0.432618 0.468758 0.232232
O O4 0.308168 0.733056 0.032952
O O5 0.181987 0.606038 0.237724
O O6 0.264936 0.358153 0.160000
O O7 0.479229 0.335790 0.547852
O O8 0.920774 0.318271 0.554065
O O9 0.159009 0.201988 0.965064
O O10 0.951806 0.118396 0.811221
O O11 0.213375 0.933396 0.167124
O O12 0.689717 0.844735 0.625705
O O13 0.508773 0.838425 0.244164
O O14 0.823692 0.783671 0.449174
O O15 0.510496 0.066476 0.285647
O O16 0.000000 0.500000 0.500000
#
# Coordination Sequence:
#
# PCOD9012424 Si02
#       8
#     2   2   2   1   2   2   2   2
#     4  12  25  42  67 102 137 176 231 292 346 408
#     4  11  23  42  73  98 133 181 245 283 341 417
#     4  12  24  45  71 103 138 188 232 289 351 414
#     4  12  26  44  72  98 148 180 238 280 354 420
#     4  10  22  43  68 101 139 174 230 289 353 406
#     4  12  26  45  71 105 145 182 234 294 347 414
#     4  10  21  40  70 101 129 182 231 287 341 412
#     4  11  24  45  72  98 138 190 228 286 342 425
#
# _framework density 21.930296999999999
#
# number of rings (size 3 to 8) (size 9 to 14) (size 15 to 20)
#    0.000    0.800    2.667    5.600    1.867    0.533 
#    2.400    0.667    0.000    0.000    0.000    0.000 
#    0.000    0.000    0.000    0.000    0.000    0.000 
#
# Total GULP energy -83583.856468 kJ/mol
# GULP energy per Si atom -5572.257098 kJ/mol
# Density = 2.188038 g / cm^3
# Si number density = 21.930297 Si / 1000 Ang^3
#
#
#
# Elastic Constant Matrix: (Units=GPa)
#
#
# Indices 1 2 3 4 5 6 
#
# 1 106.6016 30.1106 4.2607 -8.3870 -3.8130 -9.9044
# 2 30.1106 49.9341 17.5685 4.0596 -9.6028 -0.2218
# 3 4.2607 17.5685 48.3939 -0.2371 11.3401 5.7939
# 4 -8.3870 4.0596 -0.2371 36.9578 7.2804 13.0728
# 5 -3.8130 -9.6028 11.3401 7.2804 41.0125 -6.1709
# 6 -9.9044 -0.2218 5.7939 13.0728 -6.1709 36.9435
#
#
#
# Elastic Compliance Matrix: (Units=1/GPa)
#
#
# Indices 1 2 3 4 5 6 
#
# 1 0.012126 -0.008947 0.002584 0.003801 -0.002194 0.001080
# 2 -0.008947 0.034966 -0.016275 -0.011339 0.014901 0.006865
# 3 0.002584 -0.016275 0.031195 0.009172 -0.015345 -0.010106
# 4 0.003801 -0.011339 0.009172 0.037689 -0.013959 -0.016156
# 5 -0.002194 0.014901 -0.015345 -0.013959 0.036332 0.012916
# 6 0.001080 0.006865 -0.010106 -0.016156 0.012916 0.036858
#
#
# Mechanical properties :
#
#
# Convention : Reuss Voigt Hill
#
# Bulk Modulus (GPa) = 30.29393 34.31212 32.30302
# Shear Modulus (GPa) = 20.37101 33.18207 26.77654
#
# Velocity S-wave (km/s) = 3.05109 3.89404 3.49805
# Velocity P-wave (km/s) = 5.12405 5.99150 5.57467
#
# Compressibility (1/GPa) = 0.03300992
#
# Stress axis : x y z
#
# Youngs Moduli (GPa) = 82.47014 28.59935 32.05614
#
# Poissons Ratio (x) = 0.25588 -0.08283
# Poissons Ratio (y) = 0.73788 0.52172
# Poissons Ratio (z) = -0.21311 0.46546
#
# Static dielectric constant tensor:
#      x y z
#    x 1.786470 0.003970 -0.011140 
#    y 0.003970 1.815980 0.026040 
#    z -0.011140 0.026040 1.799420 
# 
# From -- ./inp_files/262614.got.cif
#   From: 2010.05.17/outbox.cif.g08.bks.cpg/sg2_132_cif.got.tgz:262614.got - 2010.06.03 11:33:40.
