data_PCOD9012522
_publ_section_title
;
Structure prediction by ZEFSAII (Michael W. Deem and Ramdas Pophale) SiO2 
 PCOD9012522
Probable space group: P -1
;
_chemical_formula_sum "Si O2"
_cell_formula_units_Z 16
_cell_length_a 9.214308
_cell_length_b 14.595169
_cell_length_c 13.553692
_cell_angle_alpha 44.483607
_cell_angle_beta 116.238109
_cell_angle_gamma 81.685730
_cell_volume 780.606259
_symmetry_space_group_name_H-M "P -1"
_symmetry_group_IT_number 2
_symmetry_cell_setting 'triclinic'
loop_
_space_group_symop_operation_xyz
x,y,z
-x,-y,-z
loop_
_atom_site_type_symbol
_atom_site_label
_atom_site_fract_x
_atom_site_fract_y
_atom_site_fract_z
Si Si1 0.075074 0.742460 0.853251
Si Si2 0.754831 0.506250 0.080622
Si Si3 0.787111 0.590047 0.720658
Si Si4 0.402383 0.839929 0.561165
Si Si5 0.455215 0.674974 0.387374
Si Si6 0.478826 0.361372 0.879831
Si Si7 0.608398 0.076598 0.997266
Si Si8 0.835252 0.229550 0.599563
O O1 0.159394 0.669375 0.822345
O O2 0.123290 0.578705 0.050890
O O3 0.253779 0.741396 0.955677
O O4 0.804264 0.943109 0.631452
O O5 0.638412 0.552715 0.114937
O O6 0.991130 0.452146 0.205443
O O7 0.561017 0.694698 0.810212
O O8 0.585579 0.783426 0.576208
O O9 0.665052 0.598548 0.582245
O O10 0.271022 0.797316 0.499070
O O11 0.500000 0.500000 0.500000
O O12 0.431510 0.793200 0.201705
O O13 0.224180 0.807462 0.287268
O O14 0.490319 0.209670 0.956782
O O15 0.321963 0.546611 0.620787
O O16 0.500000 0.000000 0.000000
O O17 0.891024 0.900934 0.231428
#
# Coordination Sequence:
#
# PCOD9012522 Si02
#       8
#     2   2   2   2   2   2   2   2
#     4  11  20  42  71  93 133 180 231 269 328 416
#     4  11  25  39  64 101 143 173 212 280 353 396
#     4  10  23  42  63 101 135 170 230 282 334 399
#     4  10  21  40  70  98 128 179 227 272 326 413
#     4  11  22  47  75  94 127 189 233 274 339 401
#     4  12  24  45  66  99 138 180 227 274 338 415
#     4  12  28  46  68 105 137 172 231 296 344 386
#     4  11  23  44  72  96 133 177 233 278 331 418
#
# _framework density 20.49689
#
# number of rings (size 3 to 8) (size 9 to 14) (size 15 to 20)
#    0.000    1.000    6.250    2.250    1.750    5.000 
#    4.500    0.000    0.000    0.000    0.000    0.000 
#    0.000    0.000    0.000    0.000    0.000    0.000 
#
# Total GULP energy -89434.255486 kJ/mol
# GULP energy per Si atom -5589.640968 kJ/mol
# Density = 2.045024 g / cm^3
# Si number density = 20.496890 Si / 1000 Ang^3
#
#
#
# Elastic Constant Matrix: (Units=GPa)
#
#
# Indices 1 2 3 4 5 6 
#
# 1 70.7896 11.5009 33.2941 5.9598 19.1888 5.9658
# 2 11.5009 88.9179 39.0268 -7.2904 9.5560 4.7038
# 3 33.2941 39.0268 104.1713 -5.8440 28.1894 -6.8800
# 4 5.9598 -7.2904 -5.8440 27.2507 -6.4047 0.3003
# 5 19.1888 9.5560 28.1894 -6.4047 29.4036 1.0036
# 6 5.9658 4.7038 -6.8800 0.3003 1.0036 36.5289
#
#
#
# Elastic Compliance Matrix: (Units=1/GPa)
#
#
# Indices 1 2 3 4 5 6 
#
# 1 0.019907 -0.000050 -0.004169 -0.007695 -0.010529 -0.003678
# 2 -0.000050 0.013973 -0.005710 0.002959 0.001710 -0.002938
# 3 -0.004169 -0.005710 0.016468 0.000199 -0.011333 0.004828
# 4 -0.007695 0.002959 0.000199 0.042284 0.013072 0.000206
# 5 -0.010529 0.001710 -0.011333 0.013072 0.054113 -0.002229
# 6 -0.003678 -0.002938 0.004828 0.000206 -0.002229 0.029323
#
#
# Mechanical properties :
#
#
# Convention : Reuss Voigt Hill
#
# Bulk Modulus (GPa) = 32.79706 47.94694 40.37200
# Shear Modulus (GPa) = 24.26132 30.64045 27.45088
#
# Velocity S-wave (km/s) = 3.44417 3.87057 3.66357
# Velocity P-wave (km/s) = 5.64377 6.58924 6.13475
#
# Compressibility (1/GPa) = 0.03049054
#
# Stress axis : x y z
#
# Youngs Moduli (GPa) = 50.23316 71.56626 60.72397
#
# Poissons Ratio (x) = 0.00356 0.25318
# Poissons Ratio (y) = 0.00250 0.34672
# Poissons Ratio (z) = 0.20944 0.40863
#
# Static dielectric constant tensor:
#      x y z
#    x 1.724810 -0.016330 -0.011300 
#    y -0.016330 1.749880 -0.000750 
#    z -0.011300 -0.000750 1.711950 
# 
# From -- ./inp_files/500178.got.cif
#   From: 2010.05.17/outbox.cif.g08.bks.cpg/sg2_251_cif.got.tgz:500178.got - 2010.06.03 11:33:40.
