data_PCOD9012358
_publ_section_title
;
Structure prediction by ZEFSAII (Michael W. Deem and Ramdas Pophale) SiO2 
 PCOD9012358
Probable space group: P -1
;
_chemical_formula_sum "Si O2"
_cell_formula_units_Z 14
_cell_length_a 9.604457
_cell_length_b 15.201616
_cell_length_c 9.226535
_cell_angle_alpha 39.137899
_cell_angle_beta 97.361844
_cell_angle_gamma 120.652080
_cell_volume 636.709983
_symmetry_space_group_name_H-M "P -1"
_symmetry_group_IT_number 2
_symmetry_cell_setting 'triclinic'
loop_
_space_group_symop_operation_xyz
x,y,z
-x,-y,-z
loop_
_atom_site_type_symbol
_atom_site_label
_atom_site_fract_x
_atom_site_fract_y
_atom_site_fract_z
Si Si1 0.747245 0.548860 0.291280
Si Si2 0.550492 0.465110 0.896253
Si Si3 0.030515 0.311124 0.367441
Si Si4 0.059729 0.658734 0.976931
Si Si5 0.536758 0.870891 0.110781
Si Si6 0.937482 0.109723 0.900317
Si Si7 0.545184 0.145854 0.200495
O O1 0.592613 0.558420 0.205547
O O2 0.631190 0.346824 0.604833
O O3 0.871627 0.572959 0.144407
O O4 0.905323 0.721966 0.191208
O O5 0.768999 0.633023 0.681031
O O6 0.500000 0.500000 0.000000
O O7 0.540433 0.290567 0.100726
O O8 0.053179 0.491845 0.148845
O O9 0.933264 0.203451 0.638155
O O10 0.929901 0.232112 0.300213
O O11 0.255883 0.783182 0.925541
O O12 0.564726 0.897385 0.906903
O O13 0.500000 0.000000 0.000000
O O14 0.723820 0.950730 0.120156
O O15 0.000000 0.000000 0.000000
O O16 0.500000 0.000000 0.500000
#
# Coordination Sequence:
#
# PCOD9012358 Si02
#       7
#     2   2   2   2   2   2   2
#     4  12  25  46  71 105 141 179 241 288 348 422
#     4  11  23  42  71 102 137 188 232 290 356 408
#     4  10  21  41  66  97 134 177 228 281 345 411
#     4  10  21  40  69  96 133 181 225 282 346 408
#     4  12  27  45  74 106 142 185 231 294 355 417
#     4  12  26  45  68 100 141 185 230 286 352 416
#     4  11  25  44  68 102 145 184 234 289 349 421
#
# _framework density 21.988033000000001
#
# number of rings (size 3 to 8) (size 9 to 14) (size 15 to 20)
#    0.000    0.857    1.429    6.000    2.000    3.429 
#    2.571    1.429    0.000    0.000    0.000    0.000 
#    0.000    0.000    0.000    0.000    0.000    0.000 
#
# Total GULP energy -78083.191398 kJ/mol
# GULP energy per Si atom -5577.370814 kJ/mol
# Density = 2.193799 g / cm^3
# Si number density = 21.988033 Si / 1000 Ang^3
#
#
#
# Elastic Constant Matrix: (Units=GPa)
#
#
# Indices 1 2 3 4 5 6 
#
# 1 121.9697 26.2613 -4.7018 -11.7806 8.0968 13.3686
# 2 26.2613 114.7294 20.8224 -4.8696 3.2632 13.5975
# 3 -4.7018 20.8224 53.6584 9.5060 16.0260 2.4492
# 4 -11.7806 -4.8696 9.5060 29.7965 4.0865 -0.8001
# 5 8.0968 3.2632 16.0260 4.0865 31.4742 -3.2350
# 6 13.3686 13.5975 2.4492 -0.8001 -3.2350 48.2705
#
#
#
# Elastic Compliance Matrix: (Units=1/GPa)
#
#
# Indices 1 2 3 4 5 6 
#
# 1 0.009592 -0.002100 0.002444 0.003174 -0.004155 -0.002415
# 2 -0.002100 0.010379 -0.004960 0.002189 0.001505 -0.001953
# 3 0.002444 -0.004960 0.025719 -0.006371 -0.012540 -0.001531
# 4 0.003174 0.002189 -0.006371 0.037564 -0.002752 -0.000734
# 5 -0.004155 0.001505 -0.012540 -0.002752 0.039837 0.003987
# 6 -0.002415 -0.001953 -0.001531 -0.000734 0.003987 0.022268
#
#
# Mechanical properties :
#
#
# Convention : Reuss Voigt Hill
#
# Bulk Modulus (GPa) = 27.42804 41.68013 34.55408
# Shear Modulus (GPa) = 29.98616 38.43995 34.21306
#
# Velocity S-wave (km/s) = 3.69690 4.18571 3.94888
# Velocity P-wave (km/s) = 5.54292 6.50824 6.04488
#
# Compressibility (1/GPa) = 0.03645905
#
# Stress axis : x y z
#
# Youngs Moduli (GPa) = 104.25078 96.35201 38.88168
#
# Poissons Ratio (x) = 0.20235 -0.09504
# Poissons Ratio (y) = 0.21894 0.19284
# Poissons Ratio (z) = -0.25481 0.47786
#
# Static dielectric constant tensor:
#      x y z
#    x 1.795700 0.060420 -0.048280 
#    y 0.060420 1.896600 -0.015990 
#    z -0.048280 -0.015990 1.779570 
# 
# From -- ./inp_files/205357.got.cif
#   From: 2010.05.17/outbox.cif.g08.bks.cpg/sg2_103_cif.got.tgz:205357.got - 2010.06.03 11:33:40.
