data_PCOD9012566
_publ_section_title
;
Structure prediction by ZEFSAII (Michael W. Deem and Ramdas Pophale) SiO2 
 PCOD9012566
Probable space group: P -1
;
_chemical_formula_sum "Si O2"
_cell_formula_units_Z 13
_cell_length_a 11.452703
_cell_length_b 13.968657
_cell_length_c 8.905134
_cell_angle_alpha 42.239156
_cell_angle_beta 51.746813
_cell_angle_gamma 34.302292
_cell_volume 539.599980
_symmetry_space_group_name_H-M "P -1"
_symmetry_group_IT_number 2
_symmetry_cell_setting 'triclinic'
loop_
_space_group_symop_operation_xyz
x,y,z
-x,-y,-z
loop_
_atom_site_type_symbol
_atom_site_label
_atom_site_fract_x
_atom_site_fract_y
_atom_site_fract_z
Si Si1 0.772173 0.131681 0.852930
Si Si2 0.051588 0.126604 0.267450
Si Si3 0.348860 0.434577 0.316132
Si Si4 0.611244 0.538782 0.075502
Si Si5 0.462278 0.964855 0.236197
Si Si6 0.055811 0.170476 0.683318
Si Si7 0.500000 0.000000 0.500000
O O1 0.528757 0.321964 0.834843
O O2 0.905854 0.188026 0.663695
O O3 0.842079 0.969315 0.867552
O O4 0.827792 0.036579 0.083934
O O5 0.844825 0.354446 0.148985
O O6 0.221924 0.080454 0.291462
O O7 0.000000 0.000000 0.500000
O O8 0.503272 0.461970 0.199278
O O9 0.406937 0.266632 0.571708
O O10 0.114355 0.640904 0.292229
O O11 0.390436 0.364725 0.188846
O O12 0.515732 0.015356 0.284820
O O13 0.500000 0.000000 0.000000
O O14 0.244909 0.143653 0.519375
#
# Coordination Sequence:
#
# PCOD9012566 Si02
#       7
#     2   2   2   2   2   2   1
#     4  10  21  40  71 106 139 182 237 303 359 432
#     4  12  23  43  70 106 147 183 242 317 357 427
#     4  10  21  43  72 106 142 192 241 302 365 437
#     4  10  21  40  76 110 142 186 244 300 376 427
#     4  12  28  48  71 104 149 194 244 302 368 432
#     4  10  21  41  71 102 137 185 244 291 356 430
#     4  12  26  48  70  96 146 200 242 292 358 444
#
# _framework density 24.091922
#
# number of rings (size 3 to 8) (size 9 to 14) (size 15 to 20)
#    0.000    1.231    3.077    2.769    2.154    1.231 
#    5.538    0.769    0.000    0.000    0.000    0.000 
#    0.000    0.000    0.000    0.000    0.000    0.000 
#
# Total GULP energy -72440.750913 kJ/mol
# GULP energy per Si atom -5572.365455 kJ/mol
# Density = 2.403709 g / cm^3
# Si number density = 24.091922 Si / 1000 Ang^3
#
#
#
# Elastic Constant Matrix: (Units=GPa)
#
#
# Indices 1 2 3 4 5 6 
#
# 1 121.0432 61.0239 24.7562 15.6563 11.7185 -16.6542
# 2 61.0239 174.3912 12.2685 5.0856 14.3949 -27.9200
# 3 24.7562 12.2685 122.0713 7.6658 12.0607 -1.9439
# 4 15.6563 5.0856 7.6658 26.9862 -6.9672 6.7750
# 5 11.7185 14.3949 12.0607 -6.9672 34.5739 4.9552
# 6 -16.6542 -27.9200 -1.9439 6.7750 4.9552 25.6275
#
#
#
# Elastic Compliance Matrix: (Units=1/GPa)
#
#
# Indices 1 2 3 4 5 6 
#
# 1 0.013063 -0.001825 -0.000843 -0.011614 -0.007278 0.010914
# 2 -0.001825 0.008654 0.000538 -0.004871 -0.005683 0.010670
# 3 -0.000843 0.000538 0.009015 -0.003914 -0.004241 0.002576
# 4 -0.011614 -0.004871 -0.003914 0.060636 0.024408 -0.033900
# 5 -0.007278 -0.005683 -0.004241 0.024408 0.043907 -0.026185
# 6 0.010914 0.010670 0.002576 -0.033900 -0.026185 0.071959
#
#
# Mechanical properties :
#
#
# Convention : Reuss Voigt Hill
#
# Bulk Modulus (GPa) = 37.77808 68.17810 52.97809
# Shear Modulus (GPa) = 22.69444 38.73466 30.71455
#
# Velocity S-wave (km/s) = 3.07252 4.01407 3.57443
# Velocity P-wave (km/s) = 5.31997 7.06005 6.25085
#
# Compressibility (1/GPa) = 0.02647038
#
# Stress axis : x y z
#
# Youngs Moduli (GPa) = 76.55501 115.54871 110.92912
#
# Poissons Ratio (x) = 0.21084 0.09357
# Poissons Ratio (y) = 0.13969 -0.05963
# Poissons Ratio (z) = 0.06457 -0.06211
#
# Static dielectric constant tensor:
#      x y z
#    x 1.914400 0.018750 0.017200 
#    y 0.018750 1.876680 0.110520 
#    z 0.017200 0.110520 2.031130 
# 
# From -- ./inp_files/271439.got.cif
#   From: 2010.05.17/outbox.cif.g08.bks.cpg/sg2_136_cif.got.tgz:271439.got - 2010.06.03 11:33:40.
