data_PCOD9012516
_publ_section_title
;
Structure prediction by ZEFSAII (Michael W. Deem and Ramdas Pophale) SiO2 
 PCOD9012516
Probable space group: P -1
;
_chemical_formula_sum "Si O2"
_cell_formula_units_Z 12
_cell_length_a 10.751967
_cell_length_b 10.439318
_cell_length_c 13.974756
_cell_angle_alpha 148.993688
_cell_angle_beta 144.021349
_cell_angle_gamma 48.711949
_cell_volume 471.736980
_symmetry_space_group_name_H-M "P -1"
_symmetry_group_IT_number 2
_symmetry_cell_setting 'triclinic'
loop_
_space_group_symop_operation_xyz
x,y,z
-x,-y,-z
loop_
_atom_site_type_symbol
_atom_site_label
_atom_site_fract_x
_atom_site_fract_y
_atom_site_fract_z
Si Si1 0.589797 0.796573 0.726652
Si Si2 0.796397 0.599506 0.237477
Si Si3 0.661430 0.564005 0.910708
Si Si4 0.433711 0.942388 0.532026
Si Si5 0.835578 0.061009 0.355377
Si Si6 0.788528 0.305244 0.224375
O O1 0.500000 0.500000 0.500000
O O2 0.602040 0.856719 0.659261
O O3 0.383596 0.910265 0.712164
O O4 0.777322 0.999494 0.019808
O O5 0.737987 0.371844 0.125304
O O6 0.048634 0.691341 0.459811
O O7 0.729711 0.542620 0.050750
O O8 0.716108 0.318861 0.735216
O O9 0.410928 0.605378 0.782990
O O10 0.316166 0.168709 0.642995
O O11 0.786070 0.812862 0.104237
O O12 0.500000 0.000000 0.500000
O O13 0.000000 0.000000 0.500000
O O14 0.000000 0.500000 0.500000
#
# Coordination Sequence:
#
# PCOD9012516 Si02
#       6
#     2   2   2   2   2   2
#     4  11  25  47  72 104 153 188 230 304 368 425
#     4  11  21  44  71  99 142 181 247 302 346 426
#     4  10  21  40  70  97 137 186 237 294 357 420
#     4  12  22  39  76 104 131 184 249 289 356 424
#     4   9  19  42  67  96 137 191 230 290 354 418
#     4  11  23  43  67  98 143 190 231 291 364 426
#
# _framework density 25.437905000000001
#
# number of rings (size 3 to 8) (size 9 to 14) (size 15 to 20)
#    0.000    1.333    6.667    1.500    0.000    3.333 
#    6.000    5.000    0.000    0.000    0.000    0.000 
#    0.000    0.000    0.000    0.000    0.000    0.000 
#
# Total GULP energy -66895.590909 kJ/mol
# GULP energy per Si atom -5574.632576 kJ/mol
# Density = 2.538001 g / cm^3
# Si number density = 25.437905 Si / 1000 Ang^3
#
#
#
# Elastic Constant Matrix: (Units=GPa)
#
#
# Indices 1 2 3 4 5 6 
#
# 1 47.6004 19.6163 21.6258 -6.6762 -5.1745 24.0709
# 2 19.6163 83.1524 39.4200 14.9558 -17.5227 28.8115
# 3 21.6258 39.4200 201.4200 21.0515 -6.3897 -8.9101
# 4 -6.6762 14.9558 21.0515 36.1470 -14.5313 0.6123
# 5 -5.1745 -17.5227 -6.3897 -14.5313 45.3781 -1.0978
# 6 24.0709 28.8115 -8.9101 0.6123 -1.0978 36.6679
#
#
#
# Elastic Compliance Matrix: (Units=1/GPa)
#
#
# Indices 1 2 3 4 5 6 
#
# 1 0.043458 0.005004 -0.008471 0.015412 0.009796 -0.034483
# 2 0.005004 0.023394 -0.005672 -0.002005 0.007612 -0.022783
# 3 -0.008471 -0.005672 0.007973 -0.005469 -0.003496 0.011942
# 4 0.015412 -0.002005 -0.005469 0.039810 0.012715 -0.010154
# 5 0.009796 0.007612 -0.003496 0.012715 0.029368 -0.012594
# 6 -0.034483 -0.022783 0.011942 -0.010154 -0.012594 0.070504
#
#
# Mechanical properties :
#
#
# Convention : Reuss Voigt Hill
#
# Bulk Modulus (GPa) = 17.68442 54.83300 36.25871
# Shear Modulus (GPa) = 19.87004 40.40597 30.13801
#
# Velocity S-wave (km/s) = 2.79788 3.98982 3.44578
# Velocity P-wave (km/s) = 4.17188 6.54426 5.48780
#
# Compressibility (1/GPa) = 0.05654695
#
# Stress axis : x y z
#
# Youngs Moduli (GPa) = 23.01054 42.74644 125.41858
#
# Poissons Ratio (x) = -0.21390 1.06238
# Poissons Ratio (y) = -0.11514 0.71143
# Poissons Ratio (z) = 0.19491 0.24248
#
# Static dielectric constant tensor:
#      x y z
#    x 2.057620 0.168390 -0.021120 
#    y 0.168390 2.215910 -0.009110 
#    z -0.021120 -0.009110 2.170430 
# 
# From -- ./inp_files/573530.got.cif
#   From: 2010.05.17/outbox.cif.g08.bks.cpg/sg2_287_cif.got.tgz:573530.got - 2010.06.03 11:33:40.
