data_PCOD9012352
_publ_section_title
;
Structure prediction by ZEFSAII (Michael W. Deem and Ramdas Pophale) SiO2 
 PCOD9012352
Probable space group: P -1
;
_chemical_formula_sum "Si O2"
_cell_formula_units_Z 16
_cell_length_a 10.127924
_cell_length_b 18.715411
_cell_length_c 11.191269
_cell_angle_alpha 145.865100
_cell_angle_beta 138.562279
_cell_angle_gamma 34.893281
_cell_volume 664.184303
_symmetry_space_group_name_H-M "P -1"
_symmetry_group_IT_number 2
_symmetry_cell_setting 'triclinic'
loop_
_space_group_symop_operation_xyz
x,y,z
-x,-y,-z
loop_
_atom_site_type_symbol
_atom_site_label
_atom_site_fract_x
_atom_site_fract_y
_atom_site_fract_z
Si Si1 0.157940 0.812581 0.996706
Si Si2 0.641209 0.606967 0.178657
Si Si3 0.674458 0.155593 0.519802
Si Si4 0.093948 0.349399 0.778496
Si Si5 0.497555 0.140819 0.135849
Si Si6 0.020056 0.735051 0.018830
Si Si7 0.039010 0.134642 0.322252
Si Si8 0.508300 0.951167 0.239156
O O1 0.123436 0.812167 0.831937
O O2 0.418521 0.690244 0.052339
O O3 0.998484 0.775923 0.920450
O O4 0.092505 0.982143 0.211142
O O5 0.546344 0.698674 0.363376
O O6 0.838897 0.619645 0.262493
O O7 0.757174 0.431170 0.035735
O O8 0.627711 0.175732 0.374247
O O9 0.906540 0.156293 0.717850
O O10 0.647962 0.023215 0.376168
O O11 0.944649 0.274358 0.541527
O O12 0.318175 0.205658 0.794545
O O13 0.000000 0.500000 0.000000
O O14 0.598509 0.091766 0.004149
O O15 0.215460 0.256949 0.090021
O O16 0.500000 0.000000 0.000000
O O17 0.301094 0.068940 0.349199
#
# Coordination Sequence:
#
# PCOD9012352 Si02
#       8
#     2   2   2   2   2   2   2   2
#     4  10  21  40  70  99 124 173 229 275 327 393
#     4  11  22  42  63  94 137 171 211 270 337 408
#     4  10  21  40  69  96 125 181 216 274 338 381
#     4  12  24  41  63  97 132 174 220 271 341 395
#     4  10  23  40  63  98 130 168 224 275 323 389
#     4  11  23  41  62 101 140 167 223 275 331 402
#     4  11  22  42  72  95 127 176 228 276 325 403
#     4  11  21  42  67  94 132 172 226 273 322 405
#
# _framework density 24.089699
#
# number of rings (size 3 to 8) (size 9 to 14) (size 15 to 20)
#    0.000    1.250    2.500    5.625    0.000    2.500 
#    6.750    8.125    0.000    0.000    0.000    0.000 
#    0.000    0.000    0.000    0.000    0.000    0.000 
#
# Total GULP energy -89408.331724 kJ/mol
# GULP energy per Si atom -5588.020733 kJ/mol
# Density = 2.403487 g / cm^3
# Si number density = 24.089699 Si / 1000 Ang^3
#
#
#
# Elastic Constant Matrix: (Units=GPa)
#
#
# Indices 1 2 3 4 5 6 
#
# 1 86.6408 20.3450 20.9513 11.1185 4.0391 6.7046
# 2 20.3450 135.1110 62.0721 10.3146 0.2418 14.7247
# 3 20.9513 62.0721 121.7577 9.1819 -24.1395 17.3407
# 4 11.1185 10.3146 9.1819 44.1365 7.5384 -1.5495
# 5 4.0391 0.2418 -24.1395 7.5384 31.5496 1.0911
# 6 6.7046 14.7247 17.3407 -1.5495 1.0911 41.3907
#
#
#
# Elastic Compliance Matrix: (Units=1/GPa)
#
#
# Indices 1 2 3 4 5 6 
#
# 1 0.012678 -0.000691 -0.002048 -0.002191 -0.002628 -0.000963
# 2 -0.000691 0.010332 -0.005842 -0.000318 -0.004350 -0.001013
# 3 -0.002048 -0.005842 0.014956 -0.003560 0.012750 -0.004325
# 4 -0.002191 -0.000318 -0.003560 0.025615 -0.008670 0.003147
# 5 -0.002628 -0.004350 0.012750 -0.008670 0.044061 -0.004855
# 6 -0.000963 -0.001013 -0.004325 0.003147 -0.004855 0.026734
#
#
# Mechanical properties :
#
#
# Convention : Reuss Voigt Hill
#
# Bulk Modulus (GPa) = 48.07057 61.13849 54.60453
# Shear Modulus (GPa) = 31.55106 39.42476 35.48791
#
# Velocity S-wave (km/s) = 3.62295 4.04986 3.84234
# Velocity P-wave (km/s) = 6.12366 6.87772 6.51161
#
# Compressibility (1/GPa) = 0.02080275
#
# Stress axis : x y z
#
# Youngs Moduli (GPa) = 78.87947 96.78673 66.86186
#
# Poissons Ratio (x) = 0.06692 0.13691
# Poissons Ratio (y) = 0.05454 0.39064
# Poissons Ratio (z) = 0.16152 0.56547
#
# Static dielectric constant tensor:
#      x y z
#    x 2.052260 -0.102860 0.066560 
#    y -0.102860 1.941630 -0.061660 
#    z 0.066560 -0.061660 2.050050 
# 
# From -- ./inp_files/438745.got.cif
#   From: 2010.05.17/outbox.cif.g08.bks.cpg/sg2_220_cif.got.tgz:438745.got - 2010.06.03 11:33:40.
