data_PCOD9012906
_publ_section_title
;
Structure prediction by ZEFSAII (Michael W. Deem and Ramdas Pophale) SiO2 
 PCOD9012906
Probable space group: P -1
;
_chemical_formula_sum "Si O2"
_cell_formula_units_Z 16
_cell_length_a 5.439086
_cell_length_b 11.869350
_cell_length_c 14.874290
_cell_angle_alpha 46.226757
_cell_angle_beta 101.461956
_cell_angle_gamma 82.547023
_cell_volume 629.264871
_symmetry_space_group_name_H-M "P -1"
_symmetry_group_IT_number 2
_symmetry_cell_setting 'triclinic'
loop_
_space_group_symop_operation_xyz
x,y,z
-x,-y,-z
loop_
_atom_site_type_symbol
_atom_site_label
_atom_site_fract_x
_atom_site_fract_y
_atom_site_fract_z
Si Si1 0.858625 0.651763 0.201154
Si Si2 0.156404 0.801364 0.251512
Si Si3 0.821238 0.370027 0.460206
Si Si4 0.028833 0.378520 0.205541
Si Si5 0.610908 0.964495 0.769704
Si Si6 0.645481 0.131963 0.046280
Si Si7 0.621875 0.786274 0.526989
Si Si8 0.165171 0.639745 0.972976
O O1 0.122391 0.687596 0.230751
O O2 0.760865 0.565309 0.324829
O O3 0.921323 0.521167 0.195588
O O4 0.622750 0.821698 0.057016
O O5 0.153374 0.691661 0.400821
O O6 0.369493 0.884702 0.249094
O O7 0.898675 0.975105 0.118802
O O8 0.583394 0.314228 0.433535
O O9 0.118496 0.283433 0.483708
O O10 0.236490 0.224999 0.360741
O O11 0.804864 0.356685 0.135147
O O12 0.179228 0.457242 0.103486
O O13 0.552462 0.035798 0.627016
O O14 0.380420 0.919570 0.824173
O O15 0.878085 0.796352 0.882950
O O16 0.664638 0.310748 0.966891
#
# Coordination Sequence:
#
# PCOD9012906 Si02
#       8
#     2   2   2   2   2   2   2   2
#     4  11  22  39  63  94 123 164 211 262 314 383
#     4  10  22  40  62  89 128 165 205 258 319 380
#     4  10  21  41  63  95 131 170 210 260 321 381
#     4  10  22  42  62  92 122 161 215 262 320 376
#     4  10  21  41  62  88 126 164 207 256 319 379
#     4  11  21  40  61  91 120 165 210 257 318 379
#     4  10  21  41  66  93 131 166 215 264 314 384
#     4  10  22  42  64  86 123 164 209 268 320 371
#
# _framework density 25.426494000000002
#
# number of rings (size 3 to 8) (size 9 to 14) (size 15 to 20)
#    0.000    1.750    2.500    1.500    0.000    1.500 
#   11.250    6.250    0.000    0.000    0.000    0.000 
#    0.000    0.000    0.000    0.000    0.000    0.000 
#
# Total GULP energy -89243.007207 kJ/mol
# GULP energy per Si atom -5577.687950 kJ/mol
# Density = 2.536862 g / cm^3
# Si number density = 25.426494 Si / 1000 Ang^3
#
#
#
# Elastic Constant Matrix: (Units=GPa)
#
#
# Indices 1 2 3 4 5 6 
#
# 1 59.9438 18.9724 6.5436 5.0870 7.5159 -0.1257
# 2 18.9724 93.4040 3.0713 12.6548 0.6253 6.5645
# 3 6.5436 3.0713 108.2728 8.8041 1.3724 21.8190
# 4 5.0870 12.6548 8.8041 27.1999 11.4462 13.8852
# 5 7.5159 0.6253 1.3724 11.4462 29.4362 -5.1376
# 6 -0.1257 6.5645 21.8190 13.8852 -5.1376 0.1124
#
#
#
# Elastic Compliance Matrix: (Units=1/GPa)
#
#
# Indices 1 2 3 4 5 6 
#
# 1 0.018531 -0.003810 -0.000846 0.001342 -0.005312 -0.001029
# 2 -0.003810 0.012302 0.000554 -0.005713 0.002697 -0.001200
# 3 -0.000846 0.000554 0.007892 -0.010599 0.005835 0.010754
# 4 0.001342 -0.005713 -0.010599 0.019252 0.000674 0.045187
# 5 -0.005312 0.002697 0.005835 0.000674 0.029524 -0.029869
# 6 -0.001029 -0.001200 0.010754 0.045187 -0.029869 -0.069243
#
#
# Mechanical properties :
#
#
# Convention : Reuss Voigt Hill
#
# Bulk Modulus (GPa) = 32.76620 35.42171 34.09395
# Shear Modulus (GPa) = 136.47660 26.88523 81.68092
#
# Velocity S-wave (km/s) = 7.33427 3.25525 5.67398
# Velocity P-wave (km/s) = 9.19981 5.30001 7.50755
#
# Compressibility (1/GPa) = 0.03051926
#
# Stress axis : x y z
#
# Youngs Moduli (GPa) = 53.96472 81.28656 126.70905
#
# Poissons Ratio (x) = 0.30971 0.10723
# Poissons Ratio (y) = 0.20561 -0.07014
# Poissons Ratio (z) = 0.04567 -0.04499
#
# Static dielectric constant tensor:
#      x y z
#    x 2.048730 -0.015430 0.001170 
#    y -0.015430 2.054700 0.001370 
#    z 0.001170 0.001370 2.018140 
# 
# From -- ./inp_files/69605.got.cif
#   From: 2010.05.17/outbox.cif.g08.bks.cpg/sg2_35_cif.got.tgz:69605.got - 2010.06.03 11:33:40.
