data_PCOD9012843
_publ_section_title
;
Structure prediction by ZEFSAII (Michael W. Deem and Ramdas Pophale) SiO2 
 PCOD9012843
Probable space group: P -1
;
_chemical_formula_sum "Si O2"
_cell_formula_units_Z 14
_cell_length_a 13.398128
_cell_length_b 10.492026
_cell_length_c 11.885547
_cell_angle_alpha 96.460151
_cell_angle_beta 59.856765
_cell_angle_gamma 144.616971
_cell_volume 673.700300
_symmetry_space_group_name_H-M "P -1"
_symmetry_group_IT_number 2
_symmetry_cell_setting 'triclinic'
loop_
_space_group_symop_operation_xyz
x,y,z
-x,-y,-z
loop_
_atom_site_type_symbol
_atom_site_label
_atom_site_fract_x
_atom_site_fract_y
_atom_site_fract_z
Si Si1 0.037980 0.748760 0.102912
Si Si2 0.522258 0.668547 0.015930
Si Si3 0.726477 0.838705 0.497636
Si Si4 0.628366 0.395501 0.144875
Si Si5 0.510765 0.997519 0.129556
Si Si6 0.700528 0.512438 0.452140
Si Si7 0.802537 0.528009 0.644038
O O1 0.908434 0.670075 0.055720
O O2 0.811716 0.525004 0.295762
O O3 0.228298 0.820220 0.980453
O O4 0.202958 0.013520 0.100992
O O5 0.405358 0.591066 0.191535
O O6 0.500000 0.500000 0.000000
O O7 0.390129 0.598498 0.976225
O O8 0.535779 0.669073 0.693802
O O9 0.795930 0.755639 0.436807
O O10 0.576781 0.733701 0.459943
O O11 0.946311 0.154445 0.429838
O O12 0.523789 0.148980 0.193376
O O13 0.278638 0.689823 0.279861
O O14 0.500000 0.000000 0.000000
O O15 0.758650 0.498367 0.533893
#
# Coordination Sequence:
#
# PCOD9012843 Si02
#       7
#     2   2   2   2   2   2   2
#     4  10  22  40  65  85 120 166 199 249 305 357
#     4  11  22  37  61  93 122 157 206 251 303 361
#     4  10  22  39  64  90 124 159 191 251 309 360
#     4  11  22  42  62  87 123 164 204 247 304 360
#     4  11  23  44  60  87 122 166 208 253 301 353
#     4  10  21  41  61  93 124 153 200 245 308 369
#     4  11  22  36  61  89 118 160 200 249 298 356
#
# _framework density 20.780752
#
# number of rings (size 3 to 8) (size 9 to 14) (size 15 to 20)
#    0.000    1.429    2.857    3.429    0.000    3.429 
#    2.571    1.429    0.000    0.000    0.000    0.000 
#    0.000    0.000    0.000    0.000    0.000    0.000 
#
# Total GULP energy -77981.106677 kJ/mol
# GULP energy per Si atom -5570.079048 kJ/mol
# Density = 2.073345 g / cm^3
# Si number density = 20.780752 Si / 1000 Ang^3
#
#
#
# Elastic Constant Matrix: (Units=GPa)
#
#
# Indices 1 2 3 4 5 6 
#
# 1 144.5067 -82.0365 35.7306 85.9453 0.2523 89.3767
# 2 -82.0365 282.6317 -36.1398 -153.1172 40.1697 -114.1840
# 3 35.7306 -36.1398 42.5461 30.9011 -7.7643 34.6280
# 4 85.9453 -153.1172 30.9011 153.1794 -22.1027 98.7954
# 5 0.2523 40.1697 -7.7643 -22.1027 32.6358 -3.7425
# 6 89.3767 -114.1840 34.6280 98.7954 -3.7425 133.3731
#
#
#
# Elastic Compliance Matrix: (Units=1/GPa)
#
#
# Indices 1 2 3 4 5 6 
#
# 1 0.013805 -0.000630 -0.005429 -0.004640 -0.004347 -0.005066
# 2 -0.000630 0.009031 -0.000327 0.006341 -0.006509 0.003359
# 3 -0.005429 -0.000327 0.033309 0.000882 0.008311 -0.005710
# 4 -0.004640 0.006341 0.000882 0.020339 0.005458 -0.006604
# 5 -0.004347 -0.006509 0.008311 0.005458 0.043484 -0.007640
# 6 -0.005066 0.003359 -0.005710 -0.006604 -0.007640 0.019928
#
#
# Mechanical properties :
#
#
# Convention : Reuss Voigt Hill
#
# Bulk Modulus (GPa) = 23.05519 33.86591 28.46055
# Shear Modulus (GPa) = 29.91770 100.64634 65.28202
#
# Velocity S-wave (km/s) = 3.79843 6.96689 5.61096
# Velocity P-wave (km/s) = 5.50963 9.00272 7.46341
#
# Compressibility (1/GPa) = 0.04337419
#
# Stress axis : x y z
#
# Youngs Moduli (GPa) = 72.43553 110.73058 30.02191
#
# Poissons Ratio (x) = 0.06971 0.16299
# Poissons Ratio (y) = 0.04560 0.00982
# Poissons Ratio (z) = 0.39325 0.03622
#
# Static dielectric constant tensor:
#      x y z
#    x 1.753250 -0.061680 0.013190 
#    y -0.061680 1.729440 -0.017850 
#    z 0.013190 -0.017850 1.763940 
# 
# From -- ./inp_files/258439.got.cif
#   From: 2010.05.17/outbox.cif.g08.bks.cpg/sg2_130_cif.got.tgz:258439.got - 2010.06.03 11:33:40.
