data_PCOD9012402
_publ_section_title
;
Structure prediction by ZEFSAII (Michael W. Deem and Ramdas Pophale) SiO2 
 PCOD9012402
Probable space group: P -1
;
_chemical_formula_sum "Si O2"
_cell_formula_units_Z 14
_cell_length_a 9.240833
_cell_length_b 14.167548
_cell_length_c 9.218297
_cell_angle_alpha 130.165010
_cell_angle_beta 123.979858
_cell_angle_gamma 44.739180
_cell_volume 637.678278
_symmetry_space_group_name_H-M "P -1"
_symmetry_group_IT_number 2
_symmetry_cell_setting 'triclinic'
loop_
_space_group_symop_operation_xyz
x,y,z
-x,-y,-z
loop_
_atom_site_type_symbol
_atom_site_label
_atom_site_fract_x
_atom_site_fract_y
_atom_site_fract_z
Si Si1 0.539581 0.782961 0.796716
Si Si2 0.874947 0.090400 0.668394
Si Si3 0.205200 0.472850 0.156855
Si Si4 0.920410 0.420683 0.477555
Si Si5 0.734124 0.926397 0.625954
Si Si6 0.211836 0.092103 0.032533
Si Si7 0.544985 0.386570 0.644806
O O1 0.624303 0.702876 0.917985
O O2 0.722859 0.790073 0.828346
O O3 0.457553 0.692366 0.583181
O O4 0.358342 0.952325 0.873556
O O5 0.649577 0.242173 0.662280
O O6 0.845901 0.978562 0.633843
O O7 0.000000 0.000000 0.500000
O O8 0.991203 0.144646 0.890749
O O9 0.145945 0.518496 0.336449
O O10 0.300492 0.558445 0.227059
O O11 0.000000 0.500000 0.000000
O O12 0.694119 0.473676 0.330755
O O13 0.000000 0.500000 0.500000
O O14 0.110232 0.251452 0.442426
O O15 0.737645 0.970827 0.838811
O O16 0.500000 0.000000 0.500000
#
# Coordination Sequence:
#
# PCOD9012402 Si02
#       7
#     2   2   2   2   2   2   2
#     4  10  21  40  69  99 132 180 223 282 338 401
#     4  12  24  43  69 100 136 180 232 279 340 404
#     4  11  24  42  71  99 133 177 239 275 339 412
#     4  11  24  44  68  97 139 181 222 285 349 399
#     4  12  27  44  68 102 141 182 226 286 345 407
#     4  11  24  41  69 100 142 173 232 278 340 409
#     4  11  23  45  71 100 136 182 228 283 341 407
#
# _framework density 21.954642
#
# number of rings (size 3 to 8) (size 9 to 14) (size 15 to 20)
#    0.000    0.857    1.429    7.286    6.000    0.000 
#    0.000    1.429    0.000    0.000    0.000    0.000 
#    0.000    0.000    0.000    0.000    0.000    0.000 
#
# Total GULP energy -78024.108691 kJ/mol
# GULP energy per Si atom -5573.150621 kJ/mol
# Density = 2.190467 g / cm^3
# Si number density = 21.954642 Si / 1000 Ang^3
#
#
#
# Elastic Constant Matrix: (Units=GPa)
#
#
# Indices 1 2 3 4 5 6 
#
# 1 88.2219 37.1240 33.1516 5.8640 20.4756 20.5825
# 2 37.1240 166.1074 20.4018 -9.6861 17.9605 -1.8589
# 3 33.1516 20.4018 70.4065 -22.7542 20.1006 -9.2626
# 4 5.8640 -9.6861 -22.7542 37.0117 -6.0560 6.1733
# 5 20.4756 17.9605 20.1006 -6.0560 31.6071 -4.8514
# 6 20.5825 -1.8589 -9.2626 6.1733 -4.8514 49.9557
#
#
#
# Elastic Compliance Matrix: (Units=1/GPa)
#
#
# Indices 1 2 3 4 5 6 
#
# 1 0.023065 -0.003454 -0.012643 -0.011900 -0.008965 -0.011376
# 2 -0.003454 0.007009 0.001097 0.002537 -0.001741 0.001405
# 3 -0.012643 0.001097 0.028117 0.017333 -0.005803 0.007758
# 4 -0.011900 0.002537 0.017333 0.040198 0.003497 0.003583
# 5 -0.008965 -0.001741 -0.005803 0.003497 0.043774 0.006372
# 6 -0.011376 0.001405 0.007758 0.003583 0.006372 0.026371
#
#
# Mechanical properties :
#
#
# Convention : Reuss Voigt Hill
#
# Bulk Modulus (GPa) = 35.47024 56.23228 45.85126
# Shear Modulus (GPa) = 24.04634 39.31879 31.68256
#
# Velocity S-wave (km/s) = 3.31308 4.23651 3.80293
# Velocity P-wave (km/s) = 5.55217 7.04267 6.34136
#
# Compressibility (1/GPa) = 0.02819265
#
# Stress axis : x y z
#
# Youngs Moduli (GPa) = 43.35565 142.66678 35.56559
#
# Poissons Ratio (x) = 0.49276 0.44964
# Poissons Ratio (y) = 0.14975 -0.03902
# Poissons Ratio (z) = 0.54812 -0.15651
#
# Static dielectric constant tensor:
#      x y z
#    x 1.888920 -0.092400 -0.005200 
#    y -0.092400 1.908270 0.016780 
#    z -0.005200 0.016780 1.873260 
# 
# From -- ./inp_files/189889.got.cif
#   From: 2010.05.17/outbox.cif.g08.bks.cpg/sg2_95_cif.got.tgz:189889.got - 2010.06.03 11:33:40.
