data_PCOD9012064
_publ_section_title
;
Structure prediction by ZEFSAII (Michael W. Deem and Ramdas Pophale) SiO2 
 PCOD9012064
Probable space group: P -1
;
_chemical_formula_sum "Si O2"
_cell_formula_units_Z 14
_cell_length_a 4.958848
_cell_length_b 11.650103
_cell_length_c 24.468260
_cell_angle_alpha 151.014840
_cell_angle_beta 69.392312
_cell_angle_gamma 110.001174
_cell_volume 639.334956
_symmetry_space_group_name_H-M "P -1"
_symmetry_group_IT_number 2
_symmetry_cell_setting 'triclinic'
loop_
_space_group_symop_operation_xyz
x,y,z
-x,-y,-z
loop_
_atom_site_type_symbol
_atom_site_label
_atom_site_fract_x
_atom_site_fract_y
_atom_site_fract_z
Si Si1 0.516245 0.979082 0.312896
Si Si2 0.863949 0.779526 0.952151
Si Si3 0.005728 0.277321 0.446500
Si Si4 0.151886 0.703344 0.306210
Si Si5 0.799620 0.284625 0.996003
Si Si6 0.220736 0.843585 0.475799
Si Si7 0.264713 0.691761 0.108423
O O1 0.846423 0.068297 0.334338
O O2 0.316046 0.205880 0.416817
O O3 0.442551 0.804050 0.296662
O O4 0.411118 0.839668 0.208597
O O5 0.961048 0.532725 0.816269
O O6 0.517013 0.740568 0.964966
O O7 0.984888 0.824262 0.022813
O O8 0.000000 0.000000 0.000000
O O9 0.800732 0.288189 0.519579
O O10 0.000000 0.500000 0.500000
O O11 0.157036 0.665867 0.355396
O O12 0.984807 0.941611 0.412627
O O13 0.961233 0.548046 0.086054
O O14 0.776130 0.181153 0.893576
O O15 0.500000 0.000000 0.500000
O O16 0.500000 0.500000 0.000000
#
# Coordination Sequence:
#
# PCOD9012064 Si02
#       7
#     2   2   2   2   2   2   2
#     4  11  23  40  72  91 126 177 216 267 329 391
#     4  12  26  45  66  96 141 179 221 279 342 401
#     4  11  25  44  63  97 134 167 214 276 341 391
#     4  10  22  40  67  96 123 169 231 268 320 391
#     4  11  24  42  66  95 134 173 224 272 331 394
#     4  10  21  40  68  94 124 169 224 274 318 393
#     4  11  23  40  71  99 133 162 230 285 316 392
#
# _framework density 21.897753000000002
#
# number of rings (size 3 to 8) (size 9 to 14) (size 15 to 20)
#    0.000    1.143    4.286    0.857    8.000    0.000 
#    5.143    0.000    0.000    0.000    0.000    0.000 
#    0.000    0.000    0.000    0.000    0.000    0.000 
#
# Total GULP energy -78079.445831 kJ/mol
# GULP energy per Si atom -5577.103274 kJ/mol
# Density = 2.184791 g / cm^3
# Si number density = 21.897753 Si / 1000 Ang^3
#
#
#
# Elastic Constant Matrix: (Units=GPa)
#
#
# Indices 1 2 3 4 5 6 
#
# 1 89.8364 19.7036 3.7569 -0.5524 12.6888 8.5767
# 2 19.7036 154.0899 36.9239 -1.3286 11.4327 -9.2410
# 3 3.7569 36.9239 63.6906 -10.1842 15.5876 3.3934
# 4 -0.5524 -1.3286 -10.1842 22.5464 -6.9092 2.9518
# 5 12.6888 11.4327 15.5876 -6.9092 29.1014 -8.0734
# 6 8.5767 -9.2410 3.3934 2.9518 -8.0734 37.1565
#
#
#
# Elastic Compliance Matrix: (Units=1/GPa)
#
#
# Indices 1 2 3 4 5 6 
#
# 1 0.013103 -0.002037 0.002574 -0.000339 -0.007884 -0.005452
# 2 -0.002037 0.008146 -0.005365 -0.002131 0.000991 0.003371
# 3 0.002574 -0.005365 0.023080 0.007564 -0.011565 -0.007150
# 4 -0.000339 -0.002131 0.007564 0.050530 0.007980 -0.003423
# 5 -0.007884 0.000991 -0.011565 0.007980 0.049153 0.013169
# 6 -0.005452 0.003371 -0.007150 -0.003423 0.013169 0.032796
#
#
# Mechanical properties :
#
#
# Convention : Reuss Voigt Hill
#
# Bulk Modulus (GPa) = 28.84137 47.59843 38.21990
# Shear Modulus (GPa) = 25.24961 34.24302 29.74631
#
# Velocity S-wave (km/s) = 3.39937 3.95874 3.68967
# Velocity P-wave (km/s) = 5.34856 6.53295 5.97020
#
# Compressibility (1/GPa) = 0.03467241
#
# Stress axis : x y z
#
# Youngs Moduli (GPa) = 76.32073 122.75740 43.32666
#
# Poissons Ratio (x) = 0.25008 -0.11153
# Poissons Ratio (y) = 0.15548 0.23246
# Poissons Ratio (z) = -0.19646 0.65864
#
# Static dielectric constant tensor:
#      x y z
#    x 1.886260 0.006850 -0.045150 
#    y 0.006850 1.974160 -0.055460 
#    z -0.045150 -0.055460 1.896060 
# 
# From -- ./inp_files/95643.got.cif
#   From: 2010.05.17/outbox.cif.g08.bks.cpg/sg2_48_cif.got.tgz:95643.got - 2010.06.03 11:33:40.
