data_PCOD9012753
_publ_section_title
;
Structure prediction by ZEFSAII (Michael W. Deem and Ramdas Pophale) SiO2 
 PCOD9012753
Probable space group: P -1
;
_chemical_formula_sum "Si O2"
_cell_formula_units_Z 14
_cell_length_a 18.358649
_cell_length_b 6.781380
_cell_length_c 5.913548
_cell_angle_alpha 134.130304
_cell_angle_beta 99.642783
_cell_angle_gamma 87.665873
_cell_volume 517.955095
_symmetry_space_group_name_H-M "P -1"
_symmetry_group_IT_number 2
_symmetry_cell_setting 'triclinic'
loop_
_space_group_symop_operation_xyz
x,y,z
-x,-y,-z
loop_
_atom_site_type_symbol
_atom_site_label
_atom_site_fract_x
_atom_site_fract_y
_atom_site_fract_z
Si Si1 0.430316 0.305816 0.709980
Si Si2 0.149393 0.635486 0.644962
Si Si3 0.277822 0.344796 0.884467
Si Si4 0.540542 0.192461 0.356735
Si Si5 0.010131 0.657833 0.375046
Si Si6 0.702382 0.224271 0.388972
Si Si7 0.129038 0.068802 0.343639
O O1 0.349392 0.390997 0.793050
O O2 0.466186 0.318977 0.494650
O O3 0.432504 0.999506 0.574712
O O4 0.500000 0.500000 0.000000
O O5 0.236721 0.697769 0.706122
O O6 0.134330 0.305807 0.340026
O O7 0.097687 0.760953 0.531679
O O8 0.130959 0.775235 0.987378
O O9 0.201583 0.193266 0.620516
O O10 0.302655 0.106329 0.870724
O O11 0.267105 0.617556 0.239392
O O12 0.620476 0.311277 0.400533
O O13 0.500000 0.000000 0.000000
O O14 0.949129 0.874353 0.538924
O O15 0.000000 0.500000 0.500000
O O16 0.000000 0.500000 0.000000
#
# Coordination Sequence:
#
# PCOD9012753 Si02
#       7
#     2   2   2   2   2   2   2
#     4  10  21  41  60  89 126 168 218 279 335 405
#     4  11  24  43  67 102 139 174 230 281 342 414
#     4  11  23  41  65  91 133 176 225 279 345 407
#     4  10  23  39  62  89 126 169 222 274 341 403
#     4  10  23  46  74 106 144 187 236 289 350 419
#     4  11  23  42  62  95 130 176 226 281 339 413
#     4  11  24  43  68 102 135 181 224 280 348 409
#
# _framework density 27.029368999999999
#
# number of rings (size 3 to 8) (size 9 to 14) (size 15 to 20)
#    0.000    1.429    1.429    3.000    2.000    4.000 
#    0.000    6.429    0.000    0.000    0.000    0.000 
#    0.000    0.000    0.000    0.000    0.000    0.000 
#
# Total GULP energy -78061.766023 kJ/mol
# GULP energy per Si atom -5575.840430 kJ/mol
# Density = 2.696785 g / cm^3
# Si number density = 27.029369 Si / 1000 Ang^3
#
#
#
# Elastic Constant Matrix: (Units=GPa)
#
#
# Indices 1 2 3 4 5 6 
#
# 1 217.4015 27.8949 53.3150 -11.7653 -12.4204 -3.0837
# 2 27.8949 71.0021 -15.8211 6.7064 -13.6796 -4.7693
# 3 53.3150 -15.8211 167.2077 -1.8912 -6.4583 -1.0623
# 4 -11.7653 6.7064 -1.8912 31.5990 4.0413 -3.5835
# 5 -12.4204 -13.6796 -6.4583 4.0413 56.3310 -8.5259
# 6 -3.0837 -4.7693 -1.0623 -3.5835 -8.5259 59.8650
#
#
#
# Elastic Compliance Matrix: (Units=1/GPa)
#
#
# Indices 1 2 3 4 5 6 
#
# 1 0.005614 -0.002856 -0.002024 0.002578 0.000158 0.000203
# 2 -0.002856 0.017236 0.002668 -0.004949 0.004461 0.001612
# 3 -0.002024 0.002668 0.006912 -0.001012 0.001117 0.000329
# 4 0.002578 -0.004949 -0.001012 0.034131 -0.002996 0.001337
# 5 0.000158 0.004461 0.001117 -0.002996 0.019668 0.003005
# 6 0.000203 0.001612 0.000329 0.001337 0.003005 0.017357
#
#
# Mechanical properties :
#
#
# Convention : Reuss Voigt Hill
#
# Bulk Modulus (GPa) = 39.46542 65.15435 52.30989
# Shear Modulus (GPa) = 43.94149 55.57383 49.75766
#
# Velocity S-wave (km/s) = 4.03636 4.53929 4.29520
# Velocity P-wave (km/s) = 6.02956 7.18547 6.63274
#
# Compressibility (1/GPa) = 0.02533864
#
# Stress axis : x y z
#
# Youngs Moduli (GPa) = 178.12789 58.01846 144.67409
#
# Poissons Ratio (x) = 0.16570 0.29278
# Poissons Ratio (y) = 0.50873 -0.38600
# Poissons Ratio (z) = 0.36048 -0.15480
#
# Static dielectric constant tensor:
#      x y z
#    x 2.126400 0.034560 0.009400 
#    y 0.034560 2.342380 -0.112630 
#    z 0.009400 -0.112630 2.042910 
# 
# From -- ./inp_files/7397.got.cif
#   From: 2010.05.17/outbox.cif.g08.bks.cpg/sg2_4_cif.got.tgz:7397.got - 2010.06.03 11:33:40.
