data_PCOD9012021
_publ_section_title
;
Structure prediction by ZEFSAII (Michael W. Deem and Ramdas Pophale) SiO2 
 PCOD9012021
Probable space group: P -1
;
_chemical_formula_sum "Si O2"
_cell_formula_units_Z 14
_cell_length_a 12.040705
_cell_length_b 9.012974
_cell_length_c 7.122212
_cell_angle_alpha 59.057898
_cell_angle_beta 60.287705
_cell_angle_gamma 68.735219
_cell_volume 569.702116
_symmetry_space_group_name_H-M "P -1"
_symmetry_group_IT_number 2
_symmetry_cell_setting 'triclinic'
loop_
_space_group_symop_operation_xyz
x,y,z
-x,-y,-z
loop_
_atom_site_type_symbol
_atom_site_label
_atom_site_fract_x
_atom_site_fract_y
_atom_site_fract_z
Si Si1 0.123068 0.083423 0.126098
Si Si2 0.394459 0.528834 0.735360
Si Si3 0.093991 0.693711 0.311682
Si Si4 0.614482 0.841812 0.032154
Si Si5 0.173814 0.311962 0.566542
Si Si6 0.550888 0.801558 0.545606
Si Si7 0.096223 0.637766 0.894851
O O1 0.978808 0.176689 0.239850
O O2 0.134599 0.879512 0.201716
O O3 0.242020 0.110672 0.142300
O O4 0.145211 0.193143 0.845596
O O5 0.500000 0.500000 0.500000
O O6 0.402747 0.336747 0.940174
O O7 0.442306 0.675425 0.732265
O O8 0.247340 0.586619 0.750953
O O9 0.160641 0.521131 0.474256
O O10 0.940807 0.708152 0.467497
O O11 0.107184 0.652463 0.103872
O O12 0.599542 0.795159 0.294128
O O13 0.500000 0.000000 0.000000
O O14 0.317157 0.250706 0.420601
O O15 0.500000 0.000000 0.500000
O O16 0.000000 0.500000 0.000000
#
# Coordination Sequence:
#
# PCOD9012021 Si02
#       7
#     2   2   2   2   2   2   2
#     4  10  21  40  68  90 126 171 210 270 323 383
#     4  10  23  41  62  89 126 176 207 266 334 383
#     4  10  22  37  69  93 122 167 213 270 317 389
#     4  10  22  41  61  90 130 168 213 266 330 391
#     4   9  20  40  59  93 128 158 213 263 325 375
#     4  10  23  39  63  88 125 171 214 267 323 385
#     4  11  21  39  65  93 127 163 217 263 327 387
#
# _framework density 24.574245000000001
#
# number of rings (size 3 to 8) (size 9 to 14) (size 15 to 20)
#    0.000    2.000    1.429    1.714   10.000    1.143 
#    0.000    1.429    0.000   17.143    0.000    0.000 
#    0.000    0.000    0.000    0.000    0.000    0.000 
#
# Total GULP energy -78205.778802 kJ/mol
# GULP energy per Si atom -5586.127057 kJ/mol
# Density = 2.451831 g / cm^3
# Si number density = 24.574245 Si / 1000 Ang^3
#
#
#
# Elastic Constant Matrix: (Units=GPa)
#
#
# Indices 1 2 3 4 5 6 
#
# 1 124.7108 77.0339 52.3741 -8.8186 -51.5552 -26.5359
# 2 77.0339 181.9691 61.8802 -52.3396 -42.0204 -6.7196
# 3 52.3741 61.8802 90.0357 -5.3237 -6.6502 -2.9003
# 4 -8.8186 -52.3396 -5.3237 53.9962 5.8505 -3.5493
# 5 -51.5552 -42.0204 -6.6502 5.8505 37.6029 7.3389
# 6 -26.5359 -6.7196 -2.9003 -3.5493 7.3389 56.3317
#
#
#
# Elastic Compliance Matrix: (Units=1/GPa)
#
#
# Indices 1 2 3 4 5 6 
#
# 1 0.035899 0.003483 -0.019283 0.002902 0.047227 0.010364
# 2 0.003483 0.015407 -0.010502 0.012621 0.017898 0.001401
# 3 -0.019283 -0.010502 0.026608 -0.007676 -0.031223 -0.005382
# 4 0.002902 0.012621 -0.007676 0.029399 0.011601 0.002818
# 5 0.047227 0.017898 -0.031223 0.011601 0.102025 0.010214
# 6 0.010364 0.001401 -0.005382 0.002818 0.010214 0.021371
#
#
# Mechanical properties :
#
#
# Convention : Reuss Voigt Hill
#
# Bulk Modulus (GPa) = 39.50834 86.58800 63.04817
# Shear Modulus (GPa) = 17.13804 43.28133 30.20968
#
# Velocity S-wave (km/s) = 2.64369 4.20128 3.50997
# Velocity P-wave (km/s) = 5.04290 7.67112 6.49141
#
# Compressibility (1/GPa) = 0.02531111
#
# Stress axis : x y z
#
# Youngs Moduli (GPa) = 27.85576 64.90565 37.58282
#
# Poissons Ratio (x) = -0.22608 0.72471
# Poissons Ratio (y) = -0.09703 0.39469
# Poissons Ratio (z) = 0.53714 0.68163
#
# Static dielectric constant tensor:
#      x y z
#    x 1.957110 0.051950 -0.001290 
#    y 0.051950 1.764870 0.200390 
#    z -0.001290 0.200390 1.988530 
# 
# From -- ./inp_files/242417.got.cif
#   From: 2010.05.17/outbox.cif.g08.bks.cpg/sg2_122_cif.got.tgz:242417.got - 2010.06.03 11:33:40.
