data_PCOD9012438
_publ_section_title
;
Structure prediction by ZEFSAII (Michael W. Deem and Ramdas Pophale) SiO2 
 PCOD9012438
Probable space group: P -1
;
_chemical_formula_sum "Si O2"
_cell_formula_units_Z 14
_cell_length_a 12.207165
_cell_length_b 8.249959
_cell_length_c 14.630781
_cell_angle_alpha 152.086013
_cell_angle_beta 129.472095
_cell_angle_gamma 59.458767
_cell_volume 526.584916
_symmetry_space_group_name_H-M "P -1"
_symmetry_group_IT_number 2
_symmetry_cell_setting 'triclinic'
loop_
_space_group_symop_operation_xyz
x,y,z
-x,-y,-z
loop_
_atom_site_type_symbol
_atom_site_label
_atom_site_fract_x
_atom_site_fract_y
_atom_site_fract_z
Si Si1 0.245201 0.956373 0.842737
Si Si2 0.026362 0.785929 0.234608
Si Si3 0.291791 0.313223 0.678159
Si Si4 0.159377 0.645865 0.941614
Si Si5 0.430983 0.966369 0.347229
Si Si6 0.592172 0.247137 0.340288
Si Si7 0.278328 0.272082 0.205927
O O1 0.275578 0.621769 0.750648
O O2 0.349146 0.976089 0.819646
O O3 0.086503 0.944105 0.710730
O O4 0.261181 0.255219 0.079108
O O5 0.980090 0.572102 0.196112
O O6 0.185073 0.986762 0.419343
O O7 0.000000 0.500000 0.000000
O O8 0.224506 0.402623 0.782910
O O9 0.452214 0.239742 0.741076
O O10 0.273662 0.759935 0.140175
O O11 0.158960 0.999982 0.058546
O O12 0.500000 0.000000 0.500000
O O13 0.421843 0.369196 0.517820
O O14 0.429583 0.112013 0.216486
O O15 0.691735 0.369890 0.541821
#
# Coordination Sequence:
#
# PCOD9012438 Si02
#       7
#     2   2   2   2   2   2   2
#     4  11  24  44  71  98 137 183 235 277 343 413
#     4  12  28  46  70  97 139 184 234 282 350 409
#     4  11  24  47  69 103 140 181 229 282 346 412
#     4  10  24  45  67 103 136 182 229 286 344 408
#     4  11  21  38  74 104 139 173 226 286 339 405
#     4  10  21  40  70 103 142 177 225 279 355 402
#     4   9  22  41  66 107 137 176 225 288 341 411
#
# _framework density 26.586404000000002
#
# number of rings (size 3 to 8) (size 9 to 14) (size 15 to 20)
#    0.000    1.429    1.429    2.571    6.000    5.714 
#    2.571    1.429    0.000    0.000    0.000    0.000 
#    0.000    0.000    0.000    0.000    0.000    0.000 
#
# Total GULP energy -78391.734829 kJ/mol
# GULP energy per Si atom -5599.409631 kJ/mol
# Density = 2.652589 g / cm^3
# Si number density = 26.586404 Si / 1000 Ang^3
#
#
#
# Elastic Constant Matrix: (Units=GPa)
#
#
# Indices 1 2 3 4 5 6 
#
# 1 105.5438 13.2347 27.3617 -5.4185 -17.0064 18.4807
# 2 13.2347 138.3114 21.2194 -2.8988 -3.5741 -13.3577
# 3 27.3617 21.2194 119.7836 -6.2110 -4.4847 14.4301
# 4 -5.4185 -2.8988 -6.2110 42.9770 8.2143 -0.0393
# 5 -17.0064 -3.5741 -4.4847 8.2143 52.9260 -17.9080
# 6 18.4807 -13.3577 14.4301 -0.0393 -17.9080 35.0872
#
#
#
# Elastic Compliance Matrix: (Units=1/GPa)
#
#
# Indices 1 2 3 4 5 6 
#
# 1 0.011210 -0.001231 -0.001655 0.000779 0.001610 -0.004870
# 2 -0.001231 0.008190 -0.001767 -0.000214 0.001887 0.005456
# 3 -0.001655 -0.001767 0.009600 0.001360 -0.001592 -0.004560
# 4 0.000779 -0.000214 0.001360 0.024420 -0.004575 -0.003359
# 5 0.001610 0.001887 -0.001592 -0.004575 0.024526 0.013037
# 6 -0.004870 0.005456 -0.004560 -0.003359 0.013037 0.041668
#
#
# Mechanical properties :
#
#
# Convention : Reuss Voigt Hill
#
# Bulk Modulus (GPa) = 50.78009 54.14114 52.46062
# Shear Modulus (GPa) = 36.90408 46.31958 41.61183
#
# Velocity S-wave (km/s) = 3.72974 4.17853 3.96050
# Velocity P-wave (km/s) = 6.13917 6.60973 6.37879
#
# Compressibility (1/GPa) = 0.01969276
#
# Stress axis : x y z
#
# Youngs Moduli (GPa) = 89.20296 122.09635 104.16855
#
# Poissons Ratio (x) = 0.15032 0.17243
# Poissons Ratio (y) = 0.10982 0.18411
# Poissons Ratio (z) = 0.14766 0.21579
#
# Static dielectric constant tensor:
#      x y z
#    x 2.097750 -0.002260 -0.026020 
#    y -0.002260 2.146200 -0.011730 
#    z -0.026020 -0.011730 2.065050 
# 
# From -- ./inp_files/204988.got.cif
#   From: 2010.05.17/outbox.cif.g08.bks.cpg/sg2_103_cif.got.tgz:204988.got - 2010.06.03 11:33:40.
