data_PCOD9012262
_publ_section_title
;
Structure prediction by ZEFSAII (Michael W. Deem and Ramdas Pophale) SiO2 
 PCOD9012262
Probable space group: P -1
;
_chemical_formula_sum "Si O2"
_cell_formula_units_Z 13
_cell_length_a 7.322074
_cell_length_b 8.174186
_cell_length_c 11.469683
_cell_angle_alpha 96.985155
_cell_angle_beta 114.622504
_cell_angle_gamma 123.586812
_cell_volume 460.268565
_symmetry_space_group_name_H-M "P -1"
_symmetry_group_IT_number 2
_symmetry_cell_setting 'triclinic'
loop_
_space_group_symop_operation_xyz
x,y,z
-x,-y,-z
loop_
_atom_site_type_symbol
_atom_site_label
_atom_site_fract_x
_atom_site_fract_y
_atom_site_fract_z
Si Si1 0.778785 0.287055 0.092808
Si Si2 0.340145 0.989585 0.769242
Si Si3 0.500000 0.500000 0.500000
Si Si4 0.307651 0.324056 0.668548
Si Si5 0.286204 0.236171 0.062651
Si Si6 0.998574 0.733840 0.208094
Si Si7 0.450698 0.840589 0.576079
O O1 0.529777 0.248317 0.088473
O O2 0.017873 0.549895 0.170673
O O3 0.839816 0.165870 0.181648
O O4 0.642053 0.160977 0.923964
O O5 0.308417 0.149231 0.717105
O O6 0.294333 0.833251 0.641856
O O7 0.292194 0.303336 0.525275
O O8 0.373886 0.616325 0.501720
O O9 0.587659 0.578043 0.787381
O O10 0.087630 0.301946 0.682739
O O11 0.225295 0.319693 0.943397
O O12 0.000000 0.000000 0.000000
O O13 0.245873 0.990555 0.276932
O O14 0.500000 0.000000 0.500000
#
# Coordination Sequence:
#
# PCOD9012262 Si02
#       7
#     2   2   1   2   2   2   2
#     4  10  21  40  69 103 142 174 221 290 347 409
#     4  11  21  44  66 102 145 173 227 289 340 417
#     4  12  26  50  72  92 142 188 232 290 338 406
#     4  11  22  44  70 101 141 182 231 280 346 413
#     4  11  20  39  68 105 139 181 223 282 354 414
#     4  11  22  44  70 101 134 183 229 286 353 411
#     4  12  27  48  69  99 137 185 236 287 340 413
#
# _framework density 28.244382000000002
#
# number of rings (size 3 to 8) (size 9 to 14) (size 15 to 20)
#    0.000    0.923    4.615    4.615    0.000    1.231 
#    8.308    1.538    0.000    0.000    0.000    0.000 
#    0.000    0.000    0.000    0.000    0.000    0.000 
#
# Total GULP energy -72610.696184 kJ/mol
# GULP energy per Si atom -5585.438168 kJ/mol
# Density = 2.818010 g / cm^3
# Si number density = 28.244382 Si / 1000 Ang^3
#
#
#
# Elastic Constant Matrix: (Units=GPa)
#
#
# Indices 1 2 3 4 5 6 
#
# 1 79.9722 36.7153 21.6700 6.4217 -26.6059 -3.7165
# 2 36.7153 184.7099 37.7561 -12.9067 3.8930 -17.6056
# 3 21.6700 37.7561 72.9583 -15.6268 4.3399 -11.3067
# 4 6.4217 -12.9067 -15.6268 58.9801 0.3202 3.5802
# 5 -26.6059 3.8930 4.3399 0.3202 38.4146 5.4847
# 6 -3.7165 -17.6056 -11.3067 3.5802 5.4847 64.2730
#
#
#
# Elastic Compliance Matrix: (Units=1/GPa)
#
#
# Indices 1 2 3 4 5 6 
#
# 1 0.022075 -0.003878 -0.006970 -0.005058 0.016821 -0.002165
# 2 -0.003878 0.006840 -0.001638 0.001408 -0.003430 0.001576
# 3 -0.006970 -0.001638 0.018591 0.005199 -0.007196 0.002743
# 4 -0.005058 0.001408 0.005199 0.019196 -0.004439 0.000317
# 5 0.016821 -0.003430 -0.007196 -0.004439 0.039501 -0.004357
# 6 -0.002165 0.001576 0.002743 0.000317 -0.004357 0.016702
#
#
# Mechanical properties :
#
#
# Convention : Reuss Voigt Hill
#
# Bulk Modulus (GPa) = 44.37519 58.88034 51.62777
# Shear Modulus (GPa) = 32.17754 48.43346 40.30550
#
# Velocity S-wave (km/s) = 3.37895 4.14551 3.78170
# Velocity P-wave (km/s) = 5.56492 6.61858 6.11449
#
# Compressibility (1/GPa) = 0.02253512
#
# Stress axis : x y z
#
# Youngs Moduli (GPa) = 45.30082 146.18985 53.78922
#
# Poissons Ratio (x) = 0.56686 0.37489
# Poissons Ratio (y) = 0.17566 0.08813
# Poissons Ratio (z) = 0.31573 0.23952
#
# Static dielectric constant tensor:
#      x y z
#    x 2.329970 0.058650 0.105840 
#    y 0.058650 2.197780 0.047410 
#    z 0.105840 0.047410 2.391980 
# 
# From -- ./inp_files/376456.got.cif
#   From: 2010.05.17/outbox.cif.g08.bks.cpg/sg2_189_cif.got.tgz:376456.got - 2010.06.03 11:33:40.
