data_PCOD9012214
_publ_section_title
;
Structure prediction by ZEFSAII (Michael W. Deem and Ramdas Pophale) SiO2 
 PCOD9012214
Probable space group: P -1
;
_chemical_formula_sum "Si O2"
_cell_formula_units_Z 12
_cell_length_a 8.560149
_cell_length_b 11.151088
_cell_length_c 5.400258
_cell_angle_alpha 90.595064
_cell_angle_beta 78.117913
_cell_angle_gamma 106.263795
_cell_volume 483.636512
_symmetry_space_group_name_H-M "P -1"
_symmetry_group_IT_number 2
_symmetry_cell_setting 'triclinic'
loop_
_space_group_symop_operation_xyz
x,y,z
-x,-y,-z
loop_
_atom_site_type_symbol
_atom_site_label
_atom_site_fract_x
_atom_site_fract_y
_atom_site_fract_z
Si Si1 0.841283 0.186536 0.688536
Si Si2 0.427752 0.622266 0.523647
Si Si3 0.472914 0.110915 0.683159
Si Si4 0.966697 0.718475 0.858616
Si Si5 0.842749 0.945194 0.874277
Si Si6 0.321312 0.532417 0.053971
O O1 0.644719 0.161228 0.776109
O O2 0.911182 0.260230 0.416582
O O3 0.939642 0.241542 0.908692
O O4 0.857345 0.044449 0.653373
O O5 0.500000 0.500000 0.500000
O O6 0.546478 0.762893 0.444266
O O7 0.308374 0.589372 0.325589
O O8 0.338442 0.620167 0.813336
O O9 0.320422 0.060500 0.914269
O O10 0.500000 0.000000 0.500000
O O11 0.838777 0.583478 0.930758
O O12 0.848692 0.805883 0.821571
O O13 0.000000 0.000000 0.000000
O O14 0.500000 0.500000 0.000000
#
# Coordination Sequence:
#
# PCOD9012214 Si02
#       6
#     2   2   2   2   2   2
#     4  11  25  43  65 104 146 187 230 291 360 416
#     4  10  23  43  68 102 136 182 236 282 341 420
#     4  12  26  46  73 106 146 186 231 296 361 416
#     4  11  23  45  71 102 143 188 238 289 345 424
#     4  10  22  41  68 102 138 186 237 286 343 421
#     4  10  21  40  69 100 130 175 234 290 336 399
#
# _framework density 24.812024000000001
#
# number of rings (size 3 to 8) (size 9 to 14) (size 15 to 20)
#    0.000    1.333    0.000    6.000    0.000   12.000 
#    0.000    5.000    0.000    0.000    0.000    0.000 
#    0.000    0.000    0.000    0.000    0.000    0.000 
#
# Total GULP energy -67103.013239 kJ/mol
# GULP energy per Si atom -5591.917770 kJ/mol
# Density = 2.475555 g / cm^3
# Si number density = 24.812024 Si / 1000 Ang^3
#
#
#
# Elastic Constant Matrix: (Units=GPa)
#
#
# Indices 1 2 3 4 5 6 
#
# 1 118.4753 27.7598 47.5185 5.6292 -10.6426 14.6693
# 2 27.7598 125.3967 35.7862 -8.5154 4.9920 -0.4474
# 3 47.5185 35.7862 175.6473 -8.8391 9.1844 15.8929
# 4 5.6292 -8.5154 -8.8391 48.0237 1.6250 -5.6369
# 5 -10.6426 4.9920 9.1844 1.6250 46.6761 1.3437
# 6 14.6693 -0.4474 15.8929 -5.6369 1.3437 47.4974
#
#
#
# Elastic Compliance Matrix: (Units=1/GPa)
#
#
# Indices 1 2 3 4 5 6 
#
# 1 0.010687 -0.001956 -0.002533 -0.002514 0.003314 -0.002863
# 2 -0.001956 0.008943 -0.001260 0.001785 -0.001256 0.001357
# 3 -0.002533 -0.001260 0.006914 0.001250 -0.001808 -0.001344
# 4 -0.002514 0.001785 0.001250 0.022085 -0.001867 0.003049
# 5 0.003314 -0.001256 -0.001808 -0.001867 0.022772 -0.001296
# 6 -0.002863 0.001357 -0.001344 0.003049 -0.001296 0.022799
#
#
# Mechanical properties :
#
#
# Convention : Reuss Voigt Hill
#
# Bulk Modulus (GPa) = 66.46488 71.29425 68.87956
# Shear Modulus (GPa) = 45.16109 49.00310 47.08210
#
# Velocity S-wave (km/s) = 4.27093 4.44889 4.36082
# Velocity P-wave (km/s) = 7.15308 7.42875 7.29222
#
# Compressibility (1/GPa) = 0.01504554
#
# Stress axis : x y z
#
# Youngs Moduli (GPa) = 93.57524 111.81494 144.62619
#
# Poissons Ratio (x) = 0.21867 0.36639
# Poissons Ratio (y) = 0.18300 0.18228
# Poissons Ratio (z) = 0.23706 0.14093
#
# Static dielectric constant tensor:
#      x y z
#    x 1.887750 -0.063490 0.071440 
#    y -0.063490 1.999240 -0.025290 
#    z 0.071440 -0.025290 1.928020 
# 
# From -- ./inp_files/24667.got.cif
#   From: 2010.05.17/outbox.cif.g08.bks.cpg/sg2_13_cif.got.tgz:24667.got - 2010.06.03 11:33:40.
