data_PCOD9012426
_publ_section_title
;
Structure prediction by ZEFSAII (Michael W. Deem and Ramdas Pophale) SiO2 
 PCOD9012426
Probable space group: P -1
;
_chemical_formula_sum "Si O2"
_cell_formula_units_Z 16
_cell_length_a 12.065104
_cell_length_b 12.233806
_cell_length_c 9.949351
_cell_angle_alpha 123.200955
_cell_angle_beta 126.889577
_cell_angle_gamma 33.555432
_cell_volume 645.483235
_symmetry_space_group_name_H-M "P -1"
_symmetry_group_IT_number 2
_symmetry_cell_setting 'triclinic'
loop_
_space_group_symop_operation_xyz
x,y,z
-x,-y,-z
loop_
_atom_site_type_symbol
_atom_site_label
_atom_site_fract_x
_atom_site_fract_y
_atom_site_fract_z
Si Si1 0.491420 0.370987 0.273282
Si Si2 0.134907 0.434666 0.690284
Si Si3 0.545626 0.003002 0.270550
Si Si4 0.846646 0.190338 0.764474
Si Si5 0.275774 0.028180 0.898578
Si Si6 0.229994 0.424225 0.354781
Si Si7 0.747822 0.342991 0.080536
Si Si8 0.893388 0.209380 0.391949
O O1 0.369880 0.583169 0.275185
O O2 0.555403 0.208339 0.111834
O O3 0.338481 0.409522 0.293114
O O4 0.725493 0.259252 0.402717
O O5 0.327478 0.195736 0.688064
O O6 0.200015 0.539588 0.810504
O O7 0.000000 0.500000 0.500000
O O8 0.975078 0.521560 0.756764
O O9 0.692540 0.951953 0.220499
O O10 0.427350 0.198935 0.403353
O O11 0.351636 0.082369 0.094438
O O12 0.848411 0.194543 0.929496
O O13 0.042081 0.140923 0.824504
O O14 0.884935 0.022932 0.610104
O O15 0.134862 0.618272 0.490395
O O16 0.818544 0.240139 0.206197
O O17 0.500000 0.500000 0.000000
#
# Coordination Sequence:
#
# PCOD9012426 Si02
#       8
#     2   2   2   2   2   2   2   2
#     4  10  21  40  70 101 135 175 226 292 340 403
#     4  12  26  46  68 101 141 180 232 281 341 418
#     4  10  22  41  69  98 140 182 216 289 347 408
#     4  11  22  39  70  98 129 181 230 289 335 394
#     4   9  20  40  67 106 134 170 236 279 347 407
#     4  11  24  45  66 100 141 181 224 280 350 413
#     4  12  25  48  70  96 137 182 233 287 337 409
#     4  11  24  43  63 101 138 178 234 273 341 417
#
# _framework density 24.787633
#
# number of rings (size 3 to 8) (size 9 to 14) (size 15 to 20)
#    0.000    1.250    2.500    3.000    1.750    2.000 
#    2.250    5.000    0.000    0.000    0.000    0.000 
#    0.000    0.000    0.000    0.000    0.000    0.000 
#
# Total GULP energy -89410.171969 kJ/mol
# GULP energy per Si atom -5588.135748 kJ/mol
# Density = 2.473121 g / cm^3
# Si number density = 24.787633 Si / 1000 Ang^3
#
#
#
# Elastic Constant Matrix: (Units=GPa)
#
#
# Indices 1 2 3 4 5 6 
#
# 1 112.4277 30.8350 26.6745 16.6602 15.6505 -2.1384
# 2 30.8350 183.9931 49.7958 25.0070 -13.5628 8.1305
# 3 26.6745 49.7958 81.4412 15.4749 3.1314 0.5321
# 4 16.6602 25.0070 15.4749 33.2286 0.4711 -7.9717
# 5 15.6505 -13.5628 3.1314 0.4711 28.3453 -11.9038
# 6 -2.1384 8.1305 0.5321 -7.9717 -11.9038 37.2474
#
#
#
# Elastic Compliance Matrix: (Units=1/GPa)
#
#
# Indices 1 2 3 4 5 6 
#
# 1 0.011328 -0.001275 -0.001795 -0.004354 -0.007606 -0.002408
# 2 -0.001275 0.007487 -0.003631 -0.003618 0.004305 -0.001054
# 3 -0.001795 -0.003631 0.015992 -0.004104 -0.003026 -0.001384
# 4 -0.004354 -0.003618 -0.004104 0.039385 0.004924 0.010601
# 5 -0.007606 0.004305 -0.003026 0.004924 0.048134 0.015104
# 6 -0.002408 -0.001054 -0.001384 0.010601 0.015104 0.034055
#
#
# Mechanical properties :
#
#
# Convention : Reuss Voigt Hill
#
# Bulk Modulus (GPa) = 46.71943 65.83028 56.27486
# Shear Modulus (GPa) = 28.26132 37.80137 33.03134
#
# Velocity S-wave (km/s) = 3.38026 3.90937 3.65440
# Velocity P-wave (km/s) = 5.84154 6.85514 6.36854
#
# Compressibility (1/GPa) = 0.02140437
#
# Stress axis : x y z
#
# Youngs Moduli (GPa) = 88.27369 133.56214 62.52974
#
# Poissons Ratio (x) = 0.17030 0.11226
# Poissons Ratio (y) = 0.11256 0.22707
# Poissons Ratio (z) = 0.15848 0.48502
#
# Static dielectric constant tensor:
#      x y z
#    x 1.966880 0.025090 0.010750 
#    y 0.025090 1.982460 0.013080 
#    z 0.010750 0.013080 2.044470 
# 
# From -- ./inp_files/428776.got.cif
#   From: 2010.05.17/outbox.cif.g08.bks.cpg/sg2_215_cif.got.tgz:428776.got - 2010.06.03 11:33:40.
