data_PCOD9012228
_publ_section_title
;
Structure prediction by ZEFSAII (Michael W. Deem and Ramdas Pophale) SiO2 
 PCOD9012228
Probable space group: P -1
;
_chemical_formula_sum "Si O2"
_cell_formula_units_Z 14
_cell_length_a 15.763080
_cell_length_b 11.004308
_cell_length_c 9.069030
_cell_angle_alpha 107.189849
_cell_angle_beta 105.121499
_cell_angle_gamma 139.975715
_cell_volume 588.868694
_symmetry_space_group_name_H-M "P -1"
_symmetry_group_IT_number 2
_symmetry_cell_setting 'triclinic'
loop_
_space_group_symop_operation_xyz
x,y,z
-x,-y,-z
loop_
_atom_site_type_symbol
_atom_site_label
_atom_site_fract_x
_atom_site_fract_y
_atom_site_fract_z
Si Si1 0.473321 0.110288 0.083538
Si Si2 0.204737 0.089796 0.216269
Si Si3 0.739104 0.449591 0.847400
Si Si4 0.099689 0.560966 0.921154
Si Si5 0.660920 0.545579 0.075753
Si Si6 0.570887 0.369605 0.499115
Si Si7 0.760995 0.902876 0.430241
O O1 0.537745 0.295555 0.051958
O O2 0.623103 0.351447 0.376440
O O3 0.500000 0.000000 0.000000
O O4 0.231075 0.800490 0.933444
O O5 0.365824 0.185844 0.295073
O O6 0.261898 0.301436 0.251815
O O7 0.252114 0.173693 0.441276
O O8 0.957511 0.725807 0.949426
O O9 0.548712 0.248542 0.586604
O O10 0.721712 0.297781 0.875525
O O11 0.787250 0.618142 0.053427
O O12 0.920163 0.232548 0.646089
O O13 0.000000 0.500000 0.000000
O O14 0.808934 0.851997 0.321293
O O15 0.471575 0.357552 0.824372
#
# Coordination Sequence:
#
# PCOD9012228 Si02
#       7
#     2   2   2   2   2   2   2
#     4  12  25  43  65 101 141 184 227 291 351 415
#     4  10  21  40  69 101 134 175 231 294 340 404
#     4  11  23  41  71  99 133 185 237 277 352 422
#     4  11  26  46  69 102 144 184 238 288 351 419
#     4  11  23  43  71 104 136 183 235 284 361 408
#     4  11  23  42  68  98 140 180 231 289 345 413
#     4  10  22  43  69 100 138 184 228 296 341 417
#
# _framework density 23.774401999999998
#
# number of rings (size 3 to 8) (size 9 to 14) (size 15 to 20)
#    0.000    1.143    4.286    2.143    0.000    5.714 
#    0.000    2.857    0.000    0.000    0.000    0.000 
#    0.000    0.000    0.000    0.000    0.000    0.000 
#
# Total GULP energy -78086.599947 kJ/mol
# GULP energy per Si atom -5577.614282 kJ/mol
# Density = 2.372029 g / cm^3
# Si number density = 23.774402 Si / 1000 Ang^3
#
#
#
# Elastic Constant Matrix: (Units=GPa)
#
#
# Indices 1 2 3 4 5 6 
#
# 1 122.0064 5.6164 47.7612 -5.6412 -24.0211 16.8765
# 2 5.6164 69.8970 26.3939 4.9362 -1.1818 11.4816
# 3 47.7612 26.3939 85.4356 0.3224 -27.7099 -10.9255
# 4 -5.6412 4.9362 0.3224 41.5662 -7.3884 -0.3515
# 5 -24.0211 -1.1818 -27.7099 -7.3884 45.3851 -6.6644
# 6 16.8765 11.4816 -10.9255 -0.3515 -6.6644 23.7182
#
#
#
# Elastic Compliance Matrix: (Units=1/GPa)
#
#
# Indices 1 2 3 4 5 6 
#
# 1 0.017413 0.009653 -0.017883 0.000177 -0.005358 -0.026804
# 2 0.009653 0.028199 -0.023244 -0.004699 -0.014298 -0.035314
# 3 -0.017883 -0.023244 0.043391 0.004817 0.024691 0.050973
# 4 0.000177 -0.004699 0.004817 0.026120 0.008201 0.007059
# 5 -0.005358 -0.014298 0.024691 0.008201 0.040157 0.033513
# 6 -0.026804 -0.035314 0.050973 0.007059 0.033513 0.111330
#
#
# Mechanical properties :
#
#
# Convention : Reuss Voigt Hill
#
# Bulk Modulus (GPa) = 38.37744 48.54243 43.45993
# Shear Modulus (GPa) = 14.78227 35.30505 25.04366
#
# Velocity S-wave (km/s) = 2.49624 3.85775 3.24911
# Velocity P-wave (km/s) = 4.94830 6.34864 5.69170
#
# Compressibility (1/GPa) = 0.02605698
#
# Stress axis : x y z
#
# Youngs Moduli (GPa) = 57.42717 35.46208 23.04611
#
# Poissons Ratio (x) = -0.34233 0.41213
# Poissons Ratio (y) = -0.55437 0.53568
# Poissons Ratio (z) = 1.02697 0.82428
#
# Static dielectric constant tensor:
#      x y z
#    x 1.976330 -0.011120 -0.002540 
#    y -0.011120 1.951880 0.069840 
#    z -0.002540 0.069840 1.917380 
# 
# From -- ./inp_files/303700.got.cif
#   From: 2010.05.17/outbox.cif.g08.bks.cpg/sg2_152_cif.got.tgz:303700.got - 2010.06.03 11:33:40.
