data_PCOD9012697
_publ_section_title
;
Structure prediction by ZEFSAII (Michael W. Deem and Ramdas Pophale) SiO2 
 PCOD9012697
Probable space group: P -1
;
_chemical_formula_sum "Si O2"
_cell_formula_units_Z 10
_cell_length_a 5.438172
_cell_length_b 9.782196
_cell_length_c 7.453863
_cell_angle_alpha 113.581053
_cell_angle_beta 92.658848
_cell_angle_gamma 80.480500
_cell_volume 358.323129
_symmetry_space_group_name_H-M "P -1"
_symmetry_group_IT_number 2
_symmetry_cell_setting 'triclinic'
loop_
_space_group_symop_operation_xyz
x,y,z
-x,-y,-z
loop_
_atom_site_type_symbol
_atom_site_label
_atom_site_fract_x
_atom_site_fract_y
_atom_site_fract_z
Si Si1 0.849017 0.783154 0.875128
Si Si2 0.600517 0.278268 0.535384
Si Si3 0.960028 0.020915 0.295290
Si Si4 0.574631 0.665806 0.079333
Si Si5 0.072410 0.440301 0.681526
O O1 0.595725 0.736658 0.924851
O O2 0.940440 0.882871 0.090848
O O3 0.855317 0.882063 0.748645
O O4 0.024373 0.620647 0.775467
O O5 0.693928 0.133113 0.345207
O O6 0.580309 0.232406 0.722040
O O7 0.326782 0.374983 0.547499
O O8 0.821047 0.378696 0.590668
O O9 0.000000 0.000000 0.500000
O O10 0.849427 0.629959 0.158579
O O11 0.500000 0.500000 0.000000
#
# Coordination Sequence:
#
# PCOD9012697 Si02
#       5
#     2   2   2   2   2
#     4  11  23  47  77 109 152 203 253 305 398 447
#     4  10  24  44  77 108 153 191 252 320 382 436
#     4  11  27  47  72 111 157 205 249 316 374 467
#     4  10  21  40  78 109 145 189 251 321 372 448
#     4  10  22  44  78 110 145 195 252 321 372 456
#
# _framework density 27.907774
#
# number of rings (size 3 to 8) (size 9 to 14) (size 15 to 20)
#    1.200    0.400    2.000    1.800    2.800    2.400 
#    0.000    1.000    0.000    0.000    0.000    0.000 
#    0.000    0.000    0.000    0.000    0.000    0.000 
#
# Total GULP energy -55931.980783 kJ/mol
# GULP energy per Si atom -5593.198078 kJ/mol
# Density = 2.784426 g / cm^3
# Si number density = 27.907774 Si / 1000 Ang^3
#
#
#
# Elastic Constant Matrix: (Units=GPa)
#
#
# Indices 1 2 3 4 5 6 
#
# 1 149.0606 63.1924 57.9331 5.6831 -19.0938 9.5038
# 2 63.1924 185.4304 84.9549 -31.6090 0.6698 20.8499
# 3 57.9331 84.9549 161.6957 -19.6234 -24.1322 -0.1421
# 4 5.6831 -31.6090 -19.6234 84.1093 -4.6846 1.1706
# 5 -19.0938 0.6698 -24.1322 -4.6846 40.3709 -6.8923
# 6 9.5038 20.8499 -0.1421 1.1706 -6.8923 38.5246
#
#
#
# Elastic Compliance Matrix: (Units=1/GPa)
#
#
# Indices 1 2 3 4 5 6 
#
# 1 0.008898 -0.002601 -0.001579 -0.001773 0.003070 -0.000190
# 2 -0.002601 0.009308 -0.004350 0.002476 -0.004604 -0.005311
# 3 -0.001579 -0.004350 0.010091 0.001115 0.006144 0.003846
# 4 -0.001773 0.002476 0.001115 0.013279 0.001140 -0.001098
# 5 0.003070 -0.004604 0.006144 0.001140 0.031355 0.007332
# 6 -0.000190 -0.005311 0.003846 -0.001098 0.007332 0.030238
#
#
# Mechanical properties :
#
#
# Convention : Reuss Voigt Hill
#
# Bulk Modulus (GPa) = 88.98419 100.92751 94.95585
# Shear Modulus (GPa) = 40.33121 51.94138 46.13630
#
# Velocity S-wave (km/s) = 3.80565 4.31882 4.07033
# Velocity P-wave (km/s) = 7.15995 7.81747 7.49592
#
# Compressibility (1/GPa) = 0.01123795
#
# Stress axis : x y z
#
# Youngs Moduli (GPa) = 112.38695 107.43382 99.09787
#
# Poissons Ratio (x) = 0.27944 0.15644
# Poissons Ratio (y) = 0.29232 0.43106
# Poissons Ratio (z) = 0.17742 0.46732
#
# Static dielectric constant tensor:
#      x y z
#    x 2.212240 0.003000 0.055980 
#    y 0.003000 2.166090 -0.033700 
#    z 0.055980 -0.033700 2.309920 
# 
# From -- ./inp_files/155765.got.cif
#   From: 2010.05.17/outbox.cif.g08.bks.cpg/sg2_78_cif.got.tgz:155765.got - 2010.06.03 11:33:40.
