data_PCOD9012098
_publ_section_title
;
Structure prediction by ZEFSAII (Michael W. Deem and Ramdas Pophale) SiO2 
 PCOD9012098
Probable space group: P -1
;
_chemical_formula_sum "Si O2"
_cell_formula_units_Z 16
_cell_length_a 10.900336
_cell_length_b 18.090112
_cell_length_c 23.404385
_cell_angle_alpha 160.647883
_cell_angle_beta 27.652942
_cell_angle_gamma 151.633885
_cell_volume 679.829331
_symmetry_space_group_name_H-M "P -1"
_symmetry_group_IT_number 2
_symmetry_cell_setting 'triclinic'
loop_
_space_group_symop_operation_xyz
x,y,z
-x,-y,-z
loop_
_atom_site_type_symbol
_atom_site_label
_atom_site_fract_x
_atom_site_fract_y
_atom_site_fract_z
Si Si1 0.736342 0.099510 0.181411
Si Si2 0.804170 0.490237 0.358053
Si Si3 0.654391 0.172226 0.638652
Si Si4 0.597554 0.741763 0.885221
Si Si5 0.989435 0.609542 0.998020
Si Si6 0.267229 0.898059 0.314688
Si Si7 0.502020 0.335038 0.707586
Si Si8 0.798801 0.103676 0.982425
O O1 0.535067 0.062013 0.291181
O O2 0.850311 0.359227 0.300698
O O3 0.553498 0.940814 0.090982
O O4 0.000000 0.000000 0.000000
O O5 0.500000 0.500000 0.500000
O O6 0.818107 0.322708 0.176396
O O7 0.014924 0.742967 0.446583
O O8 0.636308 0.167226 0.710554
O O9 0.576348 0.350105 0.755565
O O10 0.489932 0.914338 0.499065
O O11 0.307705 0.631420 0.893511
O O12 0.658443 0.541783 0.752389
O O13 0.823617 0.888707 0.854422
O O14 0.993519 0.791922 0.077940
O O15 0.835046 0.347016 0.853965
O O16 0.819624 0.670270 0.164555
O O17 0.000000 0.000000 0.500000
O O18 0.500000 0.000000 0.000000
#
# Coordination Sequence:
#
# PCOD9012098 Si02
#       8
#     2   2   2   2   2   2   2   2
#     4  11  25  43  68 102 140 184 227 281 355 422
#     4  11  23  40  66  94 137 179 223 283 347 414
#     4  11  26  43  64  97 141 174 230 289 349 408
#     4  10  21  40  68  95 129 176 233 275 334 416
#     4  11  22  40  71  98 131 177 236 288 336 410
#     4  12  25  43  72 106 136 176 238 298 342 405
#     4  11  24  43  65  94 133 187 222 280 353 416
#     4   9  21  38  61  98 126 166 219 283 336 395
#
# _framework density 23.535319000000001
#
# number of rings (size 3 to 8) (size 9 to 14) (size 15 to 20)
#    0.000    1.250    2.500    2.625    7.000    2.500 
#    0.000    0.000    0.000    4.500    0.000    0.000 
#    0.000    0.000    0.000    0.000    0.000    0.000 
#
# Total GULP energy -89300.025883 kJ/mol
# GULP energy per Si atom -5581.251618 kJ/mol
# Density = 2.348175 g / cm^3
# Si number density = 23.535319 Si / 1000 Ang^3
#
#
#
# Elastic Constant Matrix: (Units=GPa)
#
#
# Indices 1 2 3 4 5 6 
#
# 1 89.5943 26.2467 5.9852 5.6960 -5.3118 -19.5427
# 2 26.2467 139.1539 18.4962 4.1358 -4.3320 -38.6681
# 3 5.9852 18.4962 45.1449 7.7614 -19.5456 -10.6569
# 4 5.6960 4.1358 7.7614 36.3270 0.3498 -11.3103
# 5 -5.3118 -4.3320 -19.5456 0.3498 24.5151 7.1308
# 6 -19.5427 -38.6681 -10.6569 -11.3103 7.1308 41.8734
#
#
#
# Elastic Compliance Matrix: (Units=1/GPa)
#
#
# Indices 1 2 3 4 5 6 
#
# 1 0.012581 -0.001138 0.000764 -0.000610 0.001822 0.004540
# 2 -0.001138 0.010412 -0.004428 0.002964 -0.004762 0.009569
# 3 0.000764 -0.004428 0.038099 -0.008514 0.030317 -0.001498
# 4 -0.000610 0.002964 -0.008514 0.032558 -0.009997 0.010782
# 5 0.001822 -0.004762 0.030317 -0.009997 0.067579 -0.010041
# 6 0.004540 0.009569 -0.001498 0.010782 -0.010041 0.039077
#
#
# Mechanical properties :
#
#
# Convention : Reuss Voigt Hill
#
# Bulk Modulus (GPa) = 19.42190 41.70549 30.56370
# Shear Modulus (GPa) = 22.01929 35.42076 28.72002
#
# Velocity S-wave (km/s) = 3.06205 3.88365 3.49706
# Velocity P-wave (km/s) = 4.55760 6.15379 5.41483
#
# Compressibility (1/GPa) = 0.05148826
#
# Stress axis : x y z
#
# Youngs Moduli (GPa) = 79.48562 96.04243 26.24713
#
# Poissons Ratio (x) = 0.10930 -0.02005
# Poissons Ratio (y) = 0.09046 0.11622
# Poissons Ratio (z) = -0.06071 0.42525
#
# Static dielectric constant tensor:
#      x y z
#    x 1.845920 -0.082190 0.016840 
#    y -0.082190 1.862580 0.020750 
#    z 0.016840 0.020750 1.848990 
# 
# From -- ./inp_files/610716.got.cif
#   From: 2010.05.17/outbox.cif.g08.bks.cpg/sg2_306_cif.got.tgz:610716.got - 2010.06.03 11:33:40.
