data_PCOD9012853
_publ_section_title
;
Structure prediction by ZEFSAII (Michael W. Deem and Ramdas Pophale) SiO2 
 PCOD9012853
Probable space group: P -1
;
_chemical_formula_sum "Si O2"
_cell_formula_units_Z 14
_cell_length_a 12.676679
_cell_length_b 8.524822
_cell_length_c 8.664179
_cell_angle_alpha 131.987241
_cell_angle_beta 94.758330
_cell_angle_gamma 94.117779
_cell_volume 683.233818
_symmetry_space_group_name_H-M "P -1"
_symmetry_group_IT_number 2
_symmetry_cell_setting 'triclinic'
loop_
_space_group_symop_operation_xyz
x,y,z
-x,-y,-z
loop_
_atom_site_type_symbol
_atom_site_label
_atom_site_fract_x
_atom_site_fract_y
_atom_site_fract_z
Si Si1 0.440478 0.906555 0.085948
Si Si2 0.243341 0.570053 0.733380
Si Si3 0.827376 0.881717 0.411160
Si Si4 0.994970 0.103372 0.816690
Si Si5 0.967661 0.297097 0.251199
Si Si6 0.422558 0.154076 0.662105
Si Si7 0.592399 0.640905 0.507453
O O1 0.528703 0.819944 0.145087
O O2 0.396038 0.112116 0.283525
O O3 0.339580 0.721908 0.929460
O O4 0.500000 0.000000 0.000000
O O5 0.186588 0.361836 0.684241
O O6 0.160530 0.721789 0.777561
O O7 0.300706 0.461215 0.530573
O O8 0.706168 0.926446 0.401674
O O9 0.899375 0.882436 0.267268
O O10 0.893997 0.049915 0.651417
O O11 0.998118 0.291908 0.068833
O O12 0.988770 0.892959 0.782958
O O13 0.000000 0.500000 0.500000
O O14 0.435264 0.350257 0.672413
O O15 0.500000 0.000000 0.500000
O O16 0.500000 0.500000 0.500000
#
# Coordination Sequence:
#
# PCOD9012853 Si02
#       7
#     2   2   2   2   2   2   2
#     4  11  23  41  64  95 132 177 218 269 344 397
#     4  11  24  40  66  93 132 168 221 278 330 402
#     4  10  22  45  65  99 134 175 225 277 338 392
#     4  10  24  44  70  94 135 175 224 284 328 404
#     4  11  24  44  66  99 129 172 227 276 344 397
#     4   9  22  39  64  95 134 171 218 271 332 404
#     4  10  21  41  61  93 132 171 216 269 325 400
#
# _framework density 20.490787999999998
#
# number of rings (size 3 to 8) (size 9 to 14) (size 15 to 20)
#    0.000    1.714    2.857    0.000    8.000    2.857 
#    0.000    0.000    0.000    0.000    0.000    0.000 
#    0.000    0.000    0.000    0.000    0.000    0.000 
#
# Total GULP energy -77977.391919 kJ/mol
# GULP energy per Si atom -5569.813709 kJ/mol
# Density = 2.044415 g / cm^3
# Si number density = 20.490788 Si / 1000 Ang^3
#
#
#
# Elastic Constant Matrix: (Units=GPa)
#
#
# Indices 1 2 3 4 5 6 
#
# 1 137.8729 10.0651 51.5017 -22.3321 8.5791 -2.4563
# 2 10.0651 38.2260 32.6142 -17.7986 8.6382 17.6915
# 3 51.5017 32.6142 139.6170 -7.3575 -0.7520 6.7801
# 4 -22.3321 -17.7986 -7.3575 38.1490 -3.1203 -5.2821
# 5 8.5791 8.6382 -0.7520 -3.1203 35.8120 -0.2339
# 6 -2.4563 17.6915 6.7801 -5.2821 -0.2339 37.4521
#
#
#
# Elastic Compliance Matrix: (Units=1/GPa)
#
#
# Indices 1 2 3 4 5 6 
#
# 1 0.009910 0.005320 -0.004536 0.007145 -0.003130 -0.000054
# 2 0.005320 0.062701 -0.014232 0.025208 -0.014653 -0.023229
# 3 -0.004536 -0.014232 0.011688 -0.006215 0.004246 0.003459
# 4 0.007145 0.025208 -0.006215 0.039940 -0.004473 -0.004709
# 5 -0.003130 -0.014653 0.004246 -0.004473 0.031943 0.005516
# 6 -0.000054 -0.023229 0.003459 -0.004709 0.005516 0.036414
#
#
# Mechanical properties :
#
#
# Convention : Reuss Voigt Hill
#
# Bulk Modulus (GPa) = 17.42064 56.00867 36.71465
# Shear Modulus (GPa) = 20.95317 37.05160 29.00238
#
# Velocity S-wave (km/s) = 3.20123 4.25692 3.76624
# Velocity P-wave (km/s) = 4.70998 7.18016 6.07201
#
# Compressibility (1/GPa) = 0.05740319
#
# Stress axis : x y z
#
# Youngs Moduli (GPa) = 100.90495 15.94865 85.56075
#
# Poissons Ratio (x) = -0.08484 0.38812
# Poissons Ratio (y) = -0.53680 1.21768
# Poissons Ratio (z) = 0.45772 0.22698
#
# Static dielectric constant tensor:
#      x y z
#    x 1.776400 -0.029230 -0.027780 
#    y -0.029230 1.718270 -0.046860 
#    z -0.027780 -0.046860 1.803600 
# 
# From -- ./inp_files/241430.got.cif
#   From: 2010.05.17/outbox.cif.g08.bks.cpg/sg2_121_cif.got.tgz:241430.got - 2010.06.03 11:33:40.
