data_PCOD9012678
_publ_section_title
;
Structure prediction by ZEFSAII (Michael W. Deem and Ramdas Pophale) SiO2 
 PCOD9012678
Probable space group: P -1
;
_chemical_formula_sum "Si O2"
_cell_formula_units_Z 12
_cell_length_a 10.643192
_cell_length_b 10.166666
_cell_length_c 8.075301
_cell_angle_alpha 43.858596
_cell_angle_beta 60.060918
_cell_angle_gamma 44.295832
_cell_volume 422.552493
_symmetry_space_group_name_H-M "P -1"
_symmetry_group_IT_number 2
_symmetry_cell_setting 'triclinic'
loop_
_space_group_symop_operation_xyz
x,y,z
-x,-y,-z
loop_
_atom_site_type_symbol
_atom_site_label
_atom_site_fract_x
_atom_site_fract_y
_atom_site_fract_z
Si Si1 0.694012 0.767970 0.635375
Si Si2 0.349263 0.561174 0.231242
Si Si3 0.969709 0.859947 0.289977
Si Si4 0.313239 0.941486 0.089961
Si Si5 0.760634 0.227644 0.386826
Si Si6 0.732007 0.669334 0.075081
O O1 0.679222 0.552452 0.804565
O O2 0.846664 0.767183 0.438233
O O3 0.731279 0.769011 0.804163
O O4 0.500000 0.000000 0.500000
O O5 0.329658 0.805862 0.034187
O O6 0.176030 0.630820 0.387875
O O7 0.227881 0.886891 0.342622
O O8 0.874437 0.044922 0.333514
O O9 0.000000 0.000000 0.000000
O O10 0.450568 0.624380 0.663120
O O11 0.216265 0.218792 0.920252
O O12 0.522152 0.794407 0.135756
O O13 0.817851 0.400234 0.226610
#
# Coordination Sequence:
#
# PCOD9012678 Si02
#       6
#     2   2   2   2   2   2
#     4  12  24  44  73 102 139 186 235 284 350 411
#     4  11  24  43  72  96 141 182 228 287 348 398
#     4  12  27  44  67 107 142 178 239 288 344 415
#     4  10  22  43  70 107 137 184 235 277 349 420
#     4  11  23  46  71 103 143 184 230 285 349 414
#     4  10  21  40  74  98 139 185 229 282 345 414
#
# _framework density 28.398835999999999
#
# number of rings (size 3 to 8) (size 9 to 14) (size 15 to 20)
#    0.000    1.000    3.333    3.500    4.667    5.333 
#    0.000    0.833    0.000    0.000    0.000    0.000 
#    0.000    0.000    0.000    0.000    0.000    0.000 
#
# Total GULP energy -67121.047668 kJ/mol
# GULP energy per Si atom -5593.420639 kJ/mol
# Density = 2.833420 g / cm^3
# Si number density = 28.398836 Si / 1000 Ang^3
#
#
#
# Elastic Constant Matrix: (Units=GPa)
#
#
# Indices 1 2 3 4 5 6 
#
# 1 128.7544 68.4289 30.6073 1.9522 -31.4352 -3.1081
# 2 68.4289 210.7578 58.8308 2.1850 -16.8764 29.4713
# 3 30.6073 58.8308 160.2762 14.7774 -16.7864 9.7400
# 4 1.9522 2.1850 14.7774 51.3000 8.6059 -18.9034
# 5 -31.4352 -16.8764 -16.7864 8.6059 32.1478 -2.3772
# 6 -3.1081 29.4713 9.7400 -18.9034 -2.3772 86.2018
#
#
#
# Elastic Compliance Matrix: (Units=1/GPa)
#
#
# Indices 1 2 3 4 5 6 
#
# 1 0.012200 -0.003313 0.000069 -0.001591 0.010764 0.001513
# 2 -0.003313 0.006551 -0.001676 -0.000384 -0.000741 -0.002274
# 3 0.000069 -0.001676 0.007587 -0.003087 0.003912 -0.000851
# 4 -0.001591 -0.000384 -0.003087 0.024039 -0.009403 0.005435
# 5 0.010764 -0.000741 0.003912 -0.009403 0.045758 -0.000601
# 6 0.001513 -0.002274 -0.000851 0.005435 -0.000601 0.013704
#
#
# Mechanical properties :
#
#
# Convention : Reuss Voigt Hill
#
# Bulk Modulus (GPa) = 60.61753 90.61359 75.61556
# Shear Modulus (GPa) = 39.94236 56.72467 48.33352
#
# Velocity S-wave (km/s) = 3.75437 4.47411 4.12995
# Velocity P-wave (km/s) = 6.33918 7.65944 7.03037
#
# Compressibility (1/GPa) = 0.01649688
#
# Stress axis : x y z
#
# Youngs Moduli (GPa) = 81.96724 152.64743 131.79798
#
# Poissons Ratio (x) = 0.50578 -0.00903
# Poissons Ratio (y) = 0.27159 0.22088
# Poissons Ratio (z) = -0.00562 0.25582
#
# Static dielectric constant tensor:
#      x y z
#    x 2.328050 0.028300 0.018090 
#    y 0.028300 2.167430 -0.056840 
#    z 0.018090 -0.056840 2.232590 
# 
# From -- ./inp_files/416471.got.cif
#   From: 2010.05.17/outbox.cif.g08.bks.cpg/sg2_209_cif.got.tgz:416471.got - 2010.06.03 11:33:40.
