data_PCOD9012908
_publ_section_title
;
Structure prediction by ZEFSAII (Michael W. Deem and Ramdas Pophale) SiO2 
 PCOD9012908
Probable space group: P -1
;
_chemical_formula_sum "Si O2"
_cell_formula_units_Z 14
_cell_length_a 17.654058
_cell_length_b 9.299282
_cell_length_c 15.697926
_cell_angle_alpha 133.823948
_cell_angle_beta 22.400968
_cell_angle_gamma 122.942611
_cell_volume 663.587402
_symmetry_space_group_name_H-M "P -1"
_symmetry_group_IT_number 2
_symmetry_cell_setting 'triclinic'
loop_
_space_group_symop_operation_xyz
x,y,z
-x,-y,-z
loop_
_atom_site_type_symbol
_atom_site_label
_atom_site_fract_x
_atom_site_fract_y
_atom_site_fract_z
Si Si1 0.684283 0.286323 0.184453
Si Si2 0.251591 0.554016 0.265967
Si Si3 0.547316 0.616006 0.704757
Si Si4 0.156392 0.196930 0.126889
Si Si5 0.969877 0.443947 0.845993
Si Si6 0.166249 0.774915 0.263086
Si Si7 0.368566 0.241608 0.749300
O O1 0.500000 0.500000 0.500000
O O2 0.581367 0.257554 0.190452
O O3 0.894375 0.337679 0.960337
O O4 0.758143 0.058959 0.060312
O O5 0.223342 0.326960 0.186017
O O6 0.165769 0.696117 0.327556
O O7 0.099778 0.690577 0.554965
O O8 0.500000 0.500000 0.000000
O O9 0.516640 0.386427 0.646350
O O10 0.787620 0.590900 0.431031
O O11 0.412849 0.744572 0.976956
O O12 0.259359 0.254195 0.959583
O O13 0.893787 0.365043 0.804828
O O14 0.811834 0.686045 0.106722
O O15 0.000000 0.000000 0.500000
O O16 0.500000 0.000000 0.500000
#
# Coordination Sequence:
#
# PCOD9012908 Si02
#       7
#     2   2   2   2   2   2   2
#     4  10  22  42  64  91 131 167 213 276 329 381
#     4  11  24  39  64  98 133 170 217 271 334 389
#     4  10  22  39  62  89 121 164 212 256 313 386
#     4  11  22  40  64  93 132 166 211 270 331 383
#     4  10  22  40  61  86 124 161 216 255 311 385
#     4  10  21  41  62  88 127 171 211 263 321 381
#     4  10  21  41  64  89 125 166 207 266 322 378
#
# _framework density 21.097448
#
# number of rings (size 3 to 8) (size 9 to 14) (size 15 to 20)
#    0.000    2.000    2.857    3.429    2.000    4.000 
#    0.000    2.857    0.000    0.000    0.000    0.000 
#    0.000    0.000    0.000    0.000    0.000    0.000 
#
# Total GULP energy -77970.728139 kJ/mol
# GULP energy per Si atom -5569.337724 kJ/mol
# Density = 2.104943 g / cm^3
# Si number density = 21.097448 Si / 1000 Ang^3
#
#
#
# Elastic Constant Matrix: (Units=GPa)
#
#
# Indices 1 2 3 4 5 6 
#
# 1 17.4603 16.9922 12.2708 -10.6206 -1.4099 -9.2046
# 2 16.9922 127.0002 79.6422 -1.5332 -14.7902 -17.2988
# 3 12.2708 79.6422 153.8727 -18.0510 -13.9412 10.6907
# 4 -10.6206 -1.5332 -18.0510 54.3914 4.6431 -3.6798
# 5 -1.4099 -14.7902 -13.9412 4.6431 35.7329 -6.1655
# 6 -9.2046 -17.2988 10.6907 -3.6798 -6.1655 19.8836
#
#
#
# Elastic Compliance Matrix: (Units=1/GPa)
#
#
# Indices 1 2 3 4 5 6 
#
# 1 0.112930 0.003145 -0.011909 0.021967 0.010096 0.068613
# 2 0.003145 0.019269 -0.011502 -0.001571 0.008428 0.026727
# 3 -0.011909 -0.011502 0.014874 0.000951 -0.003781 -0.024513
# 4 0.021967 -0.001571 0.000951 0.023827 -0.000335 0.012597
# 5 0.010096 0.008428 -0.003781 -0.000335 0.034709 0.024739
# 6 0.068613 0.026727 -0.024513 0.012597 0.024739 0.128490
#
#
# Mechanical properties :
#
#
# Convention : Reuss Voigt Hill
#
# Bulk Modulus (GPa) = 9.38602 57.34930 33.36766
# Shear Modulus (GPa) = 12.19086 34.63012 23.41049
#
# Velocity S-wave (km/s) = 2.40643 4.05586 3.33473
# Velocity P-wave (km/s) = 3.48995 7.01252 5.53873
#
# Compressibility (1/GPa) = 0.10654142
#
# Stress axis : x y z
#
# Youngs Moduli (GPa) = 8.85508 51.89684 67.23199
#
# Poissons Ratio (x) = -0.16324 0.80067
# Poissons Ratio (y) = -0.02785 0.77329
# Poissons Ratio (z) = 0.10546 0.59691
#
# Static dielectric constant tensor:
#      x y z
#    x 1.795450 -0.003310 0.049220 
#    y -0.003310 1.858060 0.045350 
#    z 0.049220 0.045350 1.986190 
# 
# From -- ./inp_files/447778.got.cif
#   From: 2010.05.17/outbox.cif.g08.bks.cpg/sg2_224_cif.got.tgz:447778.got - 2010.06.03 11:33:40.
