data_PCOD9012881
_publ_section_title
;
Structure prediction by ZEFSAII (Michael W. Deem and Ramdas Pophale) SiO2 
 PCOD9012881
Probable space group: P -1
;
_chemical_formula_sum "Si O2"
_cell_formula_units_Z 14
_cell_length_a 20.200452
_cell_length_b 15.501876
_cell_length_c 8.197461
_cell_angle_alpha 56.085225
_cell_angle_beta 145.174199
_cell_angle_gamma 148.595614
_cell_volume 670.345328
_symmetry_space_group_name_H-M "P -1"
_symmetry_group_IT_number 2
_symmetry_cell_setting 'triclinic'
loop_
_space_group_symop_operation_xyz
x,y,z
-x,-y,-z
loop_
_atom_site_type_symbol
_atom_site_label
_atom_site_fract_x
_atom_site_fract_y
_atom_site_fract_z
Si Si1 0.796986 0.450802 0.762966
Si Si2 0.628582 0.699932 0.367283
Si Si3 0.090184 0.527033 0.485451
Si Si4 0.019324 0.752424 0.619443
Si Si5 0.505606 0.822386 0.841653
Si Si6 0.495712 0.625819 0.548756
Si Si7 0.067235 0.073467 0.743874
O O1 0.619131 0.262765 0.490448
O O2 0.681633 0.427379 0.697626
O O3 0.917249 0.622369 0.708568
O O4 0.959797 0.490771 0.121835
O O5 0.538824 0.656522 0.410613
O O6 0.565823 0.538136 0.356854
O O7 0.551576 0.734161 0.057217
O O8 0.880827 0.893957 0.671535
O O9 0.337157 0.729608 0.736853
O O10 0.000000 0.500000 0.500000
O O11 0.041425 0.369218 0.522890
O O12 0.925056 0.796293 0.357926
O O13 0.270776 0.953782 0.933463
O O14 0.712485 0.811825 0.884347
O O15 0.000000 0.000000 0.500000
#
# Coordination Sequence:
#
# PCOD9012881 Si02
#       7
#     2   2   2   2   2   2   2
#     4  11  23  37  60  87 114 153 198 238 285 348
#     4  10  22  37  59  87 117 155 193 238 293 347
#     4  11  24  41  60  87 118 152 196 240 289 347
#     4  10  22  40  62  86 115 154 195 242 289 337
#     4  10  21  41  62  84 115 150 196 244 288 341
#     4  11  21  37  58  85 122 155 189 240 294 339
#     4  11  22  38  61  89 119 153 196 238 287 350
#
# _framework density 20.884758000000001
#
# number of rings (size 3 to 8) (size 9 to 14) (size 15 to 20)
#    0.000    1.429    0.000    7.286    0.000    5.714 
#    0.000    5.714    0.000    0.000    0.000    0.000 
#    0.000    0.000    0.000    0.000    0.000    0.000 
#
# Total GULP energy -78317.788325 kJ/mol
# GULP energy per Si atom -5594.127738 kJ/mol
# Density = 2.083722 g / cm^3
# Si number density = 20.884758 Si / 1000 Ang^3
#
#
#
# Elastic Constant Matrix: (Units=GPa)
#
#
# Indices 1 2 3 4 5 6 
#
# 1 95.0030 15.8505 -12.7298 5.0982 23.6348 -4.4860
# 2 15.8505 60.9199 8.5139 19.8720 10.7757 3.7324
# 3 -12.7298 8.5139 73.5500 12.2694 15.8076 -0.1255
# 4 5.0982 19.8720 12.2694 20.8831 4.6131 4.0732
# 5 23.6348 10.7757 15.8076 4.6131 34.2132 1.4097
# 6 -4.4860 3.7324 -0.1255 4.0732 1.4097 20.3742
#
#
#
# Elastic Compliance Matrix: (Units=1/GPa)
#
#
# Indices 1 2 3 4 5 6 
#
# 1 0.015222 -0.001592 0.006214 -0.004128 -0.012550 0.005375
# 2 -0.001592 0.025017 0.001686 -0.023449 -0.004400 0.000069
# 3 0.006214 0.001686 0.019205 -0.012598 -0.012185 0.004539
# 4 -0.004128 -0.023449 -0.012598 0.079869 0.005827 -0.013061
# 5 -0.012550 -0.004400 -0.012185 0.005827 0.044386 -0.006268
# 6 0.005375 0.000069 0.004539 -0.013061 -0.006268 0.053325
#
#
# Mechanical properties :
#
#
# Convention : Reuss Voigt Hill
#
# Bulk Modulus (GPa) = 13.87745 28.08247 20.97996
# Shear Modulus (GPa) = 20.12667 29.61666 24.87167
#
# Velocity S-wave (km/s) = 3.10772 3.76985 3.45469
# Velocity P-wave (km/s) = 4.42000 5.69426 5.09711
#
# Compressibility (1/GPa) = 0.07205935
#
# Stress axis : x y z
#
# Youngs Moduli (GPa) = 65.69612 39.97360 52.07057
#
# Poissons Ratio (x) = 0.06362 -0.32356
# Poissons Ratio (y) = 0.10457 -0.08780
# Poissons Ratio (z) = -0.40822 -0.06740
#
# Static dielectric constant tensor:
#      x y z
#    x 1.751610 0.009850 -0.006540 
#    y 0.009850 1.731090 0.010660 
#    z -0.006540 0.010660 1.751380 
# 
# From -- ./inp_files/258773.got.cif
#   From: 2010.05.17/outbox.cif.g08.bks.cpg/sg2_130_cif.got.tgz:258773.got - 2010.06.03 11:33:40.
