data_PCOD9012558
_publ_section_title
;
Structure prediction by ZEFSAII (Michael W. Deem and Ramdas Pophale) SiO2 
 PCOD9012558
Probable space group: P -1
;
_chemical_formula_sum "Si O2"
_cell_formula_units_Z 14
_cell_length_a 5.540108
_cell_length_b 19.789066
_cell_length_c 26.322419
_cell_angle_alpha 17.041004
_cell_angle_beta 57.469454
_cell_angle_gamma 48.250316
_cell_volume 562.717004
_symmetry_space_group_name_H-M "P -1"
_symmetry_group_IT_number 2
_symmetry_cell_setting 'triclinic'
loop_
_space_group_symop_operation_xyz
x,y,z
-x,-y,-z
loop_
_atom_site_type_symbol
_atom_site_label
_atom_site_fract_x
_atom_site_fract_y
_atom_site_fract_z
Si Si1 0.822524 0.061879 0.604092
Si Si2 0.780826 0.906404 0.988349
Si Si3 0.146300 0.805721 0.861565
Si Si4 0.724150 0.884493 0.204699
Si Si5 0.248835 0.273069 0.209271
Si Si6 0.178580 0.206075 0.630827
Si Si7 0.737928 0.765691 0.596688
O O1 0.413445 0.192237 0.567806
O O2 0.887209 0.275649 0.419233
O O3 0.017081 0.776828 0.750963
O O4 0.978157 0.963415 0.713588
O O5 0.129277 0.561086 0.190411
O O6 0.500000 0.000000 0.000000
O O7 0.540718 0.976782 0.913660
O O8 0.962200 0.070237 0.861056
O O9 0.561865 0.680138 0.891989
O O10 0.019683 0.041002 0.750086
O O11 0.130114 0.543151 0.063479
O O12 0.592588 0.955297 0.227802
O O13 0.889295 0.546153 0.427351
O O14 0.504984 0.972295 0.426963
O O15 0.500000 0.000000 0.500000
#
# Coordination Sequence:
#
# PCOD9012558 Si02
#       7
#     2   2   2   2   2   2   2
#     4  10  21  40  71 101 148 192 240 310 387 444
#     4  12  29  52  79 107 153 210 254 298 375 461
#     4   9  19  37  65 100 142 180 235 301 384 440
#     4  11  28  47  77 112 146 195 260 318 370 444
#     4   9  20  38  63 100 140 187 239 299 373 443
#     4  10  24  42  74 109 144 184 249 326 382 434
#     4  11  27  45  68 104 150 196 254 308 366 452
#
# _framework density 24.879290000000001
#
# number of rings (size 3 to 8) (size 9 to 14) (size 15 to 20)
#    0.000    1.714    0.000    1.714   14.000    2.857 
#    0.000    0.000    0.000    0.000    0.000    0.000 
#    0.000    0.000    0.000    0.000    0.000    0.000 
#
# Total GULP energy -77995.938187 kJ/mol
# GULP energy per Si atom -5571.138442 kJ/mol
# Density = 2.482266 g / cm^3
# Si number density = 24.879290 Si / 1000 Ang^3
#
#
#
# Elastic Constant Matrix: (Units=GPa)
#
#
# Indices 1 2 3 4 5 6 
#
# 1 101.7150 39.4504 43.0092 0.0381 -12.2986 38.8032
# 2 39.4504 125.2171 29.4019 3.9908 1.2697 19.3943
# 3 43.0092 29.4019 119.6018 -20.9314 8.9809 37.2084
# 4 0.0381 3.9908 -20.9314 37.7859 9.5828 -9.4317
# 5 -12.2986 1.2697 8.9809 9.5828 44.9477 -2.6261
# 6 38.8032 19.3943 37.2084 -9.4317 -2.6261 50.8747
#
#
#
# Elastic Compliance Matrix: (Units=1/GPa)
#
#
# Indices 1 2 3 4 5 6 
#
# 1 0.017095 -0.002816 -0.003875 -0.005915 0.006213 -0.009907
# 2 -0.002816 0.009373 -0.001322 -0.001814 -0.000432 -0.000817
# 3 -0.003875 -0.001322 0.013502 0.007748 -0.005681 -0.005273
# 4 -0.005915 -0.001814 0.007748 0.034919 -0.010240 0.005482
# 5 0.006213 -0.000432 -0.005681 -0.010240 0.027225 -0.000913
# 6 -0.009907 -0.000817 -0.005273 0.005482 -0.000913 0.032349
#
#
# Mechanical properties :
#
#
# Convention : Reuss Voigt Hill
#
# Bulk Modulus (GPa) = 41.76505 63.36187 52.56346
# Shear Modulus (GPa) = 31.55152 42.36650 36.95901
#
# Velocity S-wave (km/s) = 3.56502 4.13108 3.85844
# Velocity P-wave (km/s) = 5.81114 6.94819 6.40495
#
# Compressibility (1/GPa) = 0.02394347
#
# Stress axis : x y z
#
# Youngs Moduli (GPa) = 58.49674 106.69510 74.06135
#
# Poissons Ratio (x) = 0.30046 0.28697
# Poissons Ratio (y) = 0.16473 0.09794
# Poissons Ratio (z) = 0.22666 0.14109
#
# Static dielectric constant tensor:
#      x y z
#    x 2.223570 -0.007530 0.002080 
#    y -0.007530 2.132780 -0.105840 
#    z 0.002080 -0.105840 1.970250 
# 
# From -- ./inp_files/604880.got.cif
#   From: 2010.05.17/outbox.cif.g08.bks.cpg/sg2_303_cif.got.tgz:604880.got - 2010.06.03 11:33:40.
