data_PCOD9012484
_publ_section_title
;
Structure prediction by ZEFSAII (Michael W. Deem and Ramdas Pophale) SiO2 
 PCOD9012484
Probable space group: P -1
;
_chemical_formula_sum "Si O2"
_cell_formula_units_Z 16
_cell_length_a 11.264391
_cell_length_b 12.003068
_cell_length_c 14.516445
_cell_angle_alpha 87.265106
_cell_angle_beta 42.908116
_cell_angle_gamma 119.990921
_cell_volume 824.448263
_symmetry_space_group_name_H-M "P -1"
_symmetry_group_IT_number 2
_symmetry_cell_setting 'triclinic'
loop_
_space_group_symop_operation_xyz
x,y,z
-x,-y,-z
loop_
_atom_site_type_symbol
_atom_site_label
_atom_site_fract_x
_atom_site_fract_y
_atom_site_fract_z
Si Si1 0.524688 0.894793 0.439083
Si Si2 0.222958 0.352672 0.291559
Si Si3 0.751386 0.112127 0.929998
Si Si4 0.361622 0.878428 0.325097
Si Si5 0.386353 0.645786 0.310359
Si Si6 0.125112 0.079908 0.102306
Si Si7 0.896688 0.503649 0.323922
Si Si8 0.418925 0.607814 0.022977
O O1 0.471875 0.898079 0.361625
O O2 0.297761 0.686690 0.608653
O O3 0.500000 0.000000 0.500000
O O4 0.828418 0.991263 0.273615
O O5 0.315471 0.498478 0.300586
O O6 0.234804 0.415981 0.181058
O O7 0.901910 0.171854 0.509254
O O8 0.440682 0.361380 0.153515
O O9 0.013680 0.328450 0.764662
O O10 0.875408 0.049690 0.863940
O O11 0.500000 0.000000 0.000000
O O12 0.589819 0.044294 0.121438
O O13 0.268494 0.709123 0.342759
O O14 0.268144 0.569506 0.482473
O O15 0.716807 0.828879 0.090133
O O16 0.328794 0.237670 0.056551
O O17 0.205063 0.601919 0.146951
#
# Coordination Sequence:
#
# PCOD9012484 Si02
#       8
#     2   2   2   2   2   2   2   2
#     4  11  24  42  65  90 126 164 207 258 313 364
#     4  10  17  29  56  88 120 150 198 265 304 349
#     4  11  22  39  64  92 129 162 206 256 309 366
#     4  10  20  36  60  89 123 160 207 255 311 361
#     4   9  19  32  60  86 117 149 210 260 300 345
#     4  10  22  37  62  91 123 160 207 254 309 365
#     4  11  22  39  62  91 120 165 205 250 314 364
#     4  10  19  32  58  91 121 151 206 256 309 361
#
# _framework density 19.406917
#
# number of rings (size 3 to 8) (size 9 to 14) (size 15 to 20)
#    0.000    1.750    3.750    1.875    5.250    5.000 
#    0.000    1.250    2.750    0.000    0.000    0.000 
#    0.000    0.000    0.000    0.000    0.000    0.000 
#
# Total GULP energy -89078.949786 kJ/mol
# GULP energy per Si atom -5567.434362 kJ/mol
# Density = 1.936275 g / cm^3
# Si number density = 19.406917 Si / 1000 Ang^3
#
#
#
# Elastic Constant Matrix: (Units=GPa)
#
#
# Indices 1 2 3 4 5 6 
#
# 1 50.1772 32.6612 43.3414 -1.2399 -11.0889 -9.2953
# 2 32.6612 122.0230 77.1960 6.2390 1.2972 -11.6357
# 3 43.3414 77.1960 133.1887 0.8479 -0.3937 -13.5317
# 4 -1.2399 6.2390 0.8479 40.7412 -8.2786 1.0206
# 5 -11.0889 1.2972 -0.3937 -8.2786 34.6646 -5.2346
# 6 -9.2953 -11.6357 -13.5317 1.0206 -5.2346 22.8793
#
#
#
# Elastic Compliance Matrix: (Units=1/GPa)
#
#
# Indices 1 2 3 4 5 6 
#
# 1 0.034102 -0.003404 -0.008069 0.004213 0.013499 0.010251
# 2 -0.003404 0.013559 -0.006616 -0.002496 -0.002081 0.001235
# 3 -0.008069 -0.006616 0.014088 0.000042 -0.001977 0.001235
# 4 0.004213 -0.002496 0.000042 0.026647 0.007972 0.001102
# 5 0.013499 -0.002081 -0.001977 0.007972 0.036836 0.011329
# 6 0.010251 0.001235 0.001235 0.001102 0.011329 0.051774
#
#
# Mechanical properties :
#
#
# Convention : Reuss Voigt Hill
#
# Bulk Modulus (GPa) = 39.10869 67.97624 53.54247
# Shear Modulus (GPa) = 22.55214 29.80304 26.17759
#
# Velocity S-wave (km/s) = 3.41261 3.92304 3.67669
# Velocity P-wave (km/s) = 5.97692 7.45810 6.75821
#
# Compressibility (1/GPa) = 0.02556976
#
# Stress axis : x y z
#
# Youngs Moduli (GPa) = 29.32408 73.74949 70.98212
#
# Poissons Ratio (x) = 0.25105 0.57279
# Poissons Ratio (y) = 0.09982 0.46962
# Poissons Ratio (z) = 0.23663 0.48793
#
# Static dielectric constant tensor:
#      x y z
#    x 1.701550 0.012940 -0.025910 
#    y 0.012940 1.800230 0.013260 
#    z -0.025910 0.013260 1.718930 
# 
# From -- ./inp_files/244235.got.cif
#   From: 2010.05.17/outbox.cif.g08.bks.cpg/sg2_123_cif.got.tgz:244235.got - 2010.06.03 11:33:40.
