data_PCOD9012968
_publ_section_title
;
Structure prediction by ZEFSAII (Michael W. Deem and Ramdas Pophale) SiO2 
 PCOD9012968
Probable space group: P -1
;
_chemical_formula_sum "Si O2"
_cell_formula_units_Z 16
_cell_length_a 8.885064
_cell_length_b 21.278050
_cell_length_c 7.906134
_cell_angle_alpha 129.657790
_cell_angle_beta 39.686960
_cell_angle_gamma 115.308904
_cell_volume 728.668664
_symmetry_space_group_name_H-M "P -1"
_symmetry_group_IT_number 2
_symmetry_cell_setting 'triclinic'
loop_
_space_group_symop_operation_xyz
x,y,z
-x,-y,-z
loop_
_atom_site_type_symbol
_atom_site_label
_atom_site_fract_x
_atom_site_fract_y
_atom_site_fract_z
Si Si1 0.667945 0.230879 0.392749
Si Si2 0.753407 0.696227 0.302610
Si Si3 0.890376 0.178002 0.758389
Si Si4 0.459093 0.682717 0.871435
Si Si5 0.834647 0.023724 0.347156
Si Si6 0.913976 0.415514 0.981079
Si Si7 0.894927 0.714472 0.694619
Si Si8 0.403095 0.125030 0.704464
O O1 0.449419 0.300079 0.653504
O O2 0.559212 0.169849 0.512736
O O3 0.898832 0.270638 0.325594
O O4 0.741468 0.184646 0.072736
O O5 0.622106 0.694213 0.590389
O O6 0.879037 0.778198 0.325419
O O7 0.958780 0.619917 0.016542
O O8 0.942736 0.086165 0.485505
O O9 0.745120 0.238783 0.846343
O O10 0.635447 0.681253 0.875651
O O11 0.359165 0.596634 0.784981
O O12 0.590479 0.076274 0.584799
O O13 0.756462 0.940254 0.348381
O O14 0.000000 0.000000 0.000000
O O15 0.976486 0.349929 0.660843
O O16 0.000000 0.500000 0.000000
O O17 0.781880 0.809210 0.920783
#
# Coordination Sequence:
#
# PCOD9012968 Si02
#       8
#     2   2   2   2   2   2   2   2
#     4  11  23  40  64  93 130 177 219 259 327 389
#     4   9  21  37  64  92 128 166 213 262 323 381
#     4  10  21  41  62  92 125 170 217 270 322 380
#     4   9  19  36  65  90 121 164 213 257 315 380
#     4  11  25  39  64  96 130 167 226 281 319 374
#     4  10  22  40  68 101 129 163 214 267 318 388
#     4  11  21  38  64  91 128 168 215 259 316 391
#     4  11  24  40  61  95 128 175 220 271 324 378
#
# _framework density 21.957854000000001
#
# number of rings (size 3 to 8) (size 9 to 14) (size 15 to 20)
#    0.000    1.750    1.250    2.250    8.750    3.500 
#    0.000    5.000    0.000   11.250    0.000    0.000 
#    0.000    0.000    0.000    0.000    0.000    0.000 
#
# Total GULP energy -89081.702065 kJ/mol
# GULP energy per Si atom -5567.606379 kJ/mol
# Density = 2.190788 g / cm^3
# Si number density = 21.957854 Si / 1000 Ang^3
#
#
#
# Elastic Constant Matrix: (Units=GPa)
#
#
# Indices 1 2 3 4 5 6 
#
# 1 109.4662 29.1052 21.7315 -4.8027 -17.2332 12.6445
# 2 29.1052 129.0403 26.6564 -6.5230 9.9607 17.7956
# 3 21.7315 26.6564 55.7844 -7.9763 14.7997 3.8969
# 4 -4.8027 -6.5230 -7.9763 24.7705 -0.1526 -4.4888
# 5 -17.2332 9.9607 14.7997 -0.1526 41.6132 -12.6525
# 6 12.6445 17.7956 3.8969 -4.4888 -12.6525 20.9742
#
#
#
# Elastic Compliance Matrix: (Units=1/GPa)
#
#
# Indices 1 2 3 4 5 6 
#
# 1 0.011998 -0.002147 -0.005665 0.000021 0.007560 0.000206
# 2 -0.002147 0.010616 -0.001865 -0.000278 -0.006154 -0.011139
# 3 -0.005665 -0.001865 0.025694 0.005437 -0.012976 -0.006440
# 4 0.000021 -0.000278 0.005437 0.043734 0.001112 0.009244
# 5 0.007560 -0.006154 -0.012976 0.001112 0.041956 0.028623
# 6 0.000206 -0.011139 -0.006440 0.009244 0.028623 0.077445
#
#
# Mechanical properties :
#
#
# Convention : Reuss Voigt Hill
#
# Bulk Modulus (GPa) = 34.53813 49.91971 42.22892
# Shear Modulus (GPa) = 20.79427 31.92476 26.35951
#
# Velocity S-wave (km/s) = 3.08069 3.81715 3.46852
# Velocity P-wave (km/s) = 5.33082 6.49702 5.94259
#
# Compressibility (1/GPa) = 0.02895351
#
# Stress axis : x y z
#
# Youngs Moduli (GPa) = 83.34698 94.19573 38.91910
#
# Poissons Ratio (x) = 0.20222 0.22049
# Poissons Ratio (y) = 0.17893 0.07260
# Poissons Ratio (z) = 0.47219 0.17572
#
# Static dielectric constant tensor:
#      x y z
#    x 1.915960 0.019280 -0.044510 
#    y 0.019280 1.841650 -0.041200 
#    z -0.044510 -0.041200 1.940240 
# 
# From -- ./inp_files/222392.got.cif
#   From: 2010.05.17/outbox.cif.g08.bks.cpg/sg2_112_cif.got.tgz:222392.got - 2010.06.03 11:33:40.
