data_PCOD9012731
_publ_section_title
;
Structure prediction by ZEFSAII (Michael W. Deem and Ramdas Pophale) SiO2 
 PCOD9012731
Probable space group: P -1
;
_chemical_formula_sum "Si O2"
_cell_formula_units_Z 16
_cell_length_a 19.623503
_cell_length_b 14.085996
_cell_length_c 11.173038
_cell_angle_alpha 148.807162
_cell_angle_beta 148.011160
_cell_angle_gamma 22.244060
_cell_volume 579.934823
_symmetry_space_group_name_H-M "P -1"
_symmetry_group_IT_number 2
_symmetry_cell_setting 'triclinic'
loop_
_space_group_symop_operation_xyz
x,y,z
-x,-y,-z
loop_
_atom_site_type_symbol
_atom_site_label
_atom_site_fract_x
_atom_site_fract_y
_atom_site_fract_z
Si Si1 0.806878 0.986080 0.520680
Si Si2 0.857936 0.870068 0.898192
Si Si3 0.341753 0.576992 0.681763
Si Si4 0.839806 0.347658 0.054130
Si Si5 0.346689 0.829819 0.767379
Si Si6 0.043151 0.656387 0.184045
Si Si7 0.236484 0.433493 0.560404
Si Si8 0.427205 0.105256 0.871572
O O1 0.698401 0.942656 0.388282
O O2 0.015069 0.700861 0.479909
O O3 0.849993 0.122191 0.805490
O O4 0.674208 0.172018 0.408766
O O5 0.737779 0.810740 0.664595
O O6 0.957773 0.783220 0.825485
O O7 0.024101 0.671935 0.030255
O O8 0.756648 0.161005 0.102362
O O9 0.449187 0.585059 0.748562
O O10 0.226524 0.559051 0.404293
O O11 0.383903 0.389441 0.649356
O O12 0.770176 0.485701 0.227571
O O13 0.697339 0.585572 0.003101
O O14 0.395574 0.993965 0.041908
O O15 0.129878 0.035098 0.702882
O O16 0.000000 0.500000 0.000000
O O17 0.500000 0.000000 0.000000
#
# Coordination Sequence:
#
# PCOD9012731 Si02
#       8
#     2   2   2   2   2   2   2   2
#     4  11  21  41  63  93 130 156 208 259 310 365
#     4  11  21  35  61  91 125 156 200 258 311 356
#     4  11  22  38  61  95 126 157 201 262 312 363
#     4  12  24  39  63  94 124 166 212 249 310 373
#     4  10  21  41  59  91 127 158 203 251 312 370
#     4  11  19  35  62  91 122 150 201 265 312 352
#     4  12  23  37  62  99 125 162 203 261 315 356
#     4  10  25  42  61  87 128 167 207 251 304 376
#
# _framework density 27.589310000000001
#
# number of rings (size 3 to 8) (size 9 to 14) (size 15 to 20)
#    0.000    1.000    5.000    3.000    1.750    2.000 
#    2.250    0.625    0.000    3.750    0.000    0.000 
#    0.000    0.000    0.000    0.000    0.000    0.000 
#
# Total GULP energy -89439.992716 kJ/mol
# GULP energy per Si atom -5589.999545 kJ/mol
# Density = 2.752652 g / cm^3
# Si number density = 27.589310 Si / 1000 Ang^3
#
#
#
# Elastic Constant Matrix: (Units=GPa)
#
#
# Indices 1 2 3 4 5 6 
#
# 1 167.0026 9.6796 64.4644 -0.6192 32.4776 27.9741
# 2 9.6796 78.0065 23.5499 4.6422 10.1104 20.7307
# 3 64.4644 23.5499 166.6913 21.2100 25.6204 24.3840
# 4 -0.6192 4.6422 21.2100 36.2334 12.0203 5.6270
# 5 32.4776 10.1104 25.6204 12.0203 59.6065 5.3144
# 6 27.9741 20.7307 24.3840 5.6270 5.3144 33.2415
#
#
#
# Elastic Compliance Matrix: (Units=1/GPa)
#
#
# Indices 1 2 3 4 5 6 
#
# 1 0.008797 0.001744 -0.002523 0.003820 -0.004185 -0.006617
# 2 0.001744 0.015962 -0.001178 0.001094 -0.002449 -0.010352
# 3 -0.002523 -0.001178 0.008122 -0.003991 -0.000908 -0.002279
# 4 0.003820 0.001094 -0.003991 0.032935 -0.006705 -0.005472
# 5 -0.004185 -0.002449 -0.000908 -0.006705 0.020902 0.003509
# 6 -0.006617 -0.010352 -0.002279 -0.005472 0.003509 0.044144
#
#
# Mechanical properties :
#
#
# Convention : Reuss Voigt Hill
#
# Bulk Modulus (GPa) = 34.52270 67.45425 50.98847
# Shear Modulus (GPa) = 34.61797 46.75004 40.68401
#
# Velocity S-wave (km/s) = 3.54610 4.12089 3.84426
# Velocity P-wave (km/s) = 5.41357 6.86621 6.18270
#
# Compressibility (1/GPa) = 0.02896645
#
# Stress axis : x y z
#
# Youngs Moduli (GPa) = 113.66980 62.64878 123.11813
#
# Poissons Ratio (x) = -0.10925 0.31068
# Poissons Ratio (y) = -0.19823 0.14504
# Poissons Ratio (z) = 0.28684 0.07381
#
# Static dielectric constant tensor:
#      x y z
#    x 2.231580 -0.076140 0.009520 
#    y -0.076140 2.361590 -0.055340 
#    z 0.009520 -0.055340 2.071860 
# 
# From -- ./inp_files/471818.got.cif
#   From: 2010.05.17/outbox.cif.g08.bks.cpg/sg2_236_cif.got.tgz:471818.got - 2010.06.03 11:33:40.
