data_PCOD9012699
_publ_section_title
;
Structure prediction by ZEFSAII (Michael W. Deem and Ramdas Pophale) SiO2 
 PCOD9012699
Probable space group: P -1
;
_chemical_formula_sum "Si O2"
_cell_formula_units_Z 14
_cell_length_a 5.181237
_cell_length_b 21.394325
_cell_length_c 9.485591
_cell_angle_alpha 40.996280
_cell_angle_beta 116.354434
_cell_angle_gamma 115.980253
_cell_volume 608.518396
_symmetry_space_group_name_H-M "P -1"
_symmetry_group_IT_number 2
_symmetry_cell_setting 'triclinic'
loop_
_space_group_symop_operation_xyz
x,y,z
-x,-y,-z
loop_
_atom_site_type_symbol
_atom_site_label
_atom_site_fract_x
_atom_site_fract_y
_atom_site_fract_z
Si Si1 0.617552 0.799187 0.557444
Si Si2 0.936685 0.647190 0.023350
Si Si3 0.775692 0.403911 0.569903
Si Si4 0.666871 0.486202 0.804960
Si Si5 0.410770 0.979937 0.176303
Si Si6 0.207965 0.157136 0.790384
Si Si7 0.060432 0.666312 0.570215
O O1 0.863257 0.743690 0.770571
O O2 0.609478 0.909509 0.414458
O O3 0.636969 0.808010 0.377678
O O4 0.307518 0.728385 0.622365
O O5 0.618858 0.575009 0.084979
O O6 0.106812 0.671972 0.171215
O O7 0.156478 0.587448 0.100789
O O8 0.472092 0.441192 0.458093
O O9 0.799035 0.376512 0.458928
O O10 0.000000 0.500000 0.500000
O O11 0.891873 0.576052 0.773823
O O12 0.092474 0.912672 0.208232
O O13 0.500000 0.000000 0.000000
O O14 0.380950 0.086881 0.040004
O O15 0.126089 0.254381 0.666918
#
# Coordination Sequence:
#
# PCOD9012699 Si02
#       7
#     2   2   2   2   2   2   2
#     4  10  22  37  54  92 116 150 188 242 298 342
#     4  11  25  37  62  80 120 156 200 238 286 337
#     4  10  21  41  56  78 111 162 206 235 275 341
#     4  11  22  40  55  83 112 162 199 238 275 338
#     4   8  16  34  56  81 115 146 186 232 290 353
#     4   9  18  33  58  84 114 149 186 237 291 347
#     4  11  21  36  59  84 119 149 204 238 283 343
#
# _framework density 23.006702000000001
#
# number of rings (size 3 to 8) (size 9 to 14) (size 15 to 20)
#    0.000    2.000    2.857    1.286    6.000    1.143 
#    0.000    0.000    0.000    0.857    0.000   41.000 
#    0.000    0.000    0.000    0.000    0.000    0.000 
#
# Total GULP energy -77969.508772 kJ/mol
# GULP energy per Si atom -5569.250627 kJ/mol
# Density = 2.295434 g / cm^3
# Si number density = 23.006702 Si / 1000 Ang^3
#
#
#
# Elastic Constant Matrix: (Units=GPa)
#
#
# Indices 1 2 3 4 5 6 
#
# 1 102.0119 3.4044 45.7401 -12.8744 16.6625 2.1266
# 2 3.4044 16.9914 35.0542 -3.0568 2.9554 -6.7310
# 3 45.7401 35.0542 218.0318 -16.4126 57.1347 -2.3284
# 4 -12.8744 -3.0568 -16.4126 26.9302 -3.3116 2.3692
# 5 16.6625 2.9554 57.1347 -3.3116 48.7175 -17.1264
# 6 2.1266 -6.7310 -2.3284 2.3692 -17.1264 22.6444
#
#
#
# Elastic Compliance Matrix: (Units=1/GPa)
#
#
# Indices 1 2 3 4 5 6 
#
# 1 0.011678 -0.002058 -0.000454 0.004981 -0.005174 -0.006189
# 2 -0.002058 0.248531 -0.072252 -0.015642 0.127093 0.164399
# 3 -0.000454 -0.072252 0.029107 0.008266 -0.048797 -0.056212
# 4 0.004981 -0.015642 0.008266 0.042729 -0.014460 -0.019675
# 5 -0.005174 0.127093 -0.048797 -0.014460 0.113129 0.120321
# 6 -0.006189 0.164399 -0.056212 -0.019675 0.120321 0.180890
#
#
# Mechanical properties :
#
#
# Convention : Reuss Voigt Hill
#
# Bulk Modulus (GPa) = 7.15377 56.15916 31.65647
# Shear Modulus (GPa) = 6.08133 36.51419 21.29776
#
# Velocity S-wave (km/s) = 1.62758 3.98818 3.04587
# Velocity P-wave (km/s) = 2.57841 6.75798 5.11461
#
# Compressibility (1/GPa) = 0.13978635
#
# Stress axis : x y z
#
# Youngs Moduli (GPa) = 85.63225 4.02365 34.35566
#
# Poissons Ratio (x) = 0.00828 0.01561
# Poissons Ratio (y) = 0.17624 2.48227
# Poissons Ratio (z) = 0.03891 0.29072
#
# Static dielectric constant tensor:
#      x y z
#    x 2.025140 0.064810 0.009040 
#    y 0.064810 1.912550 0.038490 
#    z 0.009040 0.038490 2.047210 
# 
# From -- ./inp_files/364535.got.cif
#   From: 2010.05.17/outbox.cif.g08.bks.cpg/sg2_183_cif.got.tgz:364535.got - 2010.06.03 11:33:40.
