data_PCOD9012798
_publ_section_title
;
Structure prediction by ZEFSAII (Michael W. Deem and Ramdas Pophale) SiO2 
 PCOD9012798
Probable space group: P -1
;
_chemical_formula_sum "Si O2"
_cell_formula_units_Z 16
_cell_length_a 22.748680
_cell_length_b 19.492100
_cell_length_c 8.016236
_cell_angle_alpha 134.825063
_cell_angle_beta 142.225691
_cell_angle_gamma 20.496790
_cell_volume 751.928666
_symmetry_space_group_name_H-M "P -1"
_symmetry_group_IT_number 2
_symmetry_cell_setting 'triclinic'
loop_
_space_group_symop_operation_xyz
x,y,z
-x,-y,-z
loop_
_atom_site_type_symbol
_atom_site_label
_atom_site_fract_x
_atom_site_fract_y
_atom_site_fract_z
Si Si1 0.858621 0.535073 0.258331
Si Si2 0.436747 0.667378 0.635712
Si Si3 0.150244 0.066996 0.533457
Si Si4 0.173246 0.921840 0.808255
Si Si5 0.457669 0.338322 0.632406
Si Si6 0.073264 0.701887 0.223224
Si Si7 0.211176 0.551899 0.788927
Si Si8 0.527337 0.085134 0.140282
O O1 0.874936 0.469595 0.362055
O O2 0.000000 0.500000 0.500000
O O3 0.634974 0.760409 0.103548
O O4 0.916972 0.411782 0.027819
O O5 0.500000 0.500000 0.500000
O O6 0.313457 0.793719 0.743040
O O7 0.298004 0.844815 0.494505
O O8 0.642230 0.542008 0.898930
O O9 0.053923 0.173586 0.680378
O O10 0.963033 0.220473 0.255833
O O11 0.268411 0.058214 0.726640
O O12 0.044467 0.131808 0.889786
O O13 0.339044 0.781559 0.085395
O O14 0.000000 0.000000 0.500000
O O15 0.340445 0.427217 0.697127
O O16 0.494245 0.199069 0.400318
O O17 0.297650 0.532617 0.487150
O O18 0.500000 0.000000 0.000000
#
# Coordination Sequence:
#
# PCOD9012798 Si02
#       8
#     2   2   2   2   2   2   2   2
#     4  11  23  39  63  93 122 166 209 255 314 369
#     4  10  22  39  60  90 123 159 206 254 314 366
#     4  10  21  41  61  88 123 163 201 258 307 367
#     4  10  22  37  63  90 118 162 208 253 312 364
#     4   9  22  41  59  87 126 162 198 259 308 364
#     4   9  22  41  60  85 127 161 203 254 309 367
#     4  10  21  41  62  85 126 162 204 255 308 367
#     4  11  23  39  62  94 124 162 211 255 313 372
#
# _framework density 21.278613
#
# number of rings (size 3 to 8) (size 9 to 14) (size 15 to 20)
#    0.000    2.000    1.250    0.750    5.250    2.000 
#    0.000    7.500    0.000    0.000    0.000    0.000 
#    0.000    0.000    0.000    0.000    0.000    0.000 
#
# Total GULP energy -89129.087724 kJ/mol
# GULP energy per Si atom -5570.567983 kJ/mol
# Density = 2.123018 g / cm^3
# Si number density = 21.278613 Si / 1000 Ang^3
#
#
#
# Elastic Constant Matrix: (Units=GPa)
#
#
# Indices 1 2 3 4 5 6 
#
# 1 44.8901 16.5919 17.0885 -15.8635 -12.6562 -3.4876
# 2 16.5919 112.1250 47.7245 -32.0155 -8.0618 9.8347
# 3 17.0885 47.7245 105.5335 -33.5151 4.3923 1.8033
# 4 -15.8635 -32.0155 -33.5151 34.0893 2.8507 -2.2954
# 5 -12.6562 -8.0618 4.3923 2.8507 35.4887 -1.3474
# 6 -3.4876 9.8347 1.8033 -2.2954 -1.3474 27.0027
#
#
#
# Elastic Compliance Matrix: (Units=1/GPa)
#
#
# Indices 1 2 3 4 5 6 
#
# 1 0.030525 -0.000171 -0.001574 0.012016 0.010291 0.005645
# 2 -0.000171 0.013357 -0.003261 0.008792 0.002526 -0.003796
# 3 -0.001574 -0.003261 0.014944 0.011284 -0.004030 0.000744
# 4 0.012016 0.008792 0.011284 0.054379 0.000603 0.002249
# 5 0.010291 0.002526 -0.004030 0.000603 0.032962 0.002374
# 6 0.005645 -0.003796 0.000744 0.002249 0.002374 0.039405
#
#
# Mechanical properties :
#
#
# Convention : Reuss Voigt Hill
#
# Bulk Modulus (GPa) = 20.48591 47.26205 33.87398
# Shear Modulus (GPa) = 23.60103 31.39240 27.49671
#
# Velocity S-wave (km/s) = 3.33399 3.84513 3.59865
# Velocity P-wave (km/s) = 4.94662 6.47863 5.76375
#
# Compressibility (1/GPa) = 0.04881405
#
# Stress axis : x y z
#
# Youngs Moduli (GPa) = 32.75950 74.86838 66.91775
#
# Poissons Ratio (x) = 0.01282 0.10534
# Poissons Ratio (y) = 0.00561 0.21820
# Poissons Ratio (z) = 0.05157 0.24412
#
# Static dielectric constant tensor:
#      x y z
#    x 1.826020 0.015200 0.025730 
#    y 0.015200 1.829460 -0.040460 
#    z 0.025730 -0.040460 1.869680 
# 
# From -- ./inp_files/215078.got.cif
#   From: 2010.05.17/outbox.cif.g08.bks.cpg/sg2_108_cif.got.tgz:215078.got - 2010.06.03 11:33:40.
