data_PCOD9012234
_publ_section_title
;
Structure prediction by ZEFSAII (Michael W. Deem and Ramdas Pophale) SiO2 
 PCOD9012234
Probable space group: P -1
;
_chemical_formula_sum "Si O2"
_cell_formula_units_Z 16
_cell_length_a 12.226394
_cell_length_b 7.506632
_cell_length_c 15.750261
_cell_angle_alpha 97.119715
_cell_angle_beta 27.597703
_cell_angle_gamma 115.016605
_cell_volume 486.612835
_symmetry_space_group_name_H-M "P -1"
_symmetry_group_IT_number 2
_symmetry_cell_setting 'triclinic'
loop_
_space_group_symop_operation_xyz
x,y,z
-x,-y,-z
loop_
_atom_site_type_symbol
_atom_site_label
_atom_site_fract_x
_atom_site_fract_y
_atom_site_fract_z
Si Si1 0.998399 0.308455 0.881196
Si Si2 0.914470 0.745245 0.525510
Si Si3 0.859171 0.276214 0.779376
Si Si4 0.228498 0.403666 0.911748
Si Si5 0.331297 0.419831 0.022640
Si Si6 0.647792 0.120805 0.616709
Si Si7 0.196964 0.154796 0.600434
Si Si8 0.384722 0.114798 0.636262
O O1 0.017089 0.272965 0.764408
O O2 0.907613 0.470906 0.966887
O O3 0.667096 0.032728 0.116970
O O4 0.237106 0.391356 0.803227
O O5 0.077779 0.656898 0.361294
O O6 0.036883 0.747307 0.537777
O O7 0.000000 0.000000 0.500000
O O8 0.866193 0.769346 0.445351
O O9 0.803827 0.448404 0.869926
O O10 0.500000 0.000000 0.000000
O O11 0.499591 0.510303 0.812119
O O12 0.965401 0.122193 0.102807
O O13 0.094493 0.130010 0.179979
O O14 0.500000 0.500000 0.000000
O O15 0.591789 0.240154 0.587442
O O16 0.600239 0.906183 0.588402
O O17 0.398645 0.266330 0.560707
O O18 0.500000 0.000000 0.500000
#
# Coordination Sequence:
#
# PCOD9012234 Si02
#       8
#     2   2   2   2   2   2   2   2
#     4   9  22  44  66 100 134 177 234 280 330 397
#     4  10  25  44  67 103 138 177 229 273 344 413
#     4  10  24  46  67 104 133 185 224 284 334 410
#     4   9  22  44  70  98 135 182 224 281 332 402
#     4  10  25  47  67  95 144 179 220 279 348 408
#     4  10  21  40  69 101 139 181 224 281 334 403
#     4   9  22  41  71 101 135 177 229 285 335 390
#     4   9  19  41  70 101 129 175 230 276 328 392
#
# _framework density 32.880352000000002
#
# number of rings (size 3 to 8) (size 9 to 14) (size 15 to 20)
#    1.500    1.000    0.000    0.000    5.250    5.500 
#    9.000    0.000    0.000    0.000    0.000    0.000 
#    0.000    0.000    0.000    0.000    0.000    0.000 
#
# Total GULP energy -89324.844167 kJ/mol
# GULP energy per Si atom -5582.802760 kJ/mol
# Density = 3.280551 g / cm^3
# Si number density = 32.880352 Si / 1000 Ang^3
#
#
#
# Elastic Constant Matrix: (Units=GPa)
#
#
# Indices 1 2 3 4 5 6 
#
# 1 367.5286 96.4234 113.1741 6.6890 13.8153 10.5223
# 2 96.4234 227.8672 107.1008 21.2583 23.5021 -2.0445
# 3 113.1741 107.1008 193.1502 24.2649 45.0296 49.2112
# 4 6.6890 21.2583 24.2649 66.6811 29.2019 7.9053
# 5 13.8153 23.5021 45.0296 29.2019 89.7286 11.3655
# 6 10.5223 -2.0445 49.2112 7.9053 11.3655 117.7764
#
#
#
# Elastic Compliance Matrix: (Units=1/GPa)
#
#
# Indices 1 2 3 4 5 6 
#
# 1 0.003441 -0.000625 -0.001919 0.000308 0.000443 0.000420
# 2 -0.000625 0.006406 -0.003564 -0.001026 0.000327 0.001694
# 3 -0.001919 -0.003564 0.010033 -0.000489 -0.003173 -0.003744
# 4 0.000308 -0.001026 -0.000489 0.017843 -0.005273 -0.000530
# 5 0.000443 0.000327 -0.003173 -0.005273 0.014265 0.000269
# 6 0.000420 0.001694 -0.003744 -0.000530 0.000269 0.010056
#
#
# Mechanical properties :
#
#
# Convention : Reuss Voigt Hill
#
# Bulk Modulus (GPa) = 130.49381 157.99364 144.24372
# Shear Modulus (GPa) = 65.09066 86.29372 75.69219
#
# Velocity S-wave (km/s) = 4.45412 5.12852 4.80317
# Velocity P-wave (km/s) = 8.13793 9.12274 8.64437
#
# Compressibility (1/GPa) = 0.00766320
#
# Stress axis : x y z
#
# Youngs Moduli (GPa) = 290.57176 156.11427 99.67049
#
# Poissons Ratio (x) = 0.09758 0.19127
# Poissons Ratio (y) = 0.18162 0.35526
# Poissons Ratio (z) = 0.55762 0.55645
#
# Static dielectric constant tensor:
#      x y z
#    x -9.797240 4.451520 14.514840 
#    y 4.451520 1.045390 -5.273830 
#    z 14.514840 -5.273830 -14.359310 
# 
# From -- ./inp_files/306750.got.cif
#   From: 2010.05.17/outbox.cif.g08.bks.cpg/sg2_154_cif.got.tgz:306750.got - 2010.06.03 11:33:40.
