data_PCOD9012674
_publ_section_title
;
Structure prediction by ZEFSAII (Michael W. Deem and Ramdas Pophale) SiO2 
 PCOD9012674
Probable space group: P -1
;
_chemical_formula_sum "Si O2"
_cell_formula_units_Z 16
_cell_length_a 20.056681
_cell_length_b 5.223774
_cell_length_c 8.692472
_cell_angle_alpha 56.121178
_cell_angle_beta 61.127189
_cell_angle_gamma 77.594569
_cell_volume 660.259717
_symmetry_space_group_name_H-M "P -1"
_symmetry_group_IT_number 2
_symmetry_cell_setting 'triclinic'
loop_
_space_group_symop_operation_xyz
x,y,z
-x,-y,-z
loop_
_atom_site_type_symbol
_atom_site_label
_atom_site_fract_x
_atom_site_fract_y
_atom_site_fract_z
Si Si1 0.327453 0.507670 0.921963
Si Si2 0.070551 0.330996 0.902933
Si Si3 0.007456 0.177375 0.682138
Si Si4 0.853104 0.112687 0.490109
Si Si5 0.522461 0.219434 0.172524
Si Si6 0.577018 0.321933 0.502120
Si Si7 0.631165 0.143454 0.833094
Si Si8 0.771812 0.451630 0.730075
O O1 0.407646 0.677552 0.831459
O O2 0.346421 0.528071 0.714394
O O3 0.254115 0.646987 0.033633
O O4 0.324309 0.165455 0.112378
O O5 0.049961 0.236735 0.780769
O O6 0.142157 0.583693 0.727264
O O7 0.000000 0.500000 0.000000
O O8 0.069325 0.025017 0.112002
O O9 0.000000 0.500000 0.500000
O O10 0.060051 0.984510 0.577119
O O11 0.823537 0.233577 0.645624
O O12 0.808909 0.801280 0.578794
O O13 0.451638 0.032536 0.391449
O O14 0.500000 0.500000 0.000000
O O15 0.562694 0.026000 0.062139
O O16 0.500000 0.500000 0.500000
O O17 0.598429 0.271694 0.672104
O O18 0.689673 0.406751 0.751236
#
# Coordination Sequence:
#
# PCOD9012674 Si02
#       8
#     2   2   2   2   2   2   2   2
#     4  11  23  41  66  94 134 174 226 290 343 414
#     4   9  20  38  70 106 146 175 225 279 339 389
#     4  10  21  40  74 113 148 176 221 289 348 390
#     4  11  21  43  76  99 135 198 234 271 337 412
#     4  11  21  38  63  96 130 165 216 280 359 424
#     4  12  23  40  69 100 131 167 224 290 368 421
#     4  11  23  42  66  94 136 174 224 290 348 411
#     4  11  24  44  72  90 136 197 237 273 340 407
#
# _framework density 24.232890999999999
#
# number of rings (size 3 to 8) (size 9 to 14) (size 15 to 20)
#    0.000    1.250    5.000    1.500    0.000    2.000 
#    0.000    0.000   16.500    0.000    0.000    0.000 
#    0.000    0.000    0.000    0.000    0.000    0.000 
#
# Total GULP energy -89208.674572 kJ/mol
# GULP energy per Si atom -5575.542161 kJ/mol
# Density = 2.417774 g / cm^3
# Si number density = 24.232891 Si / 1000 Ang^3
#
#
#
# Elastic Constant Matrix: (Units=GPa)
#
#
# Indices 1 2 3 4 5 6 
#
# 1 39.0021 14.9726 51.0732 -7.9652 -12.1185 15.1747
# 2 14.9726 125.1553 70.0965 4.7347 -16.2586 -2.7169
# 3 51.0732 70.0965 185.8996 -10.1291 -7.9380 -5.9308
# 4 -7.9652 4.7347 -10.1291 47.8288 -4.0986 -13.3738
# 5 -12.1185 -16.2586 -7.9380 -4.0986 30.7030 -2.6223
# 6 15.1747 -2.7169 -5.9308 -13.3738 -2.6223 38.4917
#
#
#
# Elastic Compliance Matrix: (Units=1/GPa)
#
#
# Indices 1 2 3 4 5 6 
#
# 1 0.069314 0.005870 -0.021174 0.000454 0.022621 -0.028475
# 2 0.005870 0.011367 -0.005787 -0.001520 0.006424 -0.002494
# 3 -0.021174 -0.005787 0.013542 0.002228 -0.006740 0.010341
# 4 0.000454 -0.001520 0.002228 0.024408 0.003961 0.008807
# 5 0.022621 0.006424 -0.006740 0.003961 0.043244 -0.005181
# 6 -0.028475 -0.002494 0.010341 0.008807 -0.005181 0.041330
#
#
# Mechanical properties :
#
#
# Convention : Reuss Voigt Hill
#
# Bulk Modulus (GPa) = 19.21549 69.14909 44.18229
# Shear Modulus (GPa) = 19.03064 37.66568 28.34816
#
# Velocity S-wave (km/s) = 2.80540 3.94676 3.42398
# Velocity P-wave (km/s) = 4.29423 7.02613 5.82267
#
# Compressibility (1/GPa) = 0.05204134
#
# Stress axis : x y z
#
# Youngs Moduli (GPa) = 14.42705 87.97543 73.84340
#
# Poissons Ratio (x) = -0.51645 1.56359
# Poissons Ratio (y) = -0.08469 0.42733
# Poissons Ratio (z) = 0.30548 0.50911
#
# Static dielectric constant tensor:
#      x y z
#    x 2.172000 -0.090620 -0.124080 
#    y -0.090620 2.203080 0.115270 
#    z -0.124080 0.115270 2.109180 
# 
# From -- ./inp_files/350616.got.cif
#   From: 2010.05.17/outbox.cif.g08.bks.cpg/sg2_176_cif.got.tgz:350616.got - 2010.06.03 11:33:40.
