data_PCOD9012469
_publ_section_title
;
Structure prediction by ZEFSAII (Michael W. Deem and Ramdas Pophale) SiO2 
 PCOD9012469
Probable space group: P -1
;
_chemical_formula_sum "Si O2"
_cell_formula_units_Z 14
_cell_length_a 9.082730
_cell_length_b 7.421123
_cell_length_c 11.605810
_cell_angle_alpha 129.697305
_cell_angle_beta 70.855950
_cell_angle_gamma 115.951455
_cell_volume 539.887406
_symmetry_space_group_name_H-M "P -1"
_symmetry_group_IT_number 2
_symmetry_cell_setting 'triclinic'
loop_
_space_group_symop_operation_xyz
x,y,z
-x,-y,-z
loop_
_atom_site_type_symbol
_atom_site_label
_atom_site_fract_x
_atom_site_fract_y
_atom_site_fract_z
Si Si1 0.194604 0.013701 0.252059
Si Si2 0.561772 0.559700 0.882339
Si Si3 0.252611 0.590809 0.405994
Si Si4 0.148666 0.017522 0.633820
Si Si5 0.167845 0.990138 0.895010
Si Si6 0.562579 0.772541 0.538520
Si Si7 0.670704 0.218758 0.072901
O O1 0.210470 0.298582 0.325405
O O2 0.354322 0.053705 0.305986
O O3 0.206182 0.823883 0.072715
O O4 0.018733 0.918871 0.318813
O O5 0.653538 0.389324 0.730737
O O6 0.500000 0.500000 0.000000
O O7 0.408218 0.566733 0.846631
O O8 0.702275 0.813056 0.978276
O O9 0.392820 0.771092 0.524905
O O10 0.116928 0.725574 0.495100
O O11 0.293516 0.158191 0.566417
O O12 0.172025 0.040272 0.777890
O O13 0.232454 0.761546 0.823096
O O14 0.000000 0.000000 0.000000
O O15 0.500000 0.500000 0.500000
O O16 0.500000 0.000000 0.000000
#
# Coordination Sequence:
#
# PCOD9012469 Si02
#       7
#     2   2   2   2   2   2   2
#     4  11  22  43  66 100 139 182 224 290 356 411
#     4  11  24  42  67  97 137 183 239 281 338 422
#     4  11  23  41  64 103 135 178 232 283 353 413
#     4  12  24  41  70 104 139 179 232 293 352 415
#     4  11  22  43  69  99 137 181 229 287 350 418
#     4  10  25  42  67  96 138 182 234 285 345 417
#     4  10  21  40  70  91 137 185 231 271 353 404
#
# _framework density 25.931334
#
# number of rings (size 3 to 8) (size 9 to 14) (size 15 to 20)
#    0.000    1.143    4.286    2.143    6.000    1.143 
#    0.000    0.714    0.000    0.000    0.000    0.000 
#    0.000    0.000    0.000    0.000    0.000    0.000 
#
# Total GULP energy -78099.656563 kJ/mol
# GULP energy per Si atom -5578.546897 kJ/mol
# Density = 2.587231 g / cm^3
# Si number density = 25.931334 Si / 1000 Ang^3
#
#
#
# Elastic Constant Matrix: (Units=GPa)
#
#
# Indices 1 2 3 4 5 6 
#
# 1 86.7661 15.5123 9.3648 -8.3656 -4.1773 9.1899
# 2 15.5123 91.6677 13.4240 -24.1351 -8.5427 -2.3237
# 3 9.3648 13.4240 119.4305 -17.2000 -7.4528 2.2868
# 4 -8.3656 -24.1351 -17.2000 39.5028 1.9593 -6.7568
# 5 -4.1773 -8.5427 -7.4528 1.9593 51.1950 -14.3361
# 6 9.1899 -2.3237 2.2868 -6.7568 -14.3361 21.5726
#
#
#
# Elastic Compliance Matrix: (Units=1/GPa)
#
#
# Indices 1 2 3 4 5 6 
#
# 1 0.012629 -0.002340 -0.000696 -0.000095 -0.001256 -0.006423
# 2 -0.002340 0.014412 0.000040 0.009541 0.004182 0.008313
# 3 -0.000696 0.000040 0.009071 0.004030 0.001578 0.001650
# 4 -0.000095 0.009541 0.004030 0.035196 0.005026 0.015005
# 5 -0.001256 0.004182 0.001578 0.005026 0.025600 0.019405
# 6 -0.006423 0.008313 0.001650 0.015005 0.019405 0.067407
#
#
# Mechanical properties :
#
#
# Convention : Reuss Voigt Hill
#
# Bulk Modulus (GPa) = 33.20269 41.60741 37.40505
# Shear Modulus (GPa) = 27.72425 39.75829 33.74127
#
# Velocity S-wave (km/s) = 3.27332 3.91988 3.61110
# Velocity P-wave (km/s) = 5.20750 6.04709 5.64293
#
# Compressibility (1/GPa) = 0.03011804
#
# Stress axis : x y z
#
# Youngs Moduli (GPa) = 79.18014 69.38777 110.24733
#
# Poissons Ratio (x) = 0.16237 0.07677
# Poissons Ratio (y) = 0.18528 -0.00436
# Poissons Ratio (z) = 0.05514 -0.00274
#
# Static dielectric constant tensor:
#      x y z
#    x 2.121700 -0.079910 -0.036710 
#    y -0.079910 1.065420 -0.120760 
#    z -0.036710 -0.120760 1.999050 
# 
# From -- ./inp_files/383471.got.cif
#   From: 2010.05.17/outbox.cif.g08.bks.cpg/sg2_192_cif.got.tgz:383471.got - 2010.06.03 11:33:40.
