data_PCOD9012961
_publ_section_title
;
Structure prediction by ZEFSAII (Michael W. Deem and Ramdas Pophale) SiO2 
 PCOD9012961
Probable space group: P -1
;
_chemical_formula_sum "Si O2"
_cell_formula_units_Z 14
_cell_length_a 7.901554
_cell_length_b 6.465627
_cell_length_c 15.904320
_cell_angle_alpha 87.250612
_cell_angle_beta 133.758704
_cell_angle_gamma 92.308326
_cell_volume 586.151555
_symmetry_space_group_name_H-M "P -1"
_symmetry_group_IT_number 2
_symmetry_cell_setting 'triclinic'
loop_
_space_group_symop_operation_xyz
x,y,z
-x,-y,-z
loop_
_atom_site_type_symbol
_atom_site_label
_atom_site_fract_x
_atom_site_fract_y
_atom_site_fract_z
Si Si1 0.279318 0.291131 0.665977
Si Si2 0.816270 0.252938 0.431512
Si Si3 0.802272 0.626705 0.185326
Si Si4 0.703837 0.338727 0.584056
Si Si5 0.970036 0.812839 0.927288
Si Si6 0.691474 0.557301 0.968321
Si Si7 0.611233 0.044868 0.702755
O O1 0.225481 0.535256 0.636686
O O2 0.238378 0.224073 0.750201
O O3 0.546041 0.245895 0.732552
O O4 0.095212 0.208732 0.531980
O O5 0.776342 0.285439 0.516199
O O6 0.607119 0.097974 0.339934
O O7 0.774912 0.686039 0.076999
O O8 0.071083 0.564803 0.292411
O O9 0.588165 0.464233 0.124746
O O10 0.500000 0.500000 0.500000
O O11 0.622384 0.137952 0.612087
O O12 0.192032 0.672194 0.983012
O O13 0.842789 0.918943 0.803185
O O14 0.789360 0.659702 0.915998
O O15 0.000000 0.000000 0.000000
#
# Coordination Sequence:
#
# PCOD9012961 Si02
#       7
#     2   2   2   2   2   2   2
#     4  10  21  41  62  91 132 167 212 262 315 377
#     4  10  22  40  61  91 129 174 210 258 318 378
#     4  10  22  42  68  90 127 175 209 259 325 378
#     4  11  23  41  64  93 133 170 209 269 319 375
#     4  11  24  42  69  97 125 164 215 272 322 378
#     4  10  23  46  67  94 128 168 216 264 326 382
#     4  12  23  39  66  96 125 170 218 261 321 387
#
# _framework density 23.884609000000001
#
# number of rings (size 3 to 8) (size 9 to 14) (size 15 to 20)
#    0.000    1.429    1.429    3.429    2.000    2.286 
#    2.571   17.143    0.000    0.000    0.000    0.000 
#    0.000    0.000    0.000    0.000    0.000    0.000 
#
# Total GULP energy -78082.067602 kJ/mol
# GULP energy per Si atom -5577.290543 kJ/mol
# Density = 2.383025 g / cm^3
# Si number density = 23.884609 Si / 1000 Ang^3
#
#
#
# Elastic Constant Matrix: (Units=GPa)
#
#
# Indices 1 2 3 4 5 6 
#
# 1 75.7179 6.4479 14.7866 -11.3546 1.3575 6.8450
# 2 6.4479 70.9416 23.0395 -15.5291 12.7614 9.5493
# 3 14.7866 23.0395 108.4361 -12.8121 7.2470 -3.2229
# 4 -11.3546 -15.5291 -12.8121 30.0707 5.8695 -3.2936
# 5 1.3575 12.7614 7.2470 5.8695 46.6653 2.1405
# 6 6.8450 9.5493 -3.2229 -3.2936 2.1405 24.6055
#
#
#
# Elastic Compliance Matrix: (Units=1/GPa)
#
#
# Indices 1 2 3 4 5 6 
#
# 1 0.014574 0.001011 -0.001660 0.005066 -0.000901 -0.003908
# 2 0.001011 0.018812 -0.002846 0.009299 -0.005616 -0.006222
# 3 -0.001660 -0.002846 0.010611 0.003074 -0.001368 0.003486
# 4 0.005066 0.009299 0.003074 0.043186 -0.008688 0.001921
# 5 -0.000901 -0.005616 -0.001368 -0.008688 0.024344 -0.001030
# 6 -0.003908 -0.006222 0.003486 0.001921 -0.001030 0.044946
#
#
# Mechanical properties :
#
#
# Convention : Reuss Voigt Hill
#
# Bulk Modulus (GPa) = 27.02055 38.18263 32.60159
# Shear Modulus (GPa) = 28.44194 34.32305 31.38250
#
# Velocity S-wave (km/s) = 3.45455 3.79494 3.62874
# Velocity P-wave (km/s) = 5.22010 5.93490 5.58894
#
# Compressibility (1/GPa) = 0.03700887
#
# Stress axis : x y z
#
# Youngs Moduli (GPa) = 68.61531 53.15863 94.24025
#
# Poissons Ratio (x) = -0.05376 0.15640
# Poissons Ratio (y) = -0.06940 0.26818
# Poissons Ratio (z) = 0.11387 0.15128
#
# Static dielectric constant tensor:
#      x y z
#    x 1.920120 0.017510 0.110350 
#    y 0.017510 2.025250 0.147630 
#    z 0.110350 0.147630 2.213250 
# 
# From -- ./inp_files/229565.got.cif
#   From: 2010.05.17/outbox.cif.g08.bks.cpg/sg2_115_cif.got.tgz:229565.got - 2010.06.03 11:33:40.
