data_PCOD9012742
_publ_section_title
;
Structure prediction by ZEFSAII (Michael W. Deem and Ramdas Pophale) SiO2 
 PCOD9012742
Probable space group: P -1
;
_chemical_formula_sum "Si O2"
_cell_formula_units_Z 16
_cell_length_a 22.505549
_cell_length_b 5.583520
_cell_length_c 9.015331
_cell_angle_alpha 123.552239
_cell_angle_beta 134.641974
_cell_angle_gamma 60.912601
_cell_volume 662.551057
_symmetry_space_group_name_H-M "P -1"
_symmetry_group_IT_number 2
_symmetry_cell_setting 'triclinic'
loop_
_space_group_symop_operation_xyz
x,y,z
-x,-y,-z
loop_
_atom_site_type_symbol
_atom_site_label
_atom_site_fract_x
_atom_site_fract_y
_atom_site_fract_z
Si Si1 0.975194 0.713347 0.169122
Si Si2 0.919562 0.399121 0.245712
Si Si3 0.540442 0.918395 0.200094
Si Si4 0.742649 0.048451 0.892845
Si Si5 0.155531 0.687366 0.629655
Si Si6 0.660010 0.359442 0.608409
Si Si7 0.418790 0.981862 0.253429
Si Si8 0.709305 0.520487 0.455062
O O1 0.062456 0.757596 0.420652
O O2 0.924363 0.536812 0.137115
O O3 0.933336 0.039857 0.151113
O O4 0.000000 0.500000 0.000000
O O5 0.850179 0.494310 0.288953
O O6 0.000000 0.500000 0.500000
O O7 0.622831 0.673003 0.278340
O O8 0.579839 0.192460 0.428436
O O9 0.461651 0.852560 0.135722
O O10 0.500000 0.000000 0.000000
O O11 0.742018 0.245460 0.812502
O O12 0.651365 0.176899 0.849801
O O13 0.740728 0.744583 0.704294
O O14 0.805536 0.047996 0.138860
O O15 0.219629 0.562387 0.570844
O O16 0.629005 0.687006 0.718758
O O17 0.684747 0.297179 0.457528
O O18 0.500000 0.000000 0.500000
#
# Coordination Sequence:
#
# PCOD9012742 Si02
#       8
#     2   2   2   2   2   2   2   2
#     4  11  25  50  82 116 149 195 243 294 366 450
#     4  10  23  50  76 114 147 194 244 288 363 450
#     4  11  24  37  60  92 124 174 238 293 343 416
#     4  10  24  43  62  96 132 177 235 282 364 405
#     4  11  25  44  71 101 144 180 228 299 348 437
#     4  10  21  41  60  85 125 175 234 278 357 405
#     4  11  20  40  63  83 125 177 231 293 336 420
#     4  10  24  45  58 100 134 177 235 286 359 412
#
# _framework density 24.149082
#
# number of rings (size 3 to 8) (size 9 to 14) (size 15 to 20)
#    0.000    1.500    3.750    2.250    5.250    1.500 
#   24.750    0.000    0.000    0.000    0.000    0.000 
#    0.000    0.000    0.000    0.000    0.000    0.000 
#
# Total GULP energy -89176.158014 kJ/mol
# GULP energy per Si atom -5573.509876 kJ/mol
# Density = 2.409412 g / cm^3
# Si number density = 24.149082 Si / 1000 Ang^3
#
#
#
# Elastic Constant Matrix: (Units=GPa)
#
#
# Indices 1 2 3 4 5 6 
#
# 1 211.9673 53.9820 29.7709 -13.2282 -26.0803 -11.7708
# 2 53.9820 87.9534 24.1885 -12.5140 -3.6918 -3.1248
# 3 29.7709 24.1885 143.9481 -15.5006 -11.9880 -7.0315
# 4 -13.2282 -12.5140 -15.5006 32.2029 7.8437 -3.6506
# 5 -26.0803 -3.6918 -11.9880 7.8437 19.5371 1.2323
# 6 -11.7708 -3.1248 -7.0315 -3.6506 1.2323 32.7017
#
#
#
# Elastic Compliance Matrix: (Units=1/GPa)
#
#
# Indices 1 2 3 4 5 6 
#
# 1 0.006795 -0.003828 -0.000038 -0.000582 0.008451 0.001688
# 2 -0.003828 0.014611 -0.001576 0.004661 -0.005213 0.000396
# 3 -0.000038 -0.001576 0.007853 0.002526 0.003349 0.001680
# 4 -0.000582 0.004661 0.002526 0.037852 -0.013891 0.005528
# 5 0.008451 -0.005213 0.003349 -0.013891 0.069170 -0.000893
# 6 0.001688 0.000396 0.001680 0.005528 -0.000893 0.032237
#
#
# Mechanical properties :
#
#
# Convention : Reuss Voigt Hill
#
# Bulk Modulus (GPa) = 54.42662 73.30572 63.86617
# Shear Modulus (GPa) = 26.95010 39.28349 33.11680
#
# Velocity S-wave (km/s) = 3.34427 4.03762 3.70719
# Velocity P-wave (km/s) = 6.12363 7.22204 6.69540
#
# Compressibility (1/GPa) = 0.01837336
#
# Stress axis : x y z
#
# Youngs Moduli (GPa) = 147.16005 68.44070 127.34337
#
# Poissons Ratio (x) = 0.26200 0.00490
# Poissons Ratio (y) = 0.56335 0.20074
# Poissons Ratio (z) = 0.00566 0.10789
#
# Static dielectric constant tensor:
#      x y z
#    x 2.078550 0.112270 0.083140 
#    y 0.112270 2.036100 0.010030 
#    z 0.083140 0.010030 1.967410 
# 
# From -- ./inp_files/340704.got.cif
#   From: 2010.05.17/outbox.cif.g08.bks.cpg/sg2_171_cif.got.tgz:340704.got - 2010.06.03 11:33:40.
