data_PCOD9012131
_publ_section_title
;
Structure prediction by ZEFSAII (Michael W. Deem and Ramdas Pophale) SiO2 
 PCOD9012131
Probable space group: P -1
;
_chemical_formula_sum "Si O2"
_cell_formula_units_Z 16
_cell_length_a 12.598895
_cell_length_b 11.030220
_cell_length_c 8.574277
_cell_angle_alpha 111.953477
_cell_angle_beta 101.497720
_cell_angle_gamma 132.252798
_cell_volume 617.038039
_symmetry_space_group_name_H-M "P -1"
_symmetry_group_IT_number 2
_symmetry_cell_setting 'triclinic'
loop_
_space_group_symop_operation_xyz
x,y,z
-x,-y,-z
loop_
_atom_site_type_symbol
_atom_site_label
_atom_site_fract_x
_atom_site_fract_y
_atom_site_fract_z
Si Si1 0.179591 0.888783 0.071259
Si Si2 0.485658 0.731206 0.464226
Si Si3 0.720021 0.522033 0.027017
Si Si4 0.134241 0.250548 0.214832
Si Si5 0.910828 0.483515 0.230521
Si Si6 0.919460 0.980506 0.312017
Si Si7 0.609005 0.856212 0.065408
Si Si8 0.296870 0.772881 0.630214
O O1 0.290751 0.055375 0.332474
O O2 0.305526 0.063178 0.044145
O O3 0.968271 0.729408 0.892935
O O4 0.170062 0.723513 0.982726
O O5 0.418081 0.676202 0.240197
O O6 0.413238 0.782495 0.571229
O O7 0.357536 0.482895 0.367245
O O8 0.583343 0.409725 0.081455
O O9 0.876065 0.574905 0.158407
O O10 0.804624 0.741392 0.095833
O O11 0.085396 0.200816 0.358755
O O12 0.000000 0.000000 0.000000
O O13 0.802407 0.384587 0.318780
O O14 0.126556 0.662665 0.423121
O O15 0.769357 0.947876 0.262761
O O16 0.000000 0.000000 0.500000
O O17 0.584386 0.984290 0.160209
#
# Coordination Sequence:
#
# PCOD9012131 Si02
#       8
#     2   2   2   2   2   2   2   2
#     4  10  23  43  70  95 125 177 218 266 320 381
#     4  12  25  42  67  99 133 174 209 266 336 382
#     4  12  25  41  61 101 135 166 212 270 328 384
#     4  11  24  48  65  95 134 169 223 261 318 402
#     4  10  21  40  68  97 128 165 224 268 315 385
#     4  11  25  43  68  94 126 174 217 270 325 372
#     4  10  23  43  64  96 130 165 225 267 311 392
#     4  10  21  41  70  96 124 175 216 266 326 378
#
# _framework density 25.930330000000001
#
# number of rings (size 3 to 8) (size 9 to 14) (size 15 to 20)
#    0.000    1.250    2.500    2.625    5.250    6.000 
#    2.250    0.000    0.000    0.000    0.000    0.000 
#    0.000    0.000    0.000    0.000    0.000    0.000 
#
# Total GULP energy -89624.942276 kJ/mol
# GULP energy per Si atom -5601.558892 kJ/mol
# Density = 2.587131 g / cm^3
# Si number density = 25.930330 Si / 1000 Ang^3
#
#
#
# Elastic Constant Matrix: (Units=GPa)
#
#
# Indices 1 2 3 4 5 6 
#
# 1 48.0678 14.5790 8.3432 -10.5424 -0.4260 -18.9453
# 2 14.5790 84.6706 6.5950 9.2290 10.5543 -10.2368
# 3 8.3432 6.5950 131.2980 -8.4757 16.3882 -10.2434
# 4 -10.5424 9.2290 -8.4757 29.3889 -9.1338 5.0610
# 5 -0.4260 10.5543 16.3882 -9.1338 41.5022 3.6590
# 6 -18.9453 -10.2368 -10.2434 5.0610 3.6590 36.6995
#
#
#
# Elastic Compliance Matrix: (Units=1/GPa)
#
#
# Indices 1 2 3 4 5 6 
#
# 1 0.029597 -0.005239 -0.000372 0.011100 0.003180 0.011866
# 2 -0.005239 0.014852 0.000026 -0.009004 -0.006113 0.003297
# 3 -0.000372 0.000026 0.008287 0.000816 -0.003310 0.002346
# 4 0.011100 -0.009004 0.000816 0.045658 0.012491 -0.004096
# 5 0.003180 -0.006113 -0.003310 0.012491 0.030243 -0.005726
# 6 0.011866 0.003297 0.002346 -0.004096 -0.005726 0.036084
#
#
# Mechanical properties :
#
#
# Convention : Reuss Voigt Hill
#
# Bulk Modulus (GPa) = 24.05773 35.89677 29.97725
# Shear Modulus (GPa) = 26.35082 37.15274 31.75178
#
# Velocity S-wave (km/s) = 3.19127 3.78933 3.50309
# Velocity P-wave (km/s) = 4.78298 5.74621 5.28658
#
# Compressibility (1/GPa) = 0.04156667
#
# Stress axis : x y z
#
# Youngs Moduli (GPa) = 33.78746 67.32880 120.66443
#
# Poissons Ratio (x) = 0.35272 0.04491
# Poissons Ratio (y) = 0.17700 -0.00312
# Poissons Ratio (z) = 0.01258 -0.00174
#
# Static dielectric constant tensor:
#      x y z
#    x 2.068830 0.020700 -0.075180 
#    y 0.020700 2.017860 -0.004400 
#    z -0.075180 -0.004400 2.105960 
# 
# From -- ./inp_files/216716.got.cif
#   From: 2010.05.17/outbox.cif.g08.bks.cpg/sg2_109_cif.got.tgz:216716.got - 2010.06.03 11:33:40.
