data_PCOD9012550
_publ_section_title
;
Structure prediction by ZEFSAII (Michael W. Deem and Ramdas Pophale) SiO2 
 PCOD9012550
Probable space group: P -1
;
_chemical_formula_sum "Si O2"
_cell_formula_units_Z 14
_cell_length_a 8.769663
_cell_length_b 8.976582
_cell_length_c 10.691841
_cell_angle_alpha 76.245484
_cell_angle_beta 125.374167
_cell_angle_gamma 114.105753
_cell_volume 626.444916
_symmetry_space_group_name_H-M "P -1"
_symmetry_group_IT_number 2
_symmetry_cell_setting 'triclinic'
loop_
_space_group_symop_operation_xyz
x,y,z
-x,-y,-z
loop_
_atom_site_type_symbol
_atom_site_label
_atom_site_fract_x
_atom_site_fract_y
_atom_site_fract_z
Si Si1 0.463495 0.369917 0.647035
Si Si2 0.384502 0.859424 0.376639
Si Si3 0.360653 0.253203 0.891780
Si Si4 0.216142 0.591547 0.530196
Si Si5 0.756335 0.436965 0.181173
Si Si6 0.075219 0.404820 0.159826
Si Si7 0.150891 0.933818 0.011846
O O1 0.473088 0.242308 0.572803
O O2 0.376538 0.260371 0.749290
O O3 0.319380 0.473387 0.541739
O O4 0.686726 0.502411 0.743029
O O5 0.219207 0.734540 0.410943
O O6 0.288876 0.895380 0.194493
O O7 0.500000 0.000000 0.500000
O O8 0.245481 0.377677 0.851987
O O9 0.586835 0.340564 0.024280
O O10 0.275425 0.077756 0.949535
O O11 0.322778 0.645062 0.705028
O O12 0.000000 0.500000 0.500000
O O13 0.960345 0.422727 0.228598
O O14 0.983856 0.219873 0.103619
O O15 0.000000 0.500000 0.000000
O O16 0.000000 0.000000 0.000000
#
# Coordination Sequence:
#
# PCOD9012550 Si02
#       7
#     2   2   2   2   2   2   2
#     4  11  25  46  75 104 137 188 244 288 356 424
#     4  12  27  47  68 105 148 187 232 291 356 423
#     4  10  22  41  70 103 137 179 234 298 346 409
#     4  11  26  45  71  97 140 191 238 285 348 437
#     4  10  21  40  71 100 138 180 238 285 355 413
#     4  12  22  43  73 106 139 183 237 297 353 422
#     4  12  28  42  72 105 148 182 239 295 355 411
#
# _framework density 22.348334999999999
#
# number of rings (size 3 to 8) (size 9 to 14) (size 15 to 20)
#    0.000    0.857    2.857    3.000   10.000    3.429 
#    0.000    0.714    0.000    0.000    0.000    0.000 
#    0.000    0.000    0.000    0.000    0.000    0.000 
#
# Total GULP energy -78230.671811 kJ/mol
# GULP energy per Si atom -5587.905129 kJ/mol
# Density = 2.229747 g / cm^3
# Si number density = 22.348335 Si / 1000 Ang^3
#
#
#
# Elastic Constant Matrix: (Units=GPa)
#
#
# Indices 1 2 3 4 5 6 
#
# 1 144.4709 76.6259 37.4444 8.7153 7.9535 -1.1310
# 2 76.6259 165.4230 54.8216 5.8256 -19.8935 13.7183
# 3 37.4444 54.8216 88.1186 -8.0437 -5.4880 8.3759
# 4 8.7153 5.8256 -8.0437 47.5281 8.2032 -18.4389
# 5 7.9535 -19.8935 -5.4880 8.2032 46.2666 -4.4750
# 6 -1.1310 13.7183 8.3759 -18.4389 -4.4750 34.3823
#
#
#
# Elastic Compliance Matrix: (Units=1/GPa)
#
#
# Indices 1 2 3 4 5 6 
#
# 1 0.010119 -0.004706 -0.001817 -0.000124 -0.003754 0.002098
# 2 -0.004706 0.010822 -0.004309 -0.003982 0.005185 -0.004884
# 3 -0.001817 -0.004309 0.015111 0.003384 -0.000373 -0.000255
# 4 -0.000124 -0.003982 0.003384 0.029068 -0.004924 0.015708
# 5 -0.003754 0.005185 -0.000373 -0.004924 0.025176 -0.001465
# 6 0.002098 -0.004884 -0.000255 0.015708 -0.001465 0.039398
#
#
# Mechanical properties :
#
#
# Convention : Reuss Voigt Hill
#
# Bulk Modulus (GPa) = 69.50191 81.75516 75.62853
# Shear Modulus (GPa) = 32.01950 40.91011 36.46481
#
# Velocity S-wave (km/s) = 3.78927 4.28315 4.04376
# Velocity P-wave (km/s) = 7.09307 7.81807 7.46438
#
# Compressibility (1/GPa) = 0.01438809
#
# Stress axis : x y z
#
# Youngs Moduli (GPa) = 98.81922 92.40381 66.17634
#
# Poissons Ratio (x) = 0.43490 0.12022
# Poissons Ratio (y) = 0.46509 0.28517
# Poissons Ratio (z) = 0.17951 0.39819
#
# Static dielectric constant tensor:
#      x y z
#    x 1.836100 -0.009270 -0.042730 
#    y -0.009270 1.885860 0.057590 
#    z -0.042730 0.057590 2.109800 
# 
# From -- ./inp_files/382068.got.cif
#   From: 2010.05.17/outbox.cif.g08.bks.cpg/sg2_192_cif.got.tgz:382068.got - 2010.06.03 11:33:40.
