data_PCOD9012422
_publ_section_title
;
Structure prediction by ZEFSAII (Michael W. Deem and Ramdas Pophale) SiO2 
 PCOD9012422
Probable space group: P -1
;
_chemical_formula_sum "Si O2"
_cell_formula_units_Z 13
_cell_length_a 5.265230
_cell_length_b 7.815136
_cell_length_c 13.511152
_cell_angle_alpha 78.136997
_cell_angle_beta 61.655581
_cell_angle_gamma 79.382287
_cell_volume 476.428387
_symmetry_space_group_name_H-M "P -1"
_symmetry_group_IT_number 2
_symmetry_cell_setting 'triclinic'
loop_
_space_group_symop_operation_xyz
x,y,z
-x,-y,-z
loop_
_atom_site_type_symbol
_atom_site_label
_atom_site_fract_x
_atom_site_fract_y
_atom_site_fract_z
Si Si1 0.291446 0.580338 0.903566
Si Si2 0.763876 0.258481 0.912500
Si Si3 0.835864 0.488808 0.271926
Si Si4 0.918160 0.078391 0.724793
Si Si5 0.242338 0.638364 0.432900
Si Si6 0.500000 0.000000 0.500000
Si Si7 0.845110 0.789691 0.626219
O O1 0.529393 0.416947 0.900906
O O2 0.262937 0.627237 0.787736
O O3 0.301471 0.742232 0.958670
O O4 0.000000 0.500000 0.000000
O O5 0.803988 0.086815 0.857348
O O6 0.063315 0.340097 0.819469
O O7 0.563769 0.545739 0.383871
O O8 0.090805 0.384967 0.299950
O O9 0.800538 0.263037 0.674776
O O10 0.252782 0.047433 0.632207
O O11 0.778924 0.934195 0.703355
O O12 0.000000 0.500000 0.500000
O O13 0.173751 0.788023 0.514379
O O14 0.341914 0.162098 0.440812
#
# Coordination Sequence:
#
# PCOD9012422 Si02
#       7
#     2   2   2   2   2   1   2
#     4   9  20  40  69 100 130 160 230 282 333 388
#     4  10  21  40  70 101 126 175 219 279 336 392
#     4  11  23  40  68  98 133 172 228 281 325 386
#     4  11  24  40  65  93 135 180 215 266 338 397
#     4  11  23  41  63  96 132 179 226 273 322 393
#     4  10  24  40  58  84 138 176 216 248 330 390
#     4  11  26  40  61  95 136 176 219 271 325 400
#
# _framework density 27.286366000000001
#
# number of rings (size 3 to 8) (size 9 to 14) (size 15 to 20)
#    0.000    1.538    1.538    3.231    8.615    0.000 
#    0.000    0.769    0.000    9.231    0.000    0.000 
#    0.000    0.000    0.000    0.000    0.000    0.000 
#
# Total GULP energy -72480.643428 kJ/mol
# GULP energy per Si atom -5575.434110 kJ/mol
# Density = 2.722426 g / cm^3
# Si number density = 27.286366 Si / 1000 Ang^3
#
#
#
# Elastic Constant Matrix: (Units=GPa)
#
#
# Indices 1 2 3 4 5 6 
#
# 1 99.1994 31.4200 40.6458 17.3187 6.7989 -30.1411
# 2 31.4200 99.7783 38.7803 28.7688 13.0466 -10.2389
# 3 40.6458 38.7803 159.8928 54.6582 27.2053 3.5071
# 4 17.3187 28.7688 54.6582 62.7087 13.0329 10.5579
# 5 6.7989 13.0466 27.2053 13.0329 58.6357 8.7171
# 6 -30.1411 -10.2389 3.5071 10.5579 8.7171 41.3024
#
#
#
# Elastic Compliance Matrix: (Units=1/GPa)
#
#
# Indices 1 2 3 4 5 6 
#
# 1 0.016256 -0.001633 -0.002642 -0.003293 -0.001472 0.012835
# 2 -0.001633 0.012909 -0.000767 -0.005067 -0.001757 0.003739
# 3 -0.002642 -0.000767 0.009921 -0.006938 -0.002486 -0.000662
# 4 -0.003293 -0.005067 -0.006938 0.026859 0.000243 -0.009987
# 5 -0.001472 -0.001757 -0.002486 0.000243 0.019530 -0.005483
# 6 0.012835 0.003739 -0.000662 -0.009987 -0.005483 0.038271
#
#
# Mechanical properties :
#
#
# Convention : Reuss Voigt Hill
#
# Bulk Modulus (GPa) = 34.47987 64.50696 49.49342
# Shear Modulus (GPa) = 34.84393 49.06433 41.95413
#
# Velocity S-wave (km/s) = 3.57735 4.24503 3.92541
# Velocity P-wave (km/s) = 5.45225 6.90790 6.22278
#
# Compressibility (1/GPa) = 0.02900243
#
# Stress axis : x y z
#
# Youngs Moduli (GPa) = 61.51594 77.46525 100.79911
#
# Poissons Ratio (x) = 0.12653 0.26628
# Poissons Ratio (y) = 0.10048 0.07727
# Poissons Ratio (z) = 0.16251 0.05938
#
# Static dielectric constant tensor:
#      x y z
#    x 2.215240 0.118470 0.058900 
#    y 0.118470 2.174320 0.101080 
#    z 0.058900 0.101080 2.155250 
# 
# From -- ./inp_files/478464.got.cif
#   From: 2010.05.17/outbox.cif.g08.bks.cpg/sg2_240_cif.got.tgz:478464.got - 2010.06.03 11:33:40.
