data_PCOD9012392
_publ_section_title
;
Structure prediction by ZEFSAII (Michael W. Deem and Ramdas Pophale) SiO2 
 PCOD9012392
Probable space group: P -1
;
_chemical_formula_sum "Si O2"
_cell_formula_units_Z 16
_cell_length_a 13.021688
_cell_length_b 14.199529
_cell_length_c 9.668881
_cell_angle_alpha 76.155729
_cell_angle_beta 58.126360
_cell_angle_gamma 125.550641
_cell_volume 756.234405
_symmetry_space_group_name_H-M "P -1"
_symmetry_group_IT_number 2
_symmetry_cell_setting 'triclinic'
loop_
_space_group_symop_operation_xyz
x,y,z
-x,-y,-z
loop_
_atom_site_type_symbol
_atom_site_label
_atom_site_fract_x
_atom_site_fract_y
_atom_site_fract_z
Si Si1 0.360589 0.227446 0.747398
Si Si2 0.923679 0.203921 0.672649
Si Si3 0.875307 0.645043 0.237733
Si Si4 0.922554 0.055248 0.198868
Si Si5 0.557560 0.170891 0.772237
Si Si6 0.016888 0.506459 0.820745
Si Si7 0.185622 0.042341 0.377014
Si Si8 0.280018 0.607843 0.160086
O O1 0.595994 0.451901 0.484252
O O2 0.432733 0.183971 0.802013
O O3 0.269491 0.126833 0.700004
O O4 0.152831 0.145080 0.994277
O O5 0.059251 0.263644 0.693400
O O6 0.084795 0.397132 0.422959
O O7 0.880158 0.089835 0.633029
O O8 0.659844 0.049867 0.966004
O O9 0.953280 0.586399 0.206290
O O10 0.006046 0.794168 0.974097
O O11 0.838762 0.008117 0.430189
O O12 0.749129 0.278771 0.481199
O O13 0.693869 0.294393 0.771403
O O14 0.801867 0.402674 0.922895
O O15 0.000000 0.500000 0.000000
O O16 0.459064 0.258419 0.083256
O O17 0.000000 0.000000 0.500000
#
# Coordination Sequence:
#
# PCOD9012392 Si02
#       8
#     2   2   2   2   2   2   2   2
#     4  10  21  40  69  98 135 176 214 281 333 402
#     4  11  23  43  71  98 129 181 228 267 332 410
#     4  11  24  43  69  96 132 176 229 270 337 404
#     4  11  23  41  68  98 136 176 226 269 342 390
#     4  10  21  44  69  96 135 173 225 272 339 400
#     4  11  26  44  70  97 139 174 224 289 336 388
#     4  11  28  45  67 102 143 173 223 280 333 396
#     4  11  24  46  68  95 137 183 223 275 340 395
#
# _framework density 21.157463
#
# number of rings (size 3 to 8) (size 9 to 14) (size 15 to 20)
#    0.000    1.250    3.750    2.250    7.000    1.000 
#    2.250    1.250    0.000    0.000    0.000    0.000 
#    0.000    0.000    0.000    0.000    0.000    0.000 
#
# Total GULP energy -89488.150715 kJ/mol
# GULP energy per Si atom -5593.009420 kJ/mol
# Density = 2.110931 g / cm^3
# Si number density = 21.157463 Si / 1000 Ang^3
#
#
#
# Elastic Constant Matrix: (Units=GPa)
#
#
# Indices 1 2 3 4 5 6 
#
# 1 92.9723 19.4074 46.3132 -6.0986 -5.4822 17.4363
# 2 19.4074 104.3421 82.9508 -5.6851 1.1334 25.1386
# 3 46.3132 82.9508 166.5386 -12.3149 6.4655 21.2174
# 4 -6.0986 -5.6851 -12.3149 44.7279 8.7132 4.9829
# 5 -5.4822 1.1334 6.4655 8.7132 32.9498 0.7637
# 6 17.4363 25.1386 21.2174 4.9829 0.7637 30.7882
#
#
#
# Elastic Compliance Matrix: (Units=1/GPa)
#
#
# Indices 1 2 3 4 5 6 
#
# 1 0.013977 0.002608 -0.004258 0.001326 0.002892 -0.007398
# 2 0.002608 0.018604 -0.008542 0.001330 0.001374 -0.011031
# 3 -0.004258 -0.008542 0.011570 0.002022 -0.003247 0.001165
# 4 0.001326 0.001330 0.002022 0.025381 -0.006767 -0.007170
# 5 0.002892 0.001374 -0.003247 -0.006767 0.033216 -0.000251
# 6 -0.007398 -0.011031 0.001165 -0.007170 -0.000251 0.046039
#
#
# Mechanical properties :
#
#
# Convention : Reuss Voigt Hill
#
# Bulk Modulus (GPa) = 42.07089 73.46620 57.76854
# Shear Modulus (GPa) = 28.23364 36.03860 32.13612
#
# Velocity S-wave (km/s) = 3.65698 4.13165 3.90154
# Velocity P-wave (km/s) = 6.14485 7.58680 6.90358
#
# Compressibility (1/GPa) = 0.02376941
#
# Stress axis : x y z
#
# Youngs Moduli (GPa) = 71.54432 53.75109 86.42822
#
# Poissons Ratio (x) = -0.14020 0.36801
# Poissons Ratio (y) = -0.18661 0.73824
# Poissons Ratio (z) = 0.30463 0.45912
#
# Static dielectric constant tensor:
#      x y z
#    x 1.788360 0.001980 -0.004190 
#    y 0.001980 1.729090 -0.009530 
#    z -0.004190 -0.009530 1.775270 
# 
# From -- ./inp_files/272473.got.cif
#   From: 2010.05.17/outbox.cif.g08.bks.cpg/sg2_137_cif.got.tgz:272473.got - 2010.06.03 11:33:40.
