data_PCOD9012899
_publ_section_title
;
Structure prediction by ZEFSAII (Michael W. Deem and Ramdas Pophale) SiO2 
 PCOD9012899
Probable space group: P -1
;
_chemical_formula_sum "Si O2"
_cell_formula_units_Z 14
_cell_length_a 9.355011
_cell_length_b 16.930514
_cell_length_c 14.062817
_cell_angle_alpha 157.602782
_cell_angle_beta 74.055169
_cell_angle_gamma 119.002117
_cell_volume 633.642087
_symmetry_space_group_name_H-M "P -1"
_symmetry_group_IT_number 2
_symmetry_cell_setting 'triclinic'
loop_
_space_group_symop_operation_xyz
x,y,z
-x,-y,-z
loop_
_atom_site_type_symbol
_atom_site_label
_atom_site_fract_x
_atom_site_fract_y
_atom_site_fract_z
Si Si1 0.564831 0.888506 0.781514
Si Si2 0.945940 0.235695 0.176165
Si Si3 0.270619 0.392008 0.611241
Si Si4 0.891441 0.013706 0.142112
Si Si5 0.566632 0.013477 0.269210
Si Si6 0.047671 0.205124 0.635704
Si Si7 0.710706 0.225854 0.673058
O O1 0.582634 0.650414 0.509029
O O2 0.456780 0.866933 0.685055
O O3 0.500000 0.000000 0.000000
O O4 0.792596 0.130056 0.005277
O O5 0.861436 0.039151 0.064603
O O6 0.000000 0.500000 0.500000
O O7 0.117222 0.238827 0.119470
O O8 0.163339 0.226438 0.544494
O O9 0.100094 0.266199 0.424608
O O10 0.376346 0.701288 0.961637
O O11 0.731194 0.991081 0.200623
O O12 0.650862 0.220717 0.570308
O O13 0.854617 0.155789 0.581376
O O14 0.183664 0.495476 0.983231
O O15 0.000000 0.000000 0.500000
O O16 0.500000 0.000000 0.500000
#
# Coordination Sequence:
#
# PCOD9012899 Si02
#       7
#     2   2   2   2   2   2   2
#     4  11  25  41  62 103 134 172 231 275 327 402
#     4  10  21  41  62  87 132 175 223 274 328 384
#     4  11  25  44  66 100 136 178 228 277 345 408
#     4  10  22  41  62  93 129 176 222 272 329 396
#     4  12  24  43  71  95 138 179 224 277 342 403
#     4  11  26  47  72 101 139 175 227 292 346 410
#     4  11  25  47  72 101 135 177 227 283 351 411
#
# _framework density 22.094491999999999
#
# number of rings (size 3 to 8) (size 9 to 14) (size 15 to 20)
#    0.000    1.143    4.286    0.857    4.000    2.286 
#    5.143    0.000    0.000    0.000    0.000    0.000 
#    0.000    0.000    0.000    0.000    0.000    0.000 
#
# Total GULP energy -77993.692261 kJ/mol
# GULP energy per Si atom -5570.978019 kJ/mol
# Density = 2.204420 g / cm^3
# Si number density = 22.094492 Si / 1000 Ang^3
#
#
#
# Elastic Constant Matrix: (Units=GPa)
#
#
# Indices 1 2 3 4 5 6 
#
# 1 110.8178 29.4367 39.7538 -7.3073 15.1957 -4.8957
# 2 29.4367 78.0187 13.4931 -20.3839 12.2447 -7.9648
# 3 39.7538 13.4931 85.4449 -11.6442 15.4633 -9.3144
# 4 -7.3073 -20.3839 -11.6442 39.0047 -6.3721 8.3370
# 5 15.1957 12.2447 15.4633 -6.3721 36.9181 -8.1384
# 6 -4.8957 -7.9648 -9.3144 8.3370 -8.1384 34.9603
#
#
#
# Elastic Compliance Matrix: (Units=1/GPa)
#
#
# Indices 1 2 3 4 5 6 
#
# 1 0.011918 -0.003768 -0.004843 -0.001377 -0.002001 -0.000617
# 2 -0.003768 0.016612 0.000767 0.007536 -0.002754 0.001023
# 3 -0.004843 0.000767 0.015117 0.002991 -0.003644 0.001962
# 4 -0.001377 0.007536 0.002991 0.031450 0.001161 -0.004909
# 5 -0.002001 -0.002754 -0.003644 0.001161 0.031702 0.005225
# 6 -0.000617 0.001023 0.001962 -0.004909 0.005225 0.031660
#
#
# Mechanical properties :
#
#
# Convention : Reuss Voigt Hill
#
# Bulk Modulus (GPa) = 35.76728 48.84984 42.30856
# Shear Modulus (GPa) = 30.58714 34.94982 32.76848
#
# Velocity S-wave (km/s) = 3.72476 3.98154 3.85529
# Velocity P-wave (km/s) = 5.89253 6.57985 6.24565
#
# Compressibility (1/GPa) = 0.02795851
#
# Stress axis : x y z
#
# Youngs Moduli (GPa) = 83.90436 60.19727 66.15277
#
# Poissons Ratio (x) = 0.22682 0.32037
# Poissons Ratio (y) = 0.31615 -0.05071
# Poissons Ratio (z) = 0.40633 -0.04615
#
# Static dielectric constant tensor:
#      x y z
#    x 1.808980 0.093980 -0.085100 
#    y 0.093980 1.880700 -0.044420 
#    z -0.085100 -0.044420 1.904800 
# 
# From -- ./inp_files/141064.got.cif
#   From: 2010.05.17/outbox.cif.g08.bks.cpg/sg2_71_cif.got.tgz:141064.got - 2010.06.03 11:33:40.
