data_PCOD9012866
_publ_section_title
;
Structure prediction by ZEFSAII (Michael W. Deem and Ramdas Pophale) SiO2 
 PCOD9012866
Probable space group: P -1
;
_chemical_formula_sum "Si O2"
_cell_formula_units_Z 16
_cell_length_a 8.954195
_cell_length_b 12.590295
_cell_length_c 26.316539
_cell_angle_alpha 29.672458
_cell_angle_beta 31.947625
_cell_angle_gamma 39.657384
_cell_volume 771.106521
_symmetry_space_group_name_H-M "P -1"
_symmetry_group_IT_number 2
_symmetry_cell_setting 'triclinic'
loop_
_space_group_symop_operation_xyz
x,y,z
-x,-y,-z
loop_
_atom_site_type_symbol
_atom_site_label
_atom_site_fract_x
_atom_site_fract_y
_atom_site_fract_z
Si Si1 0.268180 0.525505 0.772214
Si Si2 0.506608 0.974343 0.086678
Si Si3 0.663761 0.845880 0.560507
Si Si4 0.348469 0.328241 0.064680
Si Si5 0.121423 0.786166 0.603942
Si Si6 0.050435 0.895683 0.167321
Si Si7 0.498792 0.769139 0.825426
Si Si8 0.163357 0.566399 0.573337
O O1 0.374726 0.275844 0.836793
O O2 0.477529 0.648356 0.695758
O O3 0.240394 0.629187 0.680919
O O4 0.965441 0.571349 0.868527
O O5 0.262176 0.970080 0.117247
O O6 0.367095 0.113479 0.115488
O O7 0.774683 0.085338 0.942938
O O8 0.990734 0.725090 0.515105
O O9 0.500000 0.000000 0.500000
O O10 0.694535 0.012508 0.528470
O O11 0.506069 0.257912 0.100874
O O12 0.477186 0.521788 0.917679
O O13 0.125537 0.678769 0.592707
O O14 0.792118 0.845261 0.690665
O O15 0.976313 0.655235 0.295710
O O16 0.765538 0.061626 0.183174
O O17 0.500000 0.500000 0.500000
#
# Coordination Sequence:
#
# PCOD9012866 Si02
#       8
#     2   2   2   2   2   2   2   2
#     4  10  21  44  64  96 130 164 220 261 316 394
#     4  11  23  41  63  95 135 171 208 260 326 378
#     4  10  22  45  67  87 126 172 218 267 320 386
#     4  10  22  38  66  92 128 175 207 260 318 386
#     4  10  23  41  68  91 124 172 211 267 328 379
#     4  11  24  40  62  96 134 164 212 271 313 387
#     4  10  21  41  61  95 127 162 218 257 319 387
#     4  12  25  42  65  98 130 165 219 274 327 384
#
# _framework density 20.749403000000001
#
# number of rings (size 3 to 8) (size 9 to 14) (size 15 to 20)
#    0.000    1.500    2.500    1.875    1.750    3.000 
#    0.000    1.250    0.000    0.000    0.000    0.000 
#    0.000    0.000    0.000    0.000    0.000    0.000 
#
# Total GULP energy -89237.028367 kJ/mol
# GULP energy per Si atom -5577.314273 kJ/mol
# Density = 2.070218 g / cm^3
# Si number density = 20.749403 Si / 1000 Ang^3
#
#
#
# Elastic Constant Matrix: (Units=GPa)
#
#
# Indices 1 2 3 4 5 6 
#
# 1 100.5858 52.7135 14.2747 -2.9429 -15.1040 -17.5696
# 2 52.7135 144.4473 44.2274 -17.3029 -2.9945 -15.0541
# 3 14.2747 44.2274 91.1961 -12.0979 -14.2647 -6.2473
# 4 -2.9429 -17.3029 -12.0979 29.4708 1.4339 -8.7564
# 5 -15.1040 -2.9945 -14.2647 1.4339 27.0642 -2.7668
# 6 -17.5696 -15.0541 -6.2473 -8.7564 -2.7668 47.0181
#
#
#
# Elastic Compliance Matrix: (Units=1/GPa)
#
#
# Indices 1 2 3 4 5 6 
#
# 1 0.014580 -0.005258 0.002018 0.000119 0.009082 0.004589
# 2 -0.005258 0.010808 -0.004331 0.004705 -0.004111 0.001555
# 3 0.002018 -0.004331 0.014800 0.004092 0.008496 0.002596
# 4 0.000119 0.004705 0.004092 0.041241 0.001568 0.009867
# 5 0.009082 -0.004111 0.008496 0.001568 0.046596 0.006240
# 6 0.004589 0.001555 0.002596 0.009867 0.006240 0.026031
#
#
# Mechanical properties :
#
#
# Convention : Reuss Voigt Hill
#
# Bulk Modulus (GPa) = 39.92587 62.07337 50.99962
# Shear Modulus (GPa) = 28.16199 35.71153 31.93676
#
# Velocity S-wave (km/s) = 3.68807 4.15310 3.92748
# Velocity P-wave (km/s) = 6.11715 7.27862 6.72302
#
# Compressibility (1/GPa) = 0.02504642
#
# Stress axis : x y z
#
# Youngs Moduli (GPa) = 68.58940 92.52319 67.56970
#
# Poissons Ratio (x) = 0.48646 -0.13639
# Poissons Ratio (y) = 0.36062 0.29265
# Poissons Ratio (z) = -0.13845 0.40073
#
# Static dielectric constant tensor:
#      x y z
#    x 1.762240 -0.008500 0.013280 
#    y -0.008500 1.754060 -0.019010 
#    z 0.013280 -0.019010 1.771610 
# 
# From -- ./inp_files/476413.got.cif
#   From: 2010.05.17/outbox.cif.g08.bks.cpg/sg2_239_cif.got.tgz:476413.got - 2010.06.03 11:33:40.
