data_PCOD9012423
_publ_section_title
;
Structure prediction by ZEFSAII (Michael W. Deem and Ramdas Pophale) SiO2 
 PCOD9012423
Probable space group: P -1
;
_chemical_formula_sum "Si O2"
_cell_formula_units_Z 16
_cell_length_a 8.890468
_cell_length_b 8.261238
_cell_length_c 14.531415
_cell_angle_alpha 46.361189
_cell_angle_beta 84.424143
_cell_angle_gamma 69.136123
_cell_volume 704.102442
_symmetry_space_group_name_H-M "P -1"
_symmetry_group_IT_number 2
_symmetry_cell_setting 'triclinic'
loop_
_space_group_symop_operation_xyz
x,y,z
-x,-y,-z
loop_
_atom_site_type_symbol
_atom_site_label
_atom_site_fract_x
_atom_site_fract_y
_atom_site_fract_z
Si Si1 0.348734 0.292148 0.795761
Si Si2 0.887626 0.098365 0.809400
Si Si3 0.846050 0.581569 0.547351
Si Si4 0.343118 0.820543 0.064401
Si Si5 0.582549 0.998142 0.288698
Si Si6 0.006329 0.743910 0.641113
Si Si7 0.747460 0.277053 0.078228
Si Si8 0.206635 0.248692 0.171029
O O1 0.511822 0.306876 0.822247
O O2 0.379338 0.162663 0.745084
O O3 0.194011 0.546601 0.705584
O O4 0.318563 0.098980 0.940654
O O5 0.817732 0.336945 0.657821
O O6 0.823403 0.178582 0.884034
O O7 0.812987 0.915590 0.845617
O O8 0.083622 0.964394 0.847358
O O9 0.686161 0.806209 0.433919
O O10 0.000000 0.500000 0.500000
O O11 0.906553 0.649336 0.612727
O O12 0.371235 0.702596 0.009183
O O13 0.657950 0.204255 0.195564
O O14 0.385803 0.124009 0.257384
O O15 0.928747 0.742423 0.747525
O O16 0.000000 0.000000 0.500000
O O17 0.798205 0.504352 0.974042
#
# Coordination Sequence:
#
# PCOD9012423 Si02
#       8
#     2   2   2   2   2   2   2   2
#     4  10  21  43  69  96 137 175 225 275 331 407
#     4  12  23  42  72 100 136 183 225 280 334 409
#     4  12  23  45  72  95 132 183 233 265 333 414
#     4  10  21  40  70 101 127 179 231 272 331 398
#     4  11  24  45  73  98 137 186 226 276 333 412
#     4  12  27  45  69 102 140 176 225 288 345 394
#     4  11  23  42  69 102 144 174 222 286 344 396
#     4  12  27  44  65 109 140 173 227 285 347 395
#
# _framework density 22.723965
#
# number of rings (size 3 to 8) (size 9 to 14) (size 15 to 20)
#    0.000    0.750    3.750    4.125    0.000    3.000 
#    0.000    0.000    0.000    0.000    0.000    0.000 
#    0.000    0.000    0.000    0.000    0.000    0.000 
#
# Total GULP energy -89494.676527 kJ/mol
# GULP energy per Si atom -5593.417283 kJ/mol
# Density = 2.267224 g / cm^3
# Si number density = 22.723965 Si / 1000 Ang^3
#
#
#
# Elastic Constant Matrix: (Units=GPa)
#
#
# Indices 1 2 3 4 5 6 
#
# 1 72.3883 -0.5629 27.8173 -21.6328 13.5154 -5.5145
# 2 -0.5629 50.5150 36.3201 -14.7091 -4.9703 -1.2402
# 3 27.8173 36.3201 112.6416 -31.4041 8.4376 -1.5870
# 4 -21.6328 -14.7091 -31.4041 38.6890 -0.1641 5.0896
# 5 13.5154 -4.9703 8.4376 -0.1641 48.0903 -4.8052
# 6 -5.5145 -1.2402 -1.5870 5.0896 -4.8052 40.7505
#
#
#
# Elastic Compliance Matrix: (Units=1/GPa)
#
#
# Indices 1 2 3 4 5 6 
#
# 1 0.018809 0.004967 -0.003240 0.009642 -0.004083 0.000885
# 2 0.004967 0.028381 -0.008851 0.006293 0.003190 0.000781
# 3 -0.003240 -0.008851 0.014625 0.006856 -0.002678 -0.001310
# 4 0.009642 0.006293 0.006856 0.039655 -0.003487 -0.003601
# 5 -0.004083 0.003190 -0.002678 -0.003487 0.022988 0.002586
# 6 0.000885 0.000781 -0.001310 -0.003601 0.002586 0.025387
#
#
# Mechanical properties :
#
#
# Convention : Reuss Voigt Hill
#
# Bulk Modulus (GPa) = 21.02324 40.29931 30.66128
# Shear Modulus (GPa) = 27.78572 36.97066 32.37819
#
# Velocity S-wave (km/s) = 3.50058 4.03792 3.77881
# Velocity P-wave (km/s) = 5.06067 6.28590 5.70626
#
# Compressibility (1/GPa) = 0.04756640
#
# Stress axis : x y z
#
# Youngs Moduli (GPa) = 53.16559 35.23510 68.37502
#
# Poissons Ratio (x) = -0.17500 0.22154
# Poissons Ratio (y) = -0.26405 0.60518
# Poissons Ratio (z) = 0.17226 0.31186
#
# Static dielectric constant tensor:
#      x y z
#    x 1.852980 -0.005770 -0.033840 
#    y -0.005770 1.882890 -0.001720 
#    z -0.033840 -0.001720 1.836940 
# 
# From -- ./inp_files/189904.got.cif
#   From: 2010.05.17/outbox.cif.g08.bks.cpg/sg2_95_cif.got.tgz:189904.got - 2010.06.03 11:33:40.
