data_PCOD9012182
_publ_section_title
;
Structure prediction by ZEFSAII (Michael W. Deem and Ramdas Pophale) SiO2 
 PCOD9012182
Probable space group: P -1
;
_chemical_formula_sum "Si O2"
_cell_formula_units_Z 16
_cell_length_a 21.268252
_cell_length_b 12.390021
_cell_length_c 8.454774
_cell_angle_alpha 141.243603
_cell_angle_beta 49.278782
_cell_angle_gamma 148.536166
_cell_volume 727.432220
_symmetry_space_group_name_H-M "P -1"
_symmetry_group_IT_number 2
_symmetry_cell_setting 'triclinic'
loop_
_space_group_symop_operation_xyz
x,y,z
-x,-y,-z
loop_
_atom_site_type_symbol
_atom_site_label
_atom_site_fract_x
_atom_site_fract_y
_atom_site_fract_z
Si Si1 0.314441 0.098560 0.731376
Si Si2 0.910799 0.144452 0.591981
Si Si3 0.235432 0.178195 0.240885
Si Si4 0.188496 0.454567 0.467140
Si Si5 0.890376 0.408025 0.684378
Si Si6 0.582606 0.977878 0.269116
Si Si7 0.128215 0.238535 0.984802
Si Si8 0.513227 0.569048 0.737299
O O1 0.407657 0.145927 0.748588
O O2 0.393255 0.332251 0.754234
O O3 0.232878 0.838480 0.478327
O O4 0.230024 0.078544 0.965254
O O5 0.893966 0.305566 0.723850
O O6 0.052391 0.315503 0.546655
O O7 0.858711 0.046806 0.740741
O O8 0.843744 0.890911 0.310008
O O9 0.210642 0.339133 0.426912
O O10 0.368120 0.345440 0.287041
O O11 0.206101 0.407247 0.204438
O O12 0.284896 0.749935 0.669321
O O13 0.889381 0.614253 0.922236
O O14 0.000000 0.500000 0.500000
O O15 0.500000 0.000000 0.500000
O O16 0.532898 0.801740 0.999192
O O17 0.000000 0.000000 0.000000
O O18 0.500000 0.500000 0.500000
#
# Coordination Sequence:
#
# PCOD9012182 Si02
#       8
#     2   2   2   2   2   2   2   2
#     4  11  23  44  69  94 130 180 227 273 344 414
#     4  11  24  42  66 105 144 181 226 285 340 410
#     4  11  24  43  69  95 137 181 223 282 348 410
#     4  11  21  42  64 101 137 182 226 279 343 409
#     4  12  21  42  69  99 136 180 229 278 342 406
#     4  11  22  42  69 100 131 178 230 283 343 414
#     4  10  21  40  68  98 138 179 229 272 340 407
#     4  11  25  48  68  98 132 176 234 287 346 413
#
# _framework density 21.995175
#
# number of rings (size 3 to 8) (size 9 to 14) (size 15 to 20)
#    0.000    1.000    3.750    4.875    1.750    1.000 
#    6.750    4.375    0.000    0.000    0.000    0.000 
#    0.000    0.000    0.000    0.000    0.000    0.000 
#
# Total GULP energy -89514.594873 kJ/mol
# GULP energy per Si atom -5594.662180 kJ/mol
# Density = 2.194511 g / cm^3
# Si number density = 21.995175 Si / 1000 Ang^3
#
#
#
# Elastic Constant Matrix: (Units=GPa)
#
#
# Indices 1 2 3 4 5 6 
#
# 1 100.8823 32.5025 43.5509 -0.9846 -13.9016 -22.7176
# 2 32.5025 129.8824 64.9725 2.9648 9.1836 -26.5940
# 3 43.5509 64.9725 107.7871 17.9797 3.2820 -11.9822
# 4 -0.9846 2.9648 17.9797 35.0859 -3.1086 0.9655
# 5 -13.9016 9.1836 3.2820 -3.1086 27.4739 6.8979
# 6 -22.7176 -26.5940 -11.9822 0.9655 6.8979 43.8364
#
#
#
# Elastic Compliance Matrix: (Units=1/GPa)
#
#
# Indices 1 2 3 4 5 6 
#
# 1 0.014814 -0.000311 -0.006234 0.004195 0.007694 0.004482
# 2 -0.000311 0.013009 -0.007158 0.001931 -0.005072 0.006530
# 3 -0.006234 -0.007158 0.017437 -0.008741 -0.003308 -0.002094
# 4 0.004195 0.001931 -0.008741 0.033535 0.006519 -0.000808
# 5 0.007694 -0.005072 -0.003308 0.006519 0.044929 -0.007207
# 6 0.004482 0.006530 -0.002094 -0.000808 -0.007207 0.029676
#
#
# Mechanical properties :
#
#
# Convention : Reuss Voigt Hill
#
# Bulk Modulus (GPa) = 56.00660 68.95595 62.48128
# Shear Modulus (GPa) = 26.77245 34.44762 30.61004
#
# Velocity S-wave (km/s) = 3.49262 3.96175 3.73456
# Velocity P-wave (km/s) = 6.46397 7.23504 6.86035
#
# Compressibility (1/GPa) = 0.01785504
#
# Stress axis : x y z
#
# Youngs Moduli (GPa) = 67.50192 76.86721 57.34830
#
# Poissons Ratio (x) = 0.02389 0.35752
# Poissons Ratio (y) = 0.02098 0.41050
# Poissons Ratio (z) = 0.42082 0.55022
#
# Static dielectric constant tensor:
#      x y z
#    x 1.828890 0.010840 0.005640 
#    y 0.010840 1.777960 0.009600 
#    z 0.005640 0.009600 1.887170 
# 
# From -- ./inp_files/346465.got.cif
#   From: 2010.05.17/outbox.cif.g08.bks.cpg/sg2_174_cif.got.tgz:346465.got - 2010.06.03 11:33:40.
