data_PCOD9012365
_publ_section_title
;
Structure prediction by ZEFSAII (Michael W. Deem and Ramdas Pophale) SiO2 
 PCOD9012365
Probable space group: P -1
;
_chemical_formula_sum "Si O2"
_cell_formula_units_Z 12
_cell_length_a 10.048763
_cell_length_b 9.661709
_cell_length_c 6.859758
_cell_angle_alpha 49.364746
_cell_angle_beta 69.864946
_cell_angle_gamma 75.756078
_cell_volume 474.296925
_symmetry_space_group_name_H-M "P -1"
_symmetry_group_IT_number 2
_symmetry_cell_setting 'triclinic'
loop_
_space_group_symop_operation_xyz
x,y,z
-x,-y,-z
loop_
_atom_site_type_symbol
_atom_site_label
_atom_site_fract_x
_atom_site_fract_y
_atom_site_fract_z
Si Si1 0.852450 0.589838 0.062826
Si Si2 0.991455 0.207849 0.879858
Si Si3 0.408646 0.641022 0.551392
Si Si4 0.327408 0.661833 0.022937
Si Si5 0.564897 0.981150 0.269754
Si Si6 0.787153 0.704772 0.568626
O O1 0.895739 0.737558 0.063588
O O2 0.751307 0.430538 0.335180
O O3 0.782170 0.693727 0.815435
O O4 0.000000 0.500000 0.000000
O O5 0.049896 0.312990 0.564392
O O6 0.835202 0.261445 0.986377
O O7 0.000000 0.000000 0.000000
O O8 0.500000 0.500000 0.500000
O O9 0.402826 0.632143 0.803001
O O10 0.467362 0.848085 0.315937
O O11 0.404877 0.807696 0.983158
O O12 0.301167 0.464961 0.302931
O O13 0.712683 0.875905 0.343563
O O14 0.500000 0.000000 0.500000
#
# Coordination Sequence:
#
# PCOD9012365 Si02
#       6
#     2   2   2   2   2   2
#     4  11  24  43  70 107 142 182 241 289 346 428
#     4  12  23  43  71 104 141 184 233 293 354 416
#     4  10  21  40  69  96 139 185 224 287 347 402
#     4  10  22  41  67 104 136 181 236 283 344 424
#     4  10  22  42  69 100 137 185 237 285 345 419
#     4  11  23  43  77  99 144 192 229 290 366 406
#
# _framework density 25.300605999999998
#
# number of rings (size 3 to 8) (size 9 to 14) (size 15 to 20)
#    0.000    1.333    5.000    1.500    0.000    6.667 
#    0.000    0.000    0.000   21.000    0.000    0.000 
#    0.000    0.000    0.000    0.000    0.000    0.000 
#
# Total GULP energy -66983.248800 kJ/mol
# GULP energy per Si atom -5581.937400 kJ/mol
# Density = 2.524302 g / cm^3
# Si number density = 25.300606 Si / 1000 Ang^3
#
#
#
# Elastic Constant Matrix: (Units=GPa)
#
#
# Indices 1 2 3 4 5 6 
#
# 1 97.8195 69.6476 36.8425 7.3942 -36.3415 16.9636
# 2 69.6476 204.3724 63.2038 -13.7806 -30.2958 23.2303
# 3 36.8425 63.2038 118.1626 -25.5679 -48.0735 13.8208
# 4 7.3942 -13.7806 -25.5679 49.4447 9.2220 -16.1257
# 5 -36.3415 -30.2958 -48.0735 9.2220 51.5490 4.4206
# 6 16.9636 23.2303 13.8208 -16.1257 4.4206 69.0500
#
#
#
# Elastic Compliance Matrix: (Units=1/GPa)
#
#
# Indices 1 2 3 4 5 6 
#
# 1 0.020742 -0.005062 0.001154 -0.008858 0.014879 -0.006645
# 2 -0.005062 0.007295 -0.002856 0.001699 -0.002240 -0.000099
# 3 0.001154 -0.002856 0.016535 0.004126 0.014037 -0.002567
# 4 -0.008858 0.001699 0.004126 0.028011 -0.007076 0.007774
# 5 0.014879 -0.002240 0.014037 -0.007076 0.043800 -0.010168
# 6 -0.006645 -0.000099 -0.002567 0.007774 -0.010168 0.019128
#
#
# Mechanical properties :
#
#
# Convention : Reuss Voigt Hill
#
# Bulk Modulus (GPa) = 32.21213 84.41583 58.31398
# Shear Modulus (GPa) = 31.37018 50.71945 41.04481
#
# Velocity S-wave (km/s) = 3.52504 4.48221 4.03213
# Velocity P-wave (km/s) = 5.41547 7.76045 6.69148
#
# Compressibility (1/GPa) = 0.03104421
#
# Stress axis : x y z
#
# Youngs Moduli (GPa) = 48.21141 137.07998 60.47943
#
# Poissons Ratio (x) = 0.69389 -0.06980
# Poissons Ratio (y) = 0.24404 0.17272
# Poissons Ratio (z) = -0.05564 0.39149
#
# Static dielectric constant tensor:
#      x y z
#    x 2.115520 -0.114260 -0.024900 
#    y -0.114260 2.316530 0.089590 
#    z -0.024900 0.089590 2.078900 
# 
# From -- ./inp_files/230148.got.cif
#   From: 2010.05.17/outbox.cif.g08.bks.cpg/sg2_116_cif.got.tgz:230148.got - 2010.06.03 11:33:40.
