data_PCOD9012616
_publ_section_title
;
Structure prediction by ZEFSAII (Michael W. Deem and Ramdas Pophale) SiO2 
 PCOD9012616
Probable space group: P -1
;
_chemical_formula_sum "Si O2"
_cell_formula_units_Z 16
_cell_length_a 16.049662
_cell_length_b 10.262576
_cell_length_c 8.783909
_cell_angle_alpha 54.492442
_cell_angle_beta 32.763682
_cell_angle_gamma 57.562299
_cell_volume 633.581952
_symmetry_space_group_name_H-M "P -1"
_symmetry_group_IT_number 2
_symmetry_cell_setting 'triclinic'
loop_
_space_group_symop_operation_xyz
x,y,z
-x,-y,-z
loop_
_atom_site_type_symbol
_atom_site_label
_atom_site_fract_x
_atom_site_fract_y
_atom_site_fract_z
Si Si1 0.135188 0.210662 0.192292
Si Si2 0.798967 0.544167 0.300168
Si Si3 0.523348 0.519813 0.130185
Si Si4 0.108738 0.240908 0.716582
Si Si5 0.120071 0.963768 0.121911
Si Si6 0.701793 0.242449 0.547842
Si Si7 0.332337 0.099083 0.211007
Si Si8 0.225263 0.687135 0.952470
O O1 0.991787 0.154014 0.545460
O O2 0.177484 0.074534 0.091235
O O3 0.278112 0.221895 0.078206
O O4 0.111896 0.378350 0.024478
O O5 0.688105 0.458689 0.986787
O O6 0.837198 0.625400 0.343707
O O7 0.812563 0.351362 0.394960
O O8 0.613376 0.580518 0.528003
O O9 0.500000 0.500000 0.000000
O O10 0.463331 0.699871 0.157562
O O11 0.251178 0.166226 0.444333
O O12 0.958029 0.308380 0.805149
O O13 0.061152 0.094472 0.994174
O O14 0.243115 0.842467 0.924397
O O15 0.698228 0.297026 0.341003
O O16 0.241983 0.943181 0.407875
O O17 0.500000 0.000000 0.000000
#
# Coordination Sequence:
#
# PCOD9012616 Si02
#       8
#     2   2   2   2   2   2   2   2
#     4  10  22  43  68 109 142 191 244 300 362 447
#     4   9  25  47  72 100 156 185 247 294 375 446
#     4  10  26  48  72 100 143 203 248 286 377 446
#     4  11  23  46  71 117 141 190 248 308 363 436
#     4  10  21  40  72 103 150 182 241 300 376 423
#     4  10  25  47  73 101 151 199 236 299 379 435
#     4  12  26  40  78 110 148 185 251 307 361 436
#     4  12  22  43  77 103 142 193 244 308 356 434
#
# _framework density 25.253243000000001
#
# number of rings (size 3 to 8) (size 9 to 14) (size 15 to 20)
#    0.750    0.750    2.500    1.500    5.250    0.500 
#    0.000    3.750    0.000    0.000    0.000    0.000 
#    0.000    0.000    0.000    0.000    0.000    0.000 
#
# Total GULP energy -89415.628505 kJ/mol
# GULP energy per Si atom -5588.476782 kJ/mol
# Density = 2.519577 g / cm^3
# Si number density = 25.253243 Si / 1000 Ang^3
#
#
#
# Elastic Constant Matrix: (Units=GPa)
#
#
# Indices 1 2 3 4 5 6 
#
# 1 99.2361 25.9321 38.2932 22.9053 19.7215 -5.4852
# 2 25.9321 110.7399 20.1703 29.9241 14.8284 22.7142
# 3 38.2932 20.1703 128.5766 23.0699 4.7868 -5.8147
# 4 22.9053 29.9241 23.0699 40.3208 8.1703 8.8614
# 5 19.7215 14.8284 4.7868 8.1703 39.0734 13.0089
# 6 -5.4852 22.7142 -5.8147 8.8614 13.0089 38.8440
#
#
#
# Elastic Compliance Matrix: (Units=1/GPa)
#
#
# Indices 1 2 3 4 5 6 
#
# 1 0.014606 -0.001834 -0.002523 -0.005417 -0.007387 0.006467
# 2 -0.001834 0.012646 -0.000507 -0.006636 -0.000399 -0.006083
# 3 -0.002523 -0.000507 0.009433 -0.004153 0.000465 0.002144
# 4 -0.005417 -0.006636 -0.004153 0.036447 0.000088 -0.005850
# 5 -0.007387 -0.000399 0.000465 0.000088 0.033372 -0.011937
# 6 0.006467 -0.006083 0.002144 -0.005850 -0.011937 0.035867
#
#
# Mechanical properties :
#
#
# Convention : Reuss Voigt Hill
#
# Bulk Modulus (GPa) = 37.09686 56.37154 46.73420
# Shear Modulus (GPa) = 31.03952 40.59143 35.81547
#
# Velocity S-wave (km/s) = 3.50970 4.01356 3.77005
# Velocity P-wave (km/s) = 5.58084 6.62187 6.12352
#
# Compressibility (1/GPa) = 0.02695646
#
# Stress axis : x y z
#
# Youngs Moduli (GPa) = 68.46673 79.07551 106.00838
#
# Poissons Ratio (x) = 0.14505 0.26743
# Poissons Ratio (y) = 0.12559 0.05377
# Poissons Ratio (z) = 0.17272 0.04011
#
# Static dielectric constant tensor:
#      x y z
#    x 2.045880 0.062510 -0.143940 
#    y 0.062510 2.026630 -0.082050 
#    z -0.143940 -0.082050 2.170590 
# 
# From -- ./inp_files/331653.got.cif
#   From: 2010.05.17/outbox.cif.g08.bks.cpg/sg2_166_cif.got.tgz:331653.got - 2010.06.03 11:33:40.
