data_PCOD9012571
_publ_section_title
;
Structure prediction by ZEFSAII (Michael W. Deem and Ramdas Pophale) SiO2 
 PCOD9012571
Probable space group: P -1
;
_chemical_formula_sum "Si O2"
_cell_formula_units_Z 16
_cell_length_a 14.146826
_cell_length_b 15.187252
_cell_length_c 7.747093
_cell_angle_alpha 45.008787
_cell_angle_beta 147.128436
_cell_angle_gamma 140.547744
_cell_volume 565.744800
_symmetry_space_group_name_H-M "P -1"
_symmetry_group_IT_number 2
_symmetry_cell_setting 'triclinic'
loop_
_space_group_symop_operation_xyz
x,y,z
-x,-y,-z
loop_
_atom_site_type_symbol
_atom_site_label
_atom_site_fract_x
_atom_site_fract_y
_atom_site_fract_z
Si Si1 0.383429 0.511126 0.140402
Si Si2 0.816041 0.878424 0.744293
Si Si3 0.693371 0.131971 0.839692
Si Si4 0.596604 0.833368 0.104956
Si Si5 0.073351 0.431911 0.358877
Si Si6 0.534164 0.330103 0.386592
Si Si7 0.945216 0.839653 0.427538
Si Si8 0.949144 0.291147 0.709041
O O1 0.500000 0.500000 0.500000
O O2 0.456210 0.678878 0.026842
O O3 0.461222 0.430776 0.235225
O O4 0.145292 0.421404 0.913216
O O5 0.669779 0.827599 0.421541
O O6 0.678514 0.798810 0.807118
O O7 0.924988 0.044703 0.674339
O O8 0.969059 0.820369 0.032063
O O9 0.628632 0.226283 0.729646
O O10 0.761428 0.214118 0.649699
O O11 0.892026 0.142493 0.206028
O O12 0.547656 0.965007 0.841325
O O13 0.790510 0.877789 0.225698
O O14 0.274585 0.553888 0.579128
O O15 0.133564 0.321191 0.521117
O O16 0.930355 0.346673 0.413809
O O17 0.000000 0.500000 0.000000
#
# Coordination Sequence:
#
# PCOD9012571 Si02
#       8
#     2   2   2   2   2   2   2   2
#     4  11  21  42  72 110 142 188 237 290 349 426
#     4  10  21  40  71 110 136 186 234 291 350 430
#     4  11  22  42  69 103 143 188 234 290 360 420
#     4  11  19  39  73 105 143 185 238 282 351 434
#     4  12  27  46  67 104 141 190 242 300 356 420
#     4  11  24  41  67 104 149 181 235 295 358 412
#     4  11  20  41  72 102 142 189 238 285 350 434
#     4  11  24  44  73 101 143 189 240 292 354 430
#
# _framework density 28.281303999999999
#
# number of rings (size 3 to 8) (size 9 to 14) (size 15 to 20)
#    0.000    1.000    7.500    0.750    0.000    5.000 
#    0.000    0.000    0.000    1.500    0.000    0.000 
#    0.000    0.000    0.000    0.000    0.000    0.000 
#
# Total GULP energy -89398.198574 kJ/mol
# GULP energy per Si atom -5587.387411 kJ/mol
# Density = 2.821693 g / cm^3
# Si number density = 28.281304 Si / 1000 Ang^3
#
#
#
# Elastic Constant Matrix: (Units=GPa)
#
#
# Indices 1 2 3 4 5 6 
#
# 1 119.5601 32.6617 47.1478 -17.6247 -21.5078 14.5808
# 2 32.6617 233.2495 47.5496 -37.6134 -6.1937 -5.4079
# 3 47.1478 47.5496 103.7610 -47.6877 -17.9639 1.4537
# 4 -17.6247 -37.6134 -47.6877 55.5350 -0.2757 -2.2670
# 5 -21.5078 -6.1937 -17.9639 -0.2757 40.5027 -7.3166
# 6 14.5808 -5.4079 1.4537 -2.2670 -7.3166 54.2933
#
#
#
# Elastic Compliance Matrix: (Units=1/GPa)
#
#
# Indices 1 2 3 4 5 6 
#
# 1 0.011125 -0.000759 -0.004547 -0.000975 0.003310 -0.002536
# 2 -0.000759 0.004979 -0.000760 0.002515 0.000192 0.000851
# 3 -0.004547 -0.000760 0.020486 0.015759 0.007061 0.002206
# 4 -0.000975 0.002515 0.015759 0.033071 0.007531 0.002486
# 5 0.003310 0.000192 0.007061 0.007531 0.030262 0.003334
# 6 -0.002536 0.000851 0.002206 0.002486 0.003334 0.019678
#
#
# Mechanical properties :
#
#
# Convention : Reuss Voigt Hill
#
# Bulk Modulus (GPa) = 40.88445 79.03208 59.95826
# Shear Modulus (GPa) = 35.74342 52.01364 43.87853
#
# Velocity S-wave (km/s) = 3.55893 4.29319 3.94319
# Velocity P-wave (km/s) = 5.60140 7.25127 6.47907
#
# Compressibility (1/GPa) = 0.02445918
#
# Stress axis : x y z
#
# Youngs Moduli (GPa) = 89.88377 200.85445 48.81425
#
# Poissons Ratio (x) = 0.15246 0.22195
# Poissons Ratio (y) = 0.06823 0.03708
# Poissons Ratio (z) = 0.40868 0.15257
#
# Static dielectric constant tensor:
#      x y z
#    x 2.321140 0.021220 -0.099040 
#    y 0.021220 2.219410 0.085450 
#    z -0.099040 0.085450 2.242830 
# 
# From -- ./inp_files/316534.got.cif
#   From: 2010.05.17/outbox.cif.g08.bks.cpg/sg2_159_cif.got.tgz:316534.got - 2010.06.03 11:33:40.
