data_PCOD9012567
_publ_section_title
;
Structure prediction by ZEFSAII (Michael W. Deem and Ramdas Pophale) SiO2 
 PCOD9012567
Probable space group: P -1
;
_chemical_formula_sum "Si O2"
_cell_formula_units_Z 14
_cell_length_a 11.784764
_cell_length_b 12.078927
_cell_length_c 12.027770
_cell_angle_alpha 39.897192
_cell_angle_beta 36.184563
_cell_angle_gamma 34.475636
_cell_volume 544.967110
_symmetry_space_group_name_H-M "P -1"
_symmetry_group_IT_number 2
_symmetry_cell_setting 'triclinic'
loop_
_space_group_symop_operation_xyz
x,y,z
-x,-y,-z
loop_
_atom_site_type_symbol
_atom_site_label
_atom_site_fract_x
_atom_site_fract_y
_atom_site_fract_z
Si Si1 0.834747 0.055740 0.927863
Si Si2 0.982408 0.611995 0.649289
Si Si3 0.752909 0.392936 0.108003
Si Si4 0.562918 0.883014 0.657808
Si Si5 0.274791 0.521180 0.283177
Si Si6 0.803032 0.309158 0.380657
Si Si7 0.315868 0.937391 0.201974
O O1 0.853341 0.236581 0.828740
O O2 0.716971 0.128944 0.843077
O O3 0.662871 0.025454 0.160821
O O4 0.071519 0.844913 0.880794
O O5 0.127435 0.498985 0.511737
O O6 0.159558 0.600355 0.607463
O O7 0.862528 0.513838 0.882399
O O8 0.779872 0.842776 0.590685
O O9 0.515248 0.462629 0.187416
O O10 0.721897 0.426370 0.238933
O O11 0.657975 0.645789 0.735441
O O12 0.500000 0.000000 0.500000
O O13 0.649975 0.221103 0.606999
O O14 0.065309 0.131641 0.280564
O O15 0.500000 0.000000 0.000000
#
# Coordination Sequence:
#
# PCOD9012567 Si02
#       7
#     2   2   2   2   2   2   2
#     4  11  24  49  72 105 150 195 242 315 367 432
#     4  12  25  49  74 109 156 191 253 307 370 447
#     4  11  27  46  76 113 149 199 246 299 379 449
#     4  12  28  48  78 108 144 201 253 312 376 437
#     4  12  27  48  75 109 151 195 252 308 368 442
#     4  10  23  42  73 109 149 193 241 303 370 447
#     4  10  21  40  71 106 144 193 244 299 367 436
#
# _framework density 25.689623000000001
#
# number of rings (size 3 to 8) (size 9 to 14) (size 15 to 20)
#    0.000    0.857    2.857    3.000    2.000    4.571 
#    0.000    0.000    0.000    0.000    0.000    0.000 
#    0.000    0.000    0.000    0.000    0.000    0.000 
#
# Total GULP energy -78483.919837 kJ/mol
# GULP energy per Si atom -5605.994274 kJ/mol
# Density = 2.563115 g / cm^3
# Si number density = 25.689623 Si / 1000 Ang^3
#
#
#
# Elastic Constant Matrix: (Units=GPa)
#
#
# Indices 1 2 3 4 5 6 
#
# 1 87.4113 22.8934 44.2488 -4.7723 6.5225 2.6675
# 2 22.8934 109.4031 11.1701 18.1079 3.1614 -13.9764
# 3 44.2488 11.1701 187.8459 13.2071 10.9726 -24.7042
# 4 -4.7723 18.1079 13.2071 40.9508 -4.0099 2.1090
# 5 6.5225 3.1614 10.9726 -4.0099 48.8450 8.7258
# 6 2.6675 -13.9764 -24.7042 2.1090 8.7258 28.3500
#
#
#
# Elastic Compliance Matrix: (Units=1/GPa)
#
#
# Indices 1 2 3 4 5 6 
#
# 1 0.015994 -0.005164 -0.005282 0.006508 0.001642 -0.009643
# 2 -0.005164 0.012720 0.002606 -0.007934 -0.003268 0.010624
# 3 -0.005282 0.002606 0.008408 -0.005390 -0.003697 0.010647
# 4 0.006508 -0.007934 -0.005390 0.031686 0.005846 -0.013377
# 5 0.001642 -0.003268 -0.003697 0.005846 0.024067 -0.012830
# 6 -0.009643 0.010624 0.010647 -0.013377 -0.012830 0.055640
#
#
# Mechanical properties :
#
#
# Convention : Reuss Voigt Hill
#
# Bulk Modulus (GPa) = 46.63942 60.14277 53.39110
# Shear Modulus (GPa) = 29.18135 44.05236 36.61685
#
# Velocity S-wave (km/s) = 3.37400 4.14550 3.77948
# Velocity P-wave (km/s) = 5.77692 6.80997 6.31461
#
# Compressibility (1/GPa) = 0.02144109
#
# Stress axis : x y z
#
# Youngs Moduli (GPa) = 62.52504 78.61697 118.93564
#
# Poissons Ratio (x) = 0.40598 0.62823
# Poissons Ratio (y) = 0.32288 -0.30994
# Poissons Ratio (z) = 0.33026 -0.20487
#
# Static dielectric constant tensor:
#      x y z
#    x 2.074360 0.012100 -0.021120 
#    y 0.012100 2.048590 -0.053160 
#    z -0.021120 -0.053160 1.988600 
# 
# From -- ./inp_files/427335.got.cif
#   From: 2010.05.17/outbox.cif.g08.bks.cpg/sg2_214_cif.got.tgz:427335.got - 2010.06.03 11:33:40.
