data_PCOD9012792
_publ_section_title
;
Structure prediction by ZEFSAII (Michael W. Deem and Ramdas Pophale) SiO2 
 PCOD9012792
Probable space group: P -1
;
_chemical_formula_sum "Si O2"
_cell_formula_units_Z 12
_cell_length_a 12.111862
_cell_length_b 8.663585
_cell_length_c 8.741748
_cell_angle_alpha 123.954518
_cell_angle_beta 118.921472
_cell_angle_gamma 45.235282
_cell_volume 533.837987
_symmetry_space_group_name_H-M "P -1"
_symmetry_group_IT_number 2
_symmetry_cell_setting 'triclinic'
loop_
_space_group_symop_operation_xyz
x,y,z
-x,-y,-z
loop_
_atom_site_type_symbol
_atom_site_label
_atom_site_fract_x
_atom_site_fract_y
_atom_site_fract_z
Si Si1 0.984125 0.726954 0.145630
Si Si2 0.488542 0.051412 0.339630
Si Si3 0.640872 0.439636 0.452835
Si Si4 0.852313 0.135829 0.864548
Si Si5 0.183047 0.039051 0.550568
Si Si6 0.337053 0.821519 0.969374
O O1 0.125419 0.704785 0.138804
O O2 0.955894 0.763547 0.328957
O O3 0.000000 0.500000 0.000000
O O4 0.823650 0.950568 0.085562
O O5 0.363483 0.333925 0.408745
O O6 0.656471 0.981714 0.351783
O O7 0.500000 0.000000 0.500000
O O8 0.440372 0.910606 0.133814
O O9 0.500000 0.500000 0.500000
O O10 0.782327 0.192493 0.477404
O O11 0.610830 0.378659 0.230763
O O12 0.857378 0.960729 0.652352
O O13 0.705028 0.245892 0.938092
O O14 0.000000 0.000000 0.000000
#
# Coordination Sequence:
#
# PCOD9012792 Si02
#       6
#     2   2   2   2   2   2
#     4  10  23  40  64  93 118 168 212 254 304 364
#     4  11  22  40  66  97 125 159 209 258 318 372
#     4   9  22  39  61  93 125 166 199 252 316 366
#     4  10  21  41  61  86 127 165 203 253 310 363
#     4  10  21  42  63  89 128 161 205 262 306 368
#     4  10  22  43  64  92 130 161 206 259 311 376
#
# _framework density 22.478729999999999
#
# number of rings (size 3 to 8) (size 9 to 14) (size 15 to 20)
#    0.000    2.000    1.667    0.500    2.333    8.000 
#    3.000    1.667    0.000    0.000    0.000    0.000 
#    0.000    0.000    0.000    0.000    0.000    0.000 
#
# Total GULP energy -66940.629738 kJ/mol
# GULP energy per Si atom -5578.385811 kJ/mol
# Density = 2.242757 g / cm^3
# Si number density = 22.478730 Si / 1000 Ang^3
#
#
#
# Elastic Constant Matrix: (Units=GPa)
#
#
# Indices 1 2 3 4 5 6 
#
# 1 157.4830 4.8449 82.6875 13.7317 -7.7642 14.5609
# 2 4.8449 27.8577 5.7031 7.4685 -5.8664 0.2967
# 3 82.6875 5.7031 176.3001 3.3859 -18.5960 -2.9566
# 4 13.7317 7.4685 3.3859 38.9116 -1.4808 -0.2405
# 5 -7.7642 -5.8664 -18.5960 -1.4808 52.0376 -1.6859
# 6 14.5609 0.2967 -2.9566 -0.2405 -1.6859 19.8681
#
#
#
# Elastic Compliance Matrix: (Units=1/GPa)
#
#
# Indices 1 2 3 4 5 6 
#
# 1 0.009823 0.000069 -0.004743 -0.003138 -0.000570 -0.007992
# 2 0.000069 0.038811 -0.000746 -0.007263 0.003896 -0.000499
# 3 -0.004743 -0.000746 0.008227 0.001221 0.002343 0.004925
# 4 -0.003138 -0.007263 0.001221 0.028114 0.000044 0.002934
# 5 -0.000570 0.003896 0.002343 0.000044 0.020489 0.002447
# 6 -0.007992 -0.000499 0.004925 0.002934 0.002447 0.057173
#
#
# Mechanical properties :
#
#
# Convention : Reuss Voigt Hill
#
# Bulk Modulus (GPa) = 21.72934 60.90130 41.31532
# Shear Modulus (GPa) = 26.48085 40.05714 33.26899
#
# Velocity S-wave (km/s) = 3.43598 4.22596 3.85128
# Velocity P-wave (km/s) = 5.04271 7.13886 6.18030
#
# Compressibility (1/GPa) = 0.04602072
#
# Stress axis : x y z
#
# Youngs Moduli (GPa) = 101.80601 25.76622 121.54981
#
# Poissons Ratio (x) = -0.00178 0.57652
# Poissons Ratio (y) = -0.00703 0.09065
# Poissons Ratio (z) = 0.48287 0.01922
#
# Static dielectric constant tensor:
#      x y z
#    x 1.578480 0.371740 -0.117930 
#    y 0.371740 1.294970 0.148360 
#    z -0.117930 0.148360 1.822180 
# 
# From -- ./inp_files/28568.got.cif
#   From: 2010.05.17/outbox.cif.g08.bks.cpg/sg2_15_cif.got.tgz:28568.got - 2010.06.03 11:33:40.
