data_PCOD9012017
_publ_section_title
;
Structure prediction by ZEFSAII (Michael W. Deem and Ramdas Pophale) SiO2 
 PCOD9012017
Probable space group: P -1
;
_chemical_formula_sum "Si O2"
_cell_formula_units_Z 16
_cell_length_a 8.249729
_cell_length_b 7.412924
_cell_length_c 11.822181
_cell_angle_alpha 72.656789
_cell_angle_beta 85.617484
_cell_angle_gamma 72.971082
_cell_volume 659.808070
_symmetry_space_group_name_H-M "P -1"
_symmetry_group_IT_number 2
_symmetry_cell_setting 'triclinic'
loop_
_space_group_symop_operation_xyz
x,y,z
-x,-y,-z
loop_
_atom_site_type_symbol
_atom_site_label
_atom_site_fract_x
_atom_site_fract_y
_atom_site_fract_z
Si Si1 0.257618 0.908925 0.456761
Si Si2 0.642057 0.868742 0.406584
Si Si3 0.997496 0.229416 0.278855
Si Si4 0.662553 0.476260 0.615740
Si Si5 0.676781 0.581760 0.276634
Si Si6 0.621444 0.781870 0.008766
Si Si7 0.004392 0.814094 0.961413
Si Si8 0.742143 0.535375 0.853389
O O1 0.285992 0.961081 0.576966
O O2 0.091874 0.069227 0.392601
O O3 0.436682 0.939071 0.393892
O O4 0.248330 0.707700 0.434561
O O5 0.681795 0.681617 0.527213
O O6 0.711089 0.769331 0.302951
O O7 0.840449 0.399101 0.299739
O O8 0.137121 0.335637 0.215295
O O9 0.956625 0.146785 0.177292
O O10 0.466248 0.478511 0.632311
O O11 0.709867 0.448005 0.750865
O O12 0.613063 0.646896 0.142045
O O13 0.817757 0.783672 0.990937
O O14 0.593590 0.679651 0.910658
O O15 0.500000 0.000000 0.000000
O O16 0.149463 0.630997 0.037255
O O17 0.000000 0.000000 0.000000
#
# Coordination Sequence:
#
# PCOD9012017 Si02
#       8
#     2   2   2   2   2   2   2   2
#     4  10  21  40  68  90 122 169 217 256 328 381
#     4  10  23  43  67  94 127 172 218 268 321 380
#     4  11  21  42  62  93 128 171 209 266 326 384
#     4  11  24  43  69  95 127 173 220 266 321 383
#     4  11  23  41  65  92 134 163 216 272 318 378
#     4  11  25  40  63  99 128 171 215 265 325 387
#     4  11  23  41  63  93 133 175 215 259 324 395
#     4  11  22  43  67  88 135 172 213 261 331 387
#
# _framework density 24.249476000000001
#
# number of rings (size 3 to 8) (size 9 to 14) (size 15 to 20)
#    0.000    1.250    3.750    3.000    8.750    2.000 
#    0.000    3.750    0.000    0.000    0.000    0.000 
#    0.000    0.000    0.000    0.000    0.000    0.000 
#
# Total GULP energy -89481.697991 kJ/mol
# GULP energy per Si atom -5592.606124 kJ/mol
# Density = 2.419428 g / cm^3
# Si number density = 24.249476 Si / 1000 Ang^3
#
#
#
# Elastic Constant Matrix: (Units=GPa)
#
#
# Indices 1 2 3 4 5 6 
#
# 1 24.2306 25.7099 28.6723 2.4956 3.5353 4.5274
# 2 25.7099 159.9392 41.4851 25.4056 11.8456 -3.3130
# 3 28.6723 41.4851 118.1607 23.0436 9.1542 2.7685
# 4 2.4956 25.4056 23.0436 52.5130 4.1926 14.8359
# 5 3.5353 11.8456 9.1542 4.1926 40.4121 3.5945
# 6 4.5274 -3.3130 2.7685 14.8359 3.5945 40.5079
#
#
#
# Elastic Compliance Matrix: (Units=1/GPa)
#
#
# Indices 1 2 3 4 5 6 
#
# 1 0.071071 -0.009363 -0.015920 0.011479 -0.000006 -0.011825
# 2 -0.009363 0.008649 0.000194 -0.004717 -0.001592 0.003610
# 3 -0.015920 0.000194 0.013468 -0.006045 -0.001373 0.003210
# 4 0.011479 -0.004717 -0.006045 0.026534 -0.000029 -0.010971
# 5 -0.000006 -0.001592 -0.001373 -0.000029 0.025732 -0.002308
# 6 -0.011825 0.003610 0.003210 -0.010971 -0.002308 0.030307
#
#
# Mechanical properties :
#
#
# Convention : Reuss Voigt Hill
#
# Bulk Modulus (GPa) = 23.25014 54.89613 39.07313
# Shear Modulus (GPa) = 20.80955 40.45081 30.63018
#
# Velocity S-wave (km/s) = 2.93259 4.08868 3.55791
# Velocity P-wave (km/s) = 4.59080 6.70649 5.74684
#
# Compressibility (1/GPa) = 0.04301049
#
# Stress axis : x y z
#
# Youngs Moduli (GPa) = 14.07048 115.61856 74.25089
#
# Poissons Ratio (x) = 1.08256 1.18204
# Poissons Ratio (y) = 0.13175 -0.01441
# Poissons Ratio (z) = 0.22400 -0.02244
#
# Static dielectric constant tensor:
#      x y z
#    x 1.866440 0.138500 -0.231320 
#    y 0.138500 1.890350 0.185640 
#    z -0.231320 0.185640 1.512180 
# 
# From -- ./inp_files/223765.got.cif
#   From: 2010.05.17/outbox.cif.g08.bks.cpg/sg2_112_cif.got.tgz:223765.got - 2010.06.03 11:33:40.
