data_PCOD9012913
_publ_section_title
;
Structure prediction by ZEFSAII (Michael W. Deem and Ramdas Pophale) SiO2 
 PCOD9012913
Probable space group: P -1
;
_chemical_formula_sum "Si O2"
_cell_formula_units_Z 16
_cell_length_a 12.652921
_cell_length_b 14.528244
_cell_length_c 8.341839
_cell_angle_alpha 142.678643
_cell_angle_beta 88.679696
_cell_angle_gamma 115.372097
_cell_volume 684.307217
_symmetry_space_group_name_H-M "P -1"
_symmetry_group_IT_number 2
_symmetry_cell_setting 'triclinic'
loop_
_space_group_symop_operation_xyz
x,y,z
-x,-y,-z
loop_
_atom_site_type_symbol
_atom_site_label
_atom_site_fract_x
_atom_site_fract_y
_atom_site_fract_z
Si Si1 0.576262 0.461455 0.315281
Si Si2 0.332681 0.259652 0.788009
Si Si3 0.127388 0.586125 0.985512
Si Si4 0.566517 0.221923 0.244421
Si Si5 0.056899 0.839596 0.237790
Si Si6 0.704851 0.864075 0.740030
Si Si7 0.248368 0.505741 0.108285
Si Si8 0.987271 0.315969 0.317719
O O1 0.500000 0.500000 0.500000
O O2 0.605328 0.327530 0.213959
O O3 0.709407 0.693858 0.567881
O O4 0.458771 0.331271 0.998668
O O5 0.320939 0.164831 0.488821
O O6 0.173157 0.077652 0.613024
O O7 0.343331 0.448357 0.010054
O O8 0.083353 0.426124 0.625987
O O9 0.145658 0.768391 0.158216
O O10 0.256863 0.638714 0.153579
O O11 0.000000 0.500000 0.000000
O O12 0.436860 0.204191 0.275302
O O13 0.707045 0.379152 0.565387
O O14 0.500000 0.000000 0.000000
O O15 0.998617 0.778924 0.971667
O O16 0.918001 0.703705 0.166611
O O17 0.836396 0.105040 0.099732
O O18 0.000000 0.500000 0.500000
#
# Coordination Sequence:
#
# PCOD9012913 Si02
#       8
#     2   2   2   2   2   2   2   2
#     4  10  21  41  62  89 122 168 206 247 316 371
#     4  11  21  41  64  90 125 163 212 252 310 373
#     4   9  20  36  60  87 122 164 200 258 306 361
#     4  11  26  41  63  95 124 165 210 260 309 376
#     4   9  21  38  62  87 125 166 201 260 310 363
#     4  10  22  42  67  89 124 170 202 260 314 367
#     4  11  22  39  58  94 126 157 214 255 304 372
#     4   9  19  39  62  90 121 164 207 247 312 370
#
# _framework density 23.381309999999999
#
# number of rings (size 3 to 8) (size 9 to 14) (size 15 to 20)
#    0.000    2.000    2.500    0.750    7.000    3.000 
#    4.500    1.875    0.000    0.000    0.000    0.000 
#    0.000    0.000    0.000    0.000    0.000    0.000 
#
# Total GULP energy -89143.400730 kJ/mol
# GULP energy per Si atom -5571.462546 kJ/mol
# Density = 2.332809 g / cm^3
# Si number density = 23.381310 Si / 1000 Ang^3
#
#
#
# Elastic Constant Matrix: (Units=GPa)
#
#
# Indices 1 2 3 4 5 6 
#
# 1 45.0517 32.4066 28.5980 1.0605 2.1181 -33.5213
# 2 32.4066 124.0431 45.8391 6.1044 9.1208 -35.1169
# 3 28.5980 45.8391 84.2603 18.2916 6.0748 -29.6377
# 4 1.0605 6.1044 18.2916 49.4069 1.9411 7.7939
# 5 2.1181 9.1208 6.0748 1.9411 22.7643 2.9654
# 6 -33.5213 -35.1169 -29.6377 7.7939 2.9654 50.8968
#
#
#
# Elastic Compliance Matrix: (Units=1/GPa)
#
#
# Indices 1 2 3 4 5 6 
#
# 1 0.047996 -0.002450 -0.003628 -0.003681 -0.005943 0.028717
# 2 -0.002450 0.011643 -0.003348 -0.000746 -0.004109 0.004824
# 3 -0.003628 -0.003348 0.019891 -0.008031 -0.004032 0.008348
# 4 -0.003681 -0.000746 -0.008031 0.025128 0.002152 -0.011589
# 5 -0.005943 -0.004109 -0.004032 0.002152 0.048617 -0.012259
# 6 0.028717 0.004824 0.008348 -0.011589 -0.012259 0.049240
#
#
# Mechanical properties :
#
#
# Convention : Reuss Voigt Hill
#
# Bulk Modulus (GPa) = 16.48040 51.89361 34.18700
# Shear Modulus (GPa) = 20.69588 34.38102 27.53845
#
# Velocity S-wave (km/s) = 2.97837 3.83880 3.43563
# Velocity P-wave (km/s) = 4.34642 6.47234 5.51283
#
# Compressibility (1/GPa) = 0.06067814
#
# Stress axis : x y z
#
# Youngs Moduli (GPa) = 20.83504 85.88520 50.27369
#
# Poissons Ratio (x) = 0.21043 0.18242
# Poissons Ratio (y) = 0.05105 0.16830
# Poissons Ratio (z) = 0.07560 0.28751
#
# Static dielectric constant tensor:
#      x y z
#    x 2.032790 -0.103490 -0.022380 
#    y -0.103490 2.096310 0.049370 
#    z -0.022380 0.049370 1.900130 
# 
# From -- ./inp_files/314249.got.cif
#   From: 2010.05.17/outbox.cif.g08.bks.cpg/sg2_158_cif.got.tgz:314249.got - 2010.06.03 11:33:40.
