data_PCOD9012385
_publ_section_title
;
Structure prediction by ZEFSAII (Michael W. Deem and Ramdas Pophale) SiO2 
 PCOD9012385
Probable space group: P -1
;
_chemical_formula_sum "Si O2"
_cell_formula_units_Z 12
_cell_length_a 10.255719
_cell_length_b 8.769889
_cell_length_c 9.465241
_cell_angle_alpha 81.233484
_cell_angle_beta 45.791430
_cell_angle_gamma 109.804844
_cell_volume 469.209477
_symmetry_space_group_name_H-M "P -1"
_symmetry_group_IT_number 2
_symmetry_cell_setting 'triclinic'
loop_
_space_group_symop_operation_xyz
x,y,z
-x,-y,-z
loop_
_atom_site_type_symbol
_atom_site_label
_atom_site_fract_x
_atom_site_fract_y
_atom_site_fract_z
Si Si1 0.833480 0.528323 0.991520
Si Si2 0.930102 0.345802 0.698864
Si Si3 0.442832 0.579532 0.252342
Si Si4 0.862906 0.024417 0.379325
Si Si5 0.507518 0.318409 0.503653
Si Si6 0.305908 0.070456 0.166513
O O1 0.875653 0.412903 0.868955
O O2 0.608939 0.519508 0.124804
O O3 0.747686 0.417624 0.223321
O O4 0.041611 0.762922 0.784461
O O5 0.179101 0.388074 0.510114
O O6 0.000000 0.500000 0.500000
O O7 0.733068 0.117443 0.845228
O O8 0.503184 0.727951 0.316454
O O9 0.481313 0.705241 0.068549
O O10 0.704747 0.863951 0.399802
O O11 0.090014 0.052584 0.260680
O O12 0.719087 0.963804 0.642097
O O13 0.500000 0.500000 0.500000
#
# Coordination Sequence:
#
# PCOD9012385 Si02
#       6
#     2   2   2   2   2   2
#     4  10  23  43  68  96 130 173 211 269 320 386
#     4  12  25  42  66 100 131 168 221 267 326 383
#     4  10  25  44  66  97 130 173 218 264 327 383
#     4  10  21  40  69  98 129 172 217 263 330 378
#     4  10  22  42  67  96 129 175 216 262 322 391
#     4  10  22  40  67  99 131 168 216 274 317 384
#
# _framework density 25.574929999999998
#
# number of rings (size 3 to 8) (size 9 to 14) (size 15 to 20)
#    0.000    1.667    1.667    2.000    2.333   10.667 
#    0.000    1.667    0.000    0.000    0.000    0.000 
#    0.000    0.000    0.000    0.000    0.000    0.000 
#
# Total GULP energy -67154.588148 kJ/mol
# GULP energy per Si atom -5596.215679 kJ/mol
# Density = 2.551672 g / cm^3
# Si number density = 25.574930 Si / 1000 Ang^3
#
#
#
# Elastic Constant Matrix: (Units=GPa)
#
#
# Indices 1 2 3 4 5 6 
#
# 1 75.6943 28.0198 18.7705 -9.5937 9.0509 7.9523
# 2 28.0198 151.4056 56.1733 -7.6445 -8.4351 21.3476
# 3 18.7705 56.1733 164.8271 -0.0548 -1.8753 11.2543
# 4 -9.5937 -7.6445 -0.0548 38.4723 11.6998 -2.3265
# 5 9.0509 -8.4351 -1.8753 11.6998 33.1419 -4.0722
# 6 7.9523 21.3476 11.2543 -2.3265 -4.0722 51.2723
#
#
#
# Elastic Compliance Matrix: (Units=1/GPa)
#
#
# Indices 1 2 3 4 5 6 
#
# 1 0.016135 -0.002535 -0.000948 0.005640 -0.007288 -0.001562
# 2 -0.002535 0.008442 -0.002398 0.000183 0.002346 -0.002401
# 3 -0.000948 -0.002398 0.007023 -0.000814 0.000283 -0.000411
# 4 0.005640 0.000183 -0.000814 0.031249 -0.012615 -0.000357
# 5 -0.007288 0.002346 0.000283 -0.012615 0.037537 0.002501
# 6 -0.001562 -0.002401 -0.000411 -0.000357 0.002501 0.021018
#
#
# Mechanical properties :
#
#
# Convention : Reuss Voigt Hill
#
# Bulk Modulus (GPa) = 50.40750 66.42824 58.41787
# Shear Modulus (GPa) = 35.77063 43.84152 39.80608
#
# Velocity S-wave (km/s) = 3.74392 4.14483 3.94947
# Velocity P-wave (km/s) = 6.20015 6.99546 6.60978
#
# Compressibility (1/GPa) = 0.01983832
#
# Stress axis : x y z
#
# Youngs Moduli (GPa) = 61.97683 118.45563 142.38910
#
# Poissons Ratio (x) = 0.30034 0.13496
# Poissons Ratio (y) = 0.15714 0.34140
# Poissons Ratio (z) = 0.05874 0.28401
#
# Static dielectric constant tensor:
#      x y z
#    x 2.273250 0.018100 -0.064340 
#    y 0.018100 1.919350 0.002730 
#    z -0.064340 0.002730 2.072900 
# 
# From -- ./inp_files/154390.got.cif
#   From: 2010.05.17/outbox.cif.g08.bks.cpg/sg2_78_cif.got.tgz:154390.got - 2010.06.03 11:33:40.
