data_PCOD9012090
_publ_section_title
;
Structure prediction by ZEFSAII (Michael W. Deem and Ramdas Pophale) SiO2 
 PCOD9012090
Probable space group: P -1
;
_chemical_formula_sum "Si O2"
_cell_formula_units_Z 16
_cell_length_a 17.920666
_cell_length_b 9.745713
_cell_length_c 8.548902
_cell_angle_alpha 100.627751
_cell_angle_beta 139.288203
_cell_angle_gamma 57.232673
_cell_volume 746.258272
_symmetry_space_group_name_H-M "P -1"
_symmetry_group_IT_number 2
_symmetry_cell_setting 'triclinic'
loop_
_space_group_symop_operation_xyz
x,y,z
-x,-y,-z
loop_
_atom_site_type_symbol
_atom_site_label
_atom_site_fract_x
_atom_site_fract_y
_atom_site_fract_z
Si Si1 0.723402 0.867189 0.886601
Si Si2 0.450383 0.266772 0.506070
Si Si3 0.832325 0.921976 0.367199
Si Si4 0.960883 0.177361 0.048124
Si Si5 0.308346 0.564444 0.109189
Si Si6 0.971094 0.380293 0.839309
Si Si7 0.089292 0.564330 0.583769
Si Si8 0.417197 0.668512 0.018822
O O1 0.675595 0.750014 0.731796
O O2 0.600300 0.068244 0.676732
O O3 0.741846 0.877705 0.106630
O O4 0.873414 0.786940 0.020353
O O5 0.465356 0.313662 0.715244
O O6 0.429899 0.408638 0.383635
O O7 0.901015 0.864734 0.640194
O O8 0.987460 0.781364 0.492034
O O9 0.724403 0.138006 0.231476
O O10 0.819941 0.271069 0.955052
O O11 0.916613 0.312574 0.864811
O O12 0.000000 0.000000 0.000000
O O13 0.233389 0.487292 0.891891
O O14 0.358581 0.626153 0.064615
O O15 0.878922 0.477989 0.556778
O O16 0.000000 0.500000 0.000000
O O17 0.000000 0.500000 0.500000
O O18 0.500000 0.500000 0.000000
#
# Coordination Sequence:
#
# PCOD9012090 Si02
#       8
#     2   2   2   2   2   2   2   2
#     4   9  20  40  68  87 125 169 213 268 322 379
#     4  10  21  41  64  92 121 171 219 261 321 382
#     4   9  21  42  62  88 129 159 215 259 329 375
#     4  11  26  37  65  99 131 168 211 269 333 396
#     4  11  24  40  62  88 131 167 212 264 325 381
#     4  11  22  38  64  98 129 164 215 270 329 390
#     4  10  21  40  68  95 127 166 210 269 333 386
#     4  11  26  41  63  90 128 178 219 264 312 389
#
# _framework density 21.440299
#
# number of rings (size 3 to 8) (size 9 to 14) (size 15 to 20)
#    0.000    1.750    0.000    4.125    8.750    3.000 
#    0.000    0.000    0.000    6.000    0.000    0.000 
#    0.000    0.000    0.000    0.000    0.000    0.000 
#
# Total GULP energy -89163.957669 kJ/mol
# GULP energy per Si atom -5572.747354 kJ/mol
# Density = 2.139150 g / cm^3
# Si number density = 21.440299 Si / 1000 Ang^3
#
#
#
# Elastic Constant Matrix: (Units=GPa)
#
#
# Indices 1 2 3 4 5 6 
#
# 1 98.6080 40.8827 23.5225 2.4507 -15.1168 -14.1722
# 2 40.8827 109.7782 23.6564 3.7096 -15.4119 -12.9852
# 3 23.5225 23.6564 99.5876 1.1048 -22.4768 -4.4247
# 4 2.4507 3.7096 1.1048 41.8606 -0.2372 -8.1627
# 5 -15.1168 -15.4119 -22.4768 -0.2372 30.1441 5.7995
# 6 -14.1722 -12.9852 -4.4247 -8.1627 5.7995 23.4523
#
#
#
# Elastic Compliance Matrix: (Units=1/GPa)
#
#
# Indices 1 2 3 4 5 6 
#
# 1 0.013120 -0.003609 -0.001411 0.000621 0.002683 0.005216
# 2 -0.003609 0.011450 -0.001142 -0.000122 0.002563 0.003267
# 3 -0.001411 -0.001142 0.012452 -0.000351 0.008240 -0.001296
# 4 0.000621 -0.000122 -0.000351 0.025737 -0.001658 0.009610
# 5 0.002683 0.002563 0.008240 -0.001658 0.043245 -0.006676
# 6 0.005216 0.003267 -0.001296 0.009610 -0.006676 0.052352
#
#
# Mechanical properties :
#
#
# Convention : Reuss Voigt Hill
#
# Bulk Modulus (GPa) = 40.49175 53.78855 47.14015
# Shear Modulus (GPa) = 27.94648 33.75222 30.84935
#
# Velocity S-wave (km/s) = 3.61426 3.97198 3.79733
# Velocity P-wave (km/s) = 6.02859 6.79540 6.42345
#
# Compressibility (1/GPa) = 0.02469639
#
# Stress axis : x y z
#
# Youngs Moduli (GPa) = 76.22103 87.33704 80.30786
#
# Poissons Ratio (x) = 0.31521 0.11332
# Poissons Ratio (y) = 0.27509 0.09175
# Poissons Ratio (z) = 0.10755 0.09978
#
# Static dielectric constant tensor:
#      x y z
#    x 1.766000 0.027960 -0.001720 
#    y 0.027960 1.798420 0.032360 
#    z -0.001720 0.032360 1.868570 
# 
# From -- ./inp_files/329223.got.cif
#   From: 2010.05.17/outbox.cif.g08.bks.cpg/sg2_165_cif.got.tgz:329223.got - 2010.06.03 11:33:40.
