data_PCOD9012878
_publ_section_title
;
Structure prediction by ZEFSAII (Michael W. Deem and Ramdas Pophale) SiO2 
 PCOD9012878
Probable space group: P -1
;
_chemical_formula_sum "Si O2"
_cell_formula_units_Z 14
_cell_length_a 5.035512
_cell_length_b 12.376569
_cell_length_c 11.914571
_cell_angle_alpha 131.684225
_cell_angle_beta 101.606368
_cell_angle_gamma 73.411576
_cell_volume 531.401164
_symmetry_space_group_name_H-M "P -1"
_symmetry_group_IT_number 2
_symmetry_cell_setting 'triclinic'
loop_
_space_group_symop_operation_xyz
x,y,z
-x,-y,-z
loop_
_atom_site_type_symbol
_atom_site_label
_atom_site_fract_x
_atom_site_fract_y
_atom_site_fract_z
Si Si1 0.980732 0.168175 0.666166
Si Si2 0.050139 0.603937 0.754357
Si Si3 0.213018 0.494199 0.117576
Si Si4 0.632516 0.616295 0.520008
Si Si5 0.811440 0.126030 0.142692
Si Si6 0.623355 0.913402 0.756802
Si Si7 0.463265 0.784528 0.155998
O O1 0.806152 0.334242 0.727469
O O2 0.831144 0.170476 0.776432
O O3 0.291370 0.198470 0.724429
O O4 0.000000 0.000000 0.500000
O O5 0.887950 0.588806 0.842074
O O6 0.858692 0.629464 0.644041
O O7 0.214717 0.733304 0.841897
O O8 0.257136 0.454469 0.636116
O O9 0.477791 0.378986 0.007473
O O10 0.000000 0.500000 0.000000
O O11 0.500000 0.500000 0.500000
O O12 0.501513 0.785624 0.595866
O O13 0.043666 0.125450 0.259257
O O14 0.518811 0.108995 0.151399
O O15 0.000000 0.000000 0.000000
O O16 0.520116 0.082749 0.835537
#
# Coordination Sequence:
#
# PCOD9012878 Si02
#       7
#     2   2   2   2   2   2   2
#     4  11  25  46  70 100 135 180 240 288 342 406
#     4  10  22  41  67  93 140 178 224 280 342 405
#     4  10  24  47  70 100 137 185 232 286 346 410
#     4  10  21  41  62 102 133 177 224 278 344 413
#     4  11  22  39  61  97 132 171 219 269 337 409
#     4  11  23  39  66  94 134 172 219 275 338 409
#     4  11  24  46  69  99 142 178 229 291 346 411
#
# _framework density 26.345443
#
# number of rings (size 3 to 8) (size 9 to 14) (size 15 to 20)
#    0.000    1.429    1.429    3.000    2.000    3.429 
#   10.286    0.000    0.000    0.000    0.000    0.000 
#    0.000    0.000    0.000    0.000    0.000    0.000 
#
# Total GULP energy -77977.692092 kJ/mol
# GULP energy per Si atom -5569.835149 kJ/mol
# Density = 2.628548 g / cm^3
# Si number density = 26.345443 Si / 1000 Ang^3
#
#
#
# Elastic Constant Matrix: (Units=GPa)
#
#
# Indices 1 2 3 4 5 6 
#
# 1 95.7658 15.2326 23.2164 5.5596 -15.4603 2.5924
# 2 15.2326 124.9971 35.6272 27.6974 -4.5269 14.7878
# 3 23.2164 35.6272 155.1129 43.2343 -37.3165 -1.3280
# 4 5.5596 27.6974 43.2343 48.5689 -2.6071 -4.2943
# 5 -15.4603 -4.5269 -37.3165 -2.6071 41.8799 -10.2752
# 6 2.5924 14.7878 -1.3280 -4.2943 -10.2752 43.3702
#
#
#
# Elastic Compliance Matrix: (Units=1/GPa)
#
#
# Indices 1 2 3 4 5 6 
#
# 1 0.011343 -0.001188 -0.000564 0.000133 0.003713 0.000603
# 2 -0.001188 0.010040 -0.001205 -0.004994 -0.001795 -0.004309
# 3 -0.000564 -0.001205 0.011777 -0.008980 0.010167 0.002325
# 4 0.000133 -0.004994 -0.008980 0.031386 -0.005763 0.003162
# 5 0.003713 -0.001795 0.010167 -0.005763 0.035872 0.008629
# 6 0.000603 -0.004309 0.002325 0.003162 0.008629 0.026919
#
#
# Mechanical properties :
#
#
# Convention : Reuss Voigt Hill
#
# Bulk Modulus (GPa) = 36.70195 58.22537 47.46366
# Shear Modulus (GPa) = 35.12899 46.88377 41.00638
#
# Velocity S-wave (km/s) = 3.65554 4.22308 3.94952
# Velocity P-wave (km/s) = 5.63725 6.77702 6.23324
#
# Compressibility (1/GPa) = 0.02724651
#
# Stress axis : x y z
#
# Youngs Moduli (GPa) = 88.15920 99.60388 84.91209
#
# Poissons Ratio (x) = 0.11833 0.04787
# Poissons Ratio (y) = 0.10474 0.10231
# Poissons Ratio (z) = 0.04970 0.12001
#
# Static dielectric constant tensor:
#      x y z
#    x -5.991910 4.881520 2.936210 
#    y 4.881520 -0.993690 -1.618300 
#    z 2.936210 -1.618300 1.459000 
# 
# From -- ./inp_files/365405.got.cif
#   From: 2010.05.17/outbox.cif.g08.bks.cpg/sg2_183_cif.got.tgz:365405.got - 2010.06.03 11:33:40.
