data_PCOD9012296
_publ_section_title
;
Structure prediction by ZEFSAII (Michael W. Deem and Ramdas Pophale) SiO2 
 PCOD9012296
Probable space group: P -1
;
_chemical_formula_sum "Si O2"
_cell_formula_units_Z 16
_cell_length_a 18.456189
_cell_length_b 6.711492
_cell_length_c 9.446283
_cell_angle_alpha 131.446289
_cell_angle_beta 121.531636
_cell_angle_gamma 78.373330
_cell_volume 728.172308
_symmetry_space_group_name_H-M "P -1"
_symmetry_group_IT_number 2
_symmetry_cell_setting 'triclinic'
loop_
_space_group_symop_operation_xyz
x,y,z
-x,-y,-z
loop_
_atom_site_type_symbol
_atom_site_label
_atom_site_fract_x
_atom_site_fract_y
_atom_site_fract_z
Si Si1 0.491409 0.680180 0.358561
Si Si2 0.745452 0.069156 0.183152
Si Si3 0.046962 0.285756 0.874504
Si Si4 0.387302 0.619207 0.505741
Si Si5 0.252281 0.314047 0.572163
Si Si6 0.116099 0.145238 0.605247
Si Si7 0.783916 0.758837 0.810532
Si Si8 0.395452 0.200311 0.861702
O O1 0.421059 0.595163 0.371918
O O2 0.578098 0.597446 0.464965
O O3 0.500000 0.000000 0.500000
O O4 0.458595 0.485647 0.100681
O O5 0.728572 0.367252 0.294107
O O6 0.835651 0.054570 0.348910
O O7 0.671007 0.882675 0.113935
O O8 0.749092 0.954620 0.975576
O O9 0.094959 0.351379 0.800839
O O10 0.120094 0.242696 0.038668
O O11 0.972516 0.019079 0.634436
O O12 0.000000 0.500000 0.000000
O O13 0.282668 0.536660 0.370081
O O14 0.430286 0.926920 0.744307
O O15 0.181219 0.266029 0.602600
O O16 0.219045 0.167389 0.322109
O O17 0.337161 0.229726 0.680122
#
# Coordination Sequence:
#
# PCOD9012296 Si02
#       8
#     2   2   2   2   2   2   2   2
#     4  11  27  46  71 101 135 173 223 275 337 404
#     4  10  21  42  66  93 135 174 221 277 333 390
#     4  10  21  40  69  90 137 178 222 273 337 387
#     4  11  25  45  69  99 136 173 226 276 332 403
#     4  11  24  38  69 101 132 173 231 272 329 403
#     4   9  22  42  60  99 130 178 224 276 331 393
#     4  11  23  42  67  97 131 181 219 276 333 394
#     4  11  24  43  71  96 134 176 217 276 336 396
#
# _framework density 21.972821
#
# number of rings (size 3 to 8) (size 9 to 14) (size 15 to 20)
#    0.000    1.500    2.500    1.125    5.250    2.000 
#    0.000    8.750    0.000    0.000    0.000    0.000 
#    0.000    0.000    0.000    0.000    0.000    0.000 
#
# Total GULP energy -89423.334056 kJ/mol
# GULP energy per Si atom -5588.958379 kJ/mol
# Density = 2.192281 g / cm^3
# Si number density = 21.972821 Si / 1000 Ang^3
#
#
#
# Elastic Constant Matrix: (Units=GPa)
#
#
# Indices 1 2 3 4 5 6 
#
# 1 58.6174 27.6896 21.2435 -14.3888 -17.3879 6.0461
# 2 27.6896 115.0960 64.1496 -8.9428 -4.5776 -4.3879
# 3 21.2435 64.1496 135.0113 -15.8603 -12.8130 -4.5419
# 4 -14.3888 -8.9428 -15.8603 35.7455 6.7596 -15.3687
# 5 -17.3879 -4.5776 -12.8130 6.7596 45.1989 0.6101
# 6 6.0461 -4.3879 -4.5419 -15.3687 0.6101 28.7320
#
#
#
# Elastic Compliance Matrix: (Units=1/GPa)
#
#
# Indices 1 2 3 4 5 6 
#
# 1 0.023341 -0.004979 -0.000040 0.005409 0.007694 -0.002948
# 2 -0.004979 0.012958 -0.005479 0.000228 -0.002222 0.002330
# 3 -0.000040 -0.005479 0.010819 0.004466 0.001785 0.003233
# 4 0.005409 0.000228 0.004466 0.042428 -0.003277 0.022367
# 5 0.007694 -0.002222 0.001785 -0.003277 0.025909 -0.003979
# 6 -0.002948 0.002330 0.003233 0.022367 -0.003979 0.048340
#
#
# Mechanical properties :
#
#
# Convention : Reuss Voigt Hill
#
# Bulk Modulus (GPa) = 38.28303 59.43223 48.85763
# Shear Modulus (GPa) = 25.83984 34.97810 30.40897
#
# Velocity S-wave (km/s) = 3.43299 3.99417 3.72416
# Velocity P-wave (km/s) = 5.75974 6.95542 6.38563
#
# Compressibility (1/GPa) = 0.02612124
#
# Stress axis : x y z
#
# Youngs Moduli (GPa) = 42.84383 77.17053 92.42659
#
# Poissons Ratio (x) = 0.38422 0.00374
# Poissons Ratio (y) = 0.21331 0.50643
# Poissons Ratio (z) = 0.00173 0.42284
#
# Static dielectric constant tensor:
#      x y z
#    x 1.836880 0.016180 -0.011370 
#    y 0.016180 1.781700 0.006880 
#    z -0.011370 0.006880 1.844490 
# 
# From -- ./inp_files/324225.got.cif
#   From: 2010.05.17/outbox.cif.g08.bks.cpg/sg2_163_cif.got.tgz:324225.got - 2010.06.03 11:33:40.
