data_PCOD9012246
_publ_section_title
;
Structure prediction by ZEFSAII (Michael W. Deem and Ramdas Pophale) SiO2 
 PCOD9012246
Probable space group: P -1
;
_chemical_formula_sum "Si O2"
_cell_formula_units_Z 16
_cell_length_a 25.002120
_cell_length_b 11.264676
_cell_length_c 6.368641
_cell_angle_alpha 113.823865
_cell_angle_beta 130.910916
_cell_angle_gamma 30.983558
_cell_volume 638.060303
_symmetry_space_group_name_H-M "P -1"
_symmetry_group_IT_number 2
_symmetry_cell_setting 'triclinic'
loop_
_space_group_symop_operation_xyz
x,y,z
-x,-y,-z
loop_
_atom_site_type_symbol
_atom_site_label
_atom_site_fract_x
_atom_site_fract_y
_atom_site_fract_z
Si Si1 0.114018 0.025140 0.182812
Si Si2 0.235908 0.290698 0.242791
Si Si3 0.865811 0.319364 0.511801
Si Si4 0.840149 0.769293 0.621704
Si Si5 0.522785 0.332583 0.076515
Si Si6 0.517735 0.820988 0.460608
Si Si7 0.678209 0.421177 0.905342
Si Si8 0.959752 0.346221 0.386860
O O1 0.993780 0.118199 0.859767
O O2 0.089348 0.203923 0.143749
O O3 0.097629 0.086711 0.430403
O O4 0.254831 0.762233 0.247190
O O5 0.249225 0.402165 0.491122
O O6 0.177397 0.278597 0.243008
O O7 0.370373 0.011686 0.304229
O O8 0.150053 0.474736 0.955803
O O9 0.920537 0.303877 0.431666
O O10 0.798887 0.288227 0.265153
O O11 0.935370 0.527280 0.550155
O O12 0.685211 0.043244 0.328545
O O13 0.436327 0.470145 0.171223
O O14 0.500000 0.500000 0.000000
O O15 0.458774 0.310071 0.768916
O O16 0.618313 0.638915 0.782611
O O17 0.500000 0.000000 0.500000
#
# Coordination Sequence:
#
# PCOD9012246 Si02
#       8
#     2   2   2   2   2   2   2   2
#     4  11  26  43  69 100 144 195 234 292 356 431
#     4  10  21  40  69 102 135 177 238 294 350 417
#     4  10  24  44  69 100 142 186 240 295 349 424
#     4  11  23  43  71 102 141 186 238 299 353 423
#     4  12  28  46  73 109 149 191 237 301 370 436
#     4  12  25  43  76 107 142 193 242 293 360 437
#     4  12  27  46  70 106 153 189 234 298 366 427
#     4  10  22  43  70 102 136 184 243 293 348 424
#
# _framework density 25.075998999999999
#
# number of rings (size 3 to 8) (size 9 to 14) (size 15 to 20)
#    0.000    1.000    2.500    3.000    3.500   11.000 
#    0.000    0.000    0.000    0.000    0.000    0.000 
#    0.000    0.000    0.000    0.000    0.000    0.000 
#
# Total GULP energy -89453.843509 kJ/mol
# GULP energy per Si atom -5590.865219 kJ/mol
# Density = 2.501893 g / cm^3
# Si number density = 25.075999 Si / 1000 Ang^3
#
#
#
# Elastic Constant Matrix: (Units=GPa)
#
#
# Indices 1 2 3 4 5 6 
#
# 1 107.5957 60.5966 30.3044 3.1391 -15.7211 4.4357
# 2 60.5966 138.8985 38.5267 14.1204 -22.9767 -11.6379
# 3 30.3044 38.5267 88.4638 -4.4923 -0.5381 5.8809
# 4 3.1391 14.1204 -4.4923 39.8316 4.3938 -13.8863
# 5 -15.7211 -22.9767 -0.5381 4.3938 32.9941 5.9634
# 6 4.4357 -11.6379 5.8809 -13.8863 5.9634 54.3963
#
#
#
# Elastic Compliance Matrix: (Units=1/GPa)
#
#
# Indices 1 2 3 4 5 6 
#
# 1 0.013222 -0.004623 -0.002378 -0.000920 0.003605 -0.002440
# 2 -0.004623 0.011935 -0.003903 -0.004483 0.006369 0.001510
# 3 -0.002378 -0.003903 0.014021 0.003270 -0.003897 -0.000895
# 4 -0.000920 -0.004483 0.003270 0.030778 -0.008980 0.007604
# 5 0.003605 0.006369 -0.003897 -0.008980 0.038502 -0.005023
# 6 -0.002440 0.001510 -0.000895 0.007604 -0.005023 0.021494
#
#
# Mechanical properties :
#
#
# Convention : Reuss Voigt Hill
#
# Bulk Modulus (GPa) = 57.57857 65.97928 61.77892
# Shear Modulus (GPa) = 31.73603 39.14643 35.44123
#
# Velocity S-wave (km/s) = 3.56138 3.95538 3.76354
# Velocity P-wave (km/s) = 6.31844 6.87232 6.60119
#
# Compressibility (1/GPa) = 0.01736757
#
# Stress axis : x y z
#
# Youngs Moduli (GPa) = 75.63264 83.78829 71.32351
#
# Poissons Ratio (x) = 0.38736 0.16964
# Poissons Ratio (y) = 0.34965 0.27840
# Poissons Ratio (z) = 0.17989 0.32705
#
# Static dielectric constant tensor:
#      x y z
#    x 2.068990 -0.075420 0.077920 
#    y -0.075420 2.111060 -0.032740 
#    z 0.077920 -0.032740 2.041000 
# 
# From -- ./inp_files/126921.got.cif
#   From: 2010.05.17/outbox.cif.g08.bks.cpg/sg2_64_cif.got.tgz:126921.got - 2010.06.03 11:33:40.
