data_PCOD9012299
_publ_section_title
;
Structure prediction by ZEFSAII (Michael W. Deem and Ramdas Pophale) SiO2 
 PCOD9012299
Probable space group: P -1
;
_chemical_formula_sum "Si O2"
_cell_formula_units_Z 16
_cell_length_a 8.987405
_cell_length_b 14.405352
_cell_length_c 9.629858
_cell_angle_alpha 78.009507
_cell_angle_beta 133.259828
_cell_angle_gamma 75.842264
_cell_volume 745.676826
_symmetry_space_group_name_H-M "P -1"
_symmetry_group_IT_number 2
_symmetry_cell_setting 'triclinic'
loop_
_space_group_symop_operation_xyz
x,y,z
-x,-y,-z
loop_
_atom_site_type_symbol
_atom_site_label
_atom_site_fract_x
_atom_site_fract_y
_atom_site_fract_z
Si Si1 0.750299 0.590132 0.231581
Si Si2 0.798891 0.000568 0.776009
Si Si3 0.988125 0.235716 0.913042
Si Si4 0.803556 0.994339 0.463731
Si Si5 0.342053 0.162157 0.620119
Si Si6 0.012889 0.450040 0.874338
Si Si7 0.665391 0.835849 0.068201
Si Si8 0.440066 0.358372 0.625832
O O1 0.709326 0.712328 0.147497
O O2 0.551099 0.613343 0.214082
O O3 0.000000 0.500000 0.500000
O O4 0.797929 0.548687 0.114603
O O5 0.548909 0.084634 0.666387
O O6 0.801090 0.029194 0.609408
O O7 0.863305 0.873495 0.862272
O O8 0.000000 0.000000 0.000000
O O9 0.083951 0.189061 0.832195
O O10 0.058778 0.326494 0.958623
O O11 0.703906 0.292022 0.744786
O O12 0.859291 0.866813 0.532606
O O13 0.000000 0.000000 0.500000
O O14 0.546647 0.082766 0.198651
O O15 0.405126 0.120474 0.833552
O O16 0.323226 0.281080 0.566795
O O17 0.748455 0.527003 0.609569
O O18 0.000000 0.500000 0.000000
#
# Coordination Sequence:
#
# PCOD9012299 Si02
#       8
#     2   2   2   2   2   2   2   2
#     4   8  18  39  62  89 121 164 208 257 318 381
#     4  12  25  43  63  94 134 172 220 268 331 398
#     4  11  23  40  68  93 132 170 221 264 328 390
#     4  12  27  39  62  93 132 169 223 270 325 394
#     4  11  23  41  67  93 131 173 213 265 332 389
#     4  10  22  40  66  95 129 167 218 274 323 381
#     4  10  22  41  65  93 131 172 214 271 324 389
#     4  10  21  40  69  91 126 175 217 260 327 393
#
# _framework density 21.457014999999998
#
# number of rings (size 3 to 8) (size 9 to 14) (size 15 to 20)
#    0.000    1.500    2.500    1.875    5.250    1.000 
#    0.000    0.625    0.000    0.000    0.000    0.000 
#    0.000    0.000    0.000    0.000    0.000    0.000 
#
# Total GULP energy -89185.873750 kJ/mol
# GULP energy per Si atom -5574.117109 kJ/mol
# Density = 2.140818 g / cm^3
# Si number density = 21.457015 Si / 1000 Ang^3
#
#
#
# Elastic Constant Matrix: (Units=GPa)
#
#
# Indices 1 2 3 4 5 6 
#
# 1 152.8799 39.1421 34.6213 20.8325 -17.6100 -42.3692
# 2 39.1421 96.8130 36.5755 1.5652 -19.7014 -8.8865
# 3 34.6213 36.5755 47.2647 7.6438 -28.3978 -19.6281
# 4 20.8325 1.5652 7.6438 37.1422 -7.7209 -7.0684
# 5 -17.6100 -19.7014 -28.3978 -7.7209 39.1515 6.4325
# 6 -42.3692 -8.8865 -19.6281 -7.0684 6.4325 43.1691
#
#
#
# Elastic Compliance Matrix: (Units=1/GPa)
#
#
# Indices 1 2 3 4 5 6 
#
# 1 0.010438 -0.002917 -0.001057 -0.003834 0.000309 0.008490
# 2 -0.002917 0.015828 -0.013962 0.002400 -0.002140 -0.005241
# 3 -0.001057 -0.013962 0.060484 -0.000851 0.033161 0.018508
# 4 -0.003834 0.002400 -0.000851 0.030244 0.004733 0.000591
# 5 0.000309 -0.002140 0.033161 0.004733 0.048188 0.008535
# 6 0.008490 -0.005241 0.018508 0.000591 0.008535 0.037659
#
#
# Mechanical properties :
#
#
# Convention : Reuss Voigt Hill
#
# Bulk Modulus (GPa) = 19.65486 57.51505 38.58496
# Shear Modulus (GPa) = 19.55619 36.33381 27.94500
#
# Velocity S-wave (km/s) = 3.02224 4.11947 3.61275
# Velocity P-wave (km/s) = 4.62153 7.03489 5.95182
#
# Compressibility (1/GPa) = 0.05087799
#
# Stress axis : x y z
#
# Youngs Moduli (GPa) = 95.80161 63.17950 16.53318
#
# Poissons Ratio (x) = 0.18426 0.01748
# Poissons Ratio (y) = 0.27941 0.23084
# Poissons Ratio (z) = 0.10130 0.88213
#
# Static dielectric constant tensor:
#      x y z
#    x 1.837860 -0.009540 0.006000 
#    y -0.009540 1.841100 0.020150 
#    z 0.006000 0.020150 1.767100 
# 
# From -- ./inp_files/207165.got.cif
#   From: 2010.05.17/outbox.cif.g08.bks.cpg/sg2_104_cif.got.tgz:207165.got - 2010.06.03 11:33:40.
