data_PCOD9012300
_publ_section_title
;
Structure prediction by ZEFSAII (Michael W. Deem and Ramdas Pophale) SiO2 
 PCOD9012300
Probable space group: P -1
;
_chemical_formula_sum "Si O2"
_cell_formula_units_Z 16
_cell_length_a 13.586455
_cell_length_b 15.198874
_cell_length_c 8.953530
_cell_angle_alpha 39.330550
_cell_angle_beta 39.354182
_cell_angle_gamma 58.619638
_cell_volume 729.157906
_symmetry_space_group_name_H-M "P -1"
_symmetry_group_IT_number 2
_symmetry_cell_setting 'triclinic'
loop_
_space_group_symop_operation_xyz
x,y,z
-x,-y,-z
loop_
_atom_site_type_symbol
_atom_site_label
_atom_site_fract_x
_atom_site_fract_y
_atom_site_fract_z
Si Si1 0.256619 0.078142 0.266228
Si Si2 0.486809 0.653058 0.754854
Si Si3 0.897314 0.225132 0.143218
Si Si4 0.035778 0.894527 0.225081
Si Si5 0.920745 0.586411 0.099418
Si Si6 0.784325 0.893061 0.077049
Si Si7 0.155891 0.644288 0.258643
Si Si8 0.427473 0.366997 0.654279
O O1 0.111029 0.122230 0.468012
O O2 0.245216 0.910670 0.532896
O O3 0.227705 0.078444 0.121821
O O4 0.404083 0.206041 0.958176
O O5 0.640527 0.770923 0.448503
O O6 0.474733 0.635475 0.611349
O O7 0.500000 0.500000 0.000000
O O8 0.343325 0.696278 0.956032
O O9 0.887021 0.347945 0.875865
O O10 0.938976 0.286076 0.179472
O O11 0.055325 0.164139 0.005581
O O12 0.063119 0.750975 0.309258
O O13 0.192528 0.967010 0.035274
O O14 0.000000 0.000000 0.000000
O O15 0.873564 0.495788 0.424268
O O16 0.753422 0.619480 0.195596
O O17 0.000000 0.500000 0.000000
O O18 0.500000 0.500000 0.500000
#
# Coordination Sequence:
#
# PCOD9012300 Si02
#       8
#     2   2   2   2   2   2   2   2
#     4  10  21  42  71  95 129 177 223 274 339 389
#     4  11  23  46  63  89 140 182 218 258 342 412
#     4  11  21  43  69 101 132 171 226 279 334 390
#     4  11  21  39  65 103 131 161 229 284 328 390
#     4  12  26  43  68 103 134 172 230 281 331 392
#     4  10  21  40  69  91 129 184 214 273 336 393
#     4  12  25  41  66 104 136 175 220 276 340 404
#     4  11  25  46  67  98 133 181 221 274 335 402
#
# _framework density 21.943121999999999
#
# number of rings (size 3 to 8) (size 9 to 14) (size 15 to 20)
#    0.000    1.000    6.250    2.625    3.500    1.500 
#    2.250    3.750    0.000    0.000    0.000    0.000 
#    0.000    0.000    0.000    0.000    0.000    0.000 
#
# Total GULP energy -89274.816949 kJ/mol
# GULP energy per Si atom -5579.676059 kJ/mol
# Density = 2.189318 g / cm^3
# Si number density = 21.943122 Si / 1000 Ang^3
#
#
#
# Elastic Constant Matrix: (Units=GPa)
#
#
# Indices 1 2 3 4 5 6 
#
# 1 46.9760 5.6767 26.0805 -16.7884 6.7036 20.5142
# 2 5.6767 62.4783 11.8983 4.2673 -10.0475 21.7501
# 3 26.0805 11.8983 137.5928 -8.1784 6.7336 13.8585
# 4 -16.7884 4.2673 -8.1784 31.6457 2.7956 -4.8292
# 5 6.7036 -10.0475 6.7336 2.7956 18.4727 -15.5673
# 6 20.5142 21.7501 13.8585 -4.8292 -15.5673 39.9033
#
#
#
# Elastic Compliance Matrix: (Units=1/GPa)
#
#
# Indices 1 2 3 4 5 6 
#
# 1 0.088183 0.000412 -0.000682 0.043522 -0.107071 -0.081826
# 2 0.000412 0.020680 -0.001313 -0.004789 0.003755 -0.010143
# 3 -0.000682 -0.001313 0.008482 0.001982 -0.007807 -0.004685
# 4 0.043522 -0.004789 0.001982 0.055427 -0.058239 -0.036465
# 5 -0.107071 0.003755 -0.007807 -0.058239 0.220040 0.134504
# 6 -0.081826 -0.010143 -0.004685 -0.036465 0.134504 0.122343
#
#
# Mechanical properties :
#
#
# Convention : Reuss Voigt Hill
#
# Bulk Modulus (GPa) = 8.75823 37.15090 22.95456
# Shear Modulus (GPa) = 8.98665 31.56378 20.27521
#
# Velocity S-wave (km/s) = 2.02591 3.79679 3.04302
# Velocity P-wave (km/s) = 3.07773 6.01565 4.77810
#
# Compressibility (1/GPa) = 0.11417832
#
# Stress axis : x y z
#
# Youngs Moduli (GPa) = 11.34011 48.35609 117.88996
#
# Poissons Ratio (x) = -0.01992 0.08042
# Poissons Ratio (y) = -0.00467 0.15481
# Poissons Ratio (z) = 0.00774 0.06350
#
# Static dielectric constant tensor:
#      x y z
#    x 1.835190 -0.000470 0.007090 
#    y -0.000470 1.826110 -0.046160 
#    z 0.007090 -0.046160 1.836210 
# 
# From -- ./inp_files/312298.got.cif
#   From: 2010.05.17/outbox.cif.g08.bks.cpg/sg2_157_cif.got.tgz:312298.got - 2010.06.03 11:33:40.
