data_PCOD9012159
_publ_section_title
;
Structure prediction by ZEFSAII (Michael W. Deem and Ramdas Pophale) SiO2 
 PCOD9012159
Probable space group: P -1
;
_chemical_formula_sum "Si O2"
_cell_formula_units_Z 16
_cell_length_a 9.605758
_cell_length_b 11.762798
_cell_length_c 9.793154
_cell_angle_alpha 95.460087
_cell_angle_beta 137.199124
_cell_angle_gamma 78.986054
_cell_volume 736.305657
_symmetry_space_group_name_H-M "P -1"
_symmetry_group_IT_number 2
_symmetry_cell_setting 'triclinic'
loop_
_space_group_symop_operation_xyz
x,y,z
-x,-y,-z
loop_
_atom_site_type_symbol
_atom_site_label
_atom_site_fract_x
_atom_site_fract_y
_atom_site_fract_z
Si Si1 0.938610 0.269464 0.723517
Si Si2 0.340056 0.706979 0.207231
Si Si3 0.163441 0.881614 0.596937
Si Si4 0.344217 0.458106 0.191279
Si Si5 0.091723 0.476821 0.280561
Si Si6 0.596800 0.793683 0.860994
Si Si7 0.383746 0.131387 0.428939
Si Si8 0.033724 0.751859 0.742360
O O1 0.888808 0.397088 0.633706
O O2 0.840035 0.287798 0.805903
O O3 0.841439 0.174302 0.562404
O O4 0.184481 0.222611 0.905872
O O5 0.448281 0.571323 0.264460
O O6 0.488647 0.791108 0.377869
O O7 0.226417 0.739799 0.985616
O O8 0.406482 0.883515 0.796774
O O9 0.095629 0.792414 0.645425
O O10 0.000000 0.000000 0.500000
O O11 0.457561 0.336233 0.200516
O O12 0.272725 0.441416 0.293609
O O13 0.126208 0.491941 0.957015
O O14 0.056671 0.368437 0.333472
O O15 0.632179 0.827527 0.734478
O O16 0.151290 0.150548 0.322360
O O17 0.500000 0.000000 0.500000
#
# Coordination Sequence:
#
# PCOD9012159 Si02
#       8
#     2   2   2   2   2   2   2   2
#     4  10  21  41  69  92 123 163 205 251 316 379
#     4  10  21  40  68  98 121 158 204 259 315 365
#     4  12  28  43  58  88 131 172 212 250 303 369
#     4   8  15  33  64  97 120 148 202 256 308 375
#     4   8  15  34  63  95 122 151 197 257 314 364
#     4  11  21  42  66  91 121 167 205 253 312 366
#     4  12  24  37  62  94 119 161 223 254 285 364
#     4  11  23  42  62  92 132 158 198 271 310 347
#
# _framework density 21.730108000000001
#
# number of rings (size 3 to 8) (size 9 to 14) (size 15 to 20)
#    0.000    1.750    3.750    2.250    0.000    5.000 
#    0.000    5.625    0.000    0.000    0.000    0.000 
#    0.000    0.000    0.000    0.000    0.000    0.000 
#
# Total GULP energy -89413.564896 kJ/mol
# GULP energy per Si atom -5588.347806 kJ/mol
# Density = 2.168065 g / cm^3
# Si number density = 21.730108 Si / 1000 Ang^3
#
#
#
# Elastic Constant Matrix: (Units=GPa)
#
#
# Indices 1 2 3 4 5 6 
#
# 1 44.8619 -11.7192 -2.5688 -13.7444 5.7417 -8.1665
# 2 -11.7192 59.4214 18.2978 -13.8209 -1.3657 -8.1908
# 3 -2.5688 18.2978 49.9664 -12.8573 16.4146 3.2390
# 4 -13.7444 -13.8209 -12.8573 29.7068 -2.6855 11.0105
# 5 5.7417 -1.3657 16.4146 -2.6855 27.4767 -9.2731
# 6 -8.1665 -8.1908 3.2390 11.0105 -9.2731 29.3243
#
#
#
# Elastic Compliance Matrix: (Units=1/GPa)
#
#
# Indices 1 2 3 4 5 6 
#
# 1 0.032733 0.009375 0.006275 0.021305 -0.007852 0.000559
# 2 0.009375 0.025790 -0.010969 0.008389 0.010471 0.011187
# 3 0.006275 -0.010969 0.042943 0.022698 -0.033823 -0.025278
# 4 0.021305 0.008389 0.022698 0.064627 -0.019614 -0.024699
# 5 -0.007852 0.010471 -0.033823 -0.019614 0.068109 0.033376
# 6 0.000559 0.011187 -0.025278 -0.024699 0.033376 0.060002
#
#
# Mechanical properties :
#
#
# Convention : Reuss Voigt Hill
#
# Bulk Modulus (GPa) = 9.02287 18.02992 13.52640
# Shear Modulus (GPa) = 15.53836 27.31757 21.42797
#
# Velocity S-wave (km/s) = 2.67696 3.54945 3.14362
# Velocity P-wave (km/s) = 3.70353 5.01132 4.40621
#
# Compressibility (1/GPa) = 0.11082945
#
# Stress axis : x y z
#
# Youngs Moduli (GPa) = 30.55021 38.77547 23.28647
#
# Poissons Ratio (x) = -0.36353 -0.14612
# Poissons Ratio (y) = -0.28642 0.25542
# Poissons Ratio (z) = -0.19170 0.42531
#
# Static dielectric constant tensor:
#      x y z
#    x 1.761570 0.015200 0.039280 
#    y 0.015200 1.816010 -0.000540 
#    z 0.039280 -0.000540 1.814650 
# 
# From -- ./inp_files/187966.got.cif
#   From: 2010.05.17/outbox.cif.g08.bks.cpg/sg2_94_cif.got.tgz:187966.got - 2010.06.03 11:33:40.
