data_PCOD9012954
_publ_section_title
;
Structure prediction by ZEFSAII (Michael W. Deem and Ramdas Pophale) SiO2 
 PCOD9012954
Probable space group: P -1
;
_chemical_formula_sum "Si O2"
_cell_formula_units_Z 14
_cell_length_a 8.624413
_cell_length_b 12.406906
_cell_length_c 13.414876
_cell_angle_alpha 34.756193
_cell_angle_beta 82.418511
_cell_angle_gamma 58.897567
_cell_volume 560.982385
_symmetry_space_group_name_H-M "P -1"
_symmetry_group_IT_number 2
_symmetry_cell_setting 'triclinic'
loop_
_space_group_symop_operation_xyz
x,y,z
-x,-y,-z
loop_
_atom_site_type_symbol
_atom_site_label
_atom_site_fract_x
_atom_site_fract_y
_atom_site_fract_z
Si Si1 0.214347 0.257216 0.521666
Si Si2 0.994128 0.962945 0.292401
Si Si3 0.765017 0.760549 0.144476
Si Si4 0.850226 0.506879 0.868108
Si Si5 0.784117 0.168077 0.821060
Si Si6 0.657652 0.457009 0.291426
Si Si7 0.332608 0.262400 0.082611
O O1 0.225922 0.342488 0.346125
O O2 0.982990 0.557840 0.352325
O O3 0.171204 0.070206 0.659728
O O4 0.448227 0.061530 0.711480
O O5 0.863357 0.268674 0.046981
O O6 0.170089 0.763287 0.337805
O O7 0.148704 0.861290 0.455234
O O8 0.771598 0.548372 0.256917
O O9 0.500000 0.000000 0.000000
O O10 0.789007 0.946156 0.954713
O O11 0.687893 0.705873 0.821179
O O12 0.096914 0.378053 0.976069
O O13 0.568160 0.390643 0.741890
O O14 0.000000 0.000000 0.000000
O O15 0.627444 0.564281 0.101609
#
# Coordination Sequence:
#
# PCOD9012954 Si02
#       7
#     2   2   2   2   2   2   2
#     4  11  22  44  66  96 131 170 218 267 322 381
#     4  11  22  42  67  90 132 173 206 275 326 375
#     4   9  19  39  64  85 130 167 201 264 319 374
#     4  11  24  45  66  95 133 170 221 270 323 375
#     4  11  21  36  61  96 125 160 218 263 315 392
#     4  10  21  41  62  91 128 171 213 257 330 385
#     4  11  23  43  68  96 130 175 218 267 320 389
#
# _framework density 24.956218
#
# number of rings (size 3 to 8) (size 9 to 14) (size 15 to 20)
#    0.000    1.429    4.286    1.714    0.000    2.286 
#    2.571   12.857    0.000    0.000    0.000    0.000 
#    0.000    0.000    0.000    0.000    0.000    0.000 
#
# Total GULP energy -77999.548045 kJ/mol
# GULP energy per Si atom -5571.396289 kJ/mol
# Density = 2.489942 g / cm^3
# Si number density = 24.956218 Si / 1000 Ang^3
#
#
#
# Elastic Constant Matrix: (Units=GPa)
#
#
# Indices 1 2 3 4 5 6 
#
# 1 56.0021 21.1970 36.8536 3.4917 -1.0697 -14.3157
# 2 21.1970 69.1617 40.2734 20.9921 6.8732 -14.6812
# 3 36.8536 40.2734 131.4620 21.0315 2.8766 -28.0004
# 4 3.4917 20.9921 21.0315 44.9602 -8.5543 2.5244
# 5 -1.0697 6.8732 2.8766 -8.5543 48.6737 -4.3937
# 6 -14.3157 -14.6812 -28.0004 2.5244 -4.3937 20.5485
#
#
#
# Elastic Compliance Matrix: (Units=1/GPa)
#
#
# Indices 1 2 3 4 5 6 
#
# 1 0.024210 -0.004008 -0.004034 0.001851 0.002457 0.008804
# 2 -0.004008 0.022888 -0.001435 -0.011164 -0.004105 0.012098
# 3 -0.004034 -0.001435 0.013393 -0.006206 -0.000406 0.015090
# 4 0.001851 -0.011164 -0.006206 0.032368 0.006064 -0.017823
# 5 0.002457 -0.004105 -0.000406 0.006064 0.022475 0.002286
# 6 0.008804 0.012098 0.015090 -0.017823 0.002286 0.086683
#
#
# Mechanical properties :
#
#
# Convention : Reuss Voigt Hill
#
# Bulk Modulus (GPa) = 24.07549 50.36377 37.21963
# Shear Modulus (GPa) = 21.29320 33.38995 27.34157
#
# Velocity S-wave (km/s) = 2.92417 3.66176 3.31355
# Velocity P-wave (km/s) = 4.59010 6.17273 5.43928
#
# Compressibility (1/GPa) = 0.04153601
#
# Stress axis : x y z
#
# Youngs Moduli (GPa) = 41.30485 43.69165 74.66537
#
# Poissons Ratio (x) = 0.17513 0.30118
# Poissons Ratio (y) = 0.16556 0.10718
# Poissons Ratio (z) = 0.16661 0.06272
#
# Static dielectric constant tensor:
#      x y z
#    x 1.891670 -0.032180 -0.127240 
#    y -0.032180 2.165910 0.010410 
#    z -0.127240 0.010410 1.666310 
# 
# From -- ./inp_files/504930.got.cif
#   From: 2010.05.17/outbox.cif.g08.bks.cpg/sg2_253_cif.got.tgz:504930.got - 2010.06.03 11:33:40.
