data_PCOD9012031
_publ_section_title
;
Structure prediction by ZEFSAII (Michael W. Deem and Ramdas Pophale) SiO2 
 PCOD9012031
Probable space group: P -1
;
_chemical_formula_sum "Si O2"
_cell_formula_units_Z 15
_cell_length_a 14.156905
_cell_length_b 7.495578
_cell_length_c 9.545241
_cell_angle_alpha 131.157360
_cell_angle_beta 49.789066
_cell_angle_gamma 128.823684
_cell_volume 545.244535
_symmetry_space_group_name_H-M "P -1"
_symmetry_group_IT_number 2
_symmetry_cell_setting 'triclinic'
loop_
_space_group_symop_operation_xyz
x,y,z
-x,-y,-z
loop_
_atom_site_type_symbol
_atom_site_label
_atom_site_fract_x
_atom_site_fract_y
_atom_site_fract_z
Si Si1 0.894783 0.161094 0.026280
Si Si2 0.696701 0.370778 0.854185
Si Si3 0.000000 0.500000 0.500000
Si Si4 0.155141 0.066529 0.761374
Si Si5 0.459875 0.480182 0.277505
Si Si6 0.166374 0.299434 0.341587
Si Si7 0.752784 0.404579 0.130468
Si Si8 0.476403 0.143995 0.357151
O O1 0.864348 0.401890 0.129286
O O2 0.806676 0.004555 0.159166
O O3 0.040159 0.188353 0.951173
O O4 0.868341 0.985923 0.820766
O O5 0.824765 0.555464 0.745455
O O6 0.631046 0.129534 0.696259
O O7 0.572670 0.460587 0.054200
O O8 0.748043 0.328221 0.933704
O O9 0.946950 0.600943 0.449710
O O10 0.910342 0.193547 0.391557
O O11 0.259410 0.314547 0.714972
O O12 0.312490 0.406140 0.319361
O O13 0.452625 0.294798 0.320711
O O14 0.510261 0.748249 0.444188
O O15 0.627293 0.178658 0.196213
#
# Coordination Sequence:
#
# PCOD9012031 Si02
#       8
#     2   2   1   2   2   2   2   2
#     4  10  21  40  68  91 131 175 229 280 332 401
#     4  11  22  41  66  98 137 176 227 281 334 406
#     4  10  26  42  64  98 142 166 224 292 330 408
#     4  10  22  43  63  96 133 174 229 279 333 409
#     4  10  22  40  62  91 135 176 226 275 339 394
#     4  11  22  42  66  97 133 184 222 282 341 398
#     4  11  21  40  71  98 130 183 222 280 344 400
#     4  10  23  40  61  99 137 171 226 287 327 412
#
# _framework density 27.510594999999999
#
# number of rings (size 3 to 8) (size 9 to 14) (size 15 to 20)
#    0.000    1.600    1.333    4.000    1.867    3.733 
#    0.000    0.667    0.000    0.000    0.000    0.000 
#    0.000    0.000    0.000    0.000    0.000    0.000 
#
# Total GULP energy -83656.794561 kJ/mol
# GULP energy per Si atom -5577.119637 kJ/mol
# Density = 2.744798 g / cm^3
# Si number density = 27.510595 Si / 1000 Ang^3
#
#
#
# Elastic Constant Matrix: (Units=GPa)
#
#
# Indices 1 2 3 4 5 6 
#
# 1 185.9513 5.8973 23.7772 8.9718 -4.3612 4.3677
# 2 5.8973 77.4163 -7.5196 6.4560 4.6249 19.5485
# 3 23.7772 -7.5196 45.1182 7.9305 13.5890 10.4138
# 4 8.9718 6.4560 7.9305 52.1792 16.5200 1.6901
# 5 -4.3612 4.6249 13.5890 16.5200 33.8519 14.1473
# 6 4.3677 19.5485 10.4138 1.6901 14.1473 53.5621
#
#
#
# Elastic Compliance Matrix: (Units=1/GPa)
#
#
# Indices 1 2 3 4 5 6 
#
# 1 0.006070 -0.000887 -0.004048 -0.001348 0.003272 -0.000206
# 2 -0.000887 0.015258 0.004993 -0.002115 -0.000558 -0.006253
# 3 -0.004048 0.004993 0.029544 -0.000841 -0.010836 -0.004348
# 4 -0.001348 -0.002115 -0.000841 0.023661 -0.012611 0.003630
# 5 0.003272 -0.000558 -0.010836 -0.012611 0.044426 -0.009293
# 6 -0.000206 -0.006253 -0.004348 0.003630 -0.009293 0.024154
#
#
# Mechanical properties :
#
#
# Convention : Reuss Voigt Hill
#
# Bulk Modulus (GPa) = 19.61119 39.19950 29.40534
# Shear Modulus (GPa) = 31.25140 47.00736 39.12938
#
# Velocity S-wave (km/s) = 3.37408 4.13813 3.77548
# Velocity P-wave (km/s) = 4.72475 6.09196 5.45139
#
# Compressibility (1/GPa) = 0.05099131
#
# Stress axis : x y z
#
# Youngs Moduli (GPa) = 164.74330 65.53732 33.84744
#
# Poissons Ratio (x) = 0.05810 0.13700
# Poissons Ratio (y) = 0.14605 -0.16901
# Poissons Ratio (z) = 0.66682 -0.32725
#
# Static dielectric constant tensor:
#      x y z
#    x 1.766380 -0.169520 0.733760 
#    y -0.169520 2.187940 0.317260 
#    z 0.733760 0.317260 0.581650 
# 
# From -- ./inp_files/448309.got.cif
#   From: 2010.05.17/outbox.cif.g08.bks.cpg/sg2_225_cif.got.tgz:448309.got - 2010.06.03 11:33:40.
