data_PCOD9012373
_publ_section_title
;
Structure prediction by ZEFSAII (Michael W. Deem and Ramdas Pophale) SiO2 
 PCOD9012373
Probable space group: P -1
;
_chemical_formula_sum "Si O2"
_cell_formula_units_Z 14
_cell_length_a 17.940421
_cell_length_b 8.942757
_cell_length_c 9.180636
_cell_angle_alpha 120.318706
_cell_angle_beta 149.630714
_cell_angle_gamma 67.744125
_cell_volume 637.348126
_symmetry_space_group_name_H-M "P -1"
_symmetry_group_IT_number 2
_symmetry_cell_setting 'triclinic'
loop_
_space_group_symop_operation_xyz
x,y,z
-x,-y,-z
loop_
_atom_site_type_symbol
_atom_site_label
_atom_site_fract_x
_atom_site_fract_y
_atom_site_fract_z
Si Si1 0.333722 0.820083 0.767988
Si Si2 0.138915 0.129109 0.228944
Si Si3 0.351982 0.553322 0.203665
Si Si4 0.231025 0.528634 0.662461
Si Si5 0.049025 0.364793 0.631289
Si Si6 0.032685 0.980137 0.375136
Si Si7 0.597552 0.090276 0.394399
O O1 0.327977 0.639295 0.756817
O O2 0.397139 0.817037 0.709550
O O3 0.171588 0.882672 0.520003
O O4 0.439184 0.978482 0.100360
O O5 0.162320 0.332645 0.408474
O O6 0.284887 0.046520 0.477346
O O7 0.000000 0.000000 0.000000
O O8 0.107846 0.110295 0.994753
O O9 0.500000 0.500000 0.500000
O O10 0.355220 0.759283 0.336370
O O11 0.320335 0.520863 0.961983
O O12 0.210676 0.447577 0.996989
O O13 0.090119 0.638865 0.497682
O O14 0.063343 0.184524 0.486727
O O15 0.000000 0.500000 0.500000
O O16 0.000000 0.000000 0.500000
#
# Coordination Sequence:
#
# PCOD9012373 Si02
#       7
#     2   2   2   2   2   2   2
#     4  11  26  46  69 102 141 181 237 288 351 405
#     4  12  24  45  72 101 137 185 227 280 352 413
#     4  11  24  44  72 101 137 183 232 280 350 414
#     4  11  25  45  69 103 140 177 240 288 334 419
#     4  10  21  40  69  97 133 176 228 281 338 404
#     4  12  24  44  70 102 138 177 229 288 341 409
#     4  11  26  46  72  95 144 186 226 287 357 414
#
# _framework density 21.966017000000001
#
# number of rings (size 3 to 8) (size 9 to 14) (size 15 to 20)
#    0.000    0.857    2.857    5.143    4.000    2.857 
#    2.571    0.000    0.000    0.000    0.000    0.000 
#    0.000    0.000    0.000    0.000    0.000    0.000 
#
# Total GULP energy -78202.475482 kJ/mol
# GULP energy per Si atom -5585.891106 kJ/mol
# Density = 2.191602 g / cm^3
# Si number density = 21.966017 Si / 1000 Ang^3
#
#
#
# Elastic Constant Matrix: (Units=GPa)
#
#
# Indices 1 2 3 4 5 6 
#
# 1 49.8243 20.1106 24.2372 4.6749 -10.9364 27.5651
# 2 20.1106 113.6327 31.7627 17.4748 -5.9662 6.5727
# 3 24.2372 31.7627 122.7021 7.6740 -12.6201 10.6954
# 4 4.6749 17.4748 7.6740 47.9839 -14.6591 2.4896
# 5 -10.9364 -5.9662 -12.6201 -14.6591 35.8658 3.2084
# 6 27.5651 6.5727 10.6954 2.4896 3.2084 29.3916
#
#
#
# Elastic Compliance Matrix: (Units=1/GPa)
#
#
# Indices 1 2 3 4 5 6 
#
# 1 0.060937 -0.006372 -0.003282 0.007416 0.024572 -0.057842
# 2 -0.006372 0.010672 -0.001990 -0.004123 -0.002999 0.004990
# 3 -0.003282 -0.001990 0.009536 0.000174 0.002112 -0.000192
# 4 0.007416 -0.004123 0.000174 0.026126 0.013187 -0.009750
# 5 0.024572 -0.002999 0.002112 0.013187 0.043604 -0.029020
# 6 -0.057842 0.004990 -0.000192 -0.009750 -0.029020 0.091218
#
#
# Mechanical properties :
#
#
# Convention : Reuss Voigt Hill
#
# Bulk Modulus (GPa) = 17.28360 48.70891 32.99626
# Shear Modulus (GPa) = 17.56434 36.65151 27.10792
#
# Velocity S-wave (km/s) = 2.83081 4.08923 3.51677
# Velocity P-wave (km/s) = 4.30930 6.67222 5.61643
#
# Compressibility (1/GPa) = 0.05785831
#
# Stress axis : x y z
#
# Youngs Moduli (GPa) = 16.41030 93.70321 104.86292
#
# Poissons Ratio (x) = 0.59707 0.34418
# Poissons Ratio (y) = 0.10457 0.20862
# Poissons Ratio (z) = 0.05386 0.18642
#
# Static dielectric constant tensor:
#      x y z
#    x 1.954410 0.075150 0.032680 
#    y 0.075150 1.825170 -0.001960 
#    z 0.032680 -0.001960 1.817960 
# 
# From -- ./inp_files/159278.got.cif
#   From: 2010.05.17/outbox.cif.g08.bks.cpg/sg2_80_cif.got.tgz:159278.got - 2010.06.03 11:33:40.
