data_PCOD9012543
_publ_section_title
;
Structure prediction by ZEFSAII (Michael W. Deem and Ramdas Pophale) SiO2 
 PCOD9012543
Probable space group: P -1
;
_chemical_formula_sum "Si O2"
_cell_formula_units_Z 14
_cell_length_a 8.113132
_cell_length_b 21.038862
_cell_length_c 9.115495
_cell_angle_alpha 52.261015
_cell_angle_beta 62.984899
_cell_angle_gamma 30.282219
_cell_volume 609.590600
_symmetry_space_group_name_H-M "P -1"
_symmetry_group_IT_number 2
_symmetry_cell_setting 'triclinic'
loop_
_space_group_symop_operation_xyz
x,y,z
-x,-y,-z
loop_
_atom_site_type_symbol
_atom_site_label
_atom_site_fract_x
_atom_site_fract_y
_atom_site_fract_z
Si Si1 0.133186 0.912300 0.718870
Si Si2 0.676689 0.512283 0.340134
Si Si3 0.294327 0.942115 0.046640
Si Si4 0.628323 0.660997 0.375783
Si Si5 0.657583 0.643886 0.700052
Si Si6 0.550125 0.903237 0.712921
Si Si7 0.782711 0.438046 0.069619
O O1 0.403164 0.751361 0.781546
O O2 0.321352 0.915524 0.722044
O O3 0.000000 0.000000 0.500000
O O4 0.859184 0.976646 0.850386
O O5 0.500000 0.500000 0.500000
O O6 0.525088 0.642904 0.306604
O O7 0.648687 0.511995 0.178390
O O8 0.077849 0.378676 0.387757
O O9 0.572591 0.773660 0.202845
O O10 0.437886 0.953788 0.856544
O O11 0.000000 0.000000 0.000000
O O12 0.458707 0.706344 0.539068
O O13 0.000000 0.500000 0.500000
O O14 0.871580 0.488557 0.877567
O O15 0.917161 0.732796 0.798002
O O16 0.500000 0.000000 0.500000
O O17 0.500000 0.500000 0.000000
#
# Coordination Sequence:
#
# PCOD9012543 Si02
#       7
#     2   2   2   2   2   2   2
#     4  11  23  44  75 104 140 190 240 290 368 436
#     4  11  24  41  68 104 141 183 240 298 363 425
#     4  10  23  41  69 101 135 186 235 276 363 426
#     4  10  21  40  70  99 138 181 235 295 353 424
#     4  11  23  45  73 103 147 185 240 304 358 436
#     4  11  26  48  69 102 150 185 238 303 359 430
#     4  12  27  46  72 104 144 192 244 300 367 422
#
# _framework density 22.966232000000002
#
# number of rings (size 3 to 8) (size 9 to 14) (size 15 to 20)
#    0.000    1.143    2.857    3.000    6.000    3.429 
#    0.000    0.714    0.000    0.000    0.000    0.000 
#    0.000    0.000    0.000    0.000    0.000    0.000 
#
# Total GULP energy -78214.282185 kJ/mol
# GULP energy per Si atom -5586.734442 kJ/mol
# Density = 2.291396 g / cm^3
# Si number density = 22.966232 Si / 1000 Ang^3
#
#
#
# Elastic Constant Matrix: (Units=GPa)
#
#
# Indices 1 2 3 4 5 6 
#
# 1 82.9146 37.6290 36.0171 17.4072 17.0691 7.7173
# 2 37.6290 150.7048 84.3644 20.4613 -2.3785 15.8204
# 3 36.0171 84.3644 183.4463 20.3945 -2.6830 -1.9309
# 4 17.4072 20.4613 20.3945 55.4122 5.6171 17.1936
# 5 17.0691 -2.3785 -2.6830 5.6171 39.0303 7.9212
# 6 7.7173 15.8204 -1.9309 17.1936 7.9212 27.8019
#
#
#
# Elastic Compliance Matrix: (Units=1/GPa)
#
#
# Indices 1 2 3 4 5 6 
#
# 1 0.016068 -0.002947 -0.001564 -0.002964 -0.007082 0.000959
# 2 -0.002947 0.010451 -0.004294 0.000363 0.002892 -0.006476
# 3 -0.001564 -0.004294 0.008059 -0.002426 0.000343 0.004840
# 4 -0.002964 0.000363 -0.002426 0.024240 0.000652 -0.014729
# 5 -0.007082 0.002892 0.000343 0.000652 0.030606 -0.008780
# 6 0.000959 -0.006476 0.004840 -0.014729 -0.008780 0.051335
#
#
# Mechanical properties :
#
#
# Convention : Reuss Voigt Hill
#
# Bulk Modulus (GPa) = 58.93072 81.45406 70.19239
# Shear Modulus (GPa) = 30.48335 41.71925 36.10130
#
# Velocity S-wave (km/s) = 3.64718 4.26672 3.96906
# Velocity P-wave (km/s) = 6.59176 7.73415 7.18569
#
# Compressibility (1/GPa) = 0.01696908
#
# Stress axis : x y z
#
# Youngs Moduli (GPa) = 62.23546 95.68231 124.09129
#
# Poissons Ratio (x) = 0.28195 0.19403
# Poissons Ratio (y) = 0.18339 0.53286
# Poissons Ratio (z) = 0.09731 0.41087
#
# Static dielectric constant tensor:
#      x y z
#    x 1.858220 0.016560 0.026540 
#    y 0.016560 1.971740 0.041330 
#    z 0.026540 0.041330 1.911570 
# 
# From -- ./inp_files/223152.got.cif
#   From: 2010.05.17/outbox.cif.g08.bks.cpg/sg2_112_cif.got.tgz:223152.got - 2010.06.03 11:33:40.
