data_PCOD9012197
_publ_section_title
;
Structure prediction by ZEFSAII (Michael W. Deem and Ramdas Pophale) SiO2 
 PCOD9012197
Probable space group: P -1
;
_chemical_formula_sum "Si O2"
_cell_formula_units_Z 16
_cell_length_a 21.953734
_cell_length_b 6.842612
_cell_length_c 4.960715
_cell_angle_alpha 103.968339
_cell_angle_beta 80.970037
_cell_angle_gamma 103.474355
_cell_volume 699.245510
_symmetry_space_group_name_H-M "P -1"
_symmetry_group_IT_number 2
_symmetry_cell_setting 'triclinic'
loop_
_space_group_symop_operation_xyz
x,y,z
-x,-y,-z
loop_
_atom_site_type_symbol
_atom_site_label
_atom_site_fract_x
_atom_site_fract_y
_atom_site_fract_z
Si Si1 0.267056 0.134373 0.958364
Si Si2 0.436146 0.556366 0.451360
Si Si3 0.822951 0.268145 0.292149
Si Si4 0.923110 0.847980 0.800652
Si Si5 0.655516 0.880339 0.601592
Si Si6 0.939429 0.132011 0.388428
Si Si7 0.435633 0.833916 0.036530
Si Si8 0.800838 0.511935 0.861789
O O1 0.324376 0.105575 0.718422
O O2 0.207786 0.962968 0.850119
O O3 0.283596 0.102016 0.244546
O O4 0.252534 0.359261 0.001908
O O5 0.500000 0.500000 0.500000
O O6 0.385915 0.345522 0.391987
O O7 0.447185 0.671697 0.198770
O O8 0.416053 0.711459 0.734005
O O9 0.891774 0.268711 0.364465
O O10 0.783189 0.344619 0.584281
O O11 0.820998 0.410199 0.082789
O O12 0.860499 0.677182 0.763699
O O13 0.986674 0.770677 0.652157
O O14 0.922363 0.040141 0.665681
O O15 0.930185 0.935714 0.127691
O O16 0.616315 0.047664 0.775069
O O17 0.500000 0.000000 0.000000
#
# Coordination Sequence:
#
# PCOD9012197 Si02
#       8
#     2   2   2   2   2   2   2   2
#     4  12  28  48  67 100 144 180 234 284 336 398
#     4  12  26  45  76 108 142 179 225 275 342 413
#     4  12  26  43  72  99 134 185 232 282 344 410
#     4  10  21  40  68  99 134 176 224 285 351 406
#     4  12  28  46  74 102 139 184 226 288 336 396
#     4  10  21  40  68  99 134 176 224 285 351 406
#     4  12  26  45  76 108 142 179 225 275 342 413
#     4  12  26  43  72  99 134 185 232 282 344 410
#
# _framework density 22.881803000000001
#
# number of rings (size 3 to 8) (size 9 to 14) (size 15 to 20)
#    0.000    0.500    2.500    5.250    3.500    7.000 
#    0.000    0.000    0.000    0.000    0.000    0.000 
#    0.000    0.000    0.000    0.000    0.000    0.000 
#
# Total GULP energy -89675.208455 kJ/mol
# GULP energy per Si atom -5604.700528 kJ/mol
# Density = 2.282972 g / cm^3
# Si number density = 22.881803 Si / 1000 Ang^3
#
#
#
# Elastic Constant Matrix: (Units=GPa)
#
#
# Indices 1 2 3 4 5 6 
#
# 1 57.3162 12.8976 2.5335 4.6085 -2.9994 -13.4088
# 2 12.8976 56.8628 16.6547 2.8479 -5.8892 -11.5953
# 3 2.5335 16.6547 91.8526 4.0896 2.4121 -4.6258
# 4 4.6085 2.8479 4.0896 46.9017 -5.0784 -0.6422
# 5 -2.9994 -5.8892 2.4121 -5.0784 35.4801 4.5214
# 6 -13.4088 -11.5953 -4.6258 -0.6422 4.5214 36.6578
#
#
#
# Elastic Compliance Matrix: (Units=1/GPa)
#
#
# Indices 1 2 3 4 5 6 
#
# 1 0.019752 -0.003247 0.000430 -0.001689 0.000068 0.006214
# 2 -0.003247 0.020563 -0.003471 -0.000266 0.002759 0.004534
# 3 0.000430 -0.003471 0.011626 -0.001005 -0.001563 0.000702
# 4 -0.001689 -0.000266 -0.001005 0.021918 0.003124 -0.000830
# 5 0.000068 0.002759 -0.001563 0.003124 0.029571 -0.002892
# 6 0.006214 0.004534 0.000702 -0.000830 -0.002892 0.031417
#
#
# Mechanical properties :
#
#
# Convention : Reuss Voigt Hill
#
# Bulk Modulus (GPa) = 25.40389 30.02257 27.71323
# Shear Modulus (GPa) = 31.14417 35.40433 33.27425
#
# Velocity S-wave (km/s) = 3.69330 3.93780 3.81751
# Velocity P-wave (km/s) = 5.41420 5.81586 5.61862
#
# Compressibility (1/GPa) = 0.03936406
#
# Stress axis : x y z
#
# Youngs Moduli (GPa) = 50.62813 48.63113 86.01658
#
# Poissons Ratio (x) = 0.15793 -0.03702
# Poissons Ratio (y) = 0.16441 0.29858
# Poissons Ratio (z) = -0.02179 0.16881
#
# Static dielectric constant tensor:
#      x y z
#    x 1.854800 -0.007720 -0.029010 
#    y -0.007720 1.767890 0.035440 
#    z -0.029010 0.035440 1.821450 
# 
# From -- ./inp_files/114750.got.cif
#   From: 2010.05.17/outbox.cif.g08.bks.cpg/sg2_58_cif.got.tgz:114750.got - 2010.06.03 11:33:40.
