data_PCOD9012379
_publ_section_title
;
Structure prediction by ZEFSAII (Michael W. Deem and Ramdas Pophale) SiO2 
 PCOD9012379
Probable space group: P -1
;
_chemical_formula_sum "Si O2"
_cell_formula_units_Z 16
_cell_length_a 7.997167
_cell_length_b 8.960809
_cell_length_c 11.779350
_cell_angle_alpha 96.589972
_cell_angle_beta 111.233337
_cell_angle_gamma 103.562074
_cell_volume 746.071991
_symmetry_space_group_name_H-M "P -1"
_symmetry_group_IT_number 2
_symmetry_cell_setting 'triclinic'
loop_
_space_group_symop_operation_xyz
x,y,z
-x,-y,-z
loop_
_atom_site_type_symbol
_atom_site_label
_atom_site_fract_x
_atom_site_fract_y
_atom_site_fract_z
Si Si1 0.136693 0.408980 0.672086
Si Si2 0.130205 0.444714 0.114282
Si Si3 0.704272 0.936432 0.216063
Si Si4 0.108212 0.900368 0.383160
Si Si5 0.948586 0.280707 0.278931
Si Si6 0.317412 0.351699 0.947052
Si Si7 0.381539 0.776625 0.305640
Si Si8 0.286793 0.242322 0.509413
O O1 0.190293 0.388555 0.815292
O O2 0.281478 0.362320 0.620366
O O3 0.946854 0.268640 0.584697
O O4 0.109346 0.576928 0.665730
O O5 0.007975 0.334387 0.170349
O O6 0.265367 0.605472 0.215697
O O7 0.235192 0.352343 0.051817
O O8 0.000000 0.500000 0.000000
O O9 0.645777 0.813115 0.087078
O O10 0.536776 0.869839 0.259841
O O11 0.907803 0.915244 0.296932
O O12 0.773323 0.122588 0.227576
O O13 0.246459 0.880546 0.315900
O O14 0.199469 0.054086 0.492023
O O15 0.143415 0.268711 0.382390
O O16 0.500000 0.500000 0.000000
O O17 0.494524 0.746119 0.442803
#
# Coordination Sequence:
#
# PCOD9012379 Si02
#       8
#     2   2   2   2   2   2   2   2
#     4  11  20  42  65  98 133 185 216 273 348 402
#     4  12  23  44  71  92 135 184 230 275 336 408
#     4  10  23  43  69 101 137 175 232 278 338 402
#     4  10  21  40  69  97 137 182 226 266 338 417
#     4  11  25  42  67 105 139 176 220 289 349 393
#     4  11  20  40  70  93 128 181 234 275 321 403
#     4  12  22  43  73 102 132 187 226 272 343 416
#     4  11  23  41  68 102 142 172 226 282 340 412
#
# _framework density 21.445651000000002
#
# number of rings (size 3 to 8) (size 9 to 14) (size 15 to 20)
#    0.000    1.000    6.250    1.875    1.750    1.000 
#    0.000    7.500    0.000    0.000    0.000    0.000 
#    0.000    0.000    0.000    0.000    0.000    0.000 
#
# Total GULP energy -89178.126995 kJ/mol
# GULP energy per Si atom -5573.632937 kJ/mol
# Density = 2.139684 g / cm^3
# Si number density = 21.445651 Si / 1000 Ang^3
#
#
#
# Elastic Constant Matrix: (Units=GPa)
#
#
# Indices 1 2 3 4 5 6 
#
# 1 95.7471 28.1187 1.6571 0.4696 -18.8549 -6.9777
# 2 28.1187 152.5795 28.0291 23.8513 -5.8484 -1.4572
# 3 1.6571 28.0291 54.6317 8.4123 -0.4462 -5.3439
# 4 0.4696 23.8513 8.4123 31.0100 1.9386 -7.7078
# 5 -18.8549 -5.8484 -0.4462 1.9386 41.3151 10.8335
# 6 -6.9777 -1.4572 -5.3439 -7.7078 10.8335 23.0914
#
#
#
# Elastic Compliance Matrix: (Units=1/GPa)
#
#
# Indices 1 2 3 4 5 6 
#
# 1 0.012211 -0.002490 0.000889 0.001743 0.004579 0.002172
# 2 -0.002490 0.008781 -0.003766 -0.006780 0.001435 -0.004006
# 3 0.000889 -0.003766 0.020910 -0.001504 -0.001114 0.004890
# 4 0.001743 -0.006780 -0.001504 0.042499 -0.006647 0.017055
# 5 0.004579 0.001435 -0.001114 -0.006647 0.030855 -0.015478
# 6 0.002172 -0.004006 0.004890 0.017055 -0.015478 0.057796
#
#
# Mechanical properties :
#
#
# Convention : Reuss Voigt Hill
#
# Bulk Modulus (GPa) = 32.08339 46.50756 39.29547
# Shear Modulus (GPa) = 25.74962 35.42687 30.58825
#
# Velocity S-wave (km/s) = 3.46886 4.06881 3.78076
# Velocity P-wave (km/s) = 5.57107 6.61868 6.11734
#
# Compressibility (1/GPa) = 0.03116877
#
# Stress axis : x y z
#
# Youngs Moduli (GPa) = 81.89066 113.87947 47.82300
#
# Poissons Ratio (x) = 0.28354 -0.04249
# Poissons Ratio (y) = 0.20389 0.18009
# Poissons Ratio (z) = -0.07276 0.42885
#
# Static dielectric constant tensor:
#      x y z
#    x 1.862260 -0.019950 -0.006690 
#    y -0.019950 1.832820 -0.016290 
#    z -0.006690 -0.016290 1.866940 
# 
# From -- ./inp_files/382707.got.cif
#   From: 2010.05.17/outbox.cif.g08.bks.cpg/sg2_192_cif.got.tgz:382707.got - 2010.06.03 11:33:40.
