data_PCOD9012713
_publ_section_title
;
Structure prediction by ZEFSAII (Michael W. Deem and Ramdas Pophale) SiO2 
 PCOD9012713
Probable space group: P -1
;
_chemical_formula_sum "Si O2"
_cell_formula_units_Z 16
_cell_length_a 12.999855
_cell_length_b 11.980579
_cell_length_c 16.008737
_cell_angle_alpha 120.343471
_cell_angle_beta 153.930819
_cell_angle_gamma 75.991328
_cell_volume 784.537713
_symmetry_space_group_name_H-M "P -1"
_symmetry_group_IT_number 2
_symmetry_cell_setting 'triclinic'
loop_
_space_group_symop_operation_xyz
x,y,z
-x,-y,-z
loop_
_atom_site_type_symbol
_atom_site_label
_atom_site_fract_x
_atom_site_fract_y
_atom_site_fract_z
Si Si1 0.899046 0.785143 0.306795
Si Si2 0.164945 0.386225 0.230239
Si Si3 0.591168 0.073690 0.398144
Si Si4 0.269864 0.143624 0.500053
Si Si5 0.982894 0.345002 0.903258
Si Si6 0.213902 0.988301 0.770444
Si Si7 0.976163 0.895545 0.866890
Si Si8 0.254401 0.503790 0.003615
O O1 0.762604 0.603345 0.124291
O O2 0.172151 0.864401 0.475922
O O3 0.008552 0.851420 0.503539
O O4 0.727140 0.854376 0.170807
O O5 0.500000 0.500000 0.500000
O O6 0.113544 0.268992 0.222171
O O7 0.004735 0.471231 0.170488
O O8 0.034228 0.295233 0.011623
O O9 0.702642 0.213176 0.599883
O O10 0.572554 0.934868 0.382866
O O11 0.297740 0.998601 0.109440
O O12 0.973460 0.053521 0.298807
O O13 0.223551 0.124815 0.360783
O O14 0.462903 0.326526 0.728484
O O15 0.222319 0.409673 0.030464
O O16 0.000000 0.500000 0.000000
O O17 0.500000 0.000000 0.000000
O O18 0.000000 0.000000 0.000000
#
# Coordination Sequence:
#
# PCOD9012713 Si02
#       8
#     2   2   2   2   2   2   2   2
#     4   9  21  41  68  89 119 161 199 251 317 370
#     4  11  23  38  56  88 125 170 209 249 296 356
#     4  10  21  41  58  88 121 162 201 251 304 363
#     4  11  23  41  62  89 123 160 199 257 309 361
#     4   9  20  36  59  76 119 166 200 244 298 352
#     4  10  21  43  68  93 119 152 205 254 312 376
#     4  12  26  35  60  91 124 165 213 248 297 358
#     4  10  21  41  61  88 128 160 203 256 306 362
#
# _framework density 20.394176000000002
#
# number of rings (size 3 to 8) (size 9 to 14) (size 15 to 20)
#    0.000    1.750    1.250    2.250    8.750    1.500 
#    9.000    0.625    0.000    0.000    0.000    0.000 
#    0.000    0.000    0.000    0.000    0.000    0.000 
#
# Total GULP energy -89273.834622 kJ/mol
# GULP energy per Si atom -5579.614664 kJ/mol
# Density = 2.034776 g / cm^3
# Si number density = 20.394176 Si / 1000 Ang^3
#
#
#
# Elastic Constant Matrix: (Units=GPa)
#
#
# Indices 1 2 3 4 5 6 
#
# 1 51.1787 12.3830 -4.5280 -3.4429 -18.6638 1.4647
# 2 12.3830 48.6485 17.4761 7.6104 -11.1227 -7.1756
# 3 -4.5280 17.4761 57.6132 9.0529 1.6794 -3.8693
# 4 -3.4429 7.6104 9.0529 34.6101 -8.0424 -0.9287
# 5 -18.6638 -11.1227 1.6794 -8.0424 34.8270 -1.2643
# 6 1.4647 -7.1756 -3.8693 -0.9287 -1.2643 31.3042
#
#
#
# Elastic Compliance Matrix: (Units=1/GPa)
#
#
# Indices 1 2 3 4 5 6 
#
# 1 0.026620 -0.005686 0.002299 0.006457 0.013775 -0.001517
# 2 -0.005686 0.027518 -0.008098 -0.003035 0.005638 0.005711
# 3 0.002299 -0.008098 0.020771 -0.004184 -0.003309 0.000346
# 4 0.006457 -0.003035 -0.004184 0.033730 0.010479 -0.000091
# 5 0.013775 0.005638 -0.003309 0.010479 0.040555 0.002188
# 6 -0.001517 0.005711 0.000346 -0.000091 0.002188 0.033453
#
#
# Mechanical properties :
#
#
# Convention : Reuss Voigt Hill
#
# Bulk Modulus (GPa) = 19.25351 23.12252 21.18801
# Shear Modulus (GPa) = 22.42854 28.95554 25.69204
#
# Velocity S-wave (km/s) = 3.31985 3.77210 3.55318
# Velocity P-wave (km/s) = 4.91491 5.50764 5.21970
#
# Compressibility (1/GPa) = 0.05193859
#
# Stress axis : x y z
#
# Youngs Moduli (GPa) = 37.56619 36.33947 48.14330
#
# Poissons Ratio (x) = 0.20663 -0.11068
# Poissons Ratio (y) = 0.21361 0.38987
# Poissons Ratio (z) = -0.08636 0.29428
#
# Static dielectric constant tensor:
#      x y z
#    x 1.506190 0.047620 -0.140680 
#    y 0.047620 1.769250 0.036310 
#    z -0.140680 0.036310 1.637580 
# 
# From -- ./inp_files/338150.got.cif
#   From: 2010.05.17/outbox.cif.g08.bks.cpg/sg2_170_cif.got.tgz:338150.got - 2010.06.03 11:33:40.
