data_PCOD9012870
_publ_section_title
;
Structure prediction by ZEFSAII (Michael W. Deem and Ramdas Pophale) SiO2 
 PCOD9012870
Probable space group: P -1
;
_chemical_formula_sum "Si O2"
_cell_formula_units_Z 16
_cell_length_a 11.597791
_cell_length_b 20.778427
_cell_length_c 20.342448
_cell_angle_alpha 18.894152
_cell_angle_beta 151.858151
_cell_angle_gamma 139.919181
_cell_volume 667.628864
_symmetry_space_group_name_H-M "P -1"
_symmetry_group_IT_number 2
_symmetry_cell_setting 'triclinic'
loop_
_space_group_symop_operation_xyz
x,y,z
-x,-y,-z
loop_
_atom_site_type_symbol
_atom_site_label
_atom_site_fract_x
_atom_site_fract_y
_atom_site_fract_z
Si Si1 0.564755 0.557274 0.682093
Si Si2 0.179193 0.536547 0.225954
Si Si3 0.540840 0.069555 0.808090
Si Si4 0.517738 0.549464 0.114218
Si Si5 0.956389 0.391243 0.715134
Si Si6 0.888121 0.086510 0.693896
Si Si7 0.524789 0.189590 0.872564
Si Si8 0.211708 0.658875 0.733854
O O1 0.820589 0.421232 0.893317
O O2 0.590975 0.448117 0.870426
O O3 0.272521 0.591689 0.470108
O O4 0.528945 0.812056 0.411850
O O5 0.437987 0.288557 0.592182
O O6 0.271498 0.705636 0.141980
O O7 0.943675 0.487676 0.183977
O O8 0.399758 0.928085 0.903351
O O9 0.859365 0.927999 0.120148
O O10 0.500000 0.000000 0.000000
O O11 0.791851 0.581611 0.215903
O O12 0.620222 0.294586 0.386130
O O13 0.292605 0.718727 0.787232
O O14 0.769937 0.594982 0.472941
O O15 0.091200 0.155477 0.048935
O O16 0.916695 0.151662 0.569690
O O17 0.500000 0.500000 0.000000
#
# Coordination Sequence:
#
# PCOD9012870 Si02
#       8
#     2   2   2   2   2   2   2   2
#     4   8  20  40  64 101 131 169 222 282 333 381
#     4   9  22  45  60 100 136 170 220 280 337 384
#     4   9  20  38  60  97 128 169 205 283 336 371
#     4  11  21  41  68  94 135 185 223 264 322 406
#     4  10  21  41  63 104 134 170 216 284 340 380
#     4  10  21  41  61  96 139 170 224 268 336 392
#     4  11  22  39  65 100 135 170 213 277 349 397
#     4  10  24  43  66  93 134 190 223 266 325 403
#
# _framework density 23.965411
#
# number of rings (size 3 to 8) (size 9 to 14) (size 15 to 20)
#    0.750    1.500    2.500    0.375    1.750    3.500 
#   13.500    2.500    0.000    1.500    0.000    0.000 
#    0.000    0.500    0.000    0.000    0.000    0.000 
#
# Total GULP energy -89147.352964 kJ/mol
# GULP energy per Si atom -5571.709560 kJ/mol
# Density = 2.391086 g / cm^3
# Si number density = 23.965411 Si / 1000 Ang^3
#
#
#
# Elastic Constant Matrix: (Units=GPa)
#
#
# Indices 1 2 3 4 5 6 
#
# 1 141.9043 41.2905 26.0646 -3.5943 -37.1361 25.7273
# 2 41.2905 60.9598 9.7274 -22.8402 -12.3292 28.6512
# 3 26.0646 9.7274 50.3945 -19.3700 -15.3272 1.3883
# 4 -3.5943 -22.8402 -19.3700 40.1701 1.1506 -5.8130
# 5 -37.1361 -12.3292 -15.3272 1.1506 46.0098 -4.1363
# 6 25.7273 28.6512 1.3883 -5.8130 -4.1363 34.3423
#
#
#
# Elastic Compliance Matrix: (Units=1/GPa)
#
#
# Indices 1 2 3 4 5 6 
#
# 1 0.012006 -0.006652 -0.005295 -0.005941 0.005977 -0.003517
# 2 -0.006652 0.040881 0.006090 0.021816 0.004813 -0.025097
# 3 -0.005295 0.006090 0.030311 0.017618 0.007151 0.001504
# 4 -0.005941 0.021816 0.017618 0.044193 0.005244 -0.006351
# 5 0.005977 0.004813 0.007151 0.005244 0.029711 -0.004316
# 6 -0.003517 -0.025097 0.001504 -0.006351 -0.004316 0.051036
#
#
# Mechanical properties :
#
#
# Convention : Reuss Voigt Hill
#
# Bulk Modulus (GPa) = 13.98875 45.26929 29.62902
# Shear Modulus (GPa) = 20.51871 35.84953 28.18412
#
# Velocity S-wave (km/s) = 2.92923 3.87186 3.43305
# Velocity P-wave (km/s) = 4.15815 6.23850 5.30137
#
# Compressibility (1/GPa) = 0.07148601
#
# Stress axis : x y z
#
# Youngs Moduli (GPa) = 83.29053 24.46123 32.99080
#
# Poissons Ratio (x) = 0.16271 0.17467
# Poissons Ratio (y) = 0.55402 -0.20091
# Poissons Ratio (z) = 0.44099 -0.14897
#
# Static dielectric constant tensor:
#      x y z
#    x 2.068170 -0.024070 -0.076350 
#    y -0.024070 1.964300 0.017060 
#    z -0.076350 0.017060 1.978620 
# 
# From -- ./inp_files/474700.got.cif
#   From: 2010.05.17/outbox.cif.g08.bks.cpg/sg2_238_cif.got.tgz:474700.got - 2010.06.03 11:33:40.
