data_PCOD9012264
_publ_section_title
;
Structure prediction by ZEFSAII (Michael W. Deem and Ramdas Pophale) SiO2 
 PCOD9012264
Probable space group: P -1
;
_chemical_formula_sum "Si O2"
_cell_formula_units_Z 16
_cell_length_a 8.881767
_cell_length_b 10.776186
_cell_length_c 11.824930
_cell_angle_alpha 141.822757
_cell_angle_beta 79.668986
_cell_angle_gamma 103.229240
_cell_volume 680.985773
_symmetry_space_group_name_H-M "P -1"
_symmetry_group_IT_number 2
_symmetry_cell_setting 'triclinic'
loop_
_space_group_symop_operation_xyz
x,y,z
-x,-y,-z
loop_
_atom_site_type_symbol
_atom_site_label
_atom_site_fract_x
_atom_site_fract_y
_atom_site_fract_z
Si Si1 0.057136 0.286252 0.704660
Si Si2 0.091843 0.758550 0.728254
Si Si3 0.599903 0.650925 0.846182
Si Si4 0.780023 0.947056 0.882475
Si Si5 0.394555 0.243597 0.608465
Si Si6 0.122496 0.593454 0.381499
Si Si7 0.169478 0.740888 0.097277
Si Si8 0.512440 0.164967 0.782173
O O1 0.210811 0.198926 0.588761
O O2 0.931271 0.270156 0.611308
O O3 0.974449 0.204082 0.772062
O O4 0.110492 0.527051 0.892672
O O5 0.181854 0.715117 0.572737
O O6 0.935010 0.843820 0.772726
O O7 0.028902 0.554661 0.659481
O O8 0.184941 0.912684 0.911582
O O9 0.460935 0.468047 0.718394
O O10 0.752361 0.544957 0.773325
O O11 0.434684 0.239048 0.733281
O O12 0.569376 0.783189 0.054141
O O13 0.637907 0.781967 0.821413
O O14 0.765897 0.088460 0.879239
O O15 0.472358 0.069685 0.411553
O O16 0.312038 0.720204 0.146012
#
# Coordination Sequence:
#
# PCOD9012264 Si02
#       8
#     2   2   2   2   2   2   2   2
#     4  11  24  42  73 102 138 179 231 298 336 401
#     4   9  20  39  64  99 142 179 226 284 336 405
#     4  11  24  44  72 100 141 187 220 284 346 416
#     4  10  22  41  67 102 142 184 228 279 344 413
#     4  11  26  47  69 106 137 183 235 277 355 410
#     4  10  21  40  69 104 133 178 234 282 340 402
#     4  11  24  44  69 103 138 183 233 285 344 400
#     4  11  26  47  70  99 142 186 229 282 343 423
#
# _framework density 23.495352
#
# number of rings (size 3 to 8) (size 9 to 14) (size 15 to 20)
#    0.000    1.500    2.500    1.125    7.000    1.000 
#    2.250    0.625    0.000    0.000    0.000    0.000 
#    0.000    0.000    0.000    0.000    0.000    0.000 
#
# Total GULP energy -89585.951171 kJ/mol
# GULP energy per Si atom -5599.121948 kJ/mol
# Density = 2.344188 g / cm^3
# Si number density = 23.495352 Si / 1000 Ang^3
#
#
#
# Elastic Constant Matrix: (Units=GPa)
#
#
# Indices 1 2 3 4 5 6 
#
# 1 70.6528 34.2886 24.8509 -15.6071 -19.9769 9.1696
# 2 34.2886 109.4816 52.8493 -1.4661 -19.0372 17.0952
# 3 24.8509 52.8493 102.9680 -4.2005 -18.8936 8.2725
# 4 -15.6071 -1.4661 -4.2005 23.7525 6.8630 -1.4982
# 5 -19.9769 -19.0372 -18.8936 6.8630 26.2532 -3.0459
# 6 9.1696 17.0952 8.2725 -1.4982 -3.0459 27.5336
#
#
#
# Elastic Compliance Matrix: (Units=1/GPa)
#
#
# Indices 1 2 3 4 5 6 
#
# 1 0.022102 -0.004296 -0.000610 0.011071 0.010046 -0.002796
# 2 -0.004296 0.014651 -0.005482 -0.004376 0.003878 -0.005828
# 3 -0.000610 -0.005482 0.013654 0.000132 0.005365 0.000105
# 4 0.011071 -0.004376 0.000132 0.051500 -0.008012 0.000907
# 5 0.010046 0.003878 0.005365 -0.008012 0.054294 -0.001795
# 6 -0.002796 -0.005828 0.000105 0.000907 -0.001795 0.040688
#
#
# Mechanical properties :
#
#
# Convention : Reuss Voigt Hill
#
# Bulk Modulus (GPa) = 33.74736 56.34220 45.04478
# Shear Modulus (GPa) = 21.97392 26.91542 24.44467
#
# Velocity S-wave (km/s) = 3.06150 3.38829 3.22903
# Velocity P-wave (km/s) = 5.18571 6.27212 5.75461
#
# Compressibility (1/GPa) = 0.02963195
#
# Stress axis : x y z
#
# Youngs Moduli (GPa) = 45.24499 68.25258 73.23937
#
# Poissons Ratio (x) = 0.29323 0.04465
# Poissons Ratio (y) = 0.19438 0.40149
# Poissons Ratio (z) = 0.02758 0.37415
#
# Static dielectric constant tensor:
#      x y z
#    x 1.856230 0.020720 -0.006100 
#    y 0.020720 1.915420 0.043620 
#    z -0.006100 0.043620 1.896480 
# 
# From -- ./inp_files/391600.got.cif
#   From: 2010.05.17/outbox.cif.g08.bks.cpg/sg2_196_cif.got.tgz:391600.got - 2010.06.03 11:33:40.
