data_PCOD9012243
_publ_section_title
;
Structure prediction by ZEFSAII (Michael W. Deem and Ramdas Pophale) SiO2 
 PCOD9012243
Probable space group: P -1
;
_chemical_formula_sum "Si O2"
_cell_formula_units_Z 15
_cell_length_a 10.322451
_cell_length_b 5.587369
_cell_length_c 15.394081
_cell_angle_alpha 98.927254
_cell_angle_beta 134.756336
_cell_angle_gamma 97.842548
_cell_volume 583.381465
_symmetry_space_group_name_H-M "P -1"
_symmetry_group_IT_number 2
_symmetry_cell_setting 'triclinic'
loop_
_space_group_symop_operation_xyz
x,y,z
-x,-y,-z
loop_
_atom_site_type_symbol
_atom_site_label
_atom_site_fract_x
_atom_site_fract_y
_atom_site_fract_z
Si Si1 0.027695 0.514249 0.841668
Si Si2 0.012059 0.187475 0.332413
Si Si3 0.326889 0.242443 0.927546
Si Si4 0.683671 0.965411 0.915317
Si Si5 0.370292 0.204511 0.398093
Si Si6 0.411540 0.037221 0.636844
Si Si7 0.288181 0.443308 0.208301
Si Si8 0.000000 0.000000 0.500000
O O1 0.993048 0.601953 0.731819
O O2 0.154457 0.337231 0.883057
O O3 0.837307 0.392637 0.804372
O O4 0.148326 0.764819 0.970203
O O5 0.193223 0.106931 0.377452
O O6 0.795465 0.966306 0.211734
O O7 0.038018 0.217993 0.449049
O O8 0.500000 0.500000 0.000000
O O9 0.403713 0.114327 0.035004
O O10 0.760448 0.739360 0.907505
O O11 0.531665 0.984587 0.773046
O O12 0.500000 0.500000 0.500000
O O13 0.262911 0.241725 0.262233
O O14 0.517496 0.069052 0.423002
O O15 0.496504 0.350146 0.688486
O O16 0.186585 0.931480 0.547686
#
# Coordination Sequence:
#
# PCOD9012243 Si02
#       8
#     2   2   2   2   2   2   2   1
#     4  10  22  42  70 100 137 176 224 285 338 413
#     4  10  25  45  67 103 139 178 237 283 342 415
#     4  11  25  41  69  97 138 189 225 271 350 420
#     4  10  23  40  67 103 137 172 225 287 339 413
#     4  10  22  45  71  99 134 186 237 288 340 407
#     4  11  25  44  71 100 144 178 231 291 344 411
#     4  10  21  40  69 102 132 177 224 281 352 402
#     4  12  28  44  68 100 138 188 230 284 346 406
#
# _framework density 25.712164000000001
#
# number of rings (size 3 to 8) (size 9 to 14) (size 15 to 20)
#    0.000    1.600    0.000    2.800    5.600    9.600 
#    0.000    6.667    0.000    0.000    0.000    0.000 
#    0.000    0.000    0.000    0.000    0.000    0.000 
#
# Total GULP energy -83505.521469 kJ/mol
# GULP energy per Si atom -5567.034765 kJ/mol
# Density = 2.565364 g / cm^3
# Si number density = 25.712164 Si / 1000 Ang^3
#
#
#
# Elastic Constant Matrix: (Units=GPa)
#
#
# Indices 1 2 3 4 5 6 
#
# 1 166.3068 22.6508 37.2414 -5.8769 7.3914 2.6610
# 2 22.6508 49.0492 24.2175 -1.7773 -1.1452 1.4444
# 3 37.2414 24.2175 67.6440 -9.7185 -0.1930 0.9669
# 4 -5.8769 -1.7773 -9.7185 50.0196 6.9259 4.5259
# 5 7.3914 -1.1452 -0.1930 6.9259 38.2426 -0.7702
# 6 2.6610 1.4444 0.9669 4.5259 -0.7702 39.1354
#
#
#
# Elastic Compliance Matrix: (Units=1/GPa)
#
#
# Indices 1 2 3 4 5 6 
#
# 1 0.007050 -0.001672 -0.003225 0.000388 -0.001508 -0.000413
# 2 -0.001672 0.025240 -0.008253 -0.001029 0.001214 -0.000471
# 3 -0.003225 -0.008253 0.019987 0.003259 -0.000120 -0.000349
# 4 0.000388 -0.001029 0.003259 0.021429 -0.004023 -0.002626
# 5 -0.001508 0.001214 -0.000120 -0.004023 0.027226 0.001062
# 6 -0.000413 -0.000471 -0.000349 -0.002626 0.001062 0.025931
#
#
# Mechanical properties :
#
#
# Convention : Reuss Voigt Hill
#
# Bulk Modulus (GPa) = 38.49844 50.13549 44.31697
# Shear Modulus (GPa) = 30.89791 38.73885 34.81838
#
# Velocity S-wave (km/s) = 3.47029 3.88575 3.68388
# Velocity P-wave (km/s) = 5.57338 6.29866 5.94709
#
# Compressibility (1/GPa) = 0.02597508
#
# Stress axis : x y z
#
# Youngs Moduli (GPa) = 141.83658 39.62004 50.03324
#
# Poissons Ratio (x) = 0.06626 0.16138
# Poissons Ratio (y) = 0.23719 0.41293
# Poissons Ratio (z) = 0.45749 0.32699
#
# Static dielectric constant tensor:
#      x y z
#    x 1.784540 -0.079310 0.030020 
#    y -0.079310 2.194750 0.041250 
#    z 0.030020 0.041250 2.143330 
# 
# From -- ./inp_files/80244.got.cif
#   From: 2010.05.17/outbox.cif.g08.bks.cpg/sg2_41_cif.got.tgz:80244.got - 2010.06.03 11:33:40.
