data_PCOD9012225
_publ_section_title
;
Structure prediction by ZEFSAII (Michael W. Deem and Ramdas Pophale) SiO2 
 PCOD9012225
Probable space group: P -1
;
_chemical_formula_sum "Si O2"
_cell_formula_units_Z 14
_cell_length_a 8.442780
_cell_length_b 12.884723
_cell_length_c 9.725143
_cell_angle_alpha 146.016173
_cell_angle_beta 95.361208
_cell_angle_gamma 76.340833
_cell_volume 564.314842
_symmetry_space_group_name_H-M "P -1"
_symmetry_group_IT_number 2
_symmetry_cell_setting 'triclinic'
loop_
_space_group_symop_operation_xyz
x,y,z
-x,-y,-z
loop_
_atom_site_type_symbol
_atom_site_label
_atom_site_fract_x
_atom_site_fract_y
_atom_site_fract_z
Si Si1 0.151253 0.140490 0.476672
Si Si2 0.329106 0.615322 0.185160
Si Si3 0.573758 0.034278 0.898292
Si Si4 0.882238 0.293652 0.991091
Si Si5 0.648470 0.955203 0.351416
Si Si6 0.137917 0.508436 0.282376
Si Si7 0.316609 0.605325 0.655843
O O1 0.001448 0.310039 0.594138
O O2 0.302530 0.124727 0.363592
O O3 0.205230 0.161397 0.662059
O O4 0.111629 0.932111 0.246118
O O5 0.325976 0.836946 0.458116
O O6 0.293949 0.504590 0.193587
O O7 0.500000 0.500000 0.000000
O O8 0.182602 0.632472 0.082885
O O9 0.420832 0.119461 0.873777
O O10 0.684607 0.172806 0.100871
O O11 0.500000 0.000000 0.000000
O O12 0.740095 0.417518 0.219273
O O13 0.054048 0.334799 0.086939
O O14 0.500000 0.000000 0.500000
O O15 0.187377 0.553904 0.487826
O O16 0.500000 0.500000 0.500000
#
# Coordination Sequence:
#
# PCOD9012225 Si02
#       7
#     2   2   2   2   2   2   2
#     4   9  23  44  67  98 138 172 231 275 336 414
#     4  11  24  43  68 101 134 172 231 277 333 416
#     4  10  21  40  69 101 131 182 226 275 336 396
#     4  10  24  45  66 102 137 176 223 283 343 394
#     4   9  20  41  66  98 134 176 218 282 337 395
#     4  12  25  45  71  99 136 182 222 286 347 392
#     4  11  25  46  66  99 138 179 228 276 339 415
#
# _framework density 24.808845000000002
#
# number of rings (size 3 to 8) (size 9 to 14) (size 15 to 20)
#    0.000    1.714    0.000    3.429    6.000    4.571 
#   10.286    0.000    0.000    0.000    0.000    0.000 
#    0.000    0.000    0.000    0.000    0.000    0.000 
#
# Total GULP energy -78334.762935 kJ/mol
# GULP energy per Si atom -5595.340210 kJ/mol
# Density = 2.475238 g / cm^3
# Si number density = 24.808845 Si / 1000 Ang^3
#
#
#
# Elastic Constant Matrix: (Units=GPa)
#
#
# Indices 1 2 3 4 5 6 
#
# 1 95.7541 12.4722 21.9674 -9.1956 -0.6005 1.1424
# 2 12.4722 95.0162 35.7015 -15.5583 0.5057 10.5921
# 3 21.9674 35.7015 79.7835 -27.0913 15.8198 6.9526
# 4 -9.1956 -15.5583 -27.0913 42.4474 -0.7836 -2.3597
# 5 -0.6005 0.5057 15.8198 -0.7836 56.0070 -3.4657
# 6 1.1424 10.5921 6.9526 -2.3597 -3.4657 53.3821
#
#
#
# Elastic Compliance Matrix: (Units=1/GPa)
#
#
# Indices 1 2 3 4 5 6 
#
# 1 0.011223 -0.000302 -0.003039 0.000416 0.001006 0.000299
# 2 -0.000302 0.012985 -0.005453 0.001143 0.001329 -0.001723
# 3 -0.003039 -0.005453 0.020567 0.010283 -0.005738 -0.001450
# 4 0.000416 0.001143 0.010283 0.030562 -0.002507 -0.000387
# 5 0.001006 0.001329 -0.005738 -0.002507 0.019540 0.001620
# 6 0.000299 -0.001723 -0.001450 -0.000387 0.001620 0.019345
#
#
# Mechanical properties :
#
#
# Convention : Reuss Voigt Hill
#
# Bulk Modulus (GPa) = 36.78290 45.64845 41.21567
# Shear Modulus (GPa) = 35.49331 43.72816 39.61073
#
# Velocity S-wave (km/s) = 3.78653 4.20289 4.00013
# Velocity P-wave (km/s) = 5.82887 6.48016 6.16312
#
# Compressibility (1/GPa) = 0.02718655
#
# Stress axis : x y z
#
# Youngs Moduli (GPa) = 89.10548 77.01128 48.62267
#
# Poissons Ratio (x) = 0.02324 0.14778
# Poissons Ratio (y) = 0.02689 0.26514
# Poissons Ratio (z) = 0.27081 0.41994
#
# Static dielectric constant tensor:
#      x y z
#    x 2.078170 -0.011490 -0.062440 
#    y -0.011490 1.916610 0.049570 
#    z -0.062440 0.049570 2.081790 
# 
# From -- ./inp_files/191145.got.cif
#   From: 2010.05.17/outbox.cif.g08.bks.cpg/sg2_96_cif.got.tgz:191145.got - 2010.06.03 11:33:40.
