data_PCOD9012872
_publ_section_title
;
Structure prediction by ZEFSAII (Michael W. Deem and Ramdas Pophale) SiO2 
 PCOD9012872
Probable space group: P -1
;
_chemical_formula_sum "Si O2"
_cell_formula_units_Z 14
_cell_length_a 10.691562
_cell_length_b 11.872399
_cell_length_c 5.294079
_cell_angle_alpha 73.281980
_cell_angle_beta 86.155786
_cell_angle_gamma 123.861545
_cell_volume 512.136212
_symmetry_space_group_name_H-M "P -1"
_symmetry_group_IT_number 2
_symmetry_cell_setting 'triclinic'
loop_
_space_group_symop_operation_xyz
x,y,z
-x,-y,-z
loop_
_atom_site_type_symbol
_atom_site_label
_atom_site_fract_x
_atom_site_fract_y
_atom_site_fract_z
Si Si1 0.026367 0.894699 0.289157
Si Si2 0.695682 0.083489 0.607982
Si Si3 0.348016 0.179547 0.985779
Si Si4 0.732966 0.683366 0.707581
Si Si5 0.734125 0.252192 0.010149
Si Si6 0.641001 0.414174 0.616542
Si Si7 0.917424 0.626570 0.098846
O O1 0.868320 0.846478 0.477117
O O2 0.969979 0.765938 0.179584
O O3 0.133146 0.879442 0.479975
O O4 0.159755 0.056022 0.052384
O O5 0.661707 0.137417 0.327470
O O6 0.605343 0.915962 0.823428
O O7 0.703167 0.167689 0.802557
O O8 0.368427 0.300400 0.093382
O O9 0.463363 0.269301 0.677693
O O10 0.646870 0.555074 0.595964
O O11 0.833168 0.642402 0.869664
O O12 0.683794 0.355735 0.887058
O O13 0.922327 0.354463 0.968692
O O14 0.780474 0.476426 0.357870
#
# Coordination Sequence:
#
# PCOD9012872 Si02
#       7
#     2   2   2   2   2   2   2
#     4   8  19  39  63  94 123 166 227 273 325 383
#     4   9  22  42  69 101 126 171 226 280 330 380
#     4  10  22  44  63  97 130 175 223 274 337 396
#     4  11  21  41  66  92 133 173 224 272 331 402
#     4  11  22  45  71  98 134 172 231 277 328 400
#     4  11  26  39  62  96 137 175 214 275 340 401
#     4  10  21  41  61  99 124 175 222 271 334 390
#
# _framework density 27.336479000000001
#
# number of rings (size 3 to 8) (size 9 to 14) (size 15 to 20)
#    0.857    1.143    1.429    1.286    2.000    2.857 
#    7.714    0.000    0.000    0.000    0.000    0.000 
#    0.000    0.000    0.000    0.000    0.000    0.000 
#
# Total GULP energy -78295.418667 kJ/mol
# GULP energy per Si atom -5592.529905 kJ/mol
# Density = 2.727426 g / cm^3
# Si number density = 27.336479 Si / 1000 Ang^3
#
#
#
# Elastic Constant Matrix: (Units=GPa)
#
#
# Indices 1 2 3 4 5 6 
#
# 1 95.0154 35.5517 39.9142 -19.4296 7.5573 7.7832
# 2 35.5517 64.1879 39.1043 -30.7040 -13.1864 -1.8466
# 3 39.9142 39.1043 174.2165 -40.9991 5.4939 23.9996
# 4 -19.4296 -30.7040 -40.9991 46.8346 15.0025 -4.6397
# 5 7.5573 -13.1864 5.4939 15.0025 52.5567 -7.4886
# 6 7.7832 -1.8466 23.9996 -4.6397 -7.4886 35.3892
#
#
#
# Elastic Compliance Matrix: (Units=1/GPa)
#
#
# Indices 1 2 3 4 5 6 
#
# 1 0.014985 -0.008552 -0.000371 0.001557 -0.005335 -0.004415
# 2 -0.008552 0.029560 -0.003387 0.011499 0.006958 0.008700
# 3 -0.000371 -0.003387 0.009115 0.006410 -0.004489 -0.006386
# 4 0.001557 0.011499 0.006410 0.037923 -0.008979 -0.001018
# 5 -0.005335 0.006958 -0.004489 -0.008979 0.025836 0.008871
# 6 -0.004415 0.008700 -0.006386 -0.001018 0.008871 0.035757
#
#
# Mechanical properties :
#
#
# Convention : Reuss Voigt Hill
#
# Bulk Modulus (GPa) = 34.43606 62.50670 48.47138
# Shear Modulus (GPa) = 26.67015 41.54609 34.10812
#
# Velocity S-wave (km/s) = 3.12689 3.90270 3.53613
# Velocity P-wave (km/s) = 5.06567 6.57445 5.86875
#
# Compressibility (1/GPa) = 0.02903933
#
# Stress axis : x y z
#
# Youngs Moduli (GPa) = 66.73518 33.82993 109.70785
#
# Poissons Ratio (x) = 0.28931 0.04066
# Poissons Ratio (y) = 0.57072 0.37163
# Poissons Ratio (z) = 0.02473 0.11460
#
# Static dielectric constant tensor:
#      x y z
#    x 2.099320 0.086270 -0.024740 
#    y 0.086270 2.185540 -0.010220 
#    z -0.024740 -0.010220 2.153060 
# 
# From -- ./inp_files/77191.got.cif
#   From: 2010.05.17/outbox.cif.g08.bks.cpg/sg2_39_cif.got.tgz:77191.got - 2010.06.03 11:33:40.
