data_PCOD9012664
_publ_section_title
;
Structure prediction by ZEFSAII (Michael W. Deem and Ramdas Pophale) SiO2 
 PCOD9012664
Probable space group: P -1
;
_chemical_formula_sum "Si O2"
_cell_formula_units_Z 14
_cell_length_a 8.542449
_cell_length_b 10.981124
_cell_length_c 9.252731
_cell_angle_alpha 119.521466
_cell_angle_beta 111.607936
_cell_angle_gamma 110.065987
_cell_volume 534.589271
_symmetry_space_group_name_H-M "P -1"
_symmetry_group_IT_number 2
_symmetry_cell_setting 'triclinic'
loop_
_space_group_symop_operation_xyz
x,y,z
-x,-y,-z
loop_
_atom_site_type_symbol
_atom_site_label
_atom_site_fract_x
_atom_site_fract_y
_atom_site_fract_z
Si Si1 0.510049 0.777074 0.838175
Si Si2 0.763378 0.570077 0.641972
Si Si3 0.658917 0.404643 0.797024
Si Si4 0.313765 0.841012 0.563577
Si Si5 0.009979 0.054563 0.197122
Si Si6 0.121890 0.522125 0.781284
Si Si7 0.226215 0.080228 0.544821
O O1 0.453582 0.621847 0.612515
O O2 0.455606 0.879387 0.774908
O O3 0.335234 0.652170 0.831086
O O4 0.752325 0.925756 0.073694
O O5 0.724667 0.561753 0.797939
O O6 0.846430 0.729518 0.650788
O O7 0.970006 0.573243 0.719485
O O8 0.654396 0.262647 0.609153
O O9 0.417397 0.298639 0.722279
O O10 0.815460 0.460673 0.019257
O O11 0.345856 0.009462 0.606816
O O12 0.054524 0.695885 0.435394
O O13 0.138766 0.013151 0.313379
O O14 0.000000 0.000000 0.000000
O O15 0.000000 0.000000 0.500000
#
# Coordination Sequence:
#
# PCOD9012664 Si02
#       7
#     2   2   2   2   2   2   2
#     4  10  23  45  72  98 128 180 226 281 332 386
#     4  10  23  44  69  97 134 173 230 275 326 404
#     4  10  22  44  71  96 129 181 226 278 330 391
#     4  10  22  44  70  97 134 173 229 276 328 407
#     4  12  28  44  67 100 139 181 222 272 339 410
#     4  10  21  40  74 100 124 166 237 285 326 383
#     4  12  28  43  63 105 143 172 218 280 348 400
#
# _framework density 26.188330000000001
#
# number of rings (size 3 to 8) (size 9 to 14) (size 15 to 20)
#    0.000    1.714    0.000    6.429   10.000    2.857 
#    0.000    1.429    0.000    0.000    0.000    0.000 
#    0.000    0.000    0.000    0.000    0.000    0.000 
#
# Total GULP energy -78308.107847 kJ/mol
# GULP energy per Si atom -5593.436275 kJ/mol
# Density = 2.612872 g / cm^3
# Si number density = 26.188330 Si / 1000 Ang^3
#
#
#
# Elastic Constant Matrix: (Units=GPa)
#
#
# Indices 1 2 3 4 5 6 
#
# 1 37.2454 34.7885 14.0254 6.8353 15.1100 21.1273
# 2 34.7885 131.4212 32.0104 -5.3237 14.6088 9.8994
# 3 14.0254 32.0104 116.6189 -21.5276 26.9418 -10.6498
# 4 6.8353 -5.3237 -21.5276 54.6845 14.7570 17.5078
# 5 15.1100 14.6088 26.9418 14.7570 35.9659 2.9987
# 6 21.1273 9.8994 -10.6498 17.5078 2.9987 53.6702
#
#
#
# Elastic Compliance Matrix: (Units=1/GPa)
#
#
# Indices 1 2 3 4 5 6 
#
# 1 0.055171 -0.010823 -0.000889 0.002801 -0.017613 -0.019828
# 2 -0.010823 0.010672 -0.001432 0.001130 0.000688 0.001601
# 3 -0.000889 -0.001432 0.013734 0.008443 -0.012907 0.001306
# 4 0.002801 0.001130 0.008443 0.029148 -0.019247 -0.008069
# 5 -0.017613 0.000688 -0.012907 -0.019247 0.051854 0.007627
# 6 -0.019828 0.001601 0.001306 -0.008069 0.007627 0.028608
#
#
# Mechanical properties :
#
#
# Convention : Reuss Voigt Hill
#
# Bulk Modulus (GPa) = 18.76532 49.65935 34.21234
# Shear Modulus (GPa) = 21.43738 42.49487 31.96612
#
# Velocity S-wave (km/s) = 2.86420 4.03260 3.49753
# Velocity P-wave (km/s) = 4.25667 6.37856 5.42242
#
# Compressibility (1/GPa) = 0.05328978
#
# Stress axis : x y z
#
# Youngs Moduli (GPa) = 18.12533 93.70747 72.80940
#
# Poissons Ratio (x) = 1.01419 0.06475
# Poissons Ratio (y) = 0.19617 0.10423
# Poissons Ratio (z) = 0.01612 0.13415
#
# Static dielectric constant tensor:
#      x y z
#    x 2.138450 0.090120 0.049270 
#    y 0.090120 2.166540 0.096360 
#    z 0.049270 0.096360 2.035220 
# 
# From -- ./inp_files/189483.got.cif
#   From: 2010.05.17/outbox.cif.g08.bks.cpg/sg2_95_cif.got.tgz:189483.got - 2010.06.03 11:33:40.
