data_PCOD9012644
_publ_section_title
;
Structure prediction by ZEFSAII (Michael W. Deem and Ramdas Pophale) SiO2 
 PCOD9012644
Probable space group: P -1
;
_chemical_formula_sum "Si O2"
_cell_formula_units_Z 12
_cell_length_a 11.229719
_cell_length_b 8.475629
_cell_length_c 7.240510
_cell_angle_alpha 101.080193
_cell_angle_beta 136.811967
_cell_angle_gamma 76.575891
_cell_volume 458.488545
_symmetry_space_group_name_H-M "P -1"
_symmetry_group_IT_number 2
_symmetry_cell_setting 'triclinic'
loop_
_space_group_symop_operation_xyz
x,y,z
-x,-y,-z
loop_
_atom_site_type_symbol
_atom_site_label
_atom_site_fract_x
_atom_site_fract_y
_atom_site_fract_z
Si Si1 0.169817 0.543482 0.814181
Si Si2 0.019862 0.018740 0.748130
Si Si3 0.642723 0.172799 0.026687
Si Si4 0.654173 0.027802 0.417701
Si Si5 0.595253 0.658192 0.676633
Si Si6 0.943662 0.681415 0.910557
O O1 0.000000 0.500000 0.500000
O O2 0.070910 0.672515 0.876890
O O3 0.304908 0.646543 0.886112
O O4 0.286153 0.391521 0.014741
O O5 0.858795 0.962078 0.670497
O O6 0.008466 0.200519 0.848230
O O7 0.000000 0.000000 0.500000
O O8 0.220000 0.937528 0.975973
O O9 0.456196 0.120403 0.755955
O O10 0.666672 0.109133 0.248313
O O11 0.544719 0.179511 0.433352
O O12 0.500000 0.500000 0.500000
O O13 0.734114 0.686041 0.681705
O O14 0.000000 0.500000 0.000000
#
# Coordination Sequence:
#
# PCOD9012644 Si02
#       6
#     2   2   2   2   2   2
#     4  11  27  44  72 107 145 188 242 301 362 424
#     4  10  21  40  73 101 137 190 239 286 354 434
#     4  10  23  41  65 105 141 182 241 295 357 424
#     4  10  21  41  71  98 139 190 236 288 358 436
#     4  11  24  45  70 102 142 191 242 295 359 433
#     4  10  22  43  67  97 142 191 235 283 358 431
#
# _framework density 26.172955000000002
#
# number of rings (size 3 to 8) (size 9 to 14) (size 15 to 20)
#    0.000    1.667    1.667    2.000   11.667    1.333 
#    3.000    1.667    0.000    0.000    0.000    0.000 
#    0.000    0.000    0.000    0.000    0.000    0.000 
#
# Total GULP energy -67031.275380 kJ/mol
# GULP energy per Si atom -5585.939615 kJ/mol
# Density = 2.611338 g / cm^3
# Si number density = 26.172955 Si / 1000 Ang^3
#
#
#
# Elastic Constant Matrix: (Units=GPa)
#
#
# Indices 1 2 3 4 5 6 
#
# 1 145.1070 17.7489 31.7925 9.7601 25.5573 7.6900
# 2 17.7489 57.9015 35.1057 11.4792 -9.8020 5.8543
# 3 31.7925 35.1057 114.2160 5.6933 13.2547 10.8943
# 4 9.7601 11.4792 5.6933 63.6330 5.7110 14.0739
# 5 25.5573 -9.8020 13.2547 5.7110 52.1983 10.5300
# 6 7.6900 5.8543 10.8943 14.0739 10.5300 63.1001
#
#
#
# Elastic Compliance Matrix: (Units=1/GPa)
#
#
# Indices 1 2 3 4 5 6 
#
# 1 0.008185 -0.002569 -0.000998 -0.000367 -0.004237 0.000202
# 2 -0.002569 0.025073 -0.007674 -0.003939 0.008597 -0.001244
# 3 -0.000998 -0.007674 0.011872 0.001001 -0.003918 -0.000785
# 4 -0.000367 -0.003939 0.001001 0.017302 -0.002045 -0.003280
# 5 -0.004237 0.008597 -0.003918 -0.002045 0.024726 -0.003275
# 6 0.000202 -0.001244 -0.000785 -0.003280 -0.003275 0.017352
#
#
# Mechanical properties :
#
#
# Convention : Reuss Voigt Hill
#
# Bulk Modulus (GPa) = 44.15486 54.05761 49.10623
# Shear Modulus (GPa) = 37.16388 51.29143 44.22766
#
# Velocity S-wave (km/s) = 3.77229 4.43167 4.11521
# Velocity P-wave (km/s) = 5.99004 6.84727 6.43295
#
# Compressibility (1/GPa) = 0.02264756
#
# Stress axis : x y z
#
# Youngs Moduli (GPa) = 122.18194 39.88370 84.23487
#
# Poissons Ratio (x) = 0.10245 0.08406
# Poissons Ratio (y) = 0.31384 0.64642
# Poissons Ratio (z) = 0.12193 0.30607
#
# Static dielectric constant tensor:
#      x y z
#    x 2.107730 0.093200 -0.011050 
#    y 0.093200 2.550370 -0.321890 
#    z -0.011050 -0.321890 2.273540 
# 
# From -- ./inp_files/244816.got.cif
#   From: 2010.05.17/outbox.cif.g08.bks.cpg/sg2_123_cif.got.tgz:244816.got - 2010.06.03 11:33:40.
