data_PCOD9012468
_publ_section_title
;
Structure prediction by ZEFSAII (Michael W. Deem and Ramdas Pophale) SiO2 
 PCOD9012468
Probable space group: P -1
;
_chemical_formula_sum "Si O2"
_cell_formula_units_Z 16
_cell_length_a 11.030736
_cell_length_b 13.634094
_cell_length_c 13.646601
_cell_angle_alpha 121.920360
_cell_angle_beta 75.378521
_cell_angle_gamma 150.992640
_cell_volume 726.542374
_symmetry_space_group_name_H-M "P -1"
_symmetry_group_IT_number 2
_symmetry_cell_setting 'triclinic'
loop_
_space_group_symop_operation_xyz
x,y,z
-x,-y,-z
loop_
_atom_site_type_symbol
_atom_site_label
_atom_site_fract_x
_atom_site_fract_y
_atom_site_fract_z
Si Si1 0.199421 0.348028 0.114362
Si Si2 0.622022 0.012269 0.563712
Si Si3 0.209678 0.160522 0.158563
Si Si4 0.305590 0.702810 0.003190
Si Si5 0.711472 0.449561 0.279624
Si Si6 0.690863 0.894354 0.190529
Si Si7 0.919284 0.588878 0.646733
Si Si8 0.428305 0.870756 0.737915
O O1 0.290481 0.301137 0.119269
O O2 0.464630 0.636999 0.166960
O O3 0.083550 0.335172 0.215482
O O4 0.933548 0.084298 0.961633
O O5 0.408252 0.723800 0.467067
O O6 0.605167 0.047988 0.697237
O O7 0.500000 0.000000 0.500000
O O8 0.953500 0.253474 0.604503
O O9 0.507901 0.390826 0.276128
O O10 0.949434 0.019034 0.181902
O O11 0.480192 0.765448 0.077546
O O12 0.495240 0.977221 0.111005
O O13 0.282499 0.616887 0.859917
O O14 0.000000 0.500000 0.000000
O O15 0.554134 0.241872 0.284406
O O16 0.873851 0.159119 0.330664
O O17 0.095477 0.618816 0.645336
#
# Coordination Sequence:
#
# PCOD9012468 Si02
#       8
#     2   2   2   2   2   2   2   2
#     4  10  21  40  70  91 134 169 211 279 321 389
#     4  12  26  43  64  94 134 179 222 266 324 390
#     4  10  22  42  63 103 125 171 228 255 335 391
#     4  11  23  39  63 104 133 161 217 262 348 385
#     4  12  25  41  67  93 139 174 208 283 319 395
#     4  10  23  40  68  95 133 177 208 276 323 394
#     4  10  23  39  63  96 122 166 229 254 322 393
#     4  11  24  41  65  95 133 171 214 274 332 396
#
# _framework density 22.022114999999999
#
# number of rings (size 3 to 8) (size 9 to 14) (size 15 to 20)
#    0.000    1.250    2.500    4.125    7.000    1.000 
#    0.000    2.500    0.000    4.500    0.000    0.000 
#    0.000    0.000    0.000    0.000    0.000    0.000 
#
# Total GULP energy -89187.001459 kJ/mol
# GULP energy per Si atom -5574.187591 kJ/mol
# Density = 2.197199 g / cm^3
# Si number density = 22.022115 Si / 1000 Ang^3
#
#
#
# Elastic Constant Matrix: (Units=GPa)
#
#
# Indices 1 2 3 4 5 6 
#
# 1 94.5273 51.1795 25.1148 13.0166 25.6877 10.8970
# 2 51.1795 123.9308 30.2495 23.5841 20.4551 -11.6908
# 3 25.1148 30.2495 76.8918 18.5634 10.6171 0.6902
# 4 13.0166 23.5841 18.5634 40.2940 3.4539 -5.1423
# 5 25.6877 20.4551 10.6171 3.4539 32.6612 10.8033
# 6 10.8970 -11.6908 0.6902 -5.1423 10.8033 42.7658
#
#
#
# Elastic Compliance Matrix: (Units=1/GPa)
#
#
# Indices 1 2 3 4 5 6 
#
# 1 0.016670 -0.005244 -0.001976 -0.001226 -0.007788 -0.003830
# 2 -0.005244 0.012687 -0.001762 -0.003809 -0.004684 0.005558
# 3 -0.001976 -0.001762 0.015941 -0.005580 -0.001784 -0.000456
# 4 -0.001226 -0.003809 -0.005580 0.030272 0.001058 0.002734
# 5 -0.007788 -0.004684 -0.001784 0.001058 0.043494 -0.010127
# 6 -0.003830 0.005558 -0.000456 0.002734 -0.010127 0.028773
#
#
# Mechanical properties :
#
#
# Convention : Reuss Voigt Hill
#
# Bulk Modulus (GPa) = 36.58403 56.49304 46.53853
# Shear Modulus (GPa) = 28.58574 35.73126 32.15850
#
# Velocity S-wave (km/s) = 3.60675 4.03242 3.82551
# Velocity P-wave (km/s) = 5.83038 6.88397 6.37897
#
# Compressibility (1/GPa) = 0.02733433
#
# Stress axis : x y z
#
# Youngs Moduli (GPa) = 59.98800 78.82004 62.73033
#
# Poissons Ratio (x) = 0.41336 0.12395
# Poissons Ratio (y) = 0.31460 0.11051
# Poissons Ratio (z) = 0.11853 0.13886
#
# Static dielectric constant tensor:
#      x y z
#    x 1.803080 -0.014500 -0.004660 
#    y -0.014500 1.878830 -0.018120 
#    z -0.004660 -0.018120 1.916330 
# 
# From -- ./inp_files/520955.got.cif
#   From: 2010.05.17/outbox.cif.g08.bks.cpg/sg2_261_cif.got.tgz:520955.got - 2010.06.03 11:33:40.
