data_PCOD9012305
_publ_section_title
;
Structure prediction by ZEFSAII (Michael W. Deem and Ramdas Pophale) SiO2 
 PCOD9012305
Probable space group: P -1
;
_chemical_formula_sum "Si O2"
_cell_formula_units_Z 16
_cell_length_a 9.327856
_cell_length_b 7.285197
_cell_length_c 12.832145
_cell_angle_alpha 85.915585
_cell_angle_beta 127.010485
_cell_angle_gamma 69.863468
_cell_volume 606.995015
_symmetry_space_group_name_H-M "P -1"
_symmetry_group_IT_number 2
_symmetry_cell_setting 'triclinic'
loop_
_space_group_symop_operation_xyz
x,y,z
-x,-y,-z
loop_
_atom_site_type_symbol
_atom_site_label
_atom_site_fract_x
_atom_site_fract_y
_atom_site_fract_z
Si Si1 0.172808 0.973792 0.495775
Si Si2 0.789129 0.696986 0.621329
Si Si3 0.660899 0.610246 0.204377
Si Si4 0.376239 0.435625 0.044106
Si Si5 0.694172 0.988034 0.143546
Si Si6 0.879642 0.245070 0.719403
Si Si7 0.635355 0.825770 0.775308
Si Si8 0.520841 0.271650 0.684989
O O1 0.184157 0.832948 0.408491
O O2 0.403187 0.877699 0.643540
O O3 0.105269 0.204249 0.408445
O O4 0.000000 0.000000 0.500000
O O5 0.888389 0.452040 0.686876
O O6 0.753602 0.781093 0.719739
O O7 0.578812 0.756527 0.463984
O O8 0.435467 0.615202 0.089906
O O9 0.734334 0.788649 0.240940
O O10 0.662000 0.554504 0.330510
O O11 0.729356 0.530436 0.117107
O O12 0.275177 0.362134 0.093579
O O13 0.599166 0.218084 0.142379
O O14 0.885755 0.932336 0.156118
O O15 0.500000 0.000000 0.000000
O O16 0.709678 0.303104 0.731357
O O17 0.613866 0.047083 0.794348
#
# Coordination Sequence:
#
# PCOD9012305 Si02
#       8
#     2   2   2   2   2   2   2   2
#     4  11  24  39  60 100 137 173 219 264 323 399
#     4  11  24  42  62  98 142 176 212 266 326 396
#     4  10  22  40  69  95 123 170 226 268 333 382
#     4  10  21  40  69  92 122 173 221 270 330 378
#     4  10  23  44  64  90 127 167 219 280 321 382
#     4  12  24  40  66  96 131 176 223 261 331 396
#     4  11  20  41  67  91 142 180 208 271 326 384
#     4  11  21  41  66  97 135 178 215 265 325 397
#
# _framework density 26.359356999999999
#
# number of rings (size 3 to 8) (size 9 to 14) (size 15 to 20)
#    0.000    1.250    3.750    2.625    3.500    2.500 
#    0.000    2.500    0.000    6.750    0.000    0.000 
#    0.000    0.000    0.000    0.000    0.000    0.000 
#
# Total GULP energy -89199.307529 kJ/mol
# GULP energy per Si atom -5574.956721 kJ/mol
# Density = 2.629936 g / cm^3
# Si number density = 26.359357 Si / 1000 Ang^3
#
#
#
# Elastic Constant Matrix: (Units=GPa)
#
#
# Indices 1 2 3 4 5 6 
#
# 1 209.2772 26.3140 41.1774 -1.8273 -15.0323 13.8159
# 2 26.3140 103.1672 12.9388 13.0200 6.6804 10.1082
# 3 41.1774 12.9388 59.3092 3.9390 -14.1613 3.2594
# 4 -1.8273 13.0200 3.9390 24.4544 -6.6649 -3.8059
# 5 -15.0323 6.6804 -14.1613 -6.6649 35.7743 2.5195
# 6 13.8159 10.1082 3.2594 -3.8059 2.5195 35.3845
#
#
#
# Elastic Compliance Matrix: (Units=1/GPa)
#
#
# Indices 1 2 3 4 5 6 
#
# 1 0.005856 -0.001278 -0.003395 0.001923 0.001821 -0.001531
# 2 -0.001278 0.011922 -0.002174 -0.007921 -0.004874 -0.003211
# 3 -0.003395 -0.002174 0.021545 -0.000639 0.007434 -0.000636
# 4 0.001923 -0.007921 -0.000639 0.049243 0.010779 0.006100
# 5 0.001821 -0.004874 0.007434 0.010779 0.034672 -0.001313
# 6 -0.001531 -0.003211 -0.000636 0.006100 -0.001313 0.030584
#
#
# Mechanical properties :
#
#
# Convention : Reuss Voigt Hill
#
# Bulk Modulus (GPa) = 39.02303 59.17933 49.10118
# Shear Modulus (GPa) = 28.39942 38.54419 33.47180
#
# Velocity S-wave (km/s) = 3.28593 3.82810 3.56733
# Velocity P-wave (km/s) = 5.40674 6.48373 5.96957
#
# Compressibility (1/GPa) = 0.02562590
#
# Stress axis : x y z
#
# Youngs Moduli (GPa) = 170.76796 83.88154 46.41473
#
# Poissons Ratio (x) = 0.10723 0.15760
# Poissons Ratio (y) = 0.21831 0.10092
# Poissons Ratio (z) = 0.57983 0.18239
#
# Static dielectric constant tensor:
#      x y z
#    x 2.160320 -0.137940 0.015460 
#    y -0.137940 2.527370 -0.169080 
#    z 0.015460 -0.169080 2.186210 
# 
# From -- ./inp_files/494973.got.cif
#   From: 2010.05.17/outbox.cif.g08.bks.cpg/sg2_248_cif.got.tgz:494973.got - 2010.06.03 11:33:40.
