data_PCOD9012927
_publ_section_title
;
Structure prediction by ZEFSAII (Michael W. Deem and Ramdas Pophale) SiO2 
 PCOD9012927
Probable space group: P -1
;
_chemical_formula_sum "Si O2"
_cell_formula_units_Z 14
_cell_length_a 10.255046
_cell_length_b 7.666284
_cell_length_c 13.994167
_cell_angle_alpha 122.994059
_cell_angle_beta 127.415810
_cell_angle_gamma 96.310508
_cell_volume 549.518467
_symmetry_space_group_name_H-M "P -1"
_symmetry_group_IT_number 2
_symmetry_cell_setting 'triclinic'
loop_
_space_group_symop_operation_xyz
x,y,z
-x,-y,-z
loop_
_atom_site_type_symbol
_atom_site_label
_atom_site_fract_x
_atom_site_fract_y
_atom_site_fract_z
Si Si1 0.291110 0.905341 0.318965
Si Si2 0.201085 0.142485 0.022001
Si Si3 0.174470 0.547480 0.688126
Si Si4 0.332292 0.334647 0.564245
Si Si5 0.797149 0.991376 0.406909
Si Si6 0.915696 0.281531 0.016375
Si Si7 0.611450 0.831236 0.075977
O O1 0.078841 0.612686 0.182235
O O2 0.500000 0.000000 0.500000
O O3 0.275680 0.142760 0.393278
O O4 0.283075 0.844095 0.183741
O O5 0.425869 0.374053 0.247773
O O6 0.042907 0.193308 0.998386
O O7 0.258946 0.197831 0.952533
O O8 0.137257 0.857198 0.944717
O O9 0.186321 0.402715 0.557634
O O10 0.930947 0.318680 0.553103
O O11 0.273997 0.848748 0.791557
O O12 0.360443 0.626621 0.869239
O O13 0.323116 0.159237 0.594170
O O14 0.645199 0.816336 0.197029
O O15 0.000000 0.000000 0.500000
#
# Coordination Sequence:
#
# PCOD9012927 Si02
#       7
#     2   2   2   2   2   2   2
#     4  11  23  46  64  93 123 164 208 270 307 375
#     4  10  22  43  65  94 123 171 204 259 313 369
#     4   9  21  40  59  92 123 166 209 249 308 374
#     4  10  22  41  62  93 130 159 212 255 315 360
#     4  10  22  38  60  95 123 166 209 248 309 381
#     4  10  24  44  66  92 125 162 217 250 321 372
#     4  10  21  41  62  89 135 162 205 258 307 369
#
# _framework density 25.476849999999999
#
# number of rings (size 3 to 8) (size 9 to 14) (size 15 to 20)
#    0.000    2.000    1.429    0.429    6.000    5.714 
#    7.714    0.000    0.000    0.000    0.000    0.000 
#    0.000    0.000    0.000    0.000    0.000    0.000 
#
# Total GULP energy -78284.651824 kJ/mol
# GULP energy per Si atom -5591.760845 kJ/mol
# Density = 2.541886 g / cm^3
# Si number density = 25.476850 Si / 1000 Ang^3
#
#
#
# Elastic Constant Matrix: (Units=GPa)
#
#
# Indices 1 2 3 4 5 6 
#
# 1 49.2531 -5.6430 5.8743 -0.5706 -13.9528 0.4703
# 2 -5.6430 71.8041 4.6956 17.7940 1.0412 1.1436
# 3 5.8743 4.6956 112.6818 5.5931 -5.8143 -0.1748
# 4 -0.5706 17.7940 5.5931 47.7133 -10.3260 -11.8908
# 5 -13.9528 1.0412 -5.8143 -10.3260 32.3905 3.5927
# 6 0.4703 1.1436 -0.1748 -11.8908 3.5927 30.6029
#
#
#
# Elastic Compliance Matrix: (Units=1/GPa)
#
#
# Indices 1 2 3 4 5 6 
#
# 1 0.023617 0.001273 -0.000832 0.002002 0.010721 -0.000896
# 2 0.001273 0.015885 -0.000484 -0.007054 -0.001951 -0.003128
# 3 -0.000832 -0.000484 0.009030 -0.000737 0.001080 -0.000331
# 4 0.002002 -0.007054 -0.000737 0.028127 0.008801 0.010124
# 5 0.010721 -0.001951 0.001080 0.008801 0.038688 -0.001208
# 6 -0.000896 -0.003128 -0.000331 0.010124 -0.001208 0.036881
#
#
# Mechanical properties :
#
#
# Convention : Reuss Voigt Hill
#
# Bulk Modulus (GPa) = 20.64118 27.06585 23.85352
# Shear Modulus (GPa) = 29.68042 37.39549 33.53795
#
# Velocity S-wave (km/s) = 3.41691 3.83537 3.63217
# Velocity P-wave (km/s) = 4.86688 5.50093 5.19359
#
# Compressibility (1/GPa) = 0.04844685
#
# Stress axis : x y z
#
# Youngs Moduli (GPa) = 42.34195 62.95430 110.74381
#
# Poissons Ratio (x) = -0.08015 0.09212
# Poissons Ratio (y) = -0.05391 0.05357
# Poissons Ratio (z) = 0.03522 0.03045
#
# Static dielectric constant tensor:
#      x y z
#    x 2.035330 -0.021400 -0.015430 
#    y -0.021400 2.112940 -0.011700 
#    z -0.015430 -0.011700 2.036260 
# 
# From -- ./inp_files/514637.got.cif
#   From: 2010.05.17/outbox.cif.g08.bks.cpg/sg2_258_cif.got.tgz:514637.got - 2010.06.03 11:33:40.
