data_PCOD9012974
_publ_section_title
;
Structure prediction by ZEFSAII (Michael W. Deem and Ramdas Pophale) SiO2 
 PCOD9012974
Probable space group: P -1
;
_chemical_formula_sum "Si O2"
_cell_formula_units_Z 16
_cell_length_a 15.682060
_cell_length_b 16.123266
_cell_length_c 9.549613
_cell_angle_alpha 88.067145
_cell_angle_beta 108.924701
_cell_angle_gamma 27.019511
_cell_volume 685.369242
_symmetry_space_group_name_H-M "P -1"
_symmetry_group_IT_number 2
_symmetry_cell_setting 'triclinic'
loop_
_space_group_symop_operation_xyz
x,y,z
-x,-y,-z
loop_
_atom_site_type_symbol
_atom_site_label
_atom_site_fract_x
_atom_site_fract_y
_atom_site_fract_z
Si Si1 0.809197 0.332712 0.208446
Si Si2 0.216899 0.643279 0.241527
Si Si3 0.643357 0.420664 0.420893
Si Si4 0.501858 0.778344 0.621225
Si Si5 0.609763 0.982374 0.645538
Si Si6 0.699683 0.607346 0.037017
Si Si7 0.079257 0.005037 0.145583
Si Si8 0.338141 0.207245 0.784497
O O1 0.717042 0.387129 0.310437
O O2 0.639581 0.563507 0.048973
O O3 0.841787 0.224096 0.130667
O O4 0.159646 0.049404 0.410806
O O5 0.485115 0.469955 0.334748
O O6 0.102424 0.790808 0.314013
O O7 0.291038 0.482657 0.276673
O O8 0.954124 0.884972 0.972312
O O9 0.423680 0.679670 0.369501
O O10 0.565886 0.787407 0.533368
O O11 0.526975 0.786398 0.794329
O O12 0.556242 0.017684 0.778332
O O13 0.500000 0.000000 0.500000
O O14 0.955369 0.691317 0.809240
O O15 0.662501 0.704906 0.137565
O O16 0.000000 0.000000 0.000000
O O17 0.000000 0.500000 0.500000
O O18 0.500000 0.000000 0.000000
#
# Coordination Sequence:
#
# PCOD9012974 Si02
#       8
#     2   2   2   2   2   2   2   2
#     4  11  24  42  65  99 136 183 237 293 354 421
#     4  10  21  42  62  95 130 182 228 290 352 418
#     4  10  23  41  65  88 136 180 238 287 349 419
#     4  11  24  44  68  99 144 176 237 291 361 429
#     4  11  25  48  77 101 140 188 226 295 367 435
#     4  11  26  46  70 103 145 183 236 296 365 434
#     4  10  21  41  62  92 131 177 235 288 348 420
#     4  12  28  49  78 114 146 186 250 297 363 452
#
# _framework density 23.345082000000001
#
# number of rings (size 3 to 8) (size 9 to 14) (size 15 to 20)
#    0.000    1.250    3.750    0.750    5.250    4.500 
#    2.250    0.000    0.000    0.000    0.000    0.000 
#    0.000    0.000    0.000    0.000    0.000    0.000 
#
# Total GULP energy -89115.064019 kJ/mol
# GULP energy per Si atom -5569.691501 kJ/mol
# Density = 2.329195 g / cm^3
# Si number density = 23.345082 Si / 1000 Ang^3
#
#
#
# Elastic Constant Matrix: (Units=GPa)
#
#
# Indices 1 2 3 4 5 6 
#
# 1 114.2848 57.2328 33.3674 10.3109 -46.1801 0.5315
# 2 57.2328 130.3396 23.8628 38.3050 -27.3546 1.0494
# 3 33.3674 23.8628 75.1257 26.5216 -26.9064 1.3742
# 4 10.3109 38.3050 26.5216 54.7431 -2.8232 -10.8127
# 5 -46.1801 -27.3546 -26.9064 -2.8232 47.8625 8.6842
# 6 0.5315 1.0494 1.3742 -10.8127 8.6842 38.8716
#
#
#
# Elastic Compliance Matrix: (Units=1/GPa)
#
#
# Indices 1 2 3 4 5 6 
#
# 1 0.016765 -0.004531 -0.001504 0.000878 0.013297 -0.002780
# 2 -0.004531 0.013425 0.003723 -0.010992 0.005606 -0.004742
# 3 -0.001504 0.003723 0.023156 -0.014403 0.014315 -0.008103
# 4 0.000878 -0.010992 -0.014403 0.034732 -0.013945 0.013571
# 5 0.013297 0.005606 0.014315 -0.013945 0.046909 -0.015198
# 6 -0.002780 -0.004742 -0.008103 0.013571 -0.015198 0.033348
#
#
# Mechanical properties :
#
#
# Convention : Reuss Voigt Hill
#
# Bulk Modulus (GPa) = 20.52441 60.96400 40.74420
# Shear Modulus (GPa) = 26.42697 41.98126 34.20412
#
# Velocity S-wave (km/s) = 3.36819 4.24523 3.83188
# Velocity P-wave (km/s) = 4.89256 7.08521 6.08841
#
# Compressibility (1/GPa) = 0.04872248
#
# Stress axis : x y z
#
# Youngs Moduli (GPa) = 59.64790 74.48534 43.18523
#
# Poissons Ratio (x) = 0.33752 0.06494
# Poissons Ratio (y) = 0.27029 -0.16079
# Poissons Ratio (z) = 0.08970 -0.27732
#
# Static dielectric constant tensor:
#      x y z
#    x 1.898420 0.041150 -0.040390 
#    y 0.041150 1.936040 -0.075690 
#    z -0.040390 -0.075690 2.357460 
# 
# From -- ./inp_files/315296.got.cif
#   From: 2010.05.17/outbox.cif.g08.bks.cpg/sg2_158_cif.got.tgz:315296.got - 2010.06.03 11:33:40.
