data_PCOD9012083
_publ_section_title
;
Structure prediction by ZEFSAII (Michael W. Deem and Ramdas Pophale) SiO2 
 PCOD9012083
Probable space group: P -1
;
_chemical_formula_sum "Si O2"
_cell_formula_units_Z 14
_cell_length_a 16.391607
_cell_length_b 9.800304
_cell_length_c 18.902351
_cell_angle_alpha 144.212761
_cell_angle_beta 156.929208
_cell_angle_gamma 25.587274
_cell_volume 510.795256
_symmetry_space_group_name_H-M "P -1"
_symmetry_group_IT_number 2
_symmetry_cell_setting 'triclinic'
loop_
_space_group_symop_operation_xyz
x,y,z
-x,-y,-z
loop_
_atom_site_type_symbol
_atom_site_label
_atom_site_fract_x
_atom_site_fract_y
_atom_site_fract_z
Si Si1 0.630098 0.030798 0.243572
Si Si2 0.963178 0.456564 0.061943
Si Si3 0.450850 0.194264 0.729268
Si Si4 0.841093 0.286863 0.186125
Si Si5 0.611871 0.271457 0.562957
Si Si6 0.260231 0.563589 0.977444
Si Si7 0.939709 0.157205 0.609739
O O1 0.831221 0.969572 0.442884
O O2 0.619637 0.768968 0.100054
O O3 0.301936 0.352330 0.121757
O O4 0.791330 0.023986 0.302260
O O5 0.876353 0.386838 0.035833
O O6 0.998217 0.695807 0.218877
O O7 0.257387 0.115889 0.129280
O O8 0.198907 0.453039 0.689474
O O9 0.394250 0.004264 0.561646
O O10 0.529077 0.374375 0.825769
O O11 0.950218 0.219106 0.164308
O O12 0.500000 0.500000 0.000000
O O13 0.056103 0.947377 0.251675
O O14 0.500000 0.500000 0.500000
O O15 0.363043 0.512823 0.521881
#
# Coordination Sequence:
#
# PCOD9012083 Si02
#       7
#     2   2   2   2   2   2   2
#     4  10  21  40  68  94 138 176 221 272 330 401
#     4  10  21  42  68  97 135 180 223 270 328 408
#     4  10  23  42  63  98 130 174 220 270 342 394
#     4  10  24  43  65  97 136 169 220 275 341 394
#     4  11  25  45  68  93 133 177 228 276 328 407
#     4  10  21  41  63  95 132 171 217 274 334 388
#     4   9  21  39  62 101 125 167 236 265 326 387
#
# _framework density 27.408242000000001
#
# number of rings (size 3 to 8) (size 9 to 14) (size 15 to 20)
#    0.000    2.000    0.000    2.571    6.000    6.857 
#   10.286    7.143    0.000    0.000    0.000    0.000 
#    0.000    0.000    0.000    0.000    0.000    0.000 
#
# Total GULP energy -77979.143006 kJ/mol
# GULP energy per Si atom -5569.938786 kJ/mol
# Density = 2.734586 g / cm^3
# Si number density = 27.408242 Si / 1000 Ang^3
#
#
#
# Elastic Constant Matrix: (Units=GPa)
#
#
# Indices 1 2 3 4 5 6 
#
# 1 115.4110 46.3871 11.6594 2.2135 10.9205 18.3654
# 2 46.3871 170.8750 57.5137 -5.1106 10.2334 -20.9641
# 3 11.6594 57.5137 153.2866 5.6550 13.8489 10.5448
# 4 2.2135 -5.1106 5.6550 68.6454 -0.9264 2.6650
# 5 10.9205 10.2334 13.8489 -0.9264 25.7198 4.0715
# 6 18.3654 -20.9641 10.5448 2.6650 4.0715 43.0372
#
#
#
# Elastic Compliance Matrix: (Units=1/GPa)
#
#
# Indices 1 2 3 4 5 6 
#
# 1 0.011732 -0.004439 0.001558 -0.000596 -0.002930 -0.007236
# 2 -0.004439 0.009242 -0.003574 0.000828 -0.000996 0.007315
# 3 0.001558 -0.003574 0.008342 -0.000886 -0.003114 -0.004100
# 4 -0.000596 0.000828 -0.000886 0.014739 0.000952 -0.000128
# 5 -0.002930 -0.000996 -0.003114 0.000952 0.042638 -0.002565
# 6 -0.007236 0.007315 -0.004100 -0.000128 -0.002565 0.031142
#
#
# Mechanical properties :
#
#
# Convention : Reuss Voigt Hill
#
# Bulk Modulus (GPa) = 60.95519 74.52146 67.73832
# Shear Modulus (GPa) = 36.70681 49.08132 42.89406
#
# Velocity S-wave (km/s) = 3.66356 4.23632 3.96031
# Velocity P-wave (km/s) = 6.33905 7.15381 6.75872
#
# Compressibility (1/GPa) = 0.01640549
#
# Stress axis : x y z
#
# Youngs Moduli (GPa) = 85.23867 108.20058 119.87196
#
# Poissons Ratio (x) = 0.48033 -0.18673
# Poissons Ratio (y) = 0.37840 0.42839
# Poissons Ratio (z) = -0.13278 0.38668
#
# Static dielectric constant tensor:
#      x y z
#    x 2.243160 0.014560 -0.059640 
#    y 0.014560 2.194830 0.068020 
#    z -0.059640 0.068020 2.416580 
# 
# From -- ./inp_files/613749.got.cif
#   From: 2010.05.17/outbox.cif.g08.bks.cpg/sg2_307_cif.got.tgz:613749.got - 2010.06.03 11:33:40.
