data_PCOD9012989
_publ_section_title
;
Structure prediction by ZEFSAII (Michael W. Deem and Ramdas Pophale) SiO2 
 PCOD9012989
Probable space group: P -1
;
_chemical_formula_sum "Si O2"
_cell_formula_units_Z 16
_cell_length_a 9.766280
_cell_length_b 8.941554
_cell_length_c 15.111784
_cell_angle_alpha 63.216562
_cell_angle_beta 37.536132
_cell_angle_gamma 78.187755
_cell_volume 688.915528
_symmetry_space_group_name_H-M "P -1"
_symmetry_group_IT_number 2
_symmetry_cell_setting 'triclinic'
loop_
_space_group_symop_operation_xyz
x,y,z
-x,-y,-z
loop_
_atom_site_type_symbol
_atom_site_label
_atom_site_fract_x
_atom_site_fract_y
_atom_site_fract_z
Si Si1 0.888169 0.663485 0.018589
Si Si2 0.428002 0.741039 0.187785
Si Si3 0.639665 0.168878 0.330038
Si Si4 0.184898 0.263237 0.760955
Si Si5 0.666653 0.341920 0.444224
Si Si6 0.095294 0.772344 0.501226
Si Si7 0.306419 0.846957 0.035940
Si Si8 0.381259 0.174229 0.276467
O O1 0.088065 0.814761 0.827866
O O2 0.630900 0.642616 0.116243
O O3 0.875992 0.720268 0.110746
O O4 0.000000 0.500000 0.000000
O O5 0.238142 0.692087 0.377478
O O6 0.561170 0.948209 0.076014
O O7 0.313605 0.740042 0.150336
O O8 0.638871 0.321731 0.359165
O O9 0.517913 0.179267 0.296800
O O10 0.500000 0.000000 0.500000
O O11 0.428947 0.216322 0.642090
O O12 0.267379 0.454378 0.623110
O O13 0.955413 0.160957 0.856013
O O14 0.873473 0.283124 0.399345
O O15 0.821645 0.730956 0.632218
O O16 0.228911 0.978821 0.378983
O O17 0.431864 0.769773 0.913236
#
# Coordination Sequence:
#
# PCOD9012989 Si02
#       8
#     2   2   2   2   2   2   2   2
#     4  12  25  45  67  96 137 174 222 278 334 398
#     4  10  24  42  69  97 130 173 220 274 332 392
#     4  12  25  39  67 100 129 174 226 275 331 391
#     4  11  24  44  65  94 133 174 219 273 333 398
#     4  11  24  42  64  94 134 175 218 272 332 393
#     4  10  21  41  62  93 135 169 211 273 327 391
#     4  10  23  43  67  98 129 173 222 272 329 397
#     4  10  22  38  64  97 131 165 217 271 328 390
#
# _framework density 23.224909
#
# number of rings (size 3 to 8) (size 9 to 14) (size 15 to 20)
#    0.000    1.250    5.000    0.000    5.250    1.500 
#    2.250    1.875    0.000    0.000    0.000    0.000 
#    0.000    0.000    0.000    0.000    0.000    0.000 
#
# Total GULP energy -89396.178979 kJ/mol
# GULP energy per Si atom -5587.261186 kJ/mol
# Density = 2.317205 g / cm^3
# Si number density = 23.224909 Si / 1000 Ang^3
#
#
#
# Elastic Constant Matrix: (Units=GPa)
#
#
# Indices 1 2 3 4 5 6 
#
# 1 115.0717 22.9969 22.0990 24.7180 7.9973 10.0931
# 2 22.9969 46.4273 26.1817 21.7652 -2.0744 -7.4346
# 3 22.0990 26.1817 98.1362 25.9435 3.8262 7.5709
# 4 24.7180 21.7652 25.9435 35.9157 0.1057 -0.2205
# 5 7.9973 -2.0744 3.8262 0.1057 32.1442 9.2281
# 6 10.0931 -7.4346 7.5709 -0.2205 9.2281 27.8620
#
#
#
# Elastic Compliance Matrix: (Units=1/GPa)
#
#
# Indices 1 2 3 4 5 6 
#
# 1 0.011132 -0.003974 0.000467 -0.005614 -0.001715 -0.004696
# 2 -0.003974 0.035541 -0.005680 -0.014627 0.000509 0.012182
# 3 0.000467 -0.005680 0.013863 -0.006924 -0.000585 -0.005313
# 4 -0.005614 -0.014627 -0.006924 0.045569 0.001127 -0.000001
# 5 -0.001715 0.000509 -0.000585 0.001127 0.034666 -0.010557
# 6 -0.004696 0.012182 -0.005313 -0.000001 -0.010557 0.045783
#
#
# Mechanical properties :
#
#
# Convention : Reuss Voigt Hill
#
# Bulk Modulus (GPa) = 23.71807 44.68782 34.20294
# Shear Modulus (GPa) = 22.83284 31.74157 27.28721
#
# Velocity S-wave (km/s) = 3.13887 3.70091 3.43142
# Velocity P-wave (km/s) = 4.83438 6.12743 5.51890
#
# Compressibility (1/GPa) = 0.04216195
#
# Stress axis : x y z
#
# Youngs Moduli (GPa) = 89.83306 28.13620 72.13283
#
# Poissons Ratio (x) = 0.11181 -0.03367
# Poissons Ratio (y) = 0.35700 0.40971
# Poissons Ratio (z) = -0.04193 0.15981
#
# Static dielectric constant tensor:
#      x y z
#    x 1.837190 -0.022120 -0.029530 
#    y -0.022120 1.995260 0.013060 
#    z -0.029530 0.013060 1.889730 
# 
# From -- ./inp_files/494583.got.cif
#   From: 2010.05.17/outbox.cif.g08.bks.cpg/sg2_248_cif.got.tgz:494583.got - 2010.06.03 11:33:40.
