data_PCOD9012823
_publ_section_title
;
Structure prediction by ZEFSAII (Michael W. Deem and Ramdas Pophale) SiO2 
 PCOD9012823
Probable space group: P -1
;
_chemical_formula_sum "Si O2"
_cell_formula_units_Z 16
_cell_length_a 16.420378
_cell_length_b 24.550111
_cell_length_c 10.453759
_cell_angle_alpha 139.670352
_cell_angle_beta 139.100937
_cell_angle_gamma 17.399300
_cell_volume 806.713110
_symmetry_space_group_name_H-M "P -1"
_symmetry_group_IT_number 2
_symmetry_cell_setting 'triclinic'
loop_
_space_group_symop_operation_xyz
x,y,z
-x,-y,-z
loop_
_atom_site_type_symbol
_atom_site_label
_atom_site_fract_x
_atom_site_fract_y
_atom_site_fract_z
Si Si1 0.200226 0.423065 0.291006
Si Si2 0.179229 0.613428 0.727207
Si Si3 0.176848 0.970089 0.592579
Si Si4 0.383725 0.702440 0.881690
Si Si5 0.209250 0.964616 0.316240
Si Si6 0.631577 0.013085 0.674777
Si Si7 0.267728 0.631673 0.140477
Si Si8 0.723666 0.623734 0.993868
O O1 0.126274 0.548618 0.512272
O O2 0.517409 0.210538 0.309986
O O3 0.975432 0.484553 0.143560
O O4 0.171894 0.460711 0.174286
O O5 0.484125 0.454141 0.755181
O O6 0.942922 0.813390 0.739493
O O7 0.187942 0.627230 0.912181
O O8 0.222900 0.942483 0.444502
O O9 0.000000 0.000000 0.500000
O O10 0.995660 0.160156 0.751080
O O11 0.598492 0.508383 0.846322
O O12 0.299895 0.821852 0.103240
O O13 0.523427 0.670655 0.879397
O O14 0.107845 0.828465 0.726379
O O15 0.366161 0.943737 0.385853
O O16 0.500000 0.000000 0.500000
O O17 0.456920 0.181882 0.859491
#
# Coordination Sequence:
#
# PCOD9012823 Si02
#       8
#     2   2   2   2   2   2   2   2
#     4  11  22  42  61  92 125 163 214 251 310 377
#     4  11  22  39  65  93 122 162 210 259 304 377
#     4  12  24  40  63  93 128 167 203 259 316 365
#     4  10  21  41  61  91 126 160 209 260 309 369
#     4  10  23  39  64  94 126 162 209 258 309 373
#     4  11  21  42  66  95 125 166 206 255 313 372
#     4  11  24  39  63  94 126 160 209 257 315 363
#     4  10  23  40  66  90 124 169 204 258 315 369
#
# _framework density 19.833570000000002
#
# number of rings (size 3 to 8) (size 9 to 14) (size 15 to 20)
#    0.000    1.250    3.750    2.250    1.750    1.500 
#    2.250    2.500    0.000    0.000    0.000    0.000 
#    0.000    0.000    0.000    0.000    0.000    0.000 
#
# Total GULP energy -89310.012107 kJ/mol
# GULP energy per Si atom -5581.875757 kJ/mol
# Density = 1.978843 g / cm^3
# Si number density = 19.833570 Si / 1000 Ang^3
#
#
#
# Elastic Constant Matrix: (Units=GPa)
#
#
# Indices 1 2 3 4 5 6 
#
# 1 58.0957 -9.4873 19.4689 -4.4854 4.3433 -3.4522
# 2 -9.4873 114.2890 -0.9055 -7.2082 5.9851 -2.1719
# 3 19.4689 -0.9055 43.2669 -16.4614 -0.8656 0.8976
# 4 -4.4854 -7.2082 -16.4614 25.6568 -0.7971 1.5963
# 5 4.3433 5.9851 -0.8656 -0.7971 24.3941 2.1656
# 6 -3.4522 -2.1719 0.8976 1.5963 2.1656 29.3541
#
#
#
# Elastic Compliance Matrix: (Units=1/GPa)
#
#
# Indices 1 2 3 4 5 6 
#
# 1 0.021564 0.001836 -0.011052 -0.003185 -0.005102 0.003560
# 2 0.001836 0.009252 0.000472 0.003087 -0.002560 0.000907
# 3 -0.011052 0.000472 0.036670 0.022101 0.004222 -0.003900
# 4 -0.003185 0.003087 0.022101 0.053796 0.002702 -0.003947
# 5 -0.005102 -0.002560 0.004222 0.002702 0.043145 -0.004249
# 6 0.003560 0.000907 -0.003900 -0.003947 -0.004249 0.035200
#
#
# Mechanical properties :
#
#
# Convention : Reuss Voigt Hill
#
# Bulk Modulus (GPa) = 20.00136 25.97820 22.98978
# Shear Modulus (GPa) = 21.38758 29.65271 25.52015
#
# Velocity S-wave (km/s) = 3.28739 3.87082 3.59097
# Velocity P-wave (km/s) = 4.95134 5.75362 5.36749
#
# Compressibility (1/GPa) = 0.04999659
#
# Stress axis : x y z
#
# Youngs Moduli (GPa) = 46.37408 108.08570 27.27059
#
# Poissons Ratio (x) = -0.19849 0.30141
# Poissons Ratio (y) = -0.08516 -0.01287
# Poissons Ratio (z) = 0.51255 -0.05099
#
# Static dielectric constant tensor:
#      x y z
#    x 1.727090 -0.019920 0.020460 
#    y -0.019920 1.699390 -0.003780 
#    z 0.020460 -0.003780 1.704350 
# 
# From -- ./inp_files/297761.got.cif
#   From: 2010.05.17/outbox.cif.g08.bks.cpg/sg2_149_cif.got.tgz:297761.got - 2010.06.03 11:33:40.
