data_PCOD9012658
_publ_section_title
;
Structure prediction by ZEFSAII (Michael W. Deem and Ramdas Pophale) SiO2 
 PCOD9012658
Probable space group: P -1
;
_chemical_formula_sum "Si O2"
_cell_formula_units_Z 16
_cell_length_a 7.847891
_cell_length_b 13.607634
_cell_length_c 19.675871
_cell_angle_alpha 23.853403
_cell_angle_beta 123.577215
_cell_angle_gamma 124.317665
_cell_volume 697.386611
_symmetry_space_group_name_H-M "P -1"
_symmetry_group_IT_number 2
_symmetry_cell_setting 'triclinic'
loop_
_space_group_symop_operation_xyz
x,y,z
-x,-y,-z
loop_
_atom_site_type_symbol
_atom_site_label
_atom_site_fract_x
_atom_site_fract_y
_atom_site_fract_z
Si Si1 0.393039 0.734970 0.821530
Si Si2 0.833297 0.259361 0.093068
Si Si3 0.163012 0.540045 0.767043
Si Si4 0.467966 0.259481 0.496160
Si Si5 0.078810 0.226864 0.526502
Si Si6 0.520769 0.665203 0.132781
Si Si7 0.904625 0.036683 0.028535
Si Si8 0.851813 0.351720 0.615786
O O1 0.325963 0.780510 0.853982
O O2 0.211734 0.654292 0.778932
O O3 0.515384 0.989716 0.657526
O O4 0.500000 0.500000 0.000000
O O5 0.929105 0.007634 0.277613
O O6 0.695080 0.283607 0.980195
O O7 0.000000 0.500000 0.000000
O O8 0.343694 0.415145 0.850054
O O9 0.129615 0.750211 0.573563
O O10 0.960846 0.327842 0.866993
O O11 0.242396 0.222876 0.503987
O O12 0.490159 0.449634 0.318881
O O13 0.625361 0.333534 0.546175
O O14 0.133293 0.481762 0.418957
O O15 0.668006 0.896647 0.056357
O O16 0.050488 0.895575 0.196521
O O17 0.000000 0.000000 0.000000
O O18 0.000000 0.500000 0.500000
#
# Coordination Sequence:
#
# PCOD9012658 Si02
#       8
#     2   2   2   2   2   2   2   2
#     4  11  24  44  69 100 131 189 229 277 340 407
#     4  11  28  46  68  98 147 174 227 288 342 403
#     4  11  23  43  75  97 134 182 240 271 337 409
#     4  11  26  41  68  99 146 175 225 287 345 405
#     4  11  26  44  68 100 135 184 217 287 353 396
#     4  11  23  47  67 102 132 183 229 281 332 409
#     4  10  21  40  73  96 135 170 231 285 325 396
#     4  12  22  45  68 103 135 177 232 278 337 409
#
# _framework density 22.942796000000001
#
# number of rings (size 3 to 8) (size 9 to 14) (size 15 to 20)
#    0.000    1.000    5.000    1.125    8.750    5.500 
#    0.000    1.250    0.000    0.000    0.000    0.000 
#    0.000    0.000    0.000    0.000    0.000    0.000 
#
# Total GULP energy -89312.241820 kJ/mol
# GULP energy per Si atom -5582.015114 kJ/mol
# Density = 2.289058 g / cm^3
# Si number density = 22.942796 Si / 1000 Ang^3
#
#
#
# Elastic Constant Matrix: (Units=GPa)
#
#
# Indices 1 2 3 4 5 6 
#
# 1 41.5328 -10.8292 20.2664 0.4670 -5.8677 -1.4531
# 2 -10.8292 89.6892 48.5343 29.3406 -5.8976 0.8767
# 3 20.2664 48.5343 164.4234 28.3427 -7.0062 11.6165
# 4 0.4670 29.3406 28.3427 39.1355 4.1352 3.6653
# 5 -5.8677 -5.8976 -7.0062 4.1352 36.3368 2.3692
# 6 -1.4531 0.8767 11.6165 3.6653 2.3692 28.2015
#
#
#
# Elastic Compliance Matrix: (Units=1/GPa)
#
#
# Indices 1 2 3 4 5 6 
#
# 1 0.029690 0.007890 -0.005469 -0.003183 0.005153 0.003518
# 2 0.007890 0.018559 -0.004469 -0.011514 0.004553 0.002784
# 3 -0.005469 -0.004469 0.008814 -0.002708 0.000626 -0.003474
# 4 -0.003183 -0.011514 -0.002708 0.037193 -0.006946 -0.002941
# 5 0.005153 0.004553 0.000626 -0.006946 0.030117 -0.001761
# 6 0.003518 0.002784 -0.003474 -0.002941 -0.001761 0.037515
#
#
# Mechanical properties :
#
#
# Convention : Reuss Voigt Hill
#
# Bulk Modulus (GPa) = 18.87933 45.73206 32.30570
# Shear Modulus (GPa) = 27.22715 36.57967 31.90341
#
# Velocity S-wave (km/s) = 3.44865 3.99731 3.73307
# Velocity P-wave (km/s) = 4.90961 6.42503 5.71775
#
# Compressibility (1/GPa) = 0.05296797
#
# Stress axis : x y z
#
# Youngs Moduli (GPa) = 33.68139 53.88147 113.45613
#
# Poissons Ratio (x) = -0.42512 0.62046
# Poissons Ratio (y) = -0.26574 0.50701
# Poissons Ratio (z) = 0.18419 0.24078
#
# Static dielectric constant tensor:
#      x y z
#    x 1.907580 -0.014540 0.092260 
#    y -0.014540 1.912840 -0.097190 
#    z 0.092260 -0.097190 1.544390 
# 
# From -- ./inp_files/223179.got.cif
#   From: 2010.05.17/outbox.cif.g08.bks.cpg/sg2_112_cif.got.tgz:223179.got - 2010.06.03 11:33:40.
