data_PCOD9012314
_publ_section_title
;
Structure prediction by ZEFSAII (Michael W. Deem and Ramdas Pophale) SiO2 
 PCOD9012314
Probable space group: P -1
;
_chemical_formula_sum "Si O2"
_cell_formula_units_Z 14
_cell_length_a 9.488277
_cell_length_b 12.157100
_cell_length_c 8.615179
_cell_angle_alpha 99.852756
_cell_angle_beta 135.291534
_cell_angle_gamma 97.341865
_cell_volume 642.663643
_symmetry_space_group_name_H-M "P -1"
_symmetry_group_IT_number 2
_symmetry_cell_setting 'triclinic'
loop_
_space_group_symop_operation_xyz
x,y,z
-x,-y,-z
loop_
_atom_site_type_symbol
_atom_site_label
_atom_site_fract_x
_atom_site_fract_y
_atom_site_fract_z
Si Si1 0.415985 0.768902 0.461921
Si Si2 0.356850 0.527380 0.529026
Si Si3 0.889303 0.905946 0.753413
Si Si4 0.241437 0.573873 0.761644
Si Si5 0.316754 0.970579 0.619954
Si Si6 0.904457 0.408800 0.043207
Si Si7 0.752322 0.158957 0.145031
O O1 0.359714 0.658477 0.511386
O O2 0.662002 0.811449 0.610724
O O3 0.380969 0.881949 0.536340
O O4 0.250321 0.715013 0.178635
O O5 0.500000 0.500000 0.500000
O O6 0.391887 0.543199 0.746144
O O7 0.125677 0.421668 0.303064
O O8 0.052497 0.844932 0.807831
O O9 0.831870 0.976112 0.581289
O O10 0.000000 0.000000 0.000000
O O11 0.235705 0.547491 0.934421
O O12 0.266927 0.712868 0.813176
O O13 0.000000 0.500000 0.500000
O O14 0.218587 0.895832 0.679291
O O15 0.531876 0.074357 0.872523
O O16 0.000000 0.500000 0.000000
#
# Coordination Sequence:
#
# PCOD9012314 Si02
#       7
#     2   2   2   2   2   2   2
#     4  11  22  42  64  95 136 178 224 285 353 405
#     4  10  22  41  66 100 129 178 235 282 343 418
#     4  12  26  40  66 104 132 180 236 280 347 418
#     4  10  21  40  69  92 134 178 220 283 349 403
#     4  11  24  45  68  96 142 181 226 290 349 411
#     4   9  21  40  64  93 135 177 217 275 349 405
#     4  11  24  45  69  98 138 180 232 283 351 415
#
# _framework density 21.784334999999999
#
# number of rings (size 3 to 8) (size 9 to 14) (size 15 to 20)
#    0.000    1.429    2.857    1.714    6.000    0.000 
#    0.000    5.714    0.000    0.000    0.000    0.000 
#    0.000    0.000    0.000    0.000    0.000    0.000 
#
# Total GULP energy -78136.144372 kJ/mol
# GULP energy per Si atom -5581.153169 kJ/mol
# Density = 2.173475 g / cm^3
# Si number density = 21.784335 Si / 1000 Ang^3
#
#
#
# Elastic Constant Matrix: (Units=GPa)
#
#
# Indices 1 2 3 4 5 6 
#
# 1 188.9946 33.5127 66.6762 5.2913 -22.3973 -3.3784
# 2 33.5127 75.8232 39.2232 3.9865 -3.9416 6.9400
# 3 66.6762 39.2232 126.3041 22.3174 -15.4980 0.2419
# 4 5.2913 3.9865 22.3174 41.2914 3.4091 -4.4673
# 5 -22.3973 -3.9416 -15.4980 3.4091 42.4402 -0.6177
# 6 -3.3784 6.9400 0.2419 -4.4673 -0.6177 39.1640
#
#
#
# Elastic Compliance Matrix: (Units=1/GPa)
#
#
# Indices 1 2 3 4 5 6 
#
# 1 0.006900 -0.001492 -0.003038 0.000818 0.002342 0.001009
# 2 -0.001492 0.016382 -0.004573 0.000852 -0.001047 -0.002923
# 3 -0.003038 -0.004573 0.012392 -0.006133 0.002987 -0.000181
# 4 0.000818 0.000852 -0.006133 0.028005 -0.003934 0.003090
# 5 0.002342 -0.001047 0.002987 -0.003934 0.026113 0.000332
# 6 0.001009 -0.002923 -0.000181 0.003090 0.000332 0.026497
#
#
# Mechanical properties :
#
#
# Convention : Reuss Voigt Hill
#
# Bulk Modulus (GPa) = 57.24804 74.43845 65.84325
# Shear Modulus (GPa) = 35.63305 41.35977 38.49641
#
# Velocity S-wave (km/s) = 4.04879 4.36202 4.20832
# Velocity P-wave (km/s) = 6.94215 7.72104 7.34193
#
# Compressibility (1/GPa) = 0.01746785
#
# Stress axis : x y z
#
# Youngs Moduli (GPa) = 144.92040 61.04306 80.69610
#
# Poissons Ratio (x) = 0.09105 0.24519
# Poissons Ratio (y) = 0.21616 0.36904
# Poissons Ratio (z) = 0.44034 0.27916
#
# Static dielectric constant tensor:
#      x y z
#    x 1.837900 0.042210 -0.035180 
#    y 0.042210 1.821700 -0.055650 
#    z -0.035180 -0.055650 1.798900 
# 
# From -- ./inp_files/203426.got.cif
#   From: 2010.05.17/outbox.cif.g08.bks.cpg/sg2_102_cif.got.tgz:203426.got - 2010.06.03 11:33:40.
