data_PCOD9012964
_publ_section_title
;
Structure prediction by ZEFSAII (Michael W. Deem and Ramdas Pophale) SiO2 
 PCOD9012964
Probable space group: P -1
;
_chemical_formula_sum "Si O2"
_cell_formula_units_Z 14
_cell_length_a 16.622901
_cell_length_b 6.570901
_cell_length_c 5.786000
_cell_angle_alpha 71.276279
_cell_angle_beta 83.412344
_cell_angle_gamma 106.420105
_cell_volume 559.254767
_symmetry_space_group_name_H-M "P -1"
_symmetry_group_IT_number 2
_symmetry_cell_setting 'triclinic'
loop_
_space_group_symop_operation_xyz
x,y,z
-x,-y,-z
loop_
_atom_site_type_symbol
_atom_site_label
_atom_site_fract_x
_atom_site_fract_y
_atom_site_fract_z
Si Si1 0.074358 0.218284 0.547243
Si Si2 0.196293 0.702007 0.484561
Si Si3 0.471873 0.802339 0.891723
Si Si4 0.396665 0.336094 0.367194
Si Si5 0.222042 0.171605 0.195977
Si Si6 0.333359 0.553129 0.693419
Si Si7 0.943748 0.254998 0.213710
O O1 0.125895 0.457963 0.552573
O O2 0.138790 0.200034 0.328635
O O3 0.989656 0.240486 0.450013
O O4 0.058905 0.992414 0.790727
O O5 0.287170 0.666618 0.486035
O O6 0.155503 0.768022 0.706864
O O7 0.202667 0.907577 0.233629
O O8 0.547792 0.816203 0.679628
O O9 0.387096 0.746883 0.781702
O O10 0.444692 0.572194 0.134796
O O11 0.500000 0.000000 0.000000
O O12 0.300325 0.228719 0.336209
O O13 0.389283 0.416335 0.601741
O O14 0.258221 0.357184 0.919656
O O15 0.000000 0.500000 0.000000
#
# Coordination Sequence:
#
# PCOD9012964 Si02
#       7
#     2   2   2   2   2   2   2
#     4  10  21  41  62  91 142 168 223 288 320 395
#     4  11  23  41  65  98 130 180 225 273 341 399
#     4  10  24  44  69  98 135 178 225 282 339 405
#     4  10  22  45  64  99 136 173 229 282 334 405
#     4  10  23  42  63  97 138 172 223 284 329 398
#     4  11  23  44  71  97 137 181 225 282 341 404
#     4  10  22  39  63  96 130 178 225 270 339 397
#
# _framework density 25.033313
#
# number of rings (size 3 to 8) (size 9 to 14) (size 15 to 20)
#    0.000    1.714    1.429    1.714    2.000    2.286 
#   10.286    0.000    0.000    0.000    0.000    0.000 
#    0.000    0.000    0.000    0.000    0.000    0.000 
#
# Total GULP energy -78219.522062 kJ/mol
# GULP energy per Si atom -5587.108719 kJ/mol
# Density = 2.497634 g / cm^3
# Si number density = 25.033313 Si / 1000 Ang^3
#
#
#
# Elastic Constant Matrix: (Units=GPa)
#
#
# Indices 1 2 3 4 5 6 
#
# 1 93.8342 28.3819 12.3437 9.1756 -16.2642 -5.4938
# 2 28.3819 171.0246 39.4204 -17.5246 -6.8817 6.8468
# 3 12.3437 39.4204 67.5006 -17.0755 -28.4163 -5.8882
# 4 9.1756 -17.5246 -17.0755 50.7830 0.3234 -1.7141
# 5 -16.2642 -6.8817 -28.4163 0.3234 31.8407 -0.6866
# 6 -5.4938 6.8468 -5.8882 -1.7141 -0.6866 35.2391
#
#
#
# Elastic Compliance Matrix: (Units=1/GPa)
#
#
# Indices 1 2 3 4 5 6 
#
# 1 0.013020 -0.002735 0.002307 -0.002472 0.008208 0.002986
# 2 -0.002735 0.007769 -0.006363 0.000967 -0.005472 -0.003059
# 3 0.002307 -0.006363 0.033643 0.008787 0.029916 0.008228
# 4 -0.002472 0.000967 0.008787 0.023458 0.006597 0.002164
# 5 0.008208 -0.005472 0.029916 0.006597 0.061239 0.008856
# 6 0.002986 -0.003059 0.008228 0.002164 0.008856 0.031090
#
#
# Mechanical properties :
#
#
# Convention : Reuss Voigt Hill
#
# Bulk Modulus (GPa) = 24.47961 54.73904 39.60932
# Shear Modulus (GPa) = 25.32698 40.38679 32.85689
#
# Velocity S-wave (km/s) = 3.18422 4.02098 3.62681
# Velocity P-wave (km/s) = 4.82898 6.59330 5.77887
#
# Compressibility (1/GPa) = 0.04085033
#
# Stress axis : x y z
#
# Youngs Moduli (GPa) = 76.80425 128.71775 29.72356
#
# Poissons Ratio (x) = 0.35204 -0.06856
# Poissons Ratio (y) = 0.21006 0.18912
# Poissons Ratio (z) = -0.17716 0.81898
#
# Static dielectric constant tensor:
#      x y z
#    x 1.962350 -0.019220 0.006880 
#    y -0.019220 2.084180 0.058420 
#    z 0.006880 0.058420 1.980830 
# 
# From -- ./inp_files/102780.got.cif
#   From: 2010.05.17/outbox.cif.g08.bks.cpg/sg2_52_cif.got.tgz:102780.got - 2010.06.03 11:33:40.
