data_PCOD9012990
_publ_section_title
;
Structure prediction by ZEFSAII (Michael W. Deem and Ramdas Pophale) SiO2 
 PCOD9012990
Probable space group: P -1
;
_chemical_formula_sum "Si O2"
_cell_formula_units_Z 16
_cell_length_a 20.358463
_cell_length_b 8.365220
_cell_length_c 8.361660
_cell_angle_alpha 117.987839
_cell_angle_beta 40.841750
_cell_angle_gamma 135.440830
_cell_volume 645.824607
_symmetry_space_group_name_H-M "P -1"
_symmetry_group_IT_number 2
_symmetry_cell_setting 'triclinic'
loop_
_space_group_symop_operation_xyz
x,y,z
-x,-y,-z
loop_
_atom_site_type_symbol
_atom_site_label
_atom_site_fract_x
_atom_site_fract_y
_atom_site_fract_z
Si Si1 0.618361 0.419227 0.771904
Si Si2 0.851063 0.852462 0.395389
Si Si3 0.585528 0.984024 0.207563
Si Si4 0.038213 0.352927 0.441391
Si Si5 0.658403 0.376662 0.031467
Si Si6 0.729303 0.799417 0.256882
Si Si7 0.268396 0.833279 0.677886
Si Si8 0.036299 0.770773 0.111425
O O1 0.726500 0.684775 0.655953
O O2 0.489249 0.277331 0.836671
O O3 0.598312 0.373822 0.974736
O O4 0.680686 0.297522 0.541248
O O5 0.799100 0.854749 0.321841
O O6 0.927067 0.746235 0.197583
O O7 0.949880 0.105571 0.402034
O O8 0.500000 0.000000 0.500000
O O9 0.712166 0.112499 0.142285
O O10 0.605172 0.133151 0.089219
O O11 0.007480 0.303632 0.662591
O O12 0.000000 0.500000 0.500000
O O13 0.189628 0.489420 0.207543
O O14 0.648206 0.532324 0.246113
O O15 0.662496 0.920168 0.420875
O O16 0.843252 0.950613 0.987143
O O17 0.118358 0.694709 0.853730
#
# Coordination Sequence:
#
# PCOD9012990 Si02
#       8
#     2   2   2   2   2   2   2   2
#     4  11  24  43  70  95 132 176 220 271 321 391
#     4  12  23  42  65  98 135 176 217 258 339 386
#     4  10  22  46  69  93 126 176 225 268 325 385
#     4  12  25  39  65 101 138 169 211 275 325 396
#     4  12  23  43  66  97 132 173 217 270 333 377
#     4  10  23  40  66  96 135 173 216 267 319 392
#     4   9  22  42  66  95 130 174 220 266 318 382
#     4  10  21  41  62  93 139 167 211 261 326 391
#
# _framework density 24.774529000000001
#
# number of rings (size 3 to 8) (size 9 to 14) (size 15 to 20)
#    0.750    0.500    2.500    4.125    1.750    0.500 
#    0.000    6.250    0.000    0.000    0.000    0.000 
#    0.000    0.000    0.000    0.000    0.000    0.000 
#
# Total GULP energy -89493.941220 kJ/mol
# GULP energy per Si atom -5593.371326 kJ/mol
# Density = 2.471814 g / cm^3
# Si number density = 24.774529 Si / 1000 Ang^3
#
#
#
# Elastic Constant Matrix: (Units=GPa)
#
#
# Indices 1 2 3 4 5 6 
#
# 1 96.8617 17.8917 16.1708 4.6597 19.5820 -2.3731
# 2 17.8917 80.5500 17.9674 -9.2150 6.5903 16.4866
# 3 16.1708 17.9674 57.6717 -14.5934 4.2667 0.6110
# 4 4.6597 -9.2150 -14.5934 38.3202 -5.6286 4.8002
# 5 19.5820 6.5903 4.2667 -5.6286 44.3162 4.3660
# 6 -2.3731 16.4866 0.6110 4.8002 4.3660 47.6634
#
#
#
# Elastic Compliance Matrix: (Units=1/GPa)
#
#
# Indices 1 2 3 4 5 6 
#
# 1 0.012883 -0.002667 -0.003582 -0.004754 -0.005813 0.002621
# 2 -0.002667 0.015257 -0.003054 0.003584 0.000226 -0.005753
# 3 -0.003582 -0.003054 0.021241 0.007979 0.001034 -0.000292
# 4 -0.004754 0.003584 0.007979 0.032030 0.005390 -0.005298
# 5 -0.005813 0.000226 0.001034 0.005390 0.026011 -0.003306
# 6 0.002621 -0.005753 -0.000292 -0.005298 -0.003306 0.023941
#
#
# Mechanical properties :
#
#
# Convention : Reuss Voigt Hill
#
# Bulk Modulus (GPa) = 32.49508 37.68257 35.08882
# Shear Modulus (GPa) = 31.20548 38.26352 34.73450
#
# Velocity S-wave (km/s) = 3.55291 3.93424 3.74842
# Velocity P-wave (km/s) = 5.47500 5.99006 5.73831
#
# Compressibility (1/GPa) = 0.03077389
#
# Stress axis : x y z
#
# Youngs Moduli (GPa) = 77.62273 65.54193 47.07870
#
# Poissons Ratio (x) = 0.17482 0.16864
# Poissons Ratio (y) = 0.20704 0.14380
# Poissons Ratio (z) = 0.27805 0.20019
#
# Static dielectric constant tensor:
#      x y z
#    x 2.025940 -0.012920 -0.096930 
#    y -0.012920 2.072570 -0.028140 
#    z -0.096930 -0.028140 1.970170 
# 
# From -- ./inp_files/326282.got.cif
#   From: 2010.05.17/outbox.cif.g08.bks.cpg/sg2_164_cif.got.tgz:326282.got - 2010.06.03 11:33:40.
