data_PCOD9012043
_publ_section_title
;
Structure prediction by ZEFSAII (Michael W. Deem and Ramdas Pophale) SiO2 
 PCOD9012043
Probable space group: P -1
;
_chemical_formula_sum "Si O2"
_cell_formula_units_Z 14
_cell_length_a 12.650929
_cell_length_b 6.994891
_cell_length_c 12.810499
_cell_angle_alpha 44.429570
_cell_angle_beta 126.764953
_cell_angle_gamma 102.176228
_cell_volume 586.444045
_symmetry_space_group_name_H-M "P -1"
_symmetry_group_IT_number 2
_symmetry_cell_setting 'triclinic'
loop_
_space_group_symop_operation_xyz
x,y,z
-x,-y,-z
loop_
_atom_site_type_symbol
_atom_site_label
_atom_site_fract_x
_atom_site_fract_y
_atom_site_fract_z
Si Si1 0.530199 0.793651 0.881046
Si Si2 0.857161 0.235773 0.003987
Si Si3 0.561695 0.687038 0.715858
Si Si4 0.748006 0.264379 0.482035
Si Si5 0.227146 0.245959 0.806271
Si Si6 0.943301 0.655194 0.764189
Si Si7 0.228475 0.264002 0.561506
O O1 0.609981 0.740785 0.838401
O O2 0.377492 0.063217 0.674883
O O3 0.500000 0.500000 0.000000
O O4 0.626071 0.848796 0.006420
O O5 0.688414 0.436909 0.827913
O O6 0.932796 0.351357 0.913978
O O7 0.920273 0.305936 0.122220
O O8 0.872525 0.897102 0.142607
O O9 0.422419 0.607704 0.680224
O O10 0.500000 0.000000 0.500000
O O11 0.815833 0.404594 0.376763
O O12 0.778352 0.406197 0.549886
O O13 0.816296 0.915921 0.649867
O O14 0.239612 0.136810 0.735459
O O15 0.901847 0.719860 0.594279
#
# Coordination Sequence:
#
# PCOD9012043 Si02
#       7
#     2   2   2   2   2   2   2
#     4  12  19  37  66  99 134 167 210 274 330 369
#     4  11  25  42  65  98 128 171 224 268 314 392
#     4  12  22  39  67  96 127 167 214 262 327 385
#     4  10  22  42  68  93 131 165 217 266 323 386
#     4  10  23  39  65 100 129 163 224 266 316 385
#     4  11  23  48  65  88 139 177 209 268 331 379
#     4  10  21  40  68  92 130 174 209 266 326 384
#
# _framework density 23.872696999999999
#
# number of rings (size 3 to 8) (size 9 to 14) (size 15 to 20)
#    0.857    0.286    4.286    2.143    0.000    2.286 
#    2.571    4.286    0.000    0.000    0.000    0.000 
#    0.000    0.000    0.000    0.000    0.000    0.000 
#
# Total GULP energy -78173.628399 kJ/mol
# GULP energy per Si atom -5583.830600 kJ/mol
# Density = 2.381836 g / cm^3
# Si number density = 23.872697 Si / 1000 Ang^3
#
#
#
# Elastic Constant Matrix: (Units=GPa)
#
#
# Indices 1 2 3 4 5 6 
#
# 1 42.5521 22.3424 17.0826 -1.1052 -1.2519 15.7993
# 2 22.3424 96.6642 40.8230 10.7077 -13.6816 26.3137
# 3 17.0826 40.8230 81.9725 27.8852 -6.0219 4.6792
# 4 -1.1052 10.7077 27.8852 34.5055 -0.3328 -3.7027
# 5 -1.2519 -13.6816 -6.0219 -0.3328 35.9756 -4.4595
# 6 15.7993 26.3137 4.6792 -3.7027 -4.4595 36.5536
#
#
#
# Elastic Compliance Matrix: (Units=1/GPa)
#
#
# Indices 1 2 3 4 5 6 
#
# 1 0.031695 -0.002449 -0.007105 0.006351 -0.002281 -0.010662
# 2 -0.002449 0.017236 -0.006897 -0.000894 0.004060 -0.010062
# 3 -0.007105 -0.006897 0.022340 -0.015729 0.001186 0.003727
# 4 0.006351 -0.000894 -0.015729 0.042585 -0.001862 0.003999
# 5 -0.002281 0.004060 0.001186 -0.001862 0.029608 0.001335
# 6 -0.010662 -0.010062 0.003727 0.003999 0.001335 0.039299
#
#
# Mechanical properties :
#
#
# Convention : Reuss Voigt Hill
#
# Bulk Modulus (GPa) = 26.06207 42.40943 34.23575
# Shear Modulus (GPa) = 21.88621 30.80299 26.34460
#
# Velocity S-wave (km/s) = 3.03114 3.59597 3.32557
# Velocity P-wave (km/s) = 4.81572 5.91986 5.39611
#
# Compressibility (1/GPa) = 0.03836993
#
# Stress axis : x y z
#
# Youngs Moduli (GPa) = 31.55039 58.01649 44.76374
#
# Poissons Ratio (x) = 0.14211 0.31803
# Poissons Ratio (y) = 0.07728 0.30872
# Poissons Ratio (z) = 0.22415 0.40012
#
# Static dielectric constant tensor:
#      x y z
#    x 1.931870 0.006770 -0.037480 
#    y 0.006770 1.900390 0.012580 
#    z -0.037480 0.012580 1.907350 
# 
# From -- ./inp_files/514948.got.cif
#   From: 2010.05.17/outbox.cif.g08.bks.cpg/sg2_258_cif.got.tgz:514948.got - 2010.06.03 11:33:40.
