data_PCOD9012092
_publ_section_title
;
Structure prediction by ZEFSAII (Michael W. Deem and Ramdas Pophale) SiO2 
 PCOD9012092
Probable space group: P -1
;
_chemical_formula_sum "Si O2"
_cell_formula_units_Z 16
_cell_length_a 9.368531
_cell_length_b 10.626825
_cell_length_c 13.639653
_cell_angle_alpha 40.404324
_cell_angle_beta 62.286512
_cell_angle_gamma 79.138156
_cell_volume 746.020413
_symmetry_space_group_name_H-M "P -1"
_symmetry_group_IT_number 2
_symmetry_cell_setting 'triclinic'
loop_
_space_group_symop_operation_xyz
x,y,z
-x,-y,-z
loop_
_atom_site_type_symbol
_atom_site_label
_atom_site_fract_x
_atom_site_fract_y
_atom_site_fract_z
Si Si1 0.108965 0.211769 0.891097
Si Si2 0.607275 0.218981 0.107828
Si Si3 0.876910 0.417892 0.749181
Si Si4 0.152458 0.445117 0.931929
Si Si5 0.058489 0.145932 0.516314
Si Si6 0.306919 0.878928 0.650263
Si Si7 0.236244 0.204728 0.221814
Si Si8 0.367638 0.993185 0.962657
O O1 0.083247 0.275272 0.973069
O O2 0.292402 0.180702 0.861405
O O3 0.052559 0.383107 0.747935
O O4 0.000000 0.000000 0.000000
O O5 0.696692 0.173168 0.202705
O O6 0.425764 0.244316 0.175883
O O7 0.565727 0.042254 0.144700
O O8 0.744819 0.388160 0.901484
O O9 0.902191 0.640233 0.567156
O O10 0.782205 0.213970 0.842046
O O11 0.263746 0.666893 0.729794
O O12 0.246049 0.360091 0.037967
O O13 0.000000 0.500000 0.000000
O O14 0.177194 0.006785 0.591963
O O15 0.110341 0.207328 0.350225
O O16 0.863847 0.015259 0.660633
O O17 0.500000 0.000000 0.500000
O O18 0.500000 0.000000 0.000000
#
# Coordination Sequence:
#
# PCOD9012092 Si02
#       8
#     2   2   2   2   2   2   2   2
#     4  10  21  40  68  95 127 171 216 266 322 385
#     4  10  22  40  63  94 124 167 220 261 319 384
#     4   9  22  38  65  91 123 166 221 259 320 381
#     4  12  24  40  67 100 125 170 226 262 321 398
#     4  11  23  39  58  94 134 171 202 270 335 380
#     4  12  25  39  61  97 137 168 209 274 333 377
#     4  11  23  37  61  89 133 166 210 263 322 386
#     4   9  20  40  67  96 121 169 225 264 311 388
#
# _framework density 21.447136
#
# number of rings (size 3 to 8) (size 9 to 14) (size 15 to 20)
#    0.750    0.750    2.500    3.000    3.500    1.000 
#    0.000    0.000    0.000   18.750    0.000    0.000 
#    0.000    0.000    0.000    0.000    0.000    0.000 
#
# Total GULP energy -89088.708419 kJ/mol
# GULP energy per Si atom -5568.044276 kJ/mol
# Density = 2.139832 g / cm^3
# Si number density = 21.447136 Si / 1000 Ang^3
#
#
#
# Elastic Constant Matrix: (Units=GPa)
#
#
# Indices 1 2 3 4 5 6 
#
# 1 135.1542 21.7210 32.1624 -16.8356 8.4664 6.9091
# 2 21.7210 74.5210 15.4653 -9.1063 4.6493 8.2278
# 3 32.1624 15.4653 75.9668 -30.3011 -4.8463 -8.8025
# 4 -16.8356 -9.1063 -30.3011 21.3232 -2.2046 4.3704
# 5 8.4664 4.6493 -4.8463 -2.2046 29.1687 2.9369
# 6 6.9091 8.2278 -8.8025 4.3704 2.9369 30.2074
#
#
#
# Elastic Compliance Matrix: (Units=1/GPa)
#
#
# Indices 1 2 3 4 5 6 
#
# 1 0.008913 -0.001215 -0.002936 0.002654 -0.002407 -0.002713
# 2 -0.001215 0.015230 -0.001618 0.004065 -0.001556 -0.004779
# 3 -0.002936 -0.001618 0.033903 0.045477 0.009832 0.003456
# 4 0.002654 0.004065 0.045477 0.118451 0.015809 -0.007136
# 5 -0.002407 -0.001556 0.009832 0.015809 0.038277 -0.002169
# 6 -0.002713 -0.004779 0.003456 -0.007136 -0.002169 0.037277
#
#
# Mechanical properties :
#
#
# Convention : Reuss Voigt Hill
#
# Bulk Modulus (GPa) = 21.50076 47.14883 34.32479
# Shear Modulus (GPa) = 17.91529 30.55941 24.23735
#
# Velocity S-wave (km/s) = 2.89333 3.77884 3.36534
# Velocity P-wave (km/s) = 4.60528 6.40867 5.58030
#
# Compressibility (1/GPa) = 0.04650998
#
# Stress axis : x y z
#
# Youngs Moduli (GPa) = 112.19798 65.65896 29.49565
#
# Poissons Ratio (x) = 0.07975 0.08658
# Poissons Ratio (y) = 0.13627 0.04773
# Poissons Ratio (z) = 0.32936 0.10624
#
# Static dielectric constant tensor:
#      x y z
#    x 1.812330 -0.024580 -0.030950 
#    y -0.024580 1.899640 -0.022520 
#    z -0.030950 -0.022520 1.915730 
# 
# From -- ./inp_files/499872.got.cif
#   From: 2010.05.17/outbox.cif.g08.bks.cpg/sg2_250_cif.got.tgz:499872.got - 2010.06.03 11:33:40.
