data_PCOD9012416
_publ_section_title
;
Structure prediction by ZEFSAII (Michael W. Deem and Ramdas Pophale) SiO2 
 PCOD9012416
Probable space group: P -1
;
_chemical_formula_sum "Si O2"
_cell_formula_units_Z 16
_cell_length_a 8.707064
_cell_length_b 12.206370
_cell_length_c 18.525738
_cell_angle_alpha 36.856517
_cell_angle_beta 132.904752
_cell_angle_gamma 105.678548
_cell_volume 675.475208
_symmetry_space_group_name_H-M "P -1"
_symmetry_group_IT_number 2
_symmetry_cell_setting 'triclinic'
loop_
_space_group_symop_operation_xyz
x,y,z
-x,-y,-z
loop_
_atom_site_type_symbol
_atom_site_label
_atom_site_fract_x
_atom_site_fract_y
_atom_site_fract_z
Si Si1 0.186955 0.512296 0.495108
Si Si2 0.693973 0.798887 0.111323
Si Si3 0.546803 0.495196 0.279777
Si Si4 0.867198 0.958686 0.644395
Si Si5 0.443143 0.812577 0.883653
Si Si6 0.072933 0.196909 0.098888
Si Si7 0.600441 0.808869 0.404140
Si Si8 0.987120 0.414158 0.222336
O O1 0.376186 0.524331 0.601236
O O2 0.345720 0.311191 0.592519
O O3 0.000000 0.500000 0.500000
O O4 0.976859 0.728025 0.262146
O O5 0.698241 0.577196 0.243673
O O6 0.582698 0.866224 0.960238
O O7 0.500000 0.000000 0.000000
O O8 0.655043 0.239065 0.425762
O O9 0.234179 0.700050 0.059260
O O10 0.833685 0.857789 0.759276
O O11 0.873555 0.829471 0.644525
O O12 0.167566 0.879259 0.788302
O O13 0.363822 0.991712 0.699524
O O14 0.682296 0.542605 0.083479
O O15 0.296147 0.956036 0.256174
O O16 0.056630 0.401962 0.946916
O O17 0.821201 0.627435 0.629106
#
# Coordination Sequence:
#
# PCOD9012416 Si02
#       8
#     2   2   2   2   2   2   2   2
#     4  10  21  40  70 100 136 176 218 282 350 407
#     4  11  20  40  71 101 138 175 223 282 348 409
#     4  11  24  42  69 104 135 180 233 281 339 413
#     4  12  25  45  72 103 139 181 239 286 343 414
#     4  11  22  41  70 104 136 175 231 289 347 404
#     4  11  26  46  70  97 143 187 236 278 342 420
#     4  11  24  46  68 103 142 181 230 285 347 413
#     4  11  26  46  69 100 142 189 226 291 348 404
#
# _framework density 23.687027
#
# number of rings (size 3 to 8) (size 9 to 14) (size 15 to 20)
#    0.000    1.000    2.500    5.250    0.000    5.000 
#    0.000    2.500    0.000    0.000    0.000    0.000 
#    0.000    0.000    0.000    0.000    0.000    0.000 
#
# Total GULP energy -89412.921713 kJ/mol
# GULP energy per Si atom -5588.307607 kJ/mol
# Density = 2.363311 g / cm^3
# Si number density = 23.687027 Si / 1000 Ang^3
#
#
#
# Elastic Constant Matrix: (Units=GPa)
#
#
# Indices 1 2 3 4 5 6 
#
# 1 63.3409 17.0788 36.2342 -4.1919 8.8264 -19.0199
# 2 17.0788 79.9569 13.5956 -20.1277 1.8085 -30.4328
# 3 36.2342 13.5956 87.8694 -17.3003 -1.2543 -4.0377
# 4 -4.1919 -20.1277 -17.3003 33.1963 -4.2230 7.8738
# 5 8.8264 1.8085 -1.2543 -4.2230 45.4452 -2.2325
# 6 -19.0199 -30.4328 -4.0377 7.8738 -2.2325 30.4808
#
#
#
# Elastic Compliance Matrix: (Units=1/GPa)
#
#
# Indices 1 2 3 4 5 6 
#
# 1 0.028782 0.001712 -0.012763 -0.007322 -0.005735 0.019450
# 2 0.001712 0.022548 -0.001622 0.008051 0.000521 0.021324
# 3 -0.012763 -0.001622 0.018418 0.009674 0.003490 -0.009388
# 4 -0.007322 0.008051 0.009674 0.041050 0.004913 -0.005494
# 5 -0.005735 0.000521 0.003490 0.004913 0.023545 -0.002141
# 6 0.019450 0.021324 -0.009388 -0.005494 -0.002141 0.066253
#
#
# Mechanical properties :
#
#
# Convention : Reuss Voigt Hill
#
# Bulk Modulus (GPa) = 22.52242 40.55384 31.53813
# Shear Modulus (GPa) = 20.76886 32.77505 26.77196
#
# Velocity S-wave (km/s) = 2.96430 3.72381 3.36555
# Velocity P-wave (km/s) = 4.60924 5.97050 5.33348
#
# Compressibility (1/GPa) = 0.04440020
#
# Stress axis : x y z
#
# Youngs Moduli (GPa) = 34.74352 44.34970 54.29548
#
# Poissons Ratio (x) = -0.07591 0.69300
# Poissons Ratio (y) = -0.05947 0.08808
# Poissons Ratio (z) = 0.44345 0.07194
#
# Static dielectric constant tensor:
#      x y z
#    x 1.974940 -0.005200 0.000120 
#    y -0.005200 1.875920 -0.007490 
#    z 0.000120 -0.007490 1.912810 
# 
# From -- ./inp_files/559700.got.cif
#   From: 2010.05.17/outbox.cif.g08.bks.cpg/sg2_280_cif.got.tgz:559700.got - 2010.06.03 11:33:40.
