data_PCOD9012887
_publ_section_title
;
Structure prediction by ZEFSAII (Michael W. Deem and Ramdas Pophale) SiO2 
 PCOD9012887
Probable space group: P -1
;
_chemical_formula_sum "Si O2"
_cell_formula_units_Z 16
_cell_length_a 14.324599
_cell_length_b 8.229469
_cell_length_c 15.904659
_cell_angle_alpha 120.563651
_cell_angle_beta 144.306046
_cell_angle_gamma 83.360623
_cell_volume 759.232339
_symmetry_space_group_name_H-M "P -1"
_symmetry_group_IT_number 2
_symmetry_cell_setting 'triclinic'
loop_
_space_group_symop_operation_xyz
x,y,z
-x,-y,-z
loop_
_atom_site_type_symbol
_atom_site_label
_atom_site_fract_x
_atom_site_fract_y
_atom_site_fract_z
Si Si1 0.768393 0.062144 0.365133
Si Si2 0.748080 0.673229 0.810820
Si Si3 0.955357 0.487480 0.224011
Si Si4 0.370004 0.178235 0.395255
Si Si5 0.093454 0.217415 0.507524
Si Si6 0.619789 0.391007 0.075353
Si Si7 0.902048 0.334918 0.965212
Si Si8 0.986664 0.895870 0.775812
O O1 0.835666 0.282151 0.530692
O O2 0.899692 0.146712 0.398859
O O3 0.830652 0.921124 0.428239
O O4 0.540013 0.885195 0.125233
O O5 0.587864 0.398797 0.639544
O O6 0.653892 0.757100 0.699867
O O7 0.937906 0.719367 0.913605
O O8 0.838070 0.837627 0.000998
O O9 0.789141 0.482396 0.153566
O O10 0.907783 0.469830 0.086237
O O11 0.952695 0.266927 0.188823
O O12 0.210451 0.165978 0.337168
O O13 0.303770 0.914146 0.270819
O O14 0.261874 0.493442 0.720999
O O15 0.051378 0.148721 0.362356
O O16 0.500000 0.500000 0.000000
O O17 0.000000 0.500000 0.000000
#
# Coordination Sequence:
#
# PCOD9012887 Si02
#       8
#     2   2   2   2   2   2   2   2
#     4   9  20  38  58  83 115 153 197 246 300 354
#     4  10  21  41  63  83 126 165 198 245 295 356
#     4  11  22  37  61  89 118 160 198 244 304 353
#     4  10  21  41  62  86 123 165 201 240 297 361
#     4   9  20  38  61  81 114 155 195 247 303 357
#     4   9  20  41  59  84 117 152 199 249 295 356
#     4  11  23  40  60  92 131 157 196 251 299 355
#     4  11  21  38  60  91 120 157 202 247 299 356
#
# _framework density 21.073919
#
# number of rings (size 3 to 8) (size 9 to 14) (size 15 to 20)
#    0.000    2.000    2.500    1.500    3.500    5.500 
#    4.500    1.250    0.000    0.000    0.000    0.000 
#    0.000    0.000    0.000    0.000    0.000    0.000 
#
# Total GULP energy -89317.250448 kJ/mol
# GULP energy per Si atom -5582.328153 kJ/mol
# Density = 2.102595 g / cm^3
# Si number density = 21.073919 Si / 1000 Ang^3
#
#
#
# Elastic Constant Matrix: (Units=GPa)
#
#
# Indices 1 2 3 4 5 6 
#
# 1 87.3256 11.2012 66.7402 -2.9490 -37.1777 13.9455
# 2 11.2012 41.4505 34.9931 10.4647 -9.5016 8.9807
# 3 66.7402 34.9931 210.6492 37.8603 -26.0949 24.7635
# 4 -2.9490 10.4647 37.8603 33.9664 3.8482 -2.8280
# 5 -37.1777 -9.5016 -26.0949 3.8482 39.7684 -3.8922
# 6 13.9455 8.9807 24.7635 -2.8280 -3.8922 26.3181
#
#
#
# Elastic Compliance Matrix: (Units=1/GPa)
#
#
# Indices 1 2 3 4 5 6 
#
# 1 0.025082 0.002470 -0.006683 0.006392 0.018603 -0.004407
# 2 0.002470 0.031571 -0.002323 -0.008655 0.008224 -0.009610
# 3 -0.006683 -0.002323 0.010174 -0.011786 0.000383 -0.006449
# 4 0.006392 -0.008655 -0.011786 0.047822 -0.007009 0.014758
# 5 0.018603 0.008224 0.000383 -0.007009 0.044730 -0.007162
# 6 -0.004407 -0.009610 -0.006449 0.014758 -0.007162 0.050206
#
#
# Mechanical properties :
#
#
# Convention : Reuss Voigt Hill
#
# Bulk Modulus (GPa) = 18.60316 62.81047 40.70681
# Shear Modulus (GPa) = 20.78343 35.10998 27.94670
#
# Velocity S-wave (km/s) = 3.14381 4.08614 3.64555
# Velocity P-wave (km/s) = 4.69306 7.22022 6.08919
#
# Compressibility (1/GPa) = 0.05375431
#
# Stress axis : x y z
#
# Youngs Moduli (GPa) = 39.86942 31.67439 98.28634
#
# Poissons Ratio (x) = -0.07822 0.65687
# Poissons Ratio (y) = -0.09846 0.22831
# Poissons Ratio (z) = 0.26646 0.07358
#
# Static dielectric constant tensor:
#      x y z
#    x 1.718990 -0.021510 -0.001050 
#    y -0.021510 1.815510 0.021750 
#    z -0.001050 0.021750 1.802800 
# 
# From -- ./inp_files/306247.got.cif
#   From: 2010.05.17/outbox.cif.g08.bks.cpg/sg2_154_cif.got.tgz:306247.got - 2010.06.03 11:33:40.
