data_PCOD9012036
_publ_section_title
;
Structure prediction by ZEFSAII (Michael W. Deem and Ramdas Pophale) SiO2 
 PCOD9012036
Probable space group: P -1
;
_chemical_formula_sum "Si O2"
_cell_formula_units_Z 16
_cell_length_a 29.632334
_cell_length_b 23.643559
_cell_length_c 11.910465
_cell_angle_alpha 29.237104
_cell_angle_beta 151.756922
_cell_angle_gamma 171.234719
_cell_volume 601.525259
_symmetry_space_group_name_H-M "P -1"
_symmetry_group_IT_number 2
_symmetry_cell_setting 'triclinic'
loop_
_space_group_symop_operation_xyz
x,y,z
-x,-y,-z
loop_
_atom_site_type_symbol
_atom_site_label
_atom_site_fract_x
_atom_site_fract_y
_atom_site_fract_z
Si Si1 0.841501 0.290230 0.720995
Si Si2 0.543174 0.387757 0.423693
Si Si3 0.724253 0.496968 0.419371
Si Si4 0.385835 0.295305 0.467086
Si Si5 0.354519 0.523658 0.969785
Si Si6 0.006885 0.128504 0.106862
Si Si7 0.624291 0.134522 0.729143
Si Si8 0.243941 0.566921 0.032551
O O1 0.867587 0.386007 0.730003
O O2 0.138635 0.569157 0.844578
O O3 0.598292 0.904667 0.872963
O O4 0.682271 0.188423 0.455926
O O5 0.480411 0.264958 0.375379
O O6 0.330965 0.179658 0.422754
O O7 0.719939 0.483525 0.702843
O O8 0.743704 0.733913 0.240607
O O9 0.705557 0.538392 0.186739
O O10 0.695837 0.329519 0.620012
O O11 0.066505 0.915135 0.490027
O O12 0.673209 0.560758 0.688216
O O13 0.462824 0.518930 0.239424
O O14 0.065128 0.211877 0.957853
O O15 0.997804 0.231258 0.986961
O O16 0.547584 0.939981 0.978822
#
# Coordination Sequence:
#
# PCOD9012036 Si02
#       8
#     2   2   2   2   2   2   2   2
#     4  10  21  40  68  92 121 162 211 262 305 358
#     4  11  25  41  62  95 129 158 209 258 306 379
#     4  11  26  42  59  93 133 163 205 255 311 376
#     4  11  23  41  66  92 127 167 202 254 317 366
#     4  11  21  41  68  93 124 164 206 259 315 363
#     4  11  22  41  68  95 124 158 215 258 302 376
#     4  10  23  42  60  93 127 162 213 254 301 375
#     4  11  22  40  67  93 121 164 211 258 309 357
#
# _framework density 26.599049000000001
#
# number of rings (size 3 to 8) (size 9 to 14) (size 15 to 20)
#    0.000    1.250    2.500    4.125    1.750    2.000 
#    4.500    4.375    0.000    0.000    0.000    0.000 
#    0.000    0.000    0.000    0.000    0.000    0.000 
#
# Total GULP energy -89702.019560 kJ/mol
# GULP energy per Si atom -5606.376222 kJ/mol
# Density = 2.653851 g / cm^3
# Si number density = 26.599049 Si / 1000 Ang^3
#
#
#
# Elastic Constant Matrix: (Units=GPa)
#
#
# Indices 1 2 3 4 5 6 
#
# 1 170.5700 8.9780 33.3906 -5.8024 -2.1333 10.1911
# 2 8.9780 37.4635 23.0445 -1.6476 -4.3007 -3.0563
# 3 33.3906 23.0445 81.6566 -24.6162 -11.9510 -6.3921
# 4 -5.8024 -1.6476 -24.6162 34.1635 0.7815 6.2738
# 5 -2.1333 -4.3007 -11.9510 0.7815 49.2815 -2.5854
# 6 10.1911 -3.0563 -6.3921 6.2738 -2.5854 41.0611
#
#
#
# Elastic Compliance Matrix: (Units=1/GPa)
#
#
# Indices 1 2 3 4 5 6 
#
# 1 0.006571 0.000133 -0.003210 -0.000804 -0.000576 -0.002034
# 2 0.000133 0.033569 -0.011422 -0.006922 0.000368 0.001768
# 3 -0.003210 -0.011422 0.021770 0.014240 0.003992 0.001411
# 4 -0.000804 -0.006922 0.014240 0.039759 0.001971 -0.004050
# 5 -0.000576 0.000368 0.003992 0.001971 0.021332 0.001834
# 6 -0.002034 0.001768 0.001411 -0.004050 0.001834 0.025944
#
#
# Mechanical properties :
#
#
# Convention : Reuss Voigt Hill
#
# Bulk Modulus (GPa) = 30.38586 46.72404 38.55495
# Shear Modulus (GPa) = 26.46681 39.85303 33.15992
#
# Velocity S-wave (km/s) = 3.15783 3.87497 3.53463
# Velocity P-wave (km/s) = 4.97437 6.13390 5.58431
#
# Compressibility (1/GPa) = 0.03291004
#
# Stress axis : x y z
#
# Youngs Moduli (GPa) = 152.17973 29.78946 45.93465
#
# Poissons Ratio (x) = -0.00395 0.14747
# Poissons Ratio (y) = -0.02017 0.52467
# Poissons Ratio (z) = 0.48857 0.34026
#
# Static dielectric constant tensor:
#      x y z
#    x 2.095490 -0.005350 -0.016140 
#    y -0.005350 2.072550 0.072130 
#    z -0.016140 0.072130 2.046500 
# 
# From -- ./inp_files/255814.got.cif
#   From: 2010.05.17/outbox.cif.g08.bks.cpg/sg2_128_cif.got.tgz:255814.got - 2010.06.03 11:33:40.
