data_PCOD9012565
_publ_section_title
;
Structure prediction by ZEFSAII (Michael W. Deem and Ramdas Pophale) SiO2 
 PCOD9012565
Probable space group: P -1
;
_chemical_formula_sum "Si O2"
_cell_formula_units_Z 15
_cell_length_a 9.432778
_cell_length_b 19.051257
_cell_length_c 11.997057
_cell_angle_alpha 147.556439
_cell_angle_beta 37.791971
_cell_angle_gamma 144.353771
_cell_volume 635.315161
_symmetry_space_group_name_H-M "P -1"
_symmetry_group_IT_number 2
_symmetry_cell_setting 'triclinic'
loop_
_space_group_symop_operation_xyz
x,y,z
-x,-y,-z
loop_
_atom_site_type_symbol
_atom_site_label
_atom_site_fract_x
_atom_site_fract_y
_atom_site_fract_z
Si Si1 0.295062 0.545738 0.413581
Si Si2 0.847473 0.058985 0.960721
Si Si3 0.686155 0.224034 0.118728
Si Si4 0.874104 0.745996 0.747345
Si Si5 0.329826 0.028561 0.550685
Si Si6 0.636796 0.228530 0.917864
Si Si7 0.753543 0.331971 0.732802
Si Si8 0.500000 0.500000 0.000000
O O1 0.381972 0.678550 0.622583
O O2 0.287980 0.404383 0.288545
O O3 0.000000 0.500000 0.500000
O O4 0.456711 0.571733 0.237364
O O5 0.052224 0.997114 0.726338
O O6 0.564875 0.928242 0.952706
O O7 0.881005 0.178399 0.003637
O O8 0.917506 0.143554 0.147731
O O9 0.759595 0.299921 0.054480
O O10 0.665145 0.805524 0.931563
O O11 0.019349 0.704416 0.503712
O O12 0.487307 0.201605 0.673269
O O13 0.500000 0.000000 0.500000
O O14 0.320687 0.917554 0.312858
O O15 0.740613 0.314921 0.852596
O O16 0.731872 0.469071 0.877522
#
# Coordination Sequence:
#
# PCOD9012565 Si02
#       8
#     2   2   2   2   2   2   2   1
#     4  12  24  47  72 102 130 196 238 291 352 429
#     4  11  22  46  71 109 141 192 236 296 354 425
#     4  11  27  43  70 107 154 181 233 300 369 413
#     4  12  23  44  79  95 144 189 245 283 351 434
#     4  10  21  40  71 106 139 180 246 284 352 417
#     4  11  25  44  66 110 145 183 233 298 359 421
#     4  11  23  39  70 112 130 190 240 291 347 421
#     4  12  22  44  74  98 136 172 254 290 334 428
#
# _framework density 23.610329
#
# number of rings (size 3 to 8) (size 9 to 14) (size 15 to 20)
#    0.000    0.800    6.667    0.800    3.733    3.200 
#    2.400    0.667    0.000    0.000    0.000    0.000 
#    0.000    0.000    0.000    0.000    0.000    0.000 
#
# Total GULP energy -83609.343464 kJ/mol
# GULP energy per Si atom -5573.956231 kJ/mol
# Density = 2.355659 g / cm^3
# Si number density = 23.610329 Si / 1000 Ang^3
#
#
#
# Elastic Constant Matrix: (Units=GPa)
#
#
# Indices 1 2 3 4 5 6 
#
# 1 127.0030 33.6501 77.0720 -9.9913 19.1477 -19.8085
# 2 33.6501 34.2146 18.2575 -2.5829 8.0702 -9.2260
# 3 77.0720 18.2575 177.6691 -24.1927 25.8441 -4.8001
# 4 -9.9913 -2.5829 -24.1927 34.8453 0.7047 4.4798
# 5 19.1477 8.0702 25.8441 0.7047 49.1705 -9.7615
# 6 -19.8085 -9.2260 -4.8001 4.4798 -9.7615 28.0521
#
#
#
# Elastic Compliance Matrix: (Units=1/GPa)
#
#
# Indices 1 2 3 4 5 6 
#
# 1 0.014620 -0.009928 -0.005289 -0.001027 -0.000016 0.006312
# 2 -0.009928 0.040720 0.000540 -0.000163 -0.001942 0.005824
# 3 -0.005289 0.000540 0.009024 0.005397 -0.003674 -0.004153
# 4 -0.001027 -0.000163 0.005397 0.033072 -0.004194 -0.006596
# 5 -0.000016 -0.001942 -0.003674 -0.004194 0.024205 0.007814
# 6 0.006312 0.005824 -0.004153 -0.006596 0.007814 0.045082
#
#
# Mechanical properties :
#
#
# Convention : Reuss Voigt Hill
#
# Bulk Modulus (GPa) = 28.56301 66.31622 47.43961
# Shear Modulus (GPa) = 24.06770 36.40738 30.23754
#
# Velocity S-wave (km/s) = 3.19622 3.93110 3.58256
# Velocity P-wave (km/s) = 5.07396 6.98237 6.10322
#
# Compressibility (1/GPa) = 0.03501032
#
# Stress axis : x y z
#
# Youngs Moduli (GPa) = 68.39950 24.55797 110.81085
#
# Poissons Ratio (x) = 0.24382 0.58606
# Poissons Ratio (y) = 0.67909 -0.05985
# Poissons Ratio (z) = 0.36175 -0.01326
#
# Static dielectric constant tensor:
#      x y z
#    x 1.919660 -0.070500 -0.016840 
#    y -0.070500 2.038380 0.081550 
#    z -0.016840 0.081550 1.962630 
# 
# From -- ./inp_files/405008.got.cif
#   From: 2010.05.17/outbox.cif.g08.bks.cpg/sg2_203_cif.got.tgz:405008.got - 2010.06.03 11:33:40.
