data_PCOD9012478
_publ_section_title
;
Structure prediction by ZEFSAII (Michael W. Deem and Ramdas Pophale) SiO2 
 PCOD9012478
Probable space group: P -1
;
_chemical_formula_sum "Si O2"
_cell_formula_units_Z 14
_cell_length_a 9.123862
_cell_length_b 20.715030
_cell_length_c 9.045842
_cell_angle_alpha 147.889916
_cell_angle_beta 61.971318
_cell_angle_gamma 133.999956
_cell_volume 621.541441
_symmetry_space_group_name_H-M "P -1"
_symmetry_group_IT_number 2
_symmetry_cell_setting 'triclinic'
loop_
_space_group_symop_operation_xyz
x,y,z
-x,-y,-z
loop_
_atom_site_type_symbol
_atom_site_label
_atom_site_fract_x
_atom_site_fract_y
_atom_site_fract_z
Si Si1 0.563466 0.206515 0.966016
Si Si2 0.403856 0.824931 0.765047
Si Si3 0.930112 0.207074 0.291008
Si Si4 0.634461 0.473210 0.286152
Si Si5 0.610547 0.432207 0.887139
Si Si6 0.057476 0.012920 0.823129
Si Si7 0.924123 0.241241 0.691268
O O1 0.313141 0.121732 0.884089
O O2 0.714360 0.174701 0.757726
O O3 0.561708 0.181176 0.091599
O O4 0.682807 0.380932 0.186002
O O5 0.459246 0.725054 0.463334
O O6 0.157746 0.735477 0.668247
O O7 0.500000 0.000000 0.000000
O O8 0.167028 0.350264 0.502857
O O9 0.827921 0.178033 0.446564
O O10 0.942188 0.082759 0.962783
O O11 0.500000 0.500000 0.500000
O O12 0.546491 0.392639 0.013162
O O13 0.500000 0.500000 0.000000
O O14 0.872985 0.573182 0.031658
O O15 0.978640 0.845905 0.483637
O O16 0.000000 0.000000 0.000000
#
# Coordination Sequence:
#
# PCOD9012478 Si02
#       7
#     2   2   2   2   2   2   2
#     4  12  24  42  71 100 137 179 234 284 343 410
#     4  12  27  44  67 102 142 180 227 289 349 402
#     4  10  22  43  68  97 140 183 223 282 348 408
#     4  11  22  42  71 102 132 181 234 279 337 416
#     4  11  26  44  71 103 144 184 229 287 350 406
#     4  10  21  40  70  93 134 186 226 276 344 413
#     4  10  23  42  69 100 133 181 236 281 341 412
#
# _framework density 22.524645
#
# number of rings (size 3 to 8) (size 9 to 14) (size 15 to 20)
#    0.000    1.143    1.429    4.714    6.000    6.857 
#    0.000    0.714    0.000    0.000    0.000    0.000 
#    0.000    0.000    0.000    0.000    0.000    0.000 
#
# Total GULP energy -77994.359795 kJ/mol
# GULP energy per Si atom -5571.025700 kJ/mol
# Density = 2.247338 g / cm^3
# Si number density = 22.524645 Si / 1000 Ang^3
#
#
#
# Elastic Constant Matrix: (Units=GPa)
#
#
# Indices 1 2 3 4 5 6 
#
# 1 95.1507 27.7703 40.0158 -14.0232 -21.4704 -11.4842
# 2 27.7703 105.9044 69.2726 -21.0028 -0.3104 -2.8131
# 3 40.0158 69.2726 149.3278 -9.1653 -29.7961 -4.7099
# 4 -14.0232 -21.0028 -9.1653 34.0830 1.6581 -6.6134
# 5 -21.4704 -0.3104 -29.7961 1.6581 40.9302 2.7476
# 6 -11.4842 -2.8131 -4.7099 -6.6134 2.7476 42.7330
#
#
#
# Elastic Compliance Matrix: (Units=1/GPa)
#
#
# Indices 1 2 3 4 5 6 
#
# 1 0.014113 -0.001713 -0.001385 0.004847 0.005924 0.003897
# 2 -0.001713 0.016960 -0.008308 0.008150 -0.007247 0.001468
# 3 -0.001385 -0.008308 0.012404 -0.002866 0.008392 -0.000535
# 4 0.004847 0.008150 -0.002866 0.037085 -0.001478 0.007357
# 5 0.005924 -0.007247 0.008392 -0.001478 0.033677 -0.000354
# 6 0.003897 0.001468 -0.000535 0.007357 -0.000354 0.025647
#
#
# Mechanical properties :
#
#
# Convention : Reuss Voigt Hill
#
# Bulk Modulus (GPa) = 48.39063 69.38890 58.88977
# Shear Modulus (GPa) = 29.48337 37.77084 33.62711
#
# Velocity S-wave (km/s) = 3.62185 4.09940 3.86800
# Velocity P-wave (km/s) = 6.24664 7.29928 6.79337
#
# Compressibility (1/GPa) = 0.02066516
#
# Stress axis : x y z
#
# Youngs Moduli (GPa) = 70.85474 58.96238 80.62155
#
# Poissons Ratio (x) = 0.10099 0.11166
# Poissons Ratio (y) = 0.12136 0.66981
# Poissons Ratio (z) = 0.09813 0.48987
#
# Static dielectric constant tensor:
#      x y z
#    x 1.878980 -0.092610 0.145210 
#    y -0.092610 2.022080 0.067480 
#    z 0.145210 0.067480 1.824220 
# 
# From -- ./inp_files/201944.got.cif
#   From: 2010.05.17/outbox.cif.g08.bks.cpg/sg2_101_cif.got.tgz:201944.got - 2010.06.03 11:33:40.
