data_PCOD9012418
_publ_section_title
;
Structure prediction by ZEFSAII (Michael W. Deem and Ramdas Pophale) SiO2 
 PCOD9012418
Probable space group: P -1
;
_chemical_formula_sum "Si O2"
_cell_formula_units_Z 16
_cell_length_a 7.954796
_cell_length_b 10.144085
_cell_length_c 9.278347
_cell_angle_alpha 88.071344
_cell_angle_beta 96.831838
_cell_angle_gamma 123.017529
_cell_volume 622.900221
_symmetry_space_group_name_H-M "P -1"
_symmetry_group_IT_number 2
_symmetry_cell_setting 'triclinic'
loop_
_space_group_symop_operation_xyz
x,y,z
-x,-y,-z
loop_
_atom_site_type_symbol
_atom_site_label
_atom_site_fract_x
_atom_site_fract_y
_atom_site_fract_z
Si Si1 0.692188 0.773132 0.096241
Si Si2 0.633579 0.181460 0.047392
Si Si3 0.254024 0.953612 0.697139
Si Si4 0.180751 0.267151 0.449571
Si Si5 0.958982 0.645853 0.078446
Si Si6 0.175756 0.521833 0.622403
Si Si7 0.529170 0.222286 0.548536
Si Si8 0.321783 0.511761 0.212313
O O1 0.752008 0.920079 0.202093
O O2 0.885803 0.768394 0.076221
O O3 0.531754 0.771255 0.967620
O O4 0.835721 0.542465 0.931168
O O5 0.805858 0.262762 0.939978
O O6 0.745931 0.177264 0.200554
O O7 0.500000 0.000000 0.000000
O O8 0.461875 0.058689 0.624374
O O9 0.055612 0.860210 0.582811
O O10 0.225388 0.399462 0.565411
O O11 0.312519 0.198681 0.505835
O O12 0.258798 0.358474 0.302933
O O13 0.893795 0.536626 0.219001
O O14 0.542653 0.603397 0.161336
O O15 0.354786 0.698136 0.590127
O O16 0.000000 0.500000 0.500000
O O17 0.653827 0.359275 0.675147
#
# Coordination Sequence:
#
# PCOD9012418 Si02
#       8
#     2   2   2   2   2   2   2   2
#     4  10  23  41  69 101 138 180 222 292 347 394
#     4  10  24  42  68 100 141 178 226 289 349 397
#     4  10  21  42  69  95 132 187 233 271 345 419
#     4  11  21  43  69 100 134 186 230 276 348 419
#     4  12  24  44  72 106 137 175 241 286 336 419
#     4  11  26  42  68 104 138 177 224 289 347 402
#     4  10  22  43  71  92 139 185 224 279 350 408
#     4  10  21  40  70 100 137 175 236 287 337 414
#
# _framework density 25.686295000000001
#
# number of rings (size 3 to 8) (size 9 to 14) (size 15 to 20)
#    0.000    1.500    1.250    4.500    7.000    3.500 
#    0.000    0.625   11.000    0.000    0.000    0.000 
#    0.000    0.000    0.000    0.000    0.000    0.000 
#
# Total GULP energy -89482.240283 kJ/mol
# GULP energy per Si atom -5592.640018 kJ/mol
# Density = 2.562783 g / cm^3
# Si number density = 25.686295 Si / 1000 Ang^3
#
#
#
# Elastic Constant Matrix: (Units=GPa)
#
#
# Indices 1 2 3 4 5 6 
#
# 1 77.2271 32.6452 41.0581 -11.6479 6.4774 -15.6298
# 2 32.6452 109.0309 38.6979 -29.9324 -11.6130 8.5978
# 3 41.0581 38.6979 158.2963 -29.7196 5.1465 4.7332
# 4 -11.6479 -29.9324 -29.7196 47.1338 -3.5077 -1.4327
# 5 6.4774 -11.6130 5.1465 -3.5077 45.2333 2.3531
# 6 -15.6298 8.5978 4.7332 -1.4327 2.3531 34.7409
#
#
#
# Elastic Compliance Matrix: (Units=1/GPa)
#
#
# Indices 1 2 3 4 5 6 
#
# 1 0.020472 -0.006556 -0.004232 -0.001781 -0.004878 0.011666
# 2 -0.006556 0.014460 -0.000409 0.007524 0.005622 -0.006543
# 3 -0.004232 -0.000409 0.008322 0.003857 -0.000002 -0.002777
# 4 -0.001781 0.007524 0.003857 0.028219 0.004056 -0.002300
# 5 -0.004878 0.005622 -0.000002 0.004056 0.024830 -0.005100
# 6 0.011666 -0.006543 -0.002777 -0.002300 -0.005100 0.036281
#
#
# Mechanical properties :
#
#
# Convention : Reuss Voigt Hill
#
# Bulk Modulus (GPa) = 47.93732 63.26185 55.59958
# Shear Modulus (GPa) = 30.87748 40.89847 35.88797
#
# Velocity S-wave (km/s) = 3.47089 3.99460 3.74192
# Velocity P-wave (km/s) = 5.89626 6.77923 6.35310
#
# Compressibility (1/GPa) = 0.02086057
#
# Stress axis : x y z
#
# Youngs Moduli (GPa) = 48.84825 69.15516 120.16089
#
# Poissons Ratio (x) = 0.45338 0.50849
# Poissons Ratio (y) = 0.32025 0.04915
# Poissons Ratio (z) = 0.20671 0.02828
#
# Static dielectric constant tensor:
#      x y z
#    x 2.091600 -0.071870 -0.003640 
#    y -0.071870 2.082900 -0.077240 
#    z -0.003640 -0.077240 2.108160 
# 
# From -- ./inp_files/382411.got.cif
#   From: 2010.05.17/outbox.cif.g08.bks.cpg/sg2_192_cif.got.tgz:382411.got - 2010.06.03 11:33:40.
