data_PCOD9012121
_publ_section_title
;
Structure prediction by ZEFSAII (Michael W. Deem and Ramdas Pophale) SiO2 
 PCOD9012121
Probable space group: P -1
;
_chemical_formula_sum "Si O2"
_cell_formula_units_Z 14
_cell_length_a 18.637928
_cell_length_b 13.462427
_cell_length_c 11.002950
_cell_angle_alpha 141.130748
_cell_angle_beta 38.183349
_cell_angle_gamma 161.555244
_cell_volume 532.263116
_symmetry_space_group_name_H-M "P -1"
_symmetry_group_IT_number 2
_symmetry_cell_setting 'triclinic'
loop_
_space_group_symop_operation_xyz
x,y,z
-x,-y,-z
loop_
_atom_site_type_symbol
_atom_site_label
_atom_site_fract_x
_atom_site_fract_y
_atom_site_fract_z
Si Si1 0.555238 0.783566 0.807495
Si Si2 0.543298 0.375213 0.769507
Si Si3 0.740459 0.878085 0.432131
Si Si4 0.949620 0.258461 0.301348
Si Si5 0.137458 0.444381 0.968579
Si Si6 0.714775 0.481253 0.408732
Si Si7 0.687194 0.092342 0.170783
O O1 0.766838 0.972405 0.622861
O O2 0.358720 0.414682 0.714799
O O3 0.415626 0.765402 0.921066
O O4 0.642894 0.926696 0.958515
O O5 0.745620 0.608522 0.619638
O O6 0.313052 0.064610 0.703427
O O7 0.510930 0.200576 0.748877
O O8 0.500000 0.500000 0.000000
O O9 0.514720 0.710587 0.527902
O O10 0.951172 0.157367 0.326181
O O11 0.000000 0.500000 0.500000
O O12 0.080911 0.342603 0.090607
O O13 0.951429 0.367708 0.126608
O O14 0.115931 0.329771 0.755491
O O15 0.669640 0.248902 0.294301
#
# Coordination Sequence:
#
# PCOD9012121 Si02
#       7
#     2   2   2   2   2   2   2
#     4  10  22  42  70  92 135 183 226 281 333 405
#     4  10  22  44  68  96 134 182 231 279 338 413
#     4   9  21  42  63  98 133 181 230 270 341 403
#     4  10  22  39  68  95 142 173 219 286 336 400
#     4  10  24  41  64 102 136 171 229 276 338 403
#     4  10  21  40  68  96 133 176 226 282 337 402
#     4  11  22  39  68  97 134 174 226 278 345 396
#
# _framework density 26.302782000000001
#
# number of rings (size 3 to 8) (size 9 to 14) (size 15 to 20)
#    0.000    2.000    0.000    2.571    6.000    1.714 
#    0.000   17.857    0.000    0.000    0.000    0.000 
#    0.000    0.000    0.000    0.000    0.000    0.000 
#
# Total GULP energy -77992.012047 kJ/mol
# GULP energy per Si atom -5570.858003 kJ/mol
# Density = 2.624292 g / cm^3
# Si number density = 26.302782 Si / 1000 Ang^3
#
#
#
# Elastic Constant Matrix: (Units=GPa)
#
#
# Indices 1 2 3 4 5 6 
#
# 1 108.7522 62.7472 38.3432 -17.2451 13.6582 -24.9666
# 2 62.7472 92.6995 107.3960 22.2793 -12.3611 -24.0714
# 3 38.3432 107.3960 59.2548 -87.3784 51.1441 -53.0394
# 4 -17.2451 22.2793 -87.3784 16.1744 -0.7186 -1.2186
# 5 13.6582 -12.3611 51.1441 -0.7186 67.0913 -20.5198
# 6 -24.9666 -24.0714 -53.0394 -1.2186 -20.5198 61.1141
#
#
#
# Elastic Compliance Matrix: (Units=1/GPa)
#
#
# Indices 1 2 3 4 5 6 
#
# 1 0.012393 -0.003608 -0.003711 -0.001857 -0.000291 0.000287
# 2 -0.003608 0.008045 0.004183 0.008148 0.000884 0.005785
# 3 -0.003711 0.004183 0.000419 -0.007334 0.001376 0.000811
# 4 -0.001857 0.008148 -0.007334 0.009223 0.007163 -0.001325
# 5 -0.000291 0.000884 0.001376 0.007163 0.016309 0.007043
# 6 0.000287 0.005785 0.000811 -0.001325 0.007043 0.021801
#
#
# Mechanical properties :
#
#
# Convention : Reuss Voigt Hill
#
# Bulk Modulus (GPa) = 68.55739 75.29770 71.92755
# Shear Modulus (GPa) = 63.03475 32.35728 47.69602
#
# Velocity S-wave (km/s) = 4.90072 3.51120 4.26296
# Velocity P-wave (km/s) = 7.62522 6.71770 7.18580
#
# Compressibility (1/GPa) = 0.01458632
#
# Stress axis : x y z
#
# Youngs Moduli (GPa) = 80.69074 124.30588 2387.21674
#
# Poissons Ratio (x) = 0.44844 8.85893
# Poissons Ratio (y) = 0.29110 -9.98669
# Poissons Ratio (z) = 0.29944 -0.52002
#
# Static dielectric constant tensor:
#      x y z
#    x 2.148240 -0.108770 0.099020 
#    y -0.108770 2.078910 -0.049300 
#    z 0.099020 -0.049300 2.096470 
# 
# From -- ./inp_files/471992.got.cif
#   From: 2010.05.17/outbox.cif.g08.bks.cpg/sg2_236_cif.got.tgz:471992.got - 2010.06.03 11:33:40.
