data_PCOD9012694
_publ_section_title
;
Structure prediction by ZEFSAII (Michael W. Deem and Ramdas Pophale) SiO2 
 PCOD9012694
Probable space group: P -1
;
_chemical_formula_sum "Si O2"
_cell_formula_units_Z 13
_cell_length_a 9.091372
_cell_length_b 19.169707
_cell_length_c 12.429666
_cell_angle_alpha 152.660709
_cell_angle_beta 36.123644
_cell_angle_gamma 153.028311
_cell_volume 449.874964
_symmetry_space_group_name_H-M "P -1"
_symmetry_group_IT_number 2
_symmetry_cell_setting 'triclinic'
loop_
_space_group_symop_operation_xyz
x,y,z
-x,-y,-z
loop_
_atom_site_type_symbol
_atom_site_label
_atom_site_fract_x
_atom_site_fract_y
_atom_site_fract_z
Si Si1 0.967060 0.483234 0.624350
Si Si2 0.602592 0.610353 0.478029
Si Si3 0.049937 0.312633 0.897893
Si Si4 0.000000 0.000000 0.500000
Si Si5 0.871894 0.952288 0.258035
Si Si6 0.677659 0.051557 0.174031
Si Si7 0.594041 0.284187 0.962224
O O1 0.345627 0.641816 0.654486
O O2 0.175641 0.739923 0.576556
O O3 0.000000 0.500000 0.500000
O O4 0.832494 0.554493 0.885154
O O5 0.500000 0.500000 0.500000
O O6 0.957130 0.819002 0.551796
O O7 0.536898 0.440577 0.210391
O O8 0.916071 0.371787 0.963975
O O9 0.251265 0.247131 0.651201
O O10 0.714049 0.072690 0.789794
O O11 0.871907 0.929424 0.352488
O O12 0.517500 0.809566 0.218018
O O13 0.103043 0.919354 0.014860
O O14 0.654093 0.906829 0.075916
#
# Coordination Sequence:
#
# PCOD9012694 Si02
#       7
#     2   2   2   1   2   2   2
#     4  12  23  35  67 106 134 167 217 282 338 387
#     4  12  20  39  70 110 131 156 224 292 332 377
#     4  10  25  45  65  96 137 172 234 267 331 393
#     4  12  30  48  60  94 146 196 208 258 342 420
#     4  12  23  42  71  99 141 171 218 275 338 400
#     4  10  21  40  76  98 129 165 229 289 325 376
#     4  10  22  39  74 103 123 169 226 287 330 374
#
# _framework density 28.896916000000001
#
# number of rings (size 3 to 8) (size 9 to 14) (size 15 to 20)
#    0.923    0.000    6.154    2.308    2.154    1.846 
#    0.000    3.846    0.000    0.000    0.000    0.000 
#    0.000    0.000    0.000    0.000    0.000    0.000 
#
# Total GULP energy -72630.679802 kJ/mol
# GULP energy per Si atom -5586.975369 kJ/mol
# Density = 2.883115 g / cm^3
# Si number density = 28.896916 Si / 1000 Ang^3
#
#
#
# Elastic Constant Matrix: (Units=GPa)
#
#
# Indices 1 2 3 4 5 6 
#
# 1 161.5368 44.4766 41.5903 -13.9899 32.9884 -12.7163
# 2 44.4766 98.8791 42.7798 -5.7043 10.3777 9.7883
# 3 41.5903 42.7798 218.5773 17.7524 25.8919 -0.6587
# 4 -13.9899 -5.7043 17.7524 63.0205 -3.3578 3.9743
# 5 32.9884 10.3777 25.8919 -3.3578 59.5249 -1.5396
# 6 -12.7163 9.7883 -0.6587 3.9743 -1.5396 50.6056
#
#
#
# Elastic Compliance Matrix: (Units=1/GPa)
#
#
# Indices 1 2 3 4 5 6 
#
# 1 0.008300 -0.003253 -0.000617 0.001372 -0.003622 0.002489
# 2 -0.003253 0.012830 -0.002057 0.001257 0.000444 -0.003411
# 3 -0.000617 -0.002057 0.005468 -0.001985 -0.001779 0.000416
# 4 0.001372 0.001257 -0.001985 0.016966 0.000809 -0.001232
# 5 -0.003622 0.000444 -0.001779 0.000809 0.019537 -0.000488
# 6 0.002489 -0.003411 0.000416 -0.001232 -0.000488 0.021133
#
#
# Mechanical properties :
#
#
# Convention : Reuss Voigt Hill
#
# Bulk Modulus (GPa) = 67.82901 81.85408 74.84154
# Shear Modulus (GPa) = 49.50310 57.97331 53.73821
#
# Velocity S-wave (km/s) = 4.14344 4.48393 4.31705
# Velocity P-wave (km/s) = 6.81282 7.42935 7.12776
#
# Compressibility (1/GPa) = 0.01474296
#
# Stress axis : x y z
#
# Youngs Moduli (GPa) = 120.48696 77.94018 182.87235
#
# Poissons Ratio (x) = 0.25356 0.11290
# Poissons Ratio (y) = 0.39197 0.37618
# Poissons Ratio (z) = 0.07439 0.16033
#
# Static dielectric constant tensor:
#      x y z
#    x 3.023830 0.379080 -1.254620 
#    y 0.379080 2.533930 -0.458280 
#    z -1.254620 -0.458280 3.834890 
# 
# From -- ./inp_files/400789.got.cif
#   From: 2010.05.17/outbox.cif.g08.bks.cpg/sg2_201_cif.got.tgz:400789.got - 2010.06.03 11:33:40.
