data_PCOD9012179
_publ_section_title
;
Structure prediction by ZEFSAII (Michael W. Deem and Ramdas Pophale) SiO2 
 PCOD9012179
Probable space group: P -1
;
_chemical_formula_sum "Si O2"
_cell_formula_units_Z 12
_cell_length_a 10.132425
_cell_length_b 13.584121
_cell_length_c 12.231151
_cell_angle_alpha 146.787635
_cell_angle_beta 37.489861
_cell_angle_gamma 121.643249
_cell_volume 509.943867
_symmetry_space_group_name_H-M "P -1"
_symmetry_group_IT_number 2
_symmetry_cell_setting 'triclinic'
loop_
_space_group_symop_operation_xyz
x,y,z
-x,-y,-z
loop_
_atom_site_type_symbol
_atom_site_label
_atom_site_fract_x
_atom_site_fract_y
_atom_site_fract_z
Si Si1 0.446079 0.519108 0.396586
Si Si2 0.800354 0.056640 0.043507
Si Si3 0.274298 0.208756 0.320068
Si Si4 0.287742 0.088304 0.809872
Si Si5 0.887704 0.221446 0.736431
Si Si6 0.440854 0.409973 0.063588
O O1 0.373698 0.731108 0.694186
O O2 0.332218 0.383801 0.399550
O O3 0.727640 0.382398 0.078645
O O4 0.853395 0.863856 0.758268
O O5 0.638106 0.448015 0.646183
O O6 0.670539 0.027154 0.210017
O O7 0.045405 0.079516 0.920961
O O8 0.095709 0.268930 0.594314
O O9 0.500000 0.000000 0.000000
O O10 0.500000 0.000000 0.500000
O O11 0.267402 0.306779 0.052881
O O12 0.688968 0.243961 0.795339
O O13 0.000000 0.000000 0.500000
O O14 0.500000 0.500000 0.000000
#
# Coordination Sequence:
#
# PCOD9012179 Si02
#       6
#     2   2   2   2   2   2
#     4  10  24  42  67  99 134 176 233 274 345 406
#     4  11  25  42  67 104 134 177 233 280 343 414
#     4  12  23  44  70  94 136 184 226 287 339 402
#     4  11  23  42  65 100 145 175 221 289 345 406
#     4  10  22  44  66  95 134 181 225 277 343 405
#     4  10  21  40  68  98 135 177 226 276 340 402
#
# _framework density 23.532003
#
# number of rings (size 3 to 8) (size 9 to 14) (size 15 to 20)
#    1.000    0.333    3.333    2.000    2.333    2.667 
#    0.000    0.833    0.000    0.000    0.000    0.000 
#    0.000    0.000    0.000    0.000    0.000    0.000 
#
# Total GULP energy -67077.258411 kJ/mol
# GULP energy per Si atom -5589.771534 kJ/mol
# Density = 2.347844 g / cm^3
# Si number density = 23.532003 Si / 1000 Ang^3
#
#
#
# Elastic Constant Matrix: (Units=GPa)
#
#
# Indices 1 2 3 4 5 6 
#
# 1 61.6657 30.4230 -7.5873 5.2362 2.4683 -5.8351
# 2 30.4230 200.9319 54.6017 -6.6538 10.8287 -3.5343
# 3 -7.5873 54.6017 88.7285 -6.5773 7.2212 -0.2954
# 4 5.2362 -6.6538 -6.5773 47.6536 2.4073 -1.5835
# 5 2.4683 10.8287 7.2212 2.4073 31.0238 5.0602
# 6 -5.8351 -3.5343 -0.2954 -1.5835 5.0602 31.0369
#
#
#
# Elastic Compliance Matrix: (Units=1/GPa)
#
#
# Indices 1 2 3 4 5 6 
#
# 1 0.019193 -0.003931 0.004051 -0.001912 -0.001495 0.003346
# 2 -0.003931 0.006863 -0.004401 0.000849 -0.001162 0.000233
# 3 0.004051 -0.004401 0.014606 0.001106 -0.002410 0.000849
# 4 -0.001912 0.000849 0.001106 0.021622 -0.002279 0.001222
# 5 -0.001495 -0.001162 -0.002410 -0.002279 0.034504 -0.006178
# 6 0.003346 0.000233 0.000849 0.001222 -0.006178 0.033953
#
#
# Mechanical properties :
#
#
# Convention : Reuss Voigt Hill
#
# Bulk Modulus (GPa) = 31.15199 56.24455 43.69827
# Shear Modulus (GPa) = 33.33300 40.20210 36.76755
#
# Velocity S-wave (km/s) = 3.76772 4.13777 3.95707
# Velocity P-wave (km/s) = 5.67402 6.83969 6.28394
#
# Compressibility (1/GPa) = 0.03210068
#
# Stress axis : x y z
#
# Youngs Moduli (GPa) = 52.10241 145.71375 68.46479
#
# Poissons Ratio (x) = 0.57277 -0.27737
# Poissons Ratio (y) = 0.20480 0.30131
# Poissons Ratio (z) = -0.21108 0.64129
#
# Static dielectric constant tensor:
#      x y z
#    x 2.046530 -0.027930 0.007710 
#    y -0.027930 1.824130 -0.000660 
#    z 0.007710 -0.000660 1.913600 
# 
# From -- ./inp_files/520448.got.cif
#   From: 2010.05.17/outbox.cif.g08.bks.cpg/sg2_261_cif.got.tgz:520448.got - 2010.06.03 11:33:40.
