data_PCOD9012825
_publ_section_title
;
Structure prediction by ZEFSAII (Michael W. Deem and Ramdas Pophale) SiO2 
 PCOD9012825
Probable space group: P -1
;
_chemical_formula_sum "Si O2"
_cell_formula_units_Z 14
_cell_length_a 18.855451
_cell_length_b 6.736352
_cell_length_c 9.068574
_cell_angle_alpha 122.228649
_cell_angle_beta 39.380495
_cell_angle_gamma 118.664714
_cell_volume 613.315268
_symmetry_space_group_name_H-M "P -1"
_symmetry_group_IT_number 2
_symmetry_cell_setting 'triclinic'
loop_
_space_group_symop_operation_xyz
x,y,z
-x,-y,-z
loop_
_atom_site_type_symbol
_atom_site_label
_atom_site_fract_x
_atom_site_fract_y
_atom_site_fract_z
Si Si1 0.353984 0.428185 0.830589
Si Si2 0.328315 0.296284 0.481710
Si Si3 0.391842 0.993085 0.008801
Si Si4 0.020116 0.692422 0.245803
Si Si5 0.072764 0.211952 0.887462
Si Si6 0.188985 0.160151 0.212541
Si Si7 0.534604 0.335847 0.745208
O O1 0.361070 0.359278 0.621629
O O2 0.456441 0.361411 0.739613
O O3 0.358494 0.712221 0.952909
O O4 0.245199 0.278503 0.021777
O O5 0.200719 0.175500 0.639377
O O6 0.344668 0.544189 0.459875
O O7 0.398791 0.120084 0.208041
O O8 0.291560 0.115790 0.137918
O O9 0.501290 0.077568 0.764421
O O10 0.985604 0.744610 0.155635
O O11 0.902816 0.679533 0.517053
O O12 0.113569 0.907074 0.222132
O O13 0.072337 0.450171 0.076055
O O14 0.000000 0.000000 0.000000
O O15 0.500000 0.500000 0.000000
#
# Coordination Sequence:
#
# PCOD9012825 Si02
#       7
#     2   2   2   2   2   2   2
#     4  11  23  40  66  96 122 165 210 257 318 374
#     4  11  22  41  63  92 128 160 211 263 306 376
#     4  10  22  42  65  93 127 164 208 259 315 375
#     4  10  22  39  62  85 128 169 206 260 311 366
#     4  11  23  39  60  96 123 162 216 256 309 373
#     4  10  21  41  61  91 126 168 210 255 314 372
#     4   9  22  43  64  91 129 160 207 261 313 382
#
# _framework density 22.826758999999999
#
# number of rings (size 3 to 8) (size 9 to 14) (size 15 to 20)
#    0.000    1.714    1.429    2.143    2.000    2.857 
#    0.000   15.000    0.000    0.000    0.000    0.000 
#    0.000    0.000    0.000    0.000    0.000    0.000 
#
# Total GULP energy -78264.064554 kJ/mol
# GULP energy per Si atom -5590.290325 kJ/mol
# Density = 2.277480 g / cm^3
# Si number density = 22.826759 Si / 1000 Ang^3
#
#
#
# Elastic Constant Matrix: (Units=GPa)
#
#
# Indices 1 2 3 4 5 6 
#
# 1 76.1928 21.4602 16.8189 -12.8659 24.2181 -0.9223
# 2 21.4602 113.4841 67.3039 -30.0745 1.4170 -6.8893
# 3 16.8189 67.3039 112.2094 -28.4707 14.9841 -10.2366
# 4 -12.8659 -30.0745 -28.4707 50.8592 7.4578 -1.2920
# 5 24.2181 1.4170 14.9841 7.4578 35.9414 -6.1933
# 6 -0.9223 -6.8893 -10.2366 -1.2920 -6.1933 24.4879
#
#
#
# Elastic Compliance Matrix: (Units=1/GPa)
#
#
# Indices 1 2 3 4 5 6 
#
# 1 0.019793 -0.003587 0.002817 0.006776 -0.016266 -0.002843
# 2 -0.003587 0.015268 -0.008429 0.002703 0.005126 0.002076
# 3 0.002817 -0.008429 0.016705 0.006529 -0.009423 0.002679
# 4 0.006776 0.002703 0.006529 0.028584 -0.012986 0.001969
# 5 -0.016266 0.005126 -0.009423 -0.012986 0.046581 0.007986
# 6 -0.002843 0.002076 0.002679 0.001969 0.007986 0.044557
#
#
# Mechanical properties :
#
#
# Convention : Reuss Voigt Hill
#
# Bulk Modulus (GPa) = 29.97046 57.00582 43.48814
# Shear Modulus (GPa) = 24.87450 35.34458 30.10954
#
# Velocity S-wave (km/s) = 3.30465 3.93922 3.63581
# Velocity P-wave (km/s) = 5.26488 6.76146 6.05955
#
# Compressibility (1/GPa) = 0.03336619
#
# Stress axis : x y z
#
# Youngs Moduli (GPa) = 50.52282 65.49767 59.86181
#
# Poissons Ratio (x) = 0.23497 -0.16863
# Poissons Ratio (y) = 0.18125 0.50460
# Poissons Ratio (z) = -0.14232 0.55210
#
# Static dielectric constant tensor:
#      x y z
#    x 1.858430 0.032760 -0.003990 
#    y 0.032760 1.869480 -0.001410 
#    z -0.003990 -0.001410 1.866420 
# 
# From -- ./inp_files/35188.got.cif
#   From: 2010.05.17/outbox.cif.g08.bks.cpg/sg2_18_cif.got.tgz:35188.got - 2010.06.03 11:33:40.
