data_PCOD9012601
_publ_section_title
;
Structure prediction by ZEFSAII (Michael W. Deem and Ramdas Pophale) SiO2 
 PCOD9012601
Probable space group: P -1
;
_chemical_formula_sum "Si O2"
_cell_formula_units_Z 16
_cell_length_a 9.333646
_cell_length_b 11.373099
_cell_length_c 12.044504
_cell_angle_alpha 52.494305
_cell_angle_beta 46.587845
_cell_angle_gamma 65.821560
_cell_volume 736.706651
_symmetry_space_group_name_H-M "P -1"
_symmetry_group_IT_number 2
_symmetry_cell_setting 'triclinic'
loop_
_space_group_symop_operation_xyz
x,y,z
-x,-y,-z
loop_
_atom_site_type_symbol
_atom_site_label
_atom_site_fract_x
_atom_site_fract_y
_atom_site_fract_z
Si Si1 0.286692 0.948740 0.797998
Si Si2 0.019856 0.793659 0.202937
Si Si3 0.117305 0.850075 0.719322
Si Si4 0.282946 0.803677 0.269057
Si Si5 0.314389 0.547169 0.726411
Si Si6 0.244031 0.468834 0.562828
Si Si7 0.284260 0.033640 0.338455
Si Si8 0.708585 0.744292 0.972723
O O1 0.258348 0.894336 0.719305
O O2 0.161826 0.098528 0.786375
O O3 0.507819 0.972206 0.705908
O O4 0.182504 0.829292 0.002953
O O5 0.933721 0.628168 0.335540
O O6 0.120773 0.830623 0.245391
O O7 0.192336 0.694937 0.719824
O O8 0.129583 0.973636 0.545802
O O9 0.893471 0.819866 0.894665
O O10 0.237822 0.641395 0.436193
O O11 0.291143 0.921426 0.295547
O O12 0.498644 0.796810 0.100558
O O13 0.252704 0.460848 0.696298
O O14 0.545809 0.585452 0.565163
O O15 0.285649 0.431355 0.908714
O O16 0.262288 0.195726 0.202482
#
# Coordination Sequence:
#
# PCOD9012601 Si02
#       8
#     2   2   2   2   2   2   2   2
#     4  11  26  40  68  97 133 177 217 274 328 390
#     4  11  23  41  67 102 130 170 225 272 325 389
#     4  12  24  44  66  96 135 177 222 265 333 392
#     4  11  23  42  68  98 133 172 220 275 327 385
#     4  10  22  42  68  99 131 176 217 271 328 395
#     4  10  21  40  71  99 130 169 221 273 329 390
#     4  12  24  44  67  98 136 173 220 273 330 389
#     4  11  24  39  67  98 131 174 217 270 327 389
#
# _framework density 21.718278999999999
#
# number of rings (size 3 to 8) (size 9 to 14) (size 15 to 20)
#    0.000    1.000    2.500    4.125    7.000    0.000 
#    0.000    0.625    5.500    0.000    0.000    0.000 
#    0.000    0.000    0.000    0.000    0.000    0.000 
#
# Total GULP energy -89557.578174 kJ/mol
# GULP energy per Si atom -5597.348636 kJ/mol
# Density = 2.166885 g / cm^3
# Si number density = 21.718279 Si / 1000 Ang^3
#
#
#
# Elastic Constant Matrix: (Units=GPa)
#
#
# Indices 1 2 3 4 5 6 
#
# 1 113.6322 16.4861 42.9913 -7.7889 1.9767 11.4936
# 2 16.4861 44.4849 35.4575 -11.5143 -6.0747 3.0791
# 3 42.9913 35.4575 129.4680 -18.3328 3.3626 5.8213
# 4 -7.7889 -11.5143 -18.3328 19.0981 1.2533 3.5655
# 5 1.9767 -6.0747 3.3626 1.2533 33.9732 -2.0830
# 6 11.4936 3.0791 5.8213 3.5655 -2.0830 33.2206
#
#
#
# Elastic Compliance Matrix: (Units=1/GPa)
#
#
# Indices 1 2 3 4 5 6 
#
# 1 0.010466 -0.001145 -0.002772 0.001576 -0.000797 -0.003248
# 2 -0.001145 0.032589 -0.006788 0.012728 0.005947 -0.002428
# 3 -0.002772 -0.006788 0.011505 0.006219 -0.002497 -0.001252
# 4 0.001576 0.012728 0.006219 0.068672 -0.001595 -0.010285
# 5 -0.000797 0.005947 -0.002497 -0.001595 0.030990 0.002276
# 6 -0.003248 -0.002428 -0.001252 -0.010285 0.002276 0.032917
#
#
# Mechanical properties :
#
#
# Convention : Reuss Voigt Hill
#
# Bulk Modulus (GPa) = 30.16608 53.05056 41.60832
# Shear Modulus (GPa) = 22.76881 30.10173 26.43527
#
# Velocity S-wave (km/s) = 3.24137 3.72695 3.49261
# Velocity P-wave (km/s) = 5.28474 6.55743 5.95518
#
# Compressibility (1/GPa) = 0.03314982
#
# Stress axis : x y z
#
# Youngs Moduli (GPa) = 95.55194 30.68508 86.91870
#
# Poissons Ratio (x) = 0.03515 0.24091
# Poissons Ratio (y) = 0.10945 0.58999
# Poissons Ratio (z) = 0.26483 0.20828
#
# Static dielectric constant tensor:
#      x y z
#    x 1.790880 -0.034860 0.013760 
#    y -0.034860 1.768220 -0.009620 
#    z 0.013760 -0.009620 1.796150 
# 
# From -- ./inp_files/261677.got.cif
#   From: 2010.05.17/outbox.cif.g08.bks.cpg/sg2_131_cif.got.tgz:261677.got - 2010.06.03 11:33:40.
