data_PCOD9012318
_publ_section_title
;
Structure prediction by ZEFSAII (Michael W. Deem and Ramdas Pophale) SiO2 
 PCOD9012318
Probable space group: P -1
;
_chemical_formula_sum "Si O2"
_cell_formula_units_Z 16
_cell_length_a 8.302575
_cell_length_b 8.639221
_cell_length_c 15.624447
_cell_angle_alpha 68.754650
_cell_angle_beta 47.358088
_cell_angle_gamma 71.512474
_cell_volume 764.161057
_symmetry_space_group_name_H-M "P -1"
_symmetry_group_IT_number 2
_symmetry_cell_setting 'triclinic'
loop_
_space_group_symop_operation_xyz
x,y,z
-x,-y,-z
loop_
_atom_site_type_symbol
_atom_site_label
_atom_site_fract_x
_atom_site_fract_y
_atom_site_fract_z
Si Si1 0.487313 0.668205 0.294746
Si Si2 0.420999 0.613032 0.141551
Si Si3 0.936251 0.842473 0.107883
Si Si4 0.884491 0.660906 0.745745
Si Si5 0.122491 0.984975 0.368011
Si Si6 0.845534 0.506289 0.467118
Si Si7 0.991545 0.844181 0.277593
Si Si8 0.894643 0.510210 0.940430
O O1 0.473600 0.573392 0.229160
O O2 0.711729 0.753899 0.194674
O O3 0.297436 0.822933 0.339350
O O4 0.401348 0.536158 0.417850
O O5 0.293054 0.470002 0.175939
O O6 0.248793 0.778077 0.177979
O O7 0.654772 0.613680 0.013568
O O8 0.915341 0.906401 0.200194
O O9 0.108758 0.680348 0.054520
O O10 0.000000 0.000000 0.000000
O O11 0.000094 0.611468 0.805173
O O12 0.049642 0.624226 0.614374
O O13 0.776891 0.847228 0.730181
O O14 0.969325 0.958048 0.346196
O O15 0.000000 0.000000 0.500000
O O16 0.871564 0.682990 0.378850
O O17 0.000000 0.500000 0.500000
O O18 0.000000 0.500000 0.000000
#
# Coordination Sequence:
#
# PCOD9012318 Si02
#       8
#     2   2   2   2   2   2   2   2
#     4  11  23  41  67  99 132 172 214 263 340 379
#     4  10  21  40  69  93 122 171 223 262 316 384
#     4  12  28  46  60  93 140 176 212 272 327 383
#     4  11  22  38  68  96 124 169 216 267 323 383
#     4  11  22  39  66  99 130 160 212 274 321 384
#     4  11  17  40  69  95 127 161 215 270 319 390
#     4  10  23  42  66  97 130 171 218 264 327 389
#     4  12  25  44  62  91 131 173 224 263 316 388
#
# _framework density 20.937994
#
# number of rings (size 3 to 8) (size 9 to 14) (size 15 to 20)
#    0.000    1.000    8.750    0.375    3.500    0.500 
#    0.000    3.125    0.000    0.000    0.000    0.000 
#    0.000    0.000    0.000    0.000    0.000    0.000 
#
# Total GULP energy -89089.995558 kJ/mol
# GULP energy per Si atom -5568.124722 kJ/mol
# Density = 2.089034 g / cm^3
# Si number density = 20.937994 Si / 1000 Ang^3
#
#
#
# Elastic Constant Matrix: (Units=GPa)
#
#
# Indices 1 2 3 4 5 6 
#
# 1 69.4503 7.0970 52.0114 -5.3745 15.1339 19.9896
# 2 7.0970 59.1958 31.9679 2.0678 16.5522 6.2564
# 3 52.0114 31.9679 134.8244 -6.0553 24.4085 5.5180
# 4 -5.3745 2.0678 -6.0553 33.4159 1.6941 9.2645
# 5 15.1339 16.5522 24.4085 1.6941 43.2913 6.5815
# 6 19.9896 6.2564 5.5180 9.2645 6.5815 21.2165
#
#
#
# Elastic Compliance Matrix: (Units=1/GPa)
#
#
# Indices 1 2 3 4 5 6 
#
# 1 0.035605 0.006844 -0.012730 0.013473 -0.002745 -0.037285
# 2 0.006844 0.022143 -0.006345 0.001726 -0.005785 -0.010287
# 3 -0.012730 -0.006345 0.013697 -0.002413 -0.002601 0.012163
# 4 0.013473 0.001726 -0.002413 0.039818 -0.001062 -0.029633
# 5 -0.002745 -0.005785 -0.002601 -0.001062 0.028287 -0.003342
# 6 -0.037285 -0.010287 0.012163 -0.029633 -0.003342 0.096108
#
#
# Mechanical properties :
#
#
# Convention : Reuss Voigt Hill
#
# Bulk Modulus (GPa) = 21.28396 49.51366 35.39881
# Shear Modulus (GPa) = 18.13017 31.07770 24.60394
#
# Velocity S-wave (km/s) = 2.94581 3.85681 3.43167
# Velocity P-wave (km/s) = 4.66451 6.59791 5.71358
#
# Compressibility (1/GPa) = 0.04698375
#
# Stress axis : x y z
#
# Youngs Moduli (GPa) = 28.08557 45.15999 73.00813
#
# Poissons Ratio (x) = -0.30906 0.92941
# Poissons Ratio (y) = -0.19221 0.46321
# Poissons Ratio (z) = 0.35754 0.28652
#
# Static dielectric constant tensor:
#      x y z
#    x 1.850160 -0.006800 -0.001380 
#    y -0.006800 1.783130 0.025540 
#    z -0.001380 0.025540 1.813760 
# 
# From -- ./inp_files/346368.got.cif
#   From: 2010.05.17/outbox.cif.g08.bks.cpg/sg2_174_cif.got.tgz:346368.got - 2010.06.03 11:33:40.
