data_PCOD9012464
_publ_section_title
;
Structure prediction by ZEFSAII (Michael W. Deem and Ramdas Pophale) SiO2 
 PCOD9012464
Probable space group: P -1
;
_chemical_formula_sum "Si O2"
_cell_formula_units_Z 16
_cell_length_a 23.435199
_cell_length_b 8.054460
_cell_length_c 11.227725
_cell_angle_alpha 63.692489
_cell_angle_beta 150.075214
_cell_angle_gamma 134.189766
_cell_volume 677.041169
_symmetry_space_group_name_H-M "P -1"
_symmetry_group_IT_number 2
_symmetry_cell_setting 'triclinic'
loop_
_space_group_symop_operation_xyz
x,y,z
-x,-y,-z
loop_
_atom_site_type_symbol
_atom_site_label
_atom_site_fract_x
_atom_site_fract_y
_atom_site_fract_z
Si Si1 0.536359 0.147087 0.143271
Si Si2 0.873582 0.642674 0.518666
Si Si3 0.245205 0.576076 0.087715
Si Si4 0.743183 0.121399 0.672854
Si Si5 0.699714 0.954563 0.062937
Si Si6 0.006845 0.629737 0.121102
Si Si7 0.550708 0.691407 0.642926
Si Si8 0.952415 0.823984 0.336588
O O1 0.695975 0.448002 0.311255
O O2 0.589990 0.044099 0.362894
O O3 0.403599 0.115771 0.982994
O O4 0.500000 0.000000 0.000000
O O5 0.929487 0.493709 0.671595
O O6 0.886234 0.734936 0.379084
O O7 0.000686 0.926024 0.716426
O O8 0.397681 0.650795 0.396381
O O9 0.280254 0.828652 0.040302
O O10 0.086906 0.372281 0.946287
O O11 0.193031 0.425364 0.919178
O O12 0.839949 0.115508 0.750604
O O13 0.694035 0.961559 0.751912
O O14 0.867521 0.422637 0.840262
O O15 0.614239 0.723676 0.882382
O O16 0.877402 0.091150 0.378523
O O17 0.500000 0.500000 0.500000
#
# Coordination Sequence:
#
# PCOD9012464 Si02
#       8
#     2   2   2   2   2   2   2   2
#     4  11  24  40  69  99 133 175 225 273 332 399
#     4  10  23  42  62  94 138 170 217 270 342 386
#     4  12  23  40  67  98 127 173 228 271 324 404
#     4  10  21  41  66  94 126 173 219 270 330 387
#     4  12  24  45  69  97 135 176 228 276 324 404
#     4  10  21  40  70  90 127 170 226 272 324 393
#     4  12  27  44  69  99 137 176 223 277 340 393
#     4  11  25  39  68  98 136 175 216 278 337 393
#
# _framework density 23.632238999999998
#
# number of rings (size 3 to 8) (size 9 to 14) (size 15 to 20)
#    0.000    1.000    3.750    2.250    8.750    0.500 
#    2.250    0.625    0.000    0.000    0.000    0.000 
#    0.000    0.000    0.000    0.000    0.000    0.000 
#
# Total GULP energy -89332.432678 kJ/mol
# GULP energy per Si atom -5583.277042 kJ/mol
# Density = 2.357845 g / cm^3
# Si number density = 23.632239 Si / 1000 Ang^3
#
#
#
# Elastic Constant Matrix: (Units=GPa)
#
#
# Indices 1 2 3 4 5 6 
#
# 1 106.4584 25.5507 19.5928 4.0081 21.1037 23.0541
# 2 25.5507 43.9184 13.7888 11.4074 5.5324 8.5042
# 3 19.5928 13.7888 117.2160 -11.0077 17.8670 1.3613
# 4 4.0081 11.4074 -11.0077 27.7920 -6.3018 -0.8142
# 5 21.1037 5.5324 17.8670 -6.3018 54.4512 13.7226
# 6 23.0541 8.5042 1.3613 -0.8142 13.7226 26.3676
#
#
#
# Elastic Compliance Matrix: (Units=1/GPa)
#
#
# Indices 1 2 3 4 5 6 
#
# 1 0.013198 -0.005022 -0.001297 -0.001087 -0.002087 -0.008800
# 2 -0.005022 0.031870 -0.004167 -0.014193 -0.000031 -0.006095
# 3 -0.001297 -0.004167 0.010109 0.005403 -0.002648 0.003501
# 4 -0.001087 -0.014193 0.005403 0.045186 0.004196 0.004461
# 5 -0.002087 -0.000031 -0.002648 0.004196 0.023021 -0.009880
# 6 -0.008800 -0.006095 0.003501 0.004461 -0.009880 0.052684
#
#
# Mechanical properties :
#
#
# Convention : Reuss Voigt Hill
#
# Bulk Modulus (GPa) = 29.23559 42.82862 36.03210
# Shear Modulus (GPa) = 23.98767 35.63288 29.81027
#
# Velocity S-wave (km/s) = 3.18943 3.88726 3.55551
# Velocity P-wave (km/s) = 5.09521 6.18951 5.66883
#
# Compressibility (1/GPa) = 0.03420489
#
# Stress axis : x y z
#
# Youngs Moduli (GPa) = 75.77140 31.37753 98.92561
#
# Poissons Ratio (x) = 0.15757 0.12830
# Poissons Ratio (y) = 0.38050 0.41223
# Poissons Ratio (z) = 0.09827 0.13075
#
# Static dielectric constant tensor:
#      x y z
#    x 2.037090 -0.052920 -0.053450 
#    y -0.052920 1.942660 0.006710 
#    z -0.053450 0.006710 1.902570 
# 
# From -- ./inp_files/474192.got.cif
#   From: 2010.05.17/outbox.cif.g08.bks.cpg/sg2_238_cif.got.tgz:474192.got - 2010.06.03 11:33:40.
