data_PCOD9012150
_publ_section_title
;
Structure prediction by ZEFSAII (Michael W. Deem and Ramdas Pophale) SiO2 
 PCOD9012150
Probable space group: P -1
;
_chemical_formula_sum "Si O2"
_cell_formula_units_Z 15
_cell_length_a 5.365475
_cell_length_b 17.734154
_cell_length_c 8.443203
_cell_angle_alpha 49.152753
_cell_angle_beta 83.775158
_cell_angle_gamma 94.269096
_cell_volume 592.751173
_symmetry_space_group_name_H-M "P -1"
_symmetry_group_IT_number 2
_symmetry_cell_setting 'triclinic'
loop_
_space_group_symop_operation_xyz
x,y,z
-x,-y,-z
loop_
_atom_site_type_symbol
_atom_site_label
_atom_site_fract_x
_atom_site_fract_y
_atom_site_fract_z
Si Si1 0.001656 0.694874 0.794069
Si Si2 0.382055 0.399785 0.803786
Si Si3 0.546301 0.257988 0.485278
Si Si4 0.000000 0.500000 0.500000
Si Si5 0.239376 0.428481 0.297643
Si Si6 0.625682 0.239524 0.851592
Si Si7 0.098098 0.108136 0.656319
Si Si8 0.954358 0.880701 0.980501
O O1 0.872635 0.598963 0.829322
O O2 0.980058 0.803416 0.567165
O O3 0.300991 0.695660 0.744400
O O4 0.839536 0.679227 0.984964
O O5 0.521657 0.482774 0.803244
O O6 0.609197 0.345919 0.791689
O O7 0.237799 0.441389 0.612033
O O8 0.340000 0.323824 0.465234
O O9 0.701694 0.256950 0.637812
O O10 0.403423 0.145561 0.603141
O O11 0.982787 0.538653 0.629940
O O12 0.829374 0.182282 0.995793
O O13 0.336388 0.174402 0.959438
O O14 0.011727 0.107871 0.846169
O O15 0.011640 0.995084 0.753416
#
# Coordination Sequence:
#
# PCOD9012150 Si02
#       8
#     2   2   2   1   2   2   2   2
#     4  11  24  45  67 101 141 180 234 293 357 418
#     4  12  28  43  68  99 140 189 233 292 357 421
#     4  10  21  40  68  97 134 181 231 291 345 417
#     4  12  26  42  70  96 134 180 240 286 354 416
#     4  11  25  42  68  98 135 184 233 292 348 428
#     4  11  24  42  70 103 140 185 240 289 351 423
#     4   9  21  38  70 101 136 177 235 290 350 416
#     4  10  22  41  71 106 135 186 240 294 348 422
#
# _framework density 25.305726
#
# number of rings (size 3 to 8) (size 9 to 14) (size 15 to 20)
#    0.000    1.333    2.667    1.600    5.600    5.867 
#    0.000    1.333    0.000    0.000    0.000    0.000 
#    0.000    0.000    0.000    0.000    0.000    0.000 
#
# Total GULP energy -83666.726111 kJ/mol
# GULP energy per Si atom -5577.781741 kJ/mol
# Density = 2.524813 g / cm^3
# Si number density = 25.305726 Si / 1000 Ang^3
#
#
#
# Elastic Constant Matrix: (Units=GPa)
#
#
# Indices 1 2 3 4 5 6 
#
# 1 92.5615 26.2868 23.6169 -13.9872 1.6848 -19.9036
# 2 26.2868 58.3321 29.2055 -20.2983 -4.4522 -5.7267
# 3 23.6169 29.2055 95.6322 -19.0502 -12.9742 -11.1754
# 4 -13.9872 -20.2983 -19.0502 35.4838 -10.0409 -12.4443
# 5 1.6848 -4.4522 -12.9742 -10.0409 32.7026 0.4698
# 6 -19.9036 -5.7267 -11.1754 -12.4443 0.4698 35.0178
#
#
#
# Elastic Compliance Matrix: (Units=1/GPa)
#
#
# Indices 1 2 3 4 5 6 
#
# 1 0.015350 -0.002560 0.000520 0.009533 0.001824 0.011836
# 2 -0.002560 0.027648 -0.001422 0.020063 0.009354 0.009617
# 3 0.000520 -0.001422 0.016403 0.014892 0.010709 0.010446
# 4 0.009533 0.020063 0.014892 0.073728 0.030222 0.039247
# 5 0.001824 0.009354 0.010709 0.030222 0.045054 0.016120
# 6 0.011836 0.009617 0.010446 0.039247 0.016120 0.053922
#
#
# Mechanical properties :
#
#
# Convention : Reuss Voigt Hill
#
# Bulk Modulus (GPa) = 19.05529 44.97157 32.01343
# Shear Modulus (GPa) = 19.49167 31.80196 25.64681
#
# Velocity S-wave (km/s) = 2.77834 3.54886 3.18697
# Velocity P-wave (km/s) = 4.22358 5.88238 5.12060
#
# Compressibility (1/GPa) = 0.05247888
#
# Stress axis : x y z
#
# Youngs Moduli (GPa) = 65.14628 36.16861 60.96597
#
# Poissons Ratio (x) = 0.09257 -0.03173
# Poissons Ratio (y) = 0.16674 0.08669
# Poissons Ratio (z) = -0.03390 0.05143
#
# Static dielectric constant tensor:
#      x y z
#    x 2.025190 -0.076730 0.058510 
#    y -0.076730 1.909520 0.060860 
#    z 0.058510 0.060860 1.903630 
# 
# From -- ./inp_files/137185.got.cif
#   From: 2010.05.17/outbox.cif.g08.bks.cpg/sg2_69_cif.got.tgz:137185.got - 2010.06.03 11:33:40.
