data_PCOD9012020
_publ_section_title
;
Structure prediction by ZEFSAII (Michael W. Deem and Ramdas Pophale) SiO2 
 PCOD9012020
Probable space group: P -1
;
_chemical_formula_sum "Si O2"
_cell_formula_units_Z 14
_cell_length_a 8.549039
_cell_length_b 6.614098
_cell_length_c 11.883199
_cell_angle_alpha 89.808106
_cell_angle_beta 114.656567
_cell_angle_gamma 91.426761
_cell_volume 610.455076
_symmetry_space_group_name_H-M "P -1"
_symmetry_group_IT_number 2
_symmetry_cell_setting 'triclinic'
loop_
_space_group_symop_operation_xyz
x,y,z
-x,-y,-z
loop_
_atom_site_type_symbol
_atom_site_label
_atom_site_fract_x
_atom_site_fract_y
_atom_site_fract_z
Si Si1 0.638021 0.817463 0.878270
Si Si2 0.333723 0.288927 0.364863
Si Si3 0.244782 0.685287 0.728599
Si Si4 0.122744 0.434078 0.889482
Si Si5 0.959595 0.976671 0.618156
Si Si6 0.867094 0.183357 0.946388
Si Si7 0.710944 0.309205 0.520769
O O1 0.707178 0.739287 0.778496
O O2 0.438665 0.749934 0.819891
O O3 0.686010 0.057940 0.889506
O O4 0.734847 0.704891 0.008235
O O5 0.523440 0.203001 0.443195
O O6 0.331112 0.517865 0.404174
O O7 0.189283 0.185306 0.397768
O O8 0.171152 0.495227 0.777587
O O9 0.238102 0.632377 0.593131
O O10 0.130090 0.881727 0.719656
O O11 0.944253 0.316206 0.866123
O O12 0.127932 0.651339 0.953937
O O13 0.863518 0.180369 0.616566
O O14 0.000000 0.000000 0.500000
O O15 0.000000 0.000000 0.000000
#
# Coordination Sequence:
#
# PCOD9012020 Si02
#       7
#     2   2   2   2   2   2   2
#     4  10  22  42  63  97 130 169 213 260 317 387
#     4  10  21  40  68  90 126 167 219 252 315 383
#     4  10  22  40  66  96 133 163 215 267 319 376
#     4  10  21  41  65  95 129 167 212 263 321 382
#     4  10  22  39  60  90 126 166 210 264 314 368
#     4   9  21  39  63  89 130 166 213 258 316 382
#     4   9  21  44  64  92 125 172 210 263 314 377
#
# _framework density 22.933710999999999
#
# number of rings (size 3 to 8) (size 9 to 14) (size 15 to 20)
#    0.000    2.286    0.000    0.857    6.000    4.000 
#    2.571   10.000    0.000    0.000    0.000    0.000 
#    0.000    0.000    0.000    0.000    0.000    0.000 
#
# Total GULP energy -78134.059289 kJ/mol
# GULP energy per Si atom -5581.004235 kJ/mol
# Density = 2.288151 g / cm^3
# Si number density = 22.933711 Si / 1000 Ang^3
#
#
#
# Elastic Constant Matrix: (Units=GPa)
#
#
# Indices 1 2 3 4 5 6 
#
# 1 197.7734 167.2426 202.6446 -40.6851 -167.9045 69.9906
# 2 167.2426 276.5414 274.8337 -38.5090 -211.3549 88.2142
# 3 202.6446 274.8337 390.2250 -47.9313 -276.6096 111.2419
# 4 -40.6851 -38.5090 -47.9313 32.7703 30.6971 -19.8016
# 5 -167.9045 -211.3549 -276.6096 30.6971 263.3353 -103.7913
# 6 69.9906 88.2142 111.2419 -19.8016 -103.7913 77.2403
#
#
#
# Elastic Compliance Matrix: (Units=1/GPa)
#
#
# Indices 1 2 3 4 5 6 
#
# 1 0.014286 -0.002783 -0.000938 0.008712 0.005183 0.000781
# 2 -0.002783 0.013427 -0.006242 0.000754 0.001971 -0.000982
# 3 -0.000938 -0.006242 0.014238 0.004264 0.009236 0.000977
# 4 0.008712 0.000754 0.004264 0.045410 0.008638 0.008351
# 5 0.005183 0.001971 0.009236 0.008638 0.021834 0.011305
# 6 0.000781 -0.000982 0.000977 0.008351 0.011305 0.029286
#
#
# Mechanical properties :
#
#
# Convention : Reuss Voigt Hill
#
# Bulk Modulus (GPa) = 45.40073 239.33131 142.36602
# Shear Modulus (GPa) = 30.16656 89.32375 59.74515
#
# Velocity S-wave (km/s) = 3.63075 6.24766 5.10958
# Velocity P-wave (km/s) = 6.11686 12.51514 9.84999
#
# Compressibility (1/GPa) = 0.02202608
#
# Stress axis : x y z
#
# Youngs Moduli (GPa) = 69.99832 74.47905 70.23671
#
# Poissons Ratio (x) = 0.20725 0.06586
# Poissons Ratio (y) = 0.19478 0.43840
# Poissons Ratio (z) = 0.06564 0.46488
#
# Static dielectric constant tensor:
#      x y z
#    x 1.877520 0.002570 0.026410 
#    y 0.002570 1.894310 0.023830 
#    z 0.026410 0.023830 1.883120 
# 
# From -- ./inp_files/373080.got.cif
#   From: 2010.05.17/outbox.cif.g08.bks.cpg/sg2_187_cif.got.tgz:373080.got - 2010.06.03 11:33:40.
