data_PCOD9012205
_publ_section_title
;
Structure prediction by ZEFSAII (Michael W. Deem and Ramdas Pophale) SiO2 
 PCOD9012205
Probable space group: P -1
;
_chemical_formula_sum "Si O2"
_cell_formula_units_Z 14
_cell_length_a 11.264156
_cell_length_b 4.947944
_cell_length_c 19.329165
_cell_angle_alpha 121.548997
_cell_angle_beta 39.719918
_cell_angle_gamma 111.547669
_cell_volume 585.451942
_symmetry_space_group_name_H-M "P -1"
_symmetry_group_IT_number 2
_symmetry_cell_setting 'triclinic'
loop_
_space_group_symop_operation_xyz
x,y,z
-x,-y,-z
loop_
_atom_site_type_symbol
_atom_site_label
_atom_site_fract_x
_atom_site_fract_y
_atom_site_fract_z
Si Si1 0.405613 0.167656 0.998492
Si Si2 0.998528 0.542287 0.745765
Si Si3 0.009853 0.826410 0.631533
Si Si4 0.528055 0.017522 0.209436
Si Si5 0.179004 0.774353 0.411120
Si Si6 0.131712 0.188306 0.897777
Si Si7 0.225755 0.509347 0.770259
O O1 0.182157 0.240918 0.117412
O O2 0.500000 0.500000 0.000000
O O3 0.455536 0.979639 0.879935
O O4 0.500000 0.000000 0.000000
O O5 0.058869 0.696585 0.668024
O O6 0.929430 0.189045 0.717007
O O7 0.173178 0.462670 0.708357
O O8 0.861399 0.585471 0.637823
O O9 0.820139 0.199090 0.502640
O O10 0.000000 0.000000 0.500000
O O11 0.346483 0.898950 0.309892
O O12 0.693311 0.763366 0.125634
O O13 0.588781 0.338704 0.263777
O O14 0.193740 0.207312 0.791496
O O15 0.084179 0.829424 0.887980
O O16 0.000000 0.500000 0.000000
#
# Coordination Sequence:
#
# PCOD9012205 Si02
#       7
#     2   2   2   2   2   2   2
#     4  12  28  42  67 105 151 189 227 297 359 425
#     4  12  24  46  71 107 149 185 238 295 369 430
#     4  11  25  45  75 103 139 188 243 296 359 424
#     4  10  27  45  73 109 142 185 250 284 356 438
#     4  11  24  49  79  99 140 194 245 303 355 419
#     4  10  21  40  68  99 139 184 233 281 342 420
#     4  10  24  42  71 100 142 190 227 292 348 428
#
# _framework density 23.913148
#
# number of rings (size 3 to 8) (size 9 to 14) (size 15 to 20)
#    0.857    0.286    1.429    3.857    6.000    2.286 
#    0.000    1.429    0.000    0.000    0.000    0.000 
#    0.000    0.000    0.000    0.000    0.000    0.000 
#
# Total GULP energy -78168.320497 kJ/mol
# GULP energy per Si atom -5583.451464 kJ/mol
# Density = 2.385872 g / cm^3
# Si number density = 23.913148 Si / 1000 Ang^3
#
#
#
# Elastic Constant Matrix: (Units=GPa)
#
#
# Indices 1 2 3 4 5 6 
#
# 1 121.7470 22.3147 73.5928 -20.6005 16.5806 -15.9992
# 2 22.3147 121.8154 27.6844 -16.7003 -0.6916 -19.7616
# 3 73.5928 27.6844 119.0703 -21.1473 19.3255 -9.2271
# 4 -20.6005 -16.7003 -21.1473 37.8278 -16.4673 12.4919
# 5 16.5806 -0.6916 19.3255 -16.4673 34.4969 -5.2795
# 6 -15.9992 -19.7616 -9.2271 12.4919 -5.2795 41.4175
#
#
#
# Elastic Compliance Matrix: (Units=1/GPa)
#
#
# Indices 1 2 3 4 5 6 
#
# 1 0.013737 -0.000043 -0.007791 0.001724 -0.000971 0.002906
# 2 -0.000043 0.009739 -0.001899 0.003569 0.003532 0.003581
# 3 -0.007791 -0.001899 0.014474 0.001967 -0.003732 -0.001760
# 4 0.001724 0.003569 0.001967 0.039245 0.015801 -0.007015
# 5 -0.000971 0.003532 -0.003732 0.015801 0.039269 0.000718
# 6 0.002906 0.003581 -0.001760 -0.007015 0.000718 0.028791
#
#
# Mechanical properties :
#
#
# Convention : Reuss Voigt Hill
#
# Bulk Modulus (GPa) = 54.10664 67.75741 60.93203
# Shear Modulus (GPa) = 29.25948 38.68451 33.97200
#
# Velocity S-wave (km/s) = 3.50176 4.02644 3.77323
# Velocity P-wave (km/s) = 6.24701 7.07196 6.67225
#
# Compressibility (1/GPa) = 0.01848202
#
# Stress axis : x y z
#
# Youngs Moduli (GPa) = 72.79471 102.67998 69.08836
#
# Poissons Ratio (x) = 0.00446 0.53829
# Poissons Ratio (y) = 0.00316 0.13122
# Poissons Ratio (z) = 0.56717 0.19503
#
# Static dielectric constant tensor:
#      x y z
#    x 2.022590 0.009570 0.030690 
#    y 0.009570 1.899570 0.074580 
#    z 0.030690 0.074580 2.062180 
# 
# From -- ./inp_files/459650.got.cif
#   From: 2010.05.17/outbox.cif.g08.bks.cpg/sg2_230_cif.got.tgz:459650.got - 2010.06.03 11:33:40.
