data_PCOD9012983
_publ_section_title
;
Structure prediction by ZEFSAII (Michael W. Deem and Ramdas Pophale) SiO2 
 PCOD9012983
Probable space group: P -1
;
_chemical_formula_sum "Si O2"
_cell_formula_units_Z 16
_cell_length_a 7.161874
_cell_length_b 18.467155
_cell_length_c 5.813499
_cell_angle_alpha 106.164829
_cell_angle_beta 78.863786
_cell_angle_gamma 121.461658
_cell_volume 628.851157
_symmetry_space_group_name_H-M "P -1"
_symmetry_group_IT_number 2
_symmetry_cell_setting 'triclinic'
loop_
_space_group_symop_operation_xyz
x,y,z
-x,-y,-z
loop_
_atom_site_type_symbol
_atom_site_label
_atom_site_fract_x
_atom_site_fract_y
_atom_site_fract_z
Si Si1 0.853816 0.242619 0.831051
Si Si2 0.996498 0.579865 0.781761
Si Si3 0.246552 0.042064 0.258182
Si Si4 0.209253 0.348005 0.463096
Si Si5 0.448465 0.782433 0.482739
Si Si6 0.773997 0.006610 0.282134
Si Si7 0.349284 0.589587 0.382133
Si Si8 0.932738 0.191032 0.195316
O O1 0.614528 0.198181 0.735940
O O2 0.038818 0.280617 0.625828
O O3 0.892282 0.177689 0.921482
O O4 0.912146 0.335783 0.009319
O O5 0.881856 0.599642 0.609470
O O6 0.804039 0.485624 0.826955
O O7 0.197193 0.572878 0.626328
O O8 0.333417 0.142850 0.391313
O O9 0.983753 0.991456 0.247908
O O10 0.320361 0.013071 0.450153
O O11 0.334866 0.036503 0.978528
O O12 0.432412 0.408796 0.589878
O O13 0.181144 0.272792 0.224991
O O14 0.422499 0.688187 0.386660
O O15 0.254416 0.781436 0.682841
O O16 0.870600 0.107612 0.284924
#
# Coordination Sequence:
#
# PCOD9012983 Si02
#       8
#     2   2   2   2   2   2   2   2
#     4  10  21  42  60  90 134 165 219 279 322 401
#     4  10  22  42  61  92 132 167 222 275 333 400
#     4  10  24  42  66  97 130 171 226 277 334 409
#     4  10  21  41  62  93 129 170 221 274 332 399
#     4  11  23  41  62  93 127 168 222 270 332 404
#     4  10  23  44  65  95 135 171 219 283 335 399
#     4  11  21  41  65  90 129 175 213 279 338 392
#     4  10  22  41  64  89 132 170 211 275 332 396
#
# _framework density 25.443224000000001
#
# number of rings (size 3 to 8) (size 9 to 14) (size 15 to 20)
#    0.000    1.750    3.750    1.125    5.250    2.000 
#    6.750    0.000    0.000    0.000    0.000    0.000 
#    0.000    0.000    0.000    0.000    0.000    0.000 
#
# Total GULP energy -89205.263359 kJ/mol
# GULP energy per Si atom -5575.328960 kJ/mol
# Density = 2.538531 g / cm^3
# Si number density = 25.443224 Si / 1000 Ang^3
#
#
#
# Elastic Constant Matrix: (Units=GPa)
#
#
# Indices 1 2 3 4 5 6 
#
# 1 40.1170 -5.7118 9.5533 2.7810 11.6283 3.1326
# 2 -5.7118 108.7936 37.2976 9.4075 10.6279 -12.6670
# 3 9.5533 37.2976 112.2018 6.3697 29.9488 -1.1526
# 4 2.7810 9.4075 6.3697 38.4960 0.0155 7.4376
# 5 11.6283 10.6279 29.9488 0.0155 20.2184 3.8805
# 6 3.1326 -12.6670 -1.1526 7.4376 3.8805 38.0292
#
#
#
# Elastic Compliance Matrix: (Units=1/GPa)
#
#
# Indices 1 2 3 4 5 6 
#
# 1 0.032221 0.003726 0.003058 -0.004136 -0.025417 0.002082
# 2 0.003726 0.011638 -0.002452 -0.003627 -0.005541 0.004770
# 3 0.003058 -0.002452 0.016389 -0.002817 -0.025234 0.002554
# 4 -0.004136 -0.003627 -0.002817 0.029103 0.009905 -0.007655
# 5 -0.025417 -0.005541 -0.025234 0.009905 0.106927 -0.013365
# 6 0.002082 0.004770 0.002554 -0.007655 -0.013365 0.030651
#
#
# Mechanical properties :
#
#
# Convention : Reuss Voigt Hill
#
# Bulk Modulus (GPa) = 14.51107 38.15451 26.33279
# Shear Modulus (GPa) = 20.72668 34.01360 27.37014
#
# Velocity S-wave (km/s) = 2.85726 3.66025 3.28340
# Velocity P-wave (km/s) = 4.07442 5.73513 4.97457
#
# Compressibility (1/GPa) = 0.06891289
#
# Stress axis : x y z
#
# Youngs Moduli (GPa) = 31.03594 85.92309 61.01715
#
# Poissons Ratio (x) = -0.32016 -0.18661
# Poissons Ratio (y) = -0.11564 0.14961
# Poissons Ratio (z) = -0.09492 0.21068
#
# Static dielectric constant tensor:
#      x y z
#    x 1.985670 0.000080 0.000910 
#    y 0.000080 2.089470 0.073800 
#    z 0.000910 0.073800 2.303830 
# 
# From -- ./inp_files/51698.got.cif
#   From: 2010.05.17/outbox.cif.g08.bks.cpg/sg2_26_cif.got.tgz:51698.got - 2010.06.03 11:33:40.
