data_PCOD9012029
_publ_section_title
;
Structure prediction by ZEFSAII (Michael W. Deem and Ramdas Pophale) SiO2 
 PCOD9012029
Probable space group: P -1
;
_chemical_formula_sum "Si O2"
_cell_formula_units_Z 14
_cell_length_a 12.280359
_cell_length_b 11.170444
_cell_length_c 11.758871
_cell_angle_alpha 40.634016
_cell_angle_beta 35.542684
_cell_angle_gamma 46.138376
_cell_volume 598.396386
_symmetry_space_group_name_H-M "P -1"
_symmetry_group_IT_number 2
_symmetry_cell_setting 'triclinic'
loop_
_space_group_symop_operation_xyz
x,y,z
-x,-y,-z
loop_
_atom_site_type_symbol
_atom_site_label
_atom_site_fract_x
_atom_site_fract_y
_atom_site_fract_z
Si Si1 0.185856 0.473817 0.558081
Si Si2 0.209763 0.446354 0.815637
Si Si3 0.823248 0.913224 0.259212
Si Si4 0.308618 0.847433 0.413135
Si Si5 0.012741 0.099842 0.634789
Si Si6 0.491347 0.702044 0.147699
Si Si7 0.381874 0.971071 0.867680
O O1 0.177159 0.394793 0.749778
O O2 0.148216 0.309558 0.627758
O O3 0.051242 0.678063 0.501080
O O4 0.396965 0.522321 0.337917
O O5 0.296741 0.633150 0.597931
O O6 0.327620 0.330220 0.901032
O O7 0.000000 0.500000 0.000000
O O8 0.829361 0.936699 0.371911
O O9 0.650770 0.008234 0.254062
O O10 0.000000 0.000000 0.000000
O O11 0.344742 0.850716 0.244663
O O12 0.496392 0.884261 0.290670
O O13 0.119946 0.981523 0.524456
O O14 0.827312 0.031240 0.896287
O O15 0.509857 0.783338 0.949071
#
# Coordination Sequence:
#
# PCOD9012029 Si02
#       7
#     2   2   2   2   2   2   2
#     4  10  21  41  64  90 132 168 210 262 316 375
#     4  11  25  38  65  95 131 167 207 262 324 387
#     4  10  21  40  68  91 126 173 216 258 315 365
#     4  11  23  40  66  95 131 165 214 254 325 378
#     4  10  24  40  66  97 124 175 213 258 313 374
#     4  10  22  41  63  95 130 170 202 263 328 377
#     4  10  22  40  63  91 133 162 209 262 307 376
#
# _framework density 23.395864
#
# number of rings (size 3 to 8) (size 9 to 14) (size 15 to 20)
#    0.000    1.714    0.000    4.286    8.000    5.714 
#    0.000    0.000    0.000    6.000    0.000    0.000 
#    0.000    0.000    0.000    0.000    0.000    0.000 
#
# Total GULP energy -78113.594263 kJ/mol
# GULP energy per Si atom -5579.542447 kJ/mol
# Density = 2.334261 g / cm^3
# Si number density = 23.395864 Si / 1000 Ang^3
#
#
#
# Elastic Constant Matrix: (Units=GPa)
#
#
# Indices 1 2 3 4 5 6 
#
# 1 162.6183 15.9205 28.2957 -3.4847 15.7985 -10.3289
# 2 15.9205 64.0008 21.6723 -4.5969 7.2953 -4.8482
# 3 28.2957 21.6723 55.2625 -7.4908 -0.1466 -1.6976
# 4 -3.4847 -4.5969 -7.4908 21.9051 -7.7942 -4.4567
# 5 15.7985 7.2953 -0.1466 -7.7942 38.6138 -16.9213
# 6 -10.3289 -4.8482 -1.6976 -4.4567 -16.9213 39.4100
#
#
#
# Elastic Compliance Matrix: (Units=1/GPa)
#
#
# Indices 1 2 3 4 5 6 
#
# 1 0.007100 -0.000236 -0.003707 -0.001211 -0.003013 0.000242
# 2 -0.000236 0.018505 -0.007058 0.000485 -0.003039 0.000661
# 3 -0.003707 -0.007058 0.024057 0.008819 0.005921 0.002736
# 4 -0.001211 0.000485 0.008819 0.058195 0.018626 0.014700
# 5 -0.003013 -0.003039 0.005921 0.018626 0.039430 0.018128
# 6 0.000242 0.000661 0.002736 0.014700 0.018128 0.035083
#
#
# Mechanical properties :
#
#
# Convention : Reuss Voigt Hill
#
# Bulk Modulus (GPa) = 36.15546 45.96207 41.05876
# Shear Modulus (GPa) = 23.40917 34.38532 28.89724
#
# Velocity S-wave (km/s) = 3.16661 3.83785 3.51827
# Velocity P-wave (km/s) = 5.37189 6.27111 5.83884
#
# Compressibility (1/GPa) = 0.02765834
#
# Stress axis : x y z
#
# Youngs Moduli (GPa) = 140.85220 54.03971 41.56820
#
# Poissons Ratio (x) = 0.01275 0.15411
# Poissons Ratio (y) = 0.03323 0.29340
# Poissons Ratio (z) = 0.52219 0.38143
#
# Static dielectric constant tensor:
#      x y z
#    x 1.890020 -0.038490 0.014700 
#    y -0.038490 1.979610 0.018840 
#    z 0.014700 0.018840 1.706070 
# 
# From -- ./inp_files/424837.got.cif
#   From: 2010.05.17/outbox.cif.g08.bks.cpg/sg2_213_cif.got.tgz:424837.got - 2010.06.03 11:33:40.
