data_PCOD9012209
_publ_section_title
;
Structure prediction by ZEFSAII (Michael W. Deem and Ramdas Pophale) SiO2 
 PCOD9012209
Probable space group: P -1
;
_chemical_formula_sum "Si O2"
_cell_formula_units_Z 16
_cell_length_a 8.070772
_cell_length_b 15.115392
_cell_length_c 14.776377
_cell_angle_alpha 151.356275
_cell_angle_beta 109.479439
_cell_angle_gamma 87.788624
_cell_volume 673.711001
_symmetry_space_group_name_H-M "P -1"
_symmetry_group_IT_number 2
_symmetry_cell_setting 'triclinic'
loop_
_space_group_symop_operation_xyz
x,y,z
-x,-y,-z
loop_
_atom_site_type_symbol
_atom_site_label
_atom_site_fract_x
_atom_site_fract_y
_atom_site_fract_z
Si Si1 0.533763 0.623692 0.522655
Si Si2 0.706166 0.304915 0.947996
Si Si3 0.203743 0.489753 0.660556
Si Si4 0.821164 0.629590 0.094025
Si Si5 0.243835 0.974005 0.551890
Si Si6 0.609487 0.065480 0.980666
Si Si7 0.176091 0.940117 0.712010
Si Si8 0.850863 0.637255 0.904555
O O1 0.500000 0.500000 0.500000
O O2 0.657850 0.566996 0.425158
O O3 0.306058 0.530691 0.351469
O O4 0.655821 0.885409 0.798618
O O5 0.692027 0.419823 0.139854
O O6 0.737676 0.449385 0.995256
O O7 0.914076 0.305838 0.005785
O O8 0.488818 0.062585 0.676929
O O9 0.975528 0.267378 0.438286
O O10 0.201705 0.681775 0.778307
O O11 0.755492 0.802671 0.257508
O O12 0.759153 0.539531 0.900230
O O13 0.080161 0.788715 0.285966
O O14 0.136777 0.874368 0.540534
O O15 0.418846 0.034088 0.857503
O O16 0.500000 0.000000 0.000000
O O17 0.141738 0.136658 0.898408
#
# Coordination Sequence:
#
# PCOD9012209 Si02
#       8
#     2   2   2   2   2   2   2   2
#     4  12  26  52  79 109 146 191 247 312 375 445
#     4  12  23  42  71 108 149 201 248 299 372 433
#     4  12  25  45  74 107 143 195 240 297 375 430
#     4  10  22  43  66 105 150 195 250 303 362 440
#     4  10  21  40  68  99 148 197 244 303 361 434
#     4  12  25  50  76 103 146 187 244 312 373 439
#     4  11  23  46  68 106 149 192 245 302 368 441
#     4  11  25  46  71 109 155 194 250 314 364 442
#
# _framework density 23.749053
#
# number of rings (size 3 to 8) (size 9 to 14) (size 15 to 20)
#    0.000    0.750    5.000    2.250    1.750    1.000 
#    2.250    1.250    0.000    0.000    0.000    0.000 
#    0.000    0.000    0.000    0.000    0.000    0.000 
#
# Total GULP energy -89660.920523 kJ/mol
# GULP energy per Si atom -5603.807533 kJ/mol
# Density = 2.369500 g / cm^3
# Si number density = 23.749053 Si / 1000 Ang^3
#
#
#
# Elastic Constant Matrix: (Units=GPa)
#
#
# Indices 1 2 3 4 5 6 
#
# 1 85.4412 30.3510 24.5209 15.7981 -11.7546 5.7405
# 2 30.3510 119.9603 35.6721 18.2790 -16.4431 15.0174
# 3 24.5209 35.6721 72.6803 17.9403 -5.8456 14.3437
# 4 15.7981 18.2790 17.9403 50.3164 3.0621 1.0699
# 5 -11.7546 -16.4431 -5.8456 3.0621 42.3854 1.0872
# 6 5.7405 15.0174 14.3437 1.0699 1.0872 27.5266
#
#
#
# Elastic Compliance Matrix: (Units=1/GPa)
#
#
# Indices 1 2 3 4 5 6 
#
# 1 0.014157 -0.001812 -0.002810 -0.002960 0.003062 -0.000505
# 2 -0.001812 0.011121 -0.003126 -0.002492 0.003666 -0.004108
# 3 -0.002810 -0.003126 0.018952 -0.004651 0.001149 -0.007449
# 4 -0.002960 -0.002492 -0.004651 0.023547 -0.004224 0.003652
# 5 0.003062 0.003666 0.001149 -0.004224 0.026434 -0.004117
# 6 -0.000505 -0.004108 -0.007449 0.003652 -0.004117 0.042577
#
#
# Mechanical properties :
#
#
# Convention : Reuss Voigt Hill
#
# Bulk Modulus (GPa) = 34.80358 51.01886 42.91122
# Shear Modulus (GPa) = 30.89082 36.54818 33.71950
#
# Velocity S-wave (km/s) = 3.61046 3.92718 3.77214
# Velocity P-wave (km/s) = 5.66278 6.48789 6.08933
#
# Compressibility (1/GPa) = 0.02873268
#
# Stress axis : x y z
#
# Youngs Moduli (GPa) = 70.63778 89.92299 52.76588
#
# Poissons Ratio (x) = 0.16295 0.14828
# Poissons Ratio (y) = 0.12800 0.16495
# Poissons Ratio (z) = 0.19850 0.28110
#
# Static dielectric constant tensor:
#      x y z
#    x 1.904800 -0.017250 0.000590 
#    y -0.017250 1.913280 -0.033260 
#    z 0.000590 -0.033260 1.934130 
# 
# From -- ./inp_files/505939.got.cif
#   From: 2010.05.17/outbox.cif.g08.bks.cpg/sg2_253_cif.got.tgz:505939.got - 2010.06.03 11:33:40.
