data_PCOD9012919
_publ_section_title
;
Structure prediction by ZEFSAII (Michael W. Deem and Ramdas Pophale) SiO2 
 PCOD9012919
Probable space group: P -1
;
_chemical_formula_sum "Si O2"
_cell_formula_units_Z 16
_cell_length_a 8.497414
_cell_length_b 8.540338
_cell_length_c 14.053316
_cell_angle_alpha 98.288660
_cell_angle_beta 105.931814
_cell_angle_gamma 60.913955
_cell_volume 856.942902
_symmetry_space_group_name_H-M "P -1"
_symmetry_group_IT_number 2
_symmetry_cell_setting 'triclinic'
loop_
_space_group_symop_operation_xyz
x,y,z
-x,-y,-z
loop_
_atom_site_type_symbol
_atom_site_label
_atom_site_fract_x
_atom_site_fract_y
_atom_site_fract_z
Si Si1 0.143958 0.298190 0.475394
Si Si2 0.077524 0.835487 0.714058
Si Si3 0.678409 0.482515 0.972130
Si Si4 0.024432 0.142530 0.081136
Si Si5 0.968846 0.870576 0.409334
Si Si6 0.665261 0.517404 0.579371
Si Si7 0.502740 0.626393 0.769342
Si Si8 0.619203 0.844226 0.934022
O O1 0.177793 0.177516 0.565158
O O2 0.302247 0.330615 0.455598
O O3 0.000000 0.500000 0.500000
O O4 0.049410 0.223861 0.376047
O O5 0.288568 0.674280 0.731458
O O6 0.006427 0.872603 0.813553
O O7 0.078608 0.010774 0.683108
O O8 0.626119 0.471939 0.852179
O O9 0.699640 0.661998 0.992909
O O10 0.500000 0.500000 0.000000
O O11 0.860256 0.328269 0.033007
O O12 0.221490 0.130248 0.088834
O O13 0.000000 0.000000 0.000000
O O14 0.152064 0.678247 0.410694
O O15 0.000000 0.000000 0.500000
O O16 0.500000 0.500000 0.500000
O O17 0.603200 0.578403 0.681713
O O18 0.501535 0.801709 0.832116
O O19 0.500000 0.000000 0.000000
#
# Coordination Sequence:
#
# PCOD9012919 Si02
#       8
#     2   2   2   2   2   2   2   2
#     4   9  19  38  61  86 114 153 198 243 305 367
#     4  11  21  39  62  88 124 160 199 254 310 364
#     4  10  21  41  62  89 126 164 212 252 314 366
#     4  12  23  39  65  89 126 171 205 258 310 367
#     4   9  20  38  60  87 118 156 202 251 306 371
#     4  11  21  39  65  88 121 159 203 257 311 368
#     4  10  22  37  62  88 127 153 210 250 311 362
#     4  10  22  41  60  90 126 161 212 259 306 366
#
# _framework density 18.671021
#
# number of rings (size 3 to 8) (size 9 to 14) (size 15 to 20)
#    0.750    1.000    1.250    4.875    1.750    0.000 
#    0.000    8.125    0.000    0.000    0.000    0.000 
#    0.000    0.000    0.000    0.000    0.000    0.000 
#
# Total GULP energy -89120.038235 kJ/mol
# GULP energy per Si atom -5570.002390 kJ/mol
# Density = 1.862853 g / cm^3
# Si number density = 18.671021 Si / 1000 Ang^3
#
#
#
# Elastic Constant Matrix: (Units=GPa)
#
#
# Indices 1 2 3 4 5 6 
#
# 1 126.0069 19.4343 65.9797 -7.4273 -26.6041 14.7031
# 2 19.4343 76.6225 47.9699 -2.0925 -18.2170 13.2652
# 3 65.9797 47.9699 119.0178 -1.2208 -29.1638 9.1310
# 4 -7.4273 -2.0925 -1.2208 35.1045 1.7228 -4.7128
# 5 -26.6041 -18.2170 -29.1638 1.7228 43.9589 -2.0705
# 6 14.7031 13.2652 9.1310 -4.7128 -2.0705 34.2663
#
#
#
# Elastic Compliance Matrix: (Units=1/GPa)
#
#
# Indices 1 2 3 4 5 6 
#
# 1 0.012446 0.002743 -0.006700 0.001815 0.003958 -0.004128
# 2 0.002743 0.019331 -0.007802 0.000414 0.004184 -0.006272
# 3 -0.006700 -0.007802 0.015959 -0.001271 0.003429 0.001675
# 4 0.001815 0.000414 -0.001271 0.029335 -0.000563 0.003400
# 5 0.003958 0.004184 0.003429 -0.000563 0.029055 -0.002554
# 6 -0.004128 -0.006272 0.001675 0.003400 -0.002554 0.033249
#
#
# Mechanical properties :
#
#
# Convention : Reuss Voigt Hill
#
# Bulk Modulus (GPa) = 41.28851 65.37944 53.33397
# Shear Modulus (GPa) = 29.24581 35.21683 32.23132
#
# Velocity S-wave (km/s) = 3.96204 4.34772 4.15935
# Velocity P-wave (km/s) = 6.56445 7.76506 7.18986
#
# Compressibility (1/GPa) = 0.02421981
#
# Stress axis : x y z
#
# Youngs Moduli (GPa) = 80.35017 51.72973 62.65937
#
# Poissons Ratio (x) = -0.14190 0.41980
# Poissons Ratio (y) = -0.22041 0.48884
# Poissons Ratio (z) = 0.53832 0.40357
#
# Static dielectric constant tensor:
#      x y z
#    x 1.659400 0.013570 -0.002350 
#    y 0.013570 1.625610 -0.019790 
#    z -0.002350 -0.019790 1.660090 
# 
# From -- ./inp_files/495485.got.cif
#   From: 2010.05.17/outbox.cif.g08.bks.cpg/sg2_248_cif.got.tgz:495485.got - 2010.06.03 11:33:40.
