data_PCOD9012219
_publ_section_title
;
Structure prediction by ZEFSAII (Michael W. Deem and Ramdas Pophale) SiO2 
 PCOD9012219
Probable space group: P -1
;
_chemical_formula_sum "Si O2"
_cell_formula_units_Z 12
_cell_length_a 14.261929
_cell_length_b 8.973355
_cell_length_c 7.953897
_cell_angle_alpha 123.338219
_cell_angle_beta 125.835773
_cell_angle_gamma 39.894847
_cell_volume 519.323104
_symmetry_space_group_name_H-M "P -1"
_symmetry_group_IT_number 2
_symmetry_cell_setting 'triclinic'
loop_
_space_group_symop_operation_xyz
x,y,z
-x,-y,-z
loop_
_atom_site_type_symbol
_atom_site_label
_atom_site_fract_x
_atom_site_fract_y
_atom_site_fract_z
Si Si1 0.375220 0.977522 0.308104
Si Si2 0.636142 0.362291 0.690127
Si Si3 0.106626 0.266543 0.723602
Si Si4 0.029535 0.008031 0.336533
Si Si5 0.953493 0.739780 0.953468
Si Si6 0.447422 0.863639 0.927247
O O1 0.380419 0.802357 0.325316
O O2 0.500000 0.000000 0.500000
O O3 0.194594 0.206859 0.249672
O O4 0.409646 0.895222 0.102110
O O5 0.500000 0.500000 0.500000
O O6 0.799278 0.216889 0.682073
O O7 0.585101 0.585859 0.878775
O O8 0.090929 0.497394 0.851964
O O9 0.022676 0.231327 0.472409
O O10 0.280787 0.014307 0.754781
O O11 0.039330 0.297674 0.860199
O O12 0.000000 0.000000 0.500000
O O13 0.934276 0.976051 0.089087
O O14 0.500000 0.000000 0.000000
#
# Coordination Sequence:
#
# PCOD9012219 Si02
#       6
#     2   2   2   2   2   2
#     4  11  26  45  66 105 145 185 240 295 349 425
#     4  12  24  43  73 103 141 188 236 291 359 422
#     4   9  18  37  65  97 130 179 224 280 348 418
#     4  10  21  40  69 100 136 182 234 288 353 425
#     4   9  20  40  63  95 137 178 230 286 350 412
#     4  11  22  42  71 103 142 182 234 289 357 424
#
# _framework density 23.107002000000001
#
# number of rings (size 3 to 8) (size 9 to 14) (size 15 to 20)
#    0.000    1.667    1.667    2.500    0.000    6.000 
#    3.000    0.833    0.000    0.000    0.000    0.000 
#    0.000    0.000    0.000    0.000    0.000    0.000 
#
# Total GULP energy -66823.532137 kJ/mol
# GULP energy per Si atom -5568.627678 kJ/mol
# Density = 2.305441 g / cm^3
# Si number density = 23.107002 Si / 1000 Ang^3
#
#
#
# Elastic Constant Matrix: (Units=GPa)
#
#
# Indices 1 2 3 4 5 6 
#
# 1 111.8516 40.2825 9.2269 0.1730 -3.9240 -4.1938
# 2 40.2825 93.0517 43.3365 18.5694 -3.3643 -8.6704
# 3 9.2269 43.3365 100.8154 15.9481 36.7669 -9.5872
# 4 0.1730 18.5694 15.9481 45.9186 0.9135 -8.7000
# 5 -3.9240 -3.3643 36.7669 0.9135 30.9973 -4.9203
# 6 -4.1938 -8.6704 -9.5872 -8.7000 -4.9203 37.1386
#
#
#
# Elastic Compliance Matrix: (Units=1/GPa)
#
#
# Indices 1 2 3 4 5 6 
#
# 1 0.010897 -0.005932 0.001817 0.001862 -0.001385 0.000567
# 2 -0.005932 0.022512 -0.016131 -0.003441 0.021315 0.002439
# 3 0.001817 -0.016131 0.031291 -0.003869 -0.038765 -0.001525
# 4 0.001862 -0.003441 -0.003869 0.025353 0.004489 0.004942
# 5 -0.001385 0.021315 -0.038765 0.004489 0.081300 0.006635
# 6 0.000567 0.002439 -0.001525 0.004942 0.006635 0.029203
#
#
# Mechanical properties :
#
#
# Convention : Reuss Voigt Hill
#
# Bulk Modulus (GPa) = 41.30991 54.60116 47.95554
# Shear Modulus (GPa) = 20.07079 37.00241 28.53660
#
# Velocity S-wave (km/s) = 2.95040 4.00603 3.51804
# Velocity P-wave (km/s) = 5.43350 6.71407 6.10744
#
# Compressibility (1/GPa) = 0.02420726
#
# Stress axis : x y z
#
# Youngs Moduli (GPa) = 91.76990 44.42036 31.95777
#
# Poissons Ratio (x) = 0.26352 -0.05807
# Poissons Ratio (y) = 0.54441 0.51552
# Poissons Ratio (z) = -0.16676 0.71656
#
# Static dielectric constant tensor:
#      x y z
#    x 1.664580 0.512180 0.339920 
#    y 0.512180 1.098030 -0.425350 
#    z 0.339920 -0.425350 1.715220 
# 
# From -- ./inp_files/186461.got.cif
#   From: 2010.05.17/outbox.cif.g08.bks.cpg/sg2_94_cif.got.tgz:186461.got - 2010.06.03 11:33:40.
