data_PCOD9012846
_publ_section_title
;
Structure prediction by ZEFSAII (Michael W. Deem and Ramdas Pophale) SiO2 
 PCOD9012846
Probable space group: P -1
;
_chemical_formula_sum "Si O2"
_cell_formula_units_Z 16
_cell_length_a 11.654973
_cell_length_b 5.851074
_cell_length_c 12.194782
_cell_angle_alpha 58.677860
_cell_angle_beta 69.718691
_cell_angle_gamma 75.949008
_cell_volume 664.331443
_symmetry_space_group_name_H-M "P -1"
_symmetry_group_IT_number 2
_symmetry_cell_setting 'triclinic'
loop_
_space_group_symop_operation_xyz
x,y,z
-x,-y,-z
loop_
_atom_site_type_symbol
_atom_site_label
_atom_site_fract_x
_atom_site_fract_y
_atom_site_fract_z
Si Si1 0.296312 0.993661 0.665887
Si Si2 0.924374 0.635617 0.630039
Si Si3 0.918914 0.126409 0.095118
Si Si4 0.174776 0.794192 0.556280
Si Si5 0.510685 0.674405 0.785189
Si Si6 0.131787 0.273323 0.124946
Si Si7 0.717374 0.462740 0.606833
Si Si8 0.602635 0.811001 0.953907
O O1 0.200994 0.015500 0.793306
O O2 0.242532 0.777587 0.653853
O O3 0.430819 0.894546 0.686876
O O4 0.296472 0.264217 0.528624
O O5 0.868138 0.675351 0.758908
O O6 0.846125 0.435420 0.637972
O O7 0.069551 0.592507 0.615684
O O8 0.896217 0.912652 0.503617
O O9 0.013464 0.127139 0.164941
O O10 0.879695 0.434767 0.001034
O O11 0.000000 0.000000 0.000000
O O12 0.272774 0.762778 0.433353
O O13 0.607699 0.499787 0.720715
O O14 0.576542 0.795243 0.837327
O O15 0.414757 0.481887 0.917575
O O16 0.259570 0.118206 0.087767
O O17 0.500000 0.000000 0.000000
#
# Coordination Sequence:
#
# PCOD9012846 Si02
#       8
#     2   2   2   2   2   2   2   2
#     4  11  24  43  60  93 130 159 213 261 309 381
#     4  10  21  41  61  93 128 153 210 258 312 375
#     4  11  26  41  69  97 128 169 206 265 326 375
#     4  10  23  40  62  92 125 164 202 263 311 377
#     4  11  25  45  61  94 128 164 219 262 302 384
#     4  11  23  44  66  96 129 162 216 264 311 387
#     4  11  24  39  68  89 122 171 207 254 319 370
#     4  11  26  43  68  93 128 172 213 264 315 371
#
# _framework density 24.084363
#
# number of rings (size 3 to 8) (size 9 to 14) (size 15 to 20)
#    0.000    1.250    3.750    0.750    5.250    2.500 
#    0.000    0.000    0.000    0.000    0.000    0.000 
#    0.000    0.000    0.000    0.000    0.000    0.000 
#
# Total GULP energy -89547.759816 kJ/mol
# GULP energy per Si atom -5596.734989 kJ/mol
# Density = 2.402955 g / cm^3
# Si number density = 24.084363 Si / 1000 Ang^3
#
#
#
# Elastic Constant Matrix: (Units=GPa)
#
#
# Indices 1 2 3 4 5 6 
#
# 1 66.2934 19.4081 24.5615 0.3134 -5.6985 -24.7767
# 2 19.4081 49.4587 12.3741 17.8461 0.0497 -22.2046
# 3 24.5615 12.3741 97.9082 14.9278 -2.3242 -5.6084
# 4 0.3134 17.8461 14.9278 51.7477 -6.6000 -4.9624
# 5 -5.6985 0.0497 -2.3242 -6.6000 40.6176 2.4805
# 6 -24.7767 -22.2046 -5.6084 -4.9624 2.4805 26.6191
#
#
#
# Elastic Compliance Matrix: (Units=1/GPa)
#
#
# Indices 1 2 3 4 5 6 
#
# 1 0.026355 0.000593 -0.005840 0.003973 0.002524 0.024300
# 2 0.000593 0.037450 -0.001728 -0.010002 -0.003512 0.029890
# 3 -0.005840 -0.001728 0.012123 -0.003385 -0.000373 -0.004920
# 4 0.003973 -0.010002 -0.003385 0.024164 0.004379 -0.001262
# 5 0.002524 -0.003512 -0.000373 0.004379 0.025806 -0.002247
# 6 0.024300 0.029890 -0.004920 -0.001262 -0.002247 0.084056
#
#
# Mechanical properties :
#
#
# Convention : Reuss Voigt Hill
#
# Bulk Modulus (GPa) = 16.13499 36.26085 26.19792
# Shear Modulus (GPa) = 20.44453 34.28463 27.36458
#
# Velocity S-wave (km/s) = 2.91670 3.77705 3.37441
# Velocity P-wave (km/s) = 4.24933 5.84037 5.10719
#
# Compressibility (1/GPa) = 0.06197709
#
# Stress axis : x y z
#
# Youngs Moduli (GPa) = 37.94348 26.70197 82.49058
#
# Poissons Ratio (x) = -0.01583 0.48176
# Poissons Ratio (y) = -0.02250 0.14255
# Poissons Ratio (z) = 0.22160 0.04614
#
# Static dielectric constant tensor:
#      x y z
#    x 1.897630 0.037660 -0.032220 
#    y 0.037660 1.939480 -0.022220 
#    z -0.032220 -0.022220 1.929600 
# 
# From -- ./inp_files/71793.got.cif
#   From: 2010.05.17/outbox.cif.g08.bks.cpg/sg2_36_cif.got.tgz:71793.got - 2010.06.03 11:33:40.
