data_PCOD9012202
_publ_section_title
;
Structure prediction by ZEFSAII (Michael W. Deem and Ramdas Pophale) SiO2 
 PCOD9012202
Probable space group: P -1
;
_chemical_formula_sum "Si O2"
_cell_formula_units_Z 14
_cell_length_a 4.861847
_cell_length_b 5.786842
_cell_length_c 24.299219
_cell_angle_alpha 89.675635
_cell_angle_beta 53.778782
_cell_angle_gamma 91.834621
_cell_volume 550.991766
_symmetry_space_group_name_H-M "P -1"
_symmetry_group_IT_number 2
_symmetry_cell_setting 'triclinic'
loop_
_space_group_symop_operation_xyz
x,y,z
-x,-y,-z
loop_
_atom_site_type_symbol
_atom_site_label
_atom_site_fract_x
_atom_site_fract_y
_atom_site_fract_z
Si Si1 0.329379 0.594545 0.075354
Si Si2 0.703925 0.927910 0.282344
Si Si3 0.132673 0.899195 0.427891
Si Si4 0.692931 0.255022 0.178981
Si Si5 0.617643 0.606941 0.428552
Si Si6 0.156807 0.099560 0.925089
Si Si7 0.188479 0.591972 0.283036
O O1 0.611101 0.674441 0.086428
O O2 0.031252 0.418564 0.130598
O O3 0.145601 0.825665 0.078710
O O4 0.500000 0.500000 0.000000
O O5 0.749278 0.104360 0.227142
O O6 0.359522 0.402328 0.226489
O O7 0.446124 0.026028 0.358490
O O8 0.492666 0.705334 0.282976
O O9 0.299389 0.661736 0.428244
O O10 0.823562 0.844420 0.422813
O O11 0.000000 0.000000 0.500000
O O12 0.028299 0.809608 0.270463
O O13 0.651780 0.091271 0.130927
O O14 0.500000 0.500000 0.500000
O O15 0.894760 0.487094 0.358338
O O16 0.000000 0.000000 0.000000
#
# Coordination Sequence:
#
# PCOD9012202 Si02
#       7
#     2   2   2   2   2   2   2
#     4  12  28  51  79 114 145 188 252 299 368 453
#     4  10  25  48  68 107 150 191 249 300 368 446
#     4  10  21  40  68  99 137 184 241 302 356 428
#     4  12  28  48  82 104 156 202 236 318 376 432
#     4  10  21  40  68  99 137 184 241 302 356 428
#     4  12  28  51  79 114 145 188 252 299 368 453
#     4  10  25  48  68 107 150 191 249 300 368 446
#
# _framework density 25.408723999999999
#
# number of rings (size 3 to 8) (size 9 to 14) (size 15 to 20)
#    0.000    1.143    1.429    2.571    2.000    8.000 
#    0.000    0.000    0.000    0.000    0.000    0.000 
#    0.000    0.000    0.000    0.000    0.000    0.000 
#
# Total GULP energy -78494.723763 kJ/mol
# GULP energy per Si atom -5606.765983 kJ/mol
# Density = 2.535089 g / cm^3
# Si number density = 25.408724 Si / 1000 Ang^3
#
#
#
# Elastic Constant Matrix: (Units=GPa)
#
#
# Indices 1 2 3 4 5 6 
#
# 1 87.8521 6.9708 25.5329 5.6525 6.8954 3.6988
# 2 6.9708 70.2961 80.5485 16.9207 -6.0487 3.0197
# 3 25.5329 80.5485 253.1204 10.3186 1.2301 -15.2889
# 4 5.6525 16.9207 10.3186 59.8525 -12.0462 5.1696
# 5 6.8954 -6.0487 1.2301 -12.0462 38.7417 -1.5121
# 6 3.6988 3.0197 -15.2889 5.1696 -1.5121 38.2047
#
#
#
# Elastic Compliance Matrix: (Units=1/GPa)
#
#
# Indices 1 2 3 4 5 6 
#
# 1 0.012120 0.000696 -0.001477 -0.001445 -0.002518 -0.001724
# 2 0.000696 0.025038 -0.008125 -0.004878 0.002349 -0.004545
# 3 -0.001477 -0.008125 0.006862 0.000790 -0.000845 0.003391
# 4 -0.001445 -0.004878 0.000790 0.019311 0.005414 -0.001557
# 5 -0.002518 0.002349 -0.000845 0.005414 0.028342 0.000109
# 6 -0.001724 -0.004545 0.003391 -0.001557 0.000109 0.028273
#
#
# Mechanical properties :
#
#
# Convention : Reuss Voigt Hill
#
# Bulk Modulus (GPa) = 38.15728 70.81922 54.48825
# Shear Modulus (GPa) = 34.13123 47.24087 40.68605
#
# Velocity S-wave (km/s) = 3.66906 4.31657 4.00592
# Velocity P-wave (km/s) = 5.74451 7.26472 6.54888
#
# Compressibility (1/GPa) = 0.02620732
#
# Stress axis : x y z
#
# Youngs Moduli (GPa) = 82.50841 39.93941 145.73295
#
# Poissons Ratio (x) = -0.02778 0.21523
# Poissons Ratio (y) = -0.05738 1.18406
# Poissons Ratio (z) = 0.12186 0.32450
#
# Static dielectric constant tensor:
#      x y z
#    x 1.922380 -0.006490 -0.026250 
#    y -0.006490 2.011940 0.008700 
#    z -0.026250 0.008700 2.022480 
# 
# From -- ./inp_files/614708.got.cif
#   From: 2010.05.17/outbox.cif.g08.bks.cpg/sg2_308_cif.got.tgz:614708.got - 2010.06.03 11:33:40.
