data_PCOD9012655
_publ_section_title
;
Structure prediction by ZEFSAII (Michael W. Deem and Ramdas Pophale) SiO2 
 PCOD9012655
Probable space group: P -1
;
_chemical_formula_sum "Si O2"
_cell_formula_units_Z 14
_cell_length_a 5.602298
_cell_length_b 13.463001
_cell_length_c 9.660195
_cell_angle_alpha 103.253167
_cell_angle_beta 112.380103
_cell_angle_gamma 53.723533
_cell_volume 543.132581
_symmetry_space_group_name_H-M "P -1"
_symmetry_group_IT_number 2
_symmetry_cell_setting 'triclinic'
loop_
_space_group_symop_operation_xyz
x,y,z
-x,-y,-z
loop_
_atom_site_type_symbol
_atom_site_label
_atom_site_fract_x
_atom_site_fract_y
_atom_site_fract_z
Si Si1 0.153004 0.613625 0.426224
Si Si2 0.158747 0.924679 0.681784
Si Si3 0.151710 0.698734 0.946444
Si Si4 0.639838 0.074840 0.990552
Si Si5 0.938156 0.818358 0.234903
Si Si6 0.184541 0.455558 0.884402
Si Si7 0.218918 0.182905 0.370741
O O1 0.500000 0.500000 0.500000
O O2 0.147641 0.714318 0.358497
O O3 0.984267 0.566365 0.281232
O O4 0.946768 0.691083 0.537429
O O5 0.420570 0.875117 0.603697
O O6 0.975114 0.931381 0.283988
O O7 0.892388 0.897513 0.604834
O O8 0.352195 0.859231 0.846201
O O9 0.492556 0.668011 0.040091
O O10 0.000069 0.752807 0.078691
O O11 0.216341 0.566201 0.883714
O O12 0.946239 0.785545 0.805451
O O13 0.431281 0.126354 0.821173
O O14 0.500000 0.000000 0.000000
O O15 0.000000 0.000000 0.000000
O O16 0.000000 0.500000 0.000000
#
# Coordination Sequence:
#
# PCOD9012655 Si02
#       7
#     2   2   2   2   2   2   2
#     4  12  30  51  82 118 165 221 274 342 419 494
#     4  11  26  48  79 119 166 211 268 331 408 492
#     4  11  26  46  83 119 152 214 276 355 404 483
#     4  10  21  40  73 113 149 197 265 332 384 460
#     4  11  25  48  79 121 157 215 275 335 405 497
#     4  11  25  50  78 113 155 209 291 338 408 482
#     4  12  29  49  80 120 170 211 266 336 420 492
#
# _framework density 25.776395999999998
#
# number of rings (size 3 to 8) (size 9 to 14) (size 15 to 20)
#    0.000    0.857    2.857    2.571   10.000    4.000 
#    0.000    0.000    0.000    0.000    0.000    0.000 
#    0.000    0.000    0.000    0.000    0.000    0.000 
#
# Total GULP energy -78331.908589 kJ/mol
# GULP energy per Si atom -5595.136328 kJ/mol
# Density = 2.571773 g / cm^3
# Si number density = 25.776396 Si / 1000 Ang^3
#
#
#
# Elastic Constant Matrix: (Units=GPa)
#
#
# Indices 1 2 3 4 5 6 
#
# 1 147.8209 46.0399 47.3303 7.9386 13.6295 -5.2304
# 2 46.0399 99.6516 50.8696 -2.2770 -2.0669 7.2251
# 3 47.3303 50.8696 154.6963 5.4749 1.5046 -12.6856
# 4 7.9386 -2.2770 5.4749 61.5231 2.8062 -4.4559
# 5 13.6295 -2.0669 1.5046 2.8062 43.8708 7.3833
# 6 -5.2304 7.2251 -12.6856 -4.4559 7.3833 45.3281
#
#
#
# Elastic Compliance Matrix: (Units=1/GPa)
#
#
# Indices 1 2 3 4 5 6 
#
# 1 0.008666 -0.003543 -0.001294 -0.000879 -0.003030 0.001610
# 2 -0.003543 0.014043 -0.003924 0.000917 0.002523 -0.004066
# 3 -0.001294 -0.003924 0.008408 -0.000495 -0.000522 0.002866
# 4 -0.000879 0.000917 -0.000495 0.016591 -0.000964 0.001402
# 5 -0.003030 0.002523 -0.000522 -0.000964 0.024780 -0.005029
# 6 0.001610 -0.004066 0.002866 0.001402 -0.005029 0.024654
#
#
# Mechanical properties :
#
#
# Convention : Reuss Voigt Hill
#
# Bulk Modulus (GPa) = 73.55499 76.73873 75.14686
# Shear Modulus (GPa) = 41.94731 47.33968 44.64350
#
# Velocity S-wave (km/s) = 4.03842 4.29015 4.16619
# Velocity P-wave (km/s) = 7.09527 7.37401 7.23599
#
# Compressibility (1/GPa) = 0.01359527
#
# Stress axis : x y z
#
# Youngs Moduli (GPa) = 115.39030 71.20857 118.93177
#
# Poissons Ratio (x) = 0.25230 0.15388
# Poissons Ratio (y) = 0.40883 0.46673
# Poissons Ratio (z) = 0.14929 0.27945
#
# Static dielectric constant tensor:
#      x y z
#    x 3.833720 -3.161440 -0.087950 
#    y -3.161440 8.060810 0.070000 
#    z -0.087950 0.070000 2.039460 
# 
# From -- ./inp_files/139266.got.cif
#   From: 2010.05.17/outbox.cif.g08.bks.cpg/sg2_70_cif.got.tgz:139266.got - 2010.06.03 11:33:40.
