data_PCOD9012272
_publ_section_title
;
Structure prediction by ZEFSAII (Michael W. Deem and Ramdas Pophale) SiO2 
 PCOD9012272
Probable space group: P -1
;
_chemical_formula_sum "Si O2"
_cell_formula_units_Z 16
_cell_length_a 11.242517
_cell_length_b 11.363871
_cell_length_c 14.881159
_cell_angle_alpha 31.180288
_cell_angle_beta 84.036363
_cell_angle_gamma 63.548317
_cell_volume 706.320337
_symmetry_space_group_name_H-M "P -1"
_symmetry_group_IT_number 2
_symmetry_cell_setting 'triclinic'
loop_
_space_group_symop_operation_xyz
x,y,z
-x,-y,-z
loop_
_atom_site_type_symbol
_atom_site_label
_atom_site_fract_x
_atom_site_fract_y
_atom_site_fract_z
Si Si1 0.500937 0.709759 0.490566
Si Si2 0.421761 0.410342 0.819767
Si Si3 0.969673 0.702952 0.286313
Si Si4 0.280104 0.261316 0.444478
Si Si5 0.749578 0.075640 0.777232
Si Si6 0.672833 0.322279 0.151858
Si Si7 0.724649 0.766960 0.143774
Si Si8 0.863363 0.295708 0.995678
O O1 0.490013 0.548617 0.679731
O O2 0.556446 0.869323 0.429888
O O3 0.329302 0.911037 0.318202
O O4 0.639865 0.433223 0.589451
O O5 0.361231 0.521469 0.851680
O O6 0.282197 0.486179 0.716349
O O7 0.571330 0.032767 0.046750
O O8 0.881457 0.659417 0.250323
O O9 0.000000 0.500000 0.500000
O O10 0.134949 0.569619 0.312530
O O11 0.867164 0.054568 0.096661
O O12 0.248278 0.387364 0.262973
O O13 0.256884 0.022952 0.610351
O O14 0.712707 0.926136 0.949516
O O15 0.945638 0.873733 0.896028
O O16 0.500000 0.500000 0.000000
O O17 0.785280 0.329117 0.074878
#
# Coordination Sequence:
#
# PCOD9012272 Si02
#       8
#     2   2   2   2   2   2   2   2
#     4  10  22  39  69 102 140 181 227 296 352 416
#     4  10  24  44  68  97 139 183 235 289 353 423
#     4  12  23  39  75 109 136 179 240 295 356 413
#     4  12  25  44  72 104 143 188 237 296 355 418
#     4  10  21  40  69 106 137 176 234 293 357 413
#     4  12  28  47  70 104 146 195 239 287 358 435
#     4  10  22  43  71 101 135 177 231 306 352 410
#     4  12  24  46  74 108 145 185 238 297 355 424
#
# _framework density 22.652609999999999
#
# number of rings (size 3 to 8) (size 9 to 14) (size 15 to 20)
#    0.000    1.000    3.750    3.375    3.500    3.000 
#    0.000    3.125    0.000    0.000    0.000    0.000 
#    0.000    0.000    0.000    0.000    0.000    0.000 
#
# Total GULP energy -89487.636906 kJ/mol
# GULP energy per Si atom -5592.977307 kJ/mol
# Density = 2.260105 g / cm^3
# Si number density = 22.652610 Si / 1000 Ang^3
#
#
#
# Elastic Constant Matrix: (Units=GPa)
#
#
# Indices 1 2 3 4 5 6 
#
# 1 132.9061 44.4170 17.8159 10.6905 19.9080 3.6859
# 2 44.4170 143.2164 30.1171 16.1746 -1.1732 -9.2055
# 3 17.8159 30.1171 79.0697 22.4911 3.9225 -0.3227
# 4 10.6905 16.1746 22.4911 26.7751 -2.2128 0.7275
# 5 19.9080 -1.1732 3.9225 -2.2128 29.8482 12.1818
# 6 3.6859 -9.2055 -0.3227 0.7275 12.1818 31.4648
#
#
#
# Elastic Compliance Matrix: (Units=1/GPa)
#
#
# Indices 1 2 3 4 5 6 
#
# 1 0.009699 -0.002686 0.000016 -0.002881 -0.007165 0.000919
# 2 -0.002686 0.008687 -0.002074 -0.002396 0.001245 0.002408
# 3 0.000016 -0.002074 0.017595 -0.013905 -0.004028 0.001453
# 4 -0.002881 -0.002396 -0.013905 0.052586 0.009805 -0.005518
# 5 -0.007165 0.001245 -0.004028 0.009805 0.046563 -0.017092
# 6 0.000919 0.002408 0.001453 -0.005518 -0.017092 0.039138
#
#
# Mechanical properties :
#
#
# Convention : Reuss Voigt Hill
#
# Bulk Modulus (GPa) = 37.74523 59.98804 48.86664
# Shear Modulus (GPa) = 25.96236 35.14042 30.55139
#
# Velocity S-wave (km/s) = 3.38910 3.94290 3.67644
# Velocity P-wave (km/s) = 5.65804 6.87516 6.29608
#
# Compressibility (1/GPa) = 0.02649341
#
# Stress axis : x y z
#
# Youngs Moduli (GPa) = 103.10297 115.11260 56.83584
#
# Poissons Ratio (x) = 0.30916 -0.00093
# Poissons Ratio (y) = 0.27691 0.11789
# Poissons Ratio (z) = -0.00168 0.23877
#
# Static dielectric constant tensor:
#      x y z
#    x 1.871710 0.008640 0.045630 
#    y 0.008640 1.818910 -0.021720 
#    z 0.045630 -0.021720 1.878540 
# 
# From -- ./inp_files/519492.got.cif
#   From: 2010.05.17/outbox.cif.g08.bks.cpg/sg2_260_cif.got.tgz:519492.got - 2010.06.03 11:33:40.
