data_PCOD9012738
_publ_section_title
;
Structure prediction by ZEFSAII (Michael W. Deem and Ramdas Pophale) SiO2 
 PCOD9012738
Probable space group: P -1
;
_chemical_formula_sum "Si O2"
_cell_formula_units_Z 14
_cell_length_a 7.155295
_cell_length_b 9.651784
_cell_length_c 14.431471
_cell_angle_alpha 121.905168
_cell_angle_beta 55.530442
_cell_angle_gamma 134.207381
_cell_volume 573.675452
_symmetry_space_group_name_H-M "P -1"
_symmetry_group_IT_number 2
_symmetry_cell_setting 'triclinic'
loop_
_space_group_symop_operation_xyz
x,y,z
-x,-y,-z
loop_
_atom_site_type_symbol
_atom_site_label
_atom_site_fract_x
_atom_site_fract_y
_atom_site_fract_z
Si Si1 0.845015 0.691202 0.128950
Si Si2 0.401309 0.332025 0.045632
Si Si3 0.588528 0.285220 0.637443
Si Si4 0.021136 0.259810 0.291441
Si Si5 0.305062 0.928689 0.939633
Si Si6 0.622893 0.945963 0.564545
Si Si7 0.227885 0.034600 0.269819
O O1 0.666543 0.452740 0.085152
O O2 0.608268 0.728405 0.230380
O O3 0.011478 0.786344 0.020691
O O4 0.059126 0.810057 0.195185
O O5 0.136038 0.275106 0.160807
O O6 0.500000 0.500000 0.000000
O O7 0.347489 0.126545 0.956825
O O8 0.816355 0.515141 0.639572
O O9 0.401159 0.180616 0.562184
O O10 0.720000 0.165029 0.582553
O O11 0.114808 0.142970 0.284220
O O12 0.698120 0.153991 0.353966
O O13 0.449519 0.858522 0.807935
O O14 0.500000 0.000000 0.000000
O O15 0.781322 0.953158 0.613345
#
# Coordination Sequence:
#
# PCOD9012738 Si02
#       7
#     2   2   2   2   2   2   2
#     4  10  22  44  63  93 136 168 210 276 309 393
#     4  11  24  38  66  98 129 178 214 261 332 379
#     4  10  23  45  68  96 131 167 225 272 321 384
#     4  11  23  47  61  98 137 165 217 279 314 394
#     4  10  21  41  59  94 131 172 206 261 324 384
#     4  11  24  45  69  96 127 176 218 270 329 386
#     4  11  24  42  69  95 133 178 211 263 340 377
#
# _framework density 24.404039999999998
#
# number of rings (size 3 to 8) (size 9 to 14) (size 15 to 20)
#    0.000    1.429    4.286    0.429    6.000    4.000 
#    5.143    0.000    0.000    0.000    0.000    0.000 
#    0.000    0.000    0.000    0.000    0.000    0.000 
#
# Total GULP energy -78315.340319 kJ/mol
# GULP energy per Si atom -5593.952880 kJ/mol
# Density = 2.434849 g / cm^3
# Si number density = 24.404040 Si / 1000 Ang^3
#
#
#
# Elastic Constant Matrix: (Units=GPa)
#
#
# Indices 1 2 3 4 5 6 
#
# 1 74.4860 27.4580 22.6479 -10.9930 7.8626 1.7881
# 2 27.4580 122.4569 22.6082 3.7574 -2.8863 13.4670
# 3 22.6479 22.6082 127.9983 -20.5291 9.8009 -5.8006
# 4 -10.9930 3.7574 -20.5291 38.1744 3.3275 3.1941
# 5 7.8626 -2.8863 9.8009 3.3275 42.3531 -13.6198
# 6 1.7881 13.4670 -5.8006 3.1941 -13.6198 25.5376
#
#
#
# Elastic Compliance Matrix: (Units=1/GPa)
#
#
# Indices 1 2 3 4 5 6 
#
# 1 0.016286 -0.003390 -0.001293 0.004894 -0.004131 -0.002462
# 2 -0.003390 0.009881 -0.001801 -0.002539 0.000350 -0.004878
# 3 -0.001293 -0.001801 0.009360 0.004881 -0.001944 0.001519
# 4 0.004894 -0.002539 0.004881 0.031471 -0.006364 -0.005225
# 5 -0.004131 0.000350 -0.001944 -0.006364 0.030778 0.016874
# 6 -0.002462 -0.004878 0.001519 -0.005225 0.016874 0.051900
#
#
# Mechanical properties :
#
#
# Convention : Reuss Voigt Hill
#
# Bulk Modulus (GPa) = 44.32694 52.26326 48.29510
# Shear Modulus (GPa) = 29.38353 38.02816 33.70585
#
# Velocity S-wave (km/s) = 3.47370 3.95178 3.72043
# Velocity P-wave (km/s) = 5.85593 6.50265 6.18774
#
# Compressibility (1/GPa) = 0.02255965
#
# Stress axis : x y z
#
# Youngs Moduli (GPa) = 61.40414 101.20146 106.83852
#
# Poissons Ratio (x) = 0.34304 0.13816
# Poissons Ratio (y) = 0.20814 0.19239
# Poissons Ratio (z) = 0.07940 0.18224
#
# Static dielectric constant tensor:
#      x y z
#    x 2.037800 0.073640 0.002170 
#    y 0.073640 1.916260 -0.013400 
#    z 0.002170 -0.013400 2.018550 
# 
# From -- ./inp_files/480718.got.cif
#   From: 2010.05.17/outbox.cif.g08.bks.cpg/sg2_241_cif.got.tgz:480718.got - 2010.06.03 11:33:40.
