data_PCOD9012143
_publ_section_title
;
Structure prediction by ZEFSAII (Michael W. Deem and Ramdas Pophale) SiO2 
 PCOD9012143
Probable space group: P -1
;
_chemical_formula_sum "Si O2"
_cell_formula_units_Z 16
_cell_length_a 10.631821
_cell_length_b 10.761801
_cell_length_c 7.951063
_cell_angle_alpha 51.975844
_cell_angle_beta 74.835914
_cell_angle_gamma 83.016065
_cell_volume 690.760174
_symmetry_space_group_name_H-M "P -1"
_symmetry_group_IT_number 2
_symmetry_cell_setting 'triclinic'
loop_
_space_group_symop_operation_xyz
x,y,z
-x,-y,-z
loop_
_atom_site_type_symbol
_atom_site_label
_atom_site_fract_x
_atom_site_fract_y
_atom_site_fract_z
Si Si1 0.194618 0.911365 0.938434
Si Si2 0.522146 0.433805 0.812959
Si Si3 0.500064 0.069042 0.128863
Si Si4 0.304643 0.561603 0.558875
Si Si5 0.745200 0.386892 0.003034
Si Si6 0.884177 0.608919 0.998112
Si Si7 0.744720 0.139622 0.515914
Si Si8 0.947868 0.968750 0.774660
O O1 0.351862 0.947744 0.838822
O O2 0.184451 0.718074 0.077344
O O3 0.098424 0.983257 0.771670
O O4 0.137503 0.982002 0.071947
O O5 0.410356 0.535418 0.691226
O O6 0.638131 0.484090 0.599571
O O7 0.471654 0.252068 0.960310
O O8 0.599610 0.418554 0.971115
O O9 0.380088 0.983569 0.344679
O O10 0.500000 0.000000 0.000000
O O11 0.179974 0.461748 0.750112
O O12 0.282384 0.745827 0.412950
O O13 0.795779 0.558646 0.909334
O O14 0.751755 0.259776 0.257707
O O15 0.917359 0.789093 0.876274
O O16 0.000000 0.500000 0.000000
O O17 0.883326 0.070080 0.566345
#
# Coordination Sequence:
#
# PCOD9012143 Si02
#       8
#     2   2   2   2   2   2   2   2
#     4  10  22  38  67  96 131 168 225 276 321 400
#     4  10  21  40  68  97 131 175 223 282 336 400
#     4  11  19  38  68 100 132 172 221 280 334 397
#     4  10  22  40  69  97 135 174 226 276 344 398
#     4  10  23  44  67  97 137 171 220 282 339 395
#     4  11  23  43  67  93 138 181 215 273 339 407
#     4  11  22  38  68  98 136 175 221 276 344 400
#     4  11  22  42  69  96 130 182 223 270 339 399
#
# _framework density 23.162889
#
# number of rings (size 3 to 8) (size 9 to 14) (size 15 to 20)
#    0.000    1.500    3.750    1.500    0.000    4.500 
#    0.000    4.375    2.750    0.000    0.000    0.000 
#    0.000    0.000    0.000    0.000    0.000    0.000 
#
# Total GULP energy -89186.662640 kJ/mol
# GULP energy per Si atom -5574.166415 kJ/mol
# Density = 2.311017 g / cm^3
# Si number density = 23.162889 Si / 1000 Ang^3
#
#
#
# Elastic Constant Matrix: (Units=GPa)
#
#
# Indices 1 2 3 4 5 6 
#
# 1 148.2684 29.8925 48.8859 -16.6720 30.6031 -16.0454
# 2 29.8925 108.9606 15.4596 -14.6994 10.9450 2.0603
# 3 48.8859 15.4596 83.8453 -3.4083 12.6465 0.2717
# 4 -16.6720 -14.6994 -3.4083 29.1258 -0.8764 3.9610
# 5 30.6031 10.9450 12.6465 -0.8764 47.1382 1.2967
# 6 -16.0454 2.0603 0.2717 3.9610 1.2967 47.8141
#
#
#
# Elastic Compliance Matrix: (Units=1/GPa)
#
#
# Indices 1 2 3 4 5 6 
#
# 1 0.010554 -0.001150 -0.004986 0.004255 -0.005262 0.003410
# 2 -0.001150 0.010390 -0.000856 0.004606 -0.001319 -0.001174
# 3 -0.004986 -0.000856 0.015030 -0.001327 -0.000578 -0.001596
# 4 0.004255 0.004606 -0.001327 0.039120 -0.002696 -0.001931
# 5 -0.005262 -0.001319 -0.000578 -0.002696 0.025101 -0.002163
# 6 0.003410 -0.001174 -0.001596 -0.001931 -0.002163 0.022337
#
#
# Mechanical properties :
#
#
# Convention : Reuss Voigt Hill
#
# Bulk Modulus (GPa) = 45.47154 58.83892 52.15523
# Shear Modulus (GPa) = 34.75977 41.27138 38.01558
#
# Velocity S-wave (km/s) = 3.87805 4.22570 4.05560
# Velocity P-wave (km/s) = 6.30287 7.01898 6.67054
#
# Compressibility (1/GPa) = 0.02199178
#
# Stress axis : x y z
#
# Youngs Moduli (GPa) = 94.75323 96.24219 66.53479
#
# Poissons Ratio (x) = 0.11066 0.33173
# Poissons Ratio (y) = 0.10895 0.05692
# Poissons Ratio (z) = 0.47242 0.08234
#
# Static dielectric constant tensor:
#      x y z
#    x 2.017980 0.042410 -0.057920 
#    y 0.042410 2.002350 0.051550 
#    z -0.057920 0.051550 1.886970 
# 
# From -- ./inp_files/256355.got.cif
#   From: 2010.05.17/outbox.cif.g08.bks.cpg/sg2_129_cif.got.tgz:256355.got - 2010.06.03 11:33:40.
