data_PCOD9012286
_publ_section_title
;
Structure prediction by ZEFSAII (Michael W. Deem and Ramdas Pophale) SiO2 
 PCOD9012286
Probable space group: P -1
;
_chemical_formula_sum "Si O2"
_cell_formula_units_Z 16
_cell_length_a 8.836938
_cell_length_b 8.402481
_cell_length_c 14.424787
_cell_angle_alpha 129.112951
_cell_angle_beta 131.412859
_cell_angle_gamma 55.704236
_cell_volume 603.272160
_symmetry_space_group_name_H-M "P -1"
_symmetry_group_IT_number 2
_symmetry_cell_setting 'triclinic'
loop_
_space_group_symop_operation_xyz
x,y,z
-x,-y,-z
loop_
_atom_site_type_symbol
_atom_site_label
_atom_site_fract_x
_atom_site_fract_y
_atom_site_fract_z
Si Si1 0.293228 0.814492 0.719019
Si Si2 0.746906 0.431851 0.124274
Si Si3 0.293760 0.690667 0.466320
Si Si4 0.436301 0.032037 0.367292
Si Si5 0.329567 0.021971 0.105920
Si Si6 0.588950 0.423684 0.806306
Si Si7 0.065815 0.491210 0.139211
Si Si8 0.969812 0.679097 0.630097
O O1 0.223300 0.763774 0.569317
O O2 0.439083 0.977473 0.837363
O O3 0.445650 0.607147 0.752071
O O4 0.089712 0.857375 0.715165
O O5 0.529738 0.546829 0.129830
O O6 0.922312 0.426468 0.271608
O O7 0.834333 0.522646 0.101486
O O8 0.740092 0.188007 0.021607
O O9 0.500000 0.500000 0.500000
O O10 0.350516 0.900135 0.526524
O O11 0.169713 0.602113 0.304956
O O12 0.351183 0.039872 0.230906
O O13 0.564505 0.196755 0.682035
O O14 0.268587 0.213627 0.415812
O O15 0.167669 0.237217 0.088142
O O16 0.827967 0.432193 0.882088
O O17 0.000000 0.500000 0.500000
#
# Coordination Sequence:
#
# PCOD9012286 Si02
#       8
#     2   2   2   2   2   2   2   2
#     4   9  20  38  63  91 125 163 213 256 309 367
#     4  11  23  43  67  90 127 166 220 256 304 375
#     4  11  17  38  63  89 121 166 208 253 303 376
#     4  11  23  40  64  93 130 161 206 258 327 369
#     4  10  21  40  69  88 118 174 217 255 304 371
#     4  10  24  40  59  97 129 165 199 266 324 366
#     4  11  21  40  65  92 125 168 213 259 309 369
#     4  11  22  37  65  96 122 159 215 262 302 373
#
# _framework density 26.522027999999999
#
# number of rings (size 3 to 8) (size 9 to 14) (size 15 to 20)
#    0.000    1.500    5.000    1.875    1.750    5.500 
#    4.500    1.250    0.000    0.000    0.000    0.000 
#    0.000    0.000    0.000    0.000    0.000    0.000 
#
# Total GULP energy -89553.211362 kJ/mol
# GULP energy per Si atom -5597.075710 kJ/mol
# Density = 2.646166 g / cm^3
# Si number density = 26.522028 Si / 1000 Ang^3
#
#
#
# Elastic Constant Matrix: (Units=GPa)
#
#
# Indices 1 2 3 4 5 6 
#
# 1 216.6542 27.0678 57.6295 -10.4183 5.4536 18.1080
# 2 27.0678 71.5533 27.9793 12.3948 10.1659 8.2324
# 3 57.6295 27.9793 78.3212 22.7902 -3.7741 0.0552
# 4 -10.4183 12.3948 22.7902 37.3640 8.6285 4.0922
# 5 5.4536 10.1659 -3.7741 8.6285 44.1893 -3.7017
# 6 18.1080 8.2324 0.0552 4.0922 -3.7017 34.2399
#
#
#
# Elastic Compliance Matrix: (Units=1/GPa)
#
#
# Indices 1 2 3 4 5 6 
#
# 1 0.007920 0.000044 -0.008652 0.009009 -0.003962 -0.005690
# 2 0.000044 0.017840 -0.006588 -0.000196 -0.005038 -0.004823
# 3 -0.008652 -0.006588 0.027944 -0.020589 0.009797 0.009634
# 4 0.009009 -0.000196 -0.020589 0.046124 -0.012802 -0.011581
# 5 -0.003962 -0.005038 0.009797 -0.012802 0.028274 0.007878
# 6 -0.005690 -0.004823 0.009634 -0.011581 0.007878 0.035595
#
#
# Mechanical properties :
#
#
# Convention : Reuss Voigt Hill
#
# Bulk Modulus (GPa) = 42.89580 65.76463 54.33022
# Shear Modulus (GPa) = 24.76990 40.08213 32.42601
#
# Velocity S-wave (km/s) = 3.05935 3.89173 3.50037
# Velocity P-wave (km/s) = 5.35614 6.71150 6.07176
#
# Compressibility (1/GPa) = 0.02331231
#
# Stress axis : x y z
#
# Youngs Moduli (GPa) = 126.26126 56.05534 35.78611
#
# Poissons Ratio (x) = -0.00247 0.30962
# Poissons Ratio (y) = -0.00556 0.23575
# Poissons Ratio (z) = 1.09239 0.36928
#
# Static dielectric constant tensor:
#      x y z
#    x 2.170920 0.040300 0.003000 
#    y 0.040300 2.024710 -0.064070 
#    z 0.003000 -0.064070 2.088640 
# 
# From -- ./inp_files/558723.got.cif
#   From: 2010.05.17/outbox.cif.g08.bks.cpg/sg2_280_cif.got.tgz:558723.got - 2010.06.03 11:33:40.
