data_PCOD9012275
_publ_section_title
;
Structure prediction by ZEFSAII (Michael W. Deem and Ramdas Pophale) SiO2 
 PCOD9012275
Probable space group: P -1
;
_chemical_formula_sum "Si O2"
_cell_formula_units_Z 12
_cell_length_a 13.170873
_cell_length_b 8.616626
_cell_length_c 7.941128
_cell_angle_alpha 73.487963
_cell_angle_beta 78.913993
_cell_angle_gamma 137.947188
_cell_volume 450.381465
_symmetry_space_group_name_H-M "P -1"
_symmetry_group_IT_number 2
_symmetry_cell_setting 'triclinic'
loop_
_space_group_symop_operation_xyz
x,y,z
-x,-y,-z
loop_
_atom_site_type_symbol
_atom_site_label
_atom_site_fract_x
_atom_site_fract_y
_atom_site_fract_z
Si Si1 0.805223 0.642518 0.131266
Si Si2 0.957681 0.756730 0.378798
Si Si3 0.702970 0.043132 0.815229
Si Si4 0.284588 0.357193 0.263579
Si Si5 0.210879 0.713910 0.926391
Si Si6 0.612136 0.840836 0.553334
O O1 0.818368 0.557447 0.327279
O O2 0.784131 0.469254 0.059577
O O3 0.615297 0.499511 0.256151
O O4 0.000000 0.000000 0.000000
O O5 0.815070 0.628827 0.609742
O O6 0.092772 0.779627 0.324742
O O7 0.138083 0.126892 0.225039
O O8 0.657053 0.019365 0.642106
O O9 0.738424 0.198140 0.920393
O O10 0.505947 0.682226 0.038979
O O11 0.279242 0.185968 0.434172
O O12 0.345619 0.010222 0.678373
O O13 0.000000 0.500000 0.000000
#
# Coordination Sequence:
#
# PCOD9012275 Si02
#       6
#     2   2   2   2   2   2
#     4  12  25  46  75 105 145 194 247 303 370 440
#     4  10  21  40  69 106 150 187 242 298 355 437
#     4  11  23  49  73 105 154 193 245 306 365 435
#     4  10  22  42  73 112 147 196 248 295 366 445
#     4  12  28  48  71 110 150 191 249 304 369 437
#     4  11  26  46  76 108 149 198 244 305 369 433
#
# _framework density 26.644079999999999
#
# number of rings (size 3 to 8) (size 9 to 14) (size 15 to 20)
#    0.000    1.000    1.667    5.500    2.333    2.667 
#    3.000    0.000    0.000    0.000    0.000    0.000 
#    0.000    0.000    0.000    0.000    0.000    0.000 
#
# Total GULP energy -67044.813934 kJ/mol
# GULP energy per Si atom -5587.067828 kJ/mol
# Density = 2.658344 g / cm^3
# Si number density = 26.644080 Si / 1000 Ang^3
#
#
#
# Elastic Constant Matrix: (Units=GPa)
#
#
# Indices 1 2 3 4 5 6 
#
# 1 76.5299 52.6862 54.3937 -4.5225 -25.2268 -9.5253
# 2 52.6862 164.1124 27.0903 26.0796 -3.2580 -6.2410
# 3 54.3937 27.0903 107.5733 -5.7907 -19.3103 -34.0186
# 4 -4.5225 26.0796 -5.7907 25.4624 3.4551 -9.8688
# 5 -25.2268 -3.2580 -19.3103 3.4551 34.1127 -23.1226
# 6 -9.5253 -6.2410 -34.0186 -9.8688 -23.1226 40.5810
#
#
#
# Elastic Compliance Matrix: (Units=1/GPa)
#
#
# Indices 1 2 3 4 5 6 
#
# 1 0.013961 0.001324 -0.032050 -0.020622 -0.040495 -0.051476
# 2 0.001324 0.004073 0.013417 0.006943 0.028779 0.030271
# 3 -0.032050 0.013417 -0.005962 -0.032785 -0.056971 -0.050892
# 4 -0.020622 0.006943 -0.032785 0.001552 -0.088360 -0.081225
# 5 -0.040495 0.028779 -0.056971 -0.088360 -0.116595 -0.140760
# 6 -0.051476 0.030271 -0.050892 -0.081225 -0.140760 -0.125403
#
#
# Mechanical properties :
#
#
# Convention : Reuss Voigt Hill
#
# Bulk Modulus (GPa) = -44.35266 68.50624 12.07679
# Shear Modulus (GPa) = -24.84197 34.30092 4.72948
#
# Velocity S-wave (km/s) = -3.05678 3.59189 1.33376
# Velocity P-wave (km/s) = 5.39824 6.55513 2.62952
#
# Compressibility (1/GPa) = -0.02254656
#
# Stress axis : x y z
#
# Youngs Moduli (GPa) = 71.62873 245.53881 -167.72508
#
# Poissons Ratio (x) = -0.32515 -5.37567
# Poissons Ratio (y) = -0.09485 2.25041
# Poissons Ratio (z) = 2.29573 -3.29445
#
# Static dielectric constant tensor:
#      x y z
#    x 2.192800 -0.010610 0.302370 
#    y -0.010610 2.043270 0.010830 
#    z 0.302370 0.010830 2.446900 
# 
# From -- ./inp_files/292314.got.cif
#   From: 2010.05.17/outbox.cif.g08.bks.cpg/sg2_147_cif.got.tgz:292314.got - 2010.06.03 11:33:40.
