data_PCOD9012947
_publ_section_title
;
Structure prediction by ZEFSAII (Michael W. Deem and Ramdas Pophale) SiO2 
 PCOD9012947
Probable space group: P -1
;
_chemical_formula_sum "Si O2"
_cell_formula_units_Z 16
_cell_length_a 20.327445
_cell_length_b 6.208984
_cell_length_c 18.113387
_cell_angle_alpha 83.475121
_cell_angle_beta 25.632184
_cell_angle_gamma 68.825707
_cell_volume 784.535343
_symmetry_space_group_name_H-M "P -1"
_symmetry_group_IT_number 2
_symmetry_cell_setting 'triclinic'
loop_
_space_group_symop_operation_xyz
x,y,z
-x,-y,-z
loop_
_atom_site_type_symbol
_atom_site_label
_atom_site_fract_x
_atom_site_fract_y
_atom_site_fract_z
Si Si1 0.770423 0.717972 0.642735
Si Si2 0.419184 0.552194 0.795050
Si Si3 0.379360 0.042986 0.362015
Si Si4 0.144143 0.197824 0.833540
Si Si5 0.059705 0.976183 0.057005
Si Si6 0.571803 0.229916 0.074888
Si Si7 0.725698 0.594566 0.415994
Si Si8 0.112993 0.107210 0.347758
O O1 0.741430 0.890232 0.592662
O O2 0.607262 0.672646 0.800733
O O3 0.763356 0.876574 0.715041
O O4 0.965783 0.417532 0.457843
O O5 0.201101 0.763922 0.984046
O O6 0.537865 0.623756 0.625070
O O7 0.524967 0.238105 0.683704
O O8 0.444801 0.564527 0.856995
O O9 0.246528 0.290618 0.542080
O O10 0.555975 0.036683 0.153388
O O11 0.295497 0.216688 0.636763
O O12 0.182208 0.004103 0.870513
O O13 0.000000 0.500000 0.000000
O O14 0.041978 0.133352 0.878695
O O15 0.898182 0.279835 0.238402
O O16 0.756074 0.081996 0.844362
O O17 0.000000 0.000000 0.500000
#
# Coordination Sequence:
#
# PCOD9012947 Si02
#       8
#     2   2   2   2   2   2   2   2
#     4   9  23  42  60  88 126 160 202 249 312 367
#     4  11  23  39  63  96 119 166 214 249 310 372
#     4   9  22  41  60  85 132 161 198 253 311 362
#     4   9  20  41  63  90 128 164 202 265 309 357
#     4  10  22  40  66  92 123 166 214 250 311 370
#     4   9  23  41  60  87 128 159 201 253 311 363
#     4  10  21  41  62  91 126 164 206 258 313 357
#     4  11  23  40  67  93 115 163 211 251 305 367
#
# _framework density 20.394235999999999
#
# number of rings (size 3 to 8) (size 9 to 14) (size 15 to 20)
#    0.750    1.500    0.000    1.125    3.500    7.000 
#    4.500    8.750    0.000    0.000    0.000    0.000 
#    0.000    0.000    0.000    0.000    0.000    0.000 
#
# Total GULP energy -89084.529381 kJ/mol
# GULP energy per Si atom -5567.783086 kJ/mol
# Density = 2.034782 g / cm^3
# Si number density = 20.394236 Si / 1000 Ang^3
#
#
#
# Elastic Constant Matrix: (Units=GPa)
#
#
# Indices 1 2 3 4 5 6 
#
# 1 77.4734 46.6901 39.6264 22.0559 5.3894 4.2771
# 2 46.6901 71.6806 17.8729 11.9323 2.8821 8.7740
# 3 39.6264 17.8729 98.0470 3.9862 24.7356 8.3644
# 4 22.0559 11.9323 3.9862 22.7855 -3.1427 5.1581
# 5 5.3894 2.8821 24.7356 -3.1427 21.7119 7.1227
# 6 4.2771 8.7740 8.3644 5.1581 7.1227 23.2306
#
#
#
# Elastic Compliance Matrix: (Units=1/GPa)
#
#
# Indices 1 2 3 4 5 6 
#
# 1 0.036081 -0.017616 -0.010801 -0.026321 -0.001467 0.010193
# 2 -0.017616 0.024806 0.002659 0.005876 0.001838 -0.008951
# 3 -0.010801 0.002659 0.018553 0.003558 -0.017973 -0.000975
# 4 -0.026321 0.005876 0.003558 0.072980 0.019054 -0.020701
# 5 -0.001467 0.001838 -0.017973 0.019054 0.076512 -0.021643
# 6 0.010193 -0.008951 -0.000975 -0.020701 -0.021643 0.056134
#
#
# Mechanical properties :
#
#
# Convention : Reuss Voigt Hill
#
# Bulk Modulus (GPa) = 35.81170 50.61997 43.21583
# Shear Modulus (GPa) = 14.45547 23.07969 18.76758
#
# Velocity S-wave (km/s) = 2.66522 3.36769 3.03684
# Velocity P-wave (km/s) = 5.20279 6.32427 5.79074
#
# Compressibility (1/GPa) = 0.02792383
#
# Stress axis : x y z
#
# Youngs Moduli (GPa) = 27.71537 40.31316 53.90089
#
# Poissons Ratio (x) = 0.71016 0.58217
# Poissons Ratio (y) = 0.48823 -0.14332
# Poissons Ratio (z) = 0.29934 -0.10719
#
# Static dielectric constant tensor:
#      x y z
#    x 1.753760 0.017050 -0.000130 
#    y 0.017050 1.736890 -0.041560 
#    z -0.000130 -0.041560 1.715360 
# 
# From -- ./inp_files/536306.got.cif
#   From: 2010.05.17/outbox.cif.g08.bks.cpg/sg2_269_cif.got.tgz:536306.got - 2010.06.03 11:33:40.
