data_PCOD9012628
_publ_section_title
;
Structure prediction by ZEFSAII (Michael W. Deem and Ramdas Pophale) SiO2 
 PCOD9012628
Probable space group: P -1
;
_chemical_formula_sum "Si O2"
_cell_formula_units_Z 16
_cell_length_a 7.501377
_cell_length_b 8.883805
_cell_length_c 20.620939
_cell_angle_alpha 55.881830
_cell_angle_beta 64.764196
_cell_angle_gamma 107.783554
_cell_volume 706.423871
_symmetry_space_group_name_H-M "P -1"
_symmetry_group_IT_number 2
_symmetry_cell_setting 'triclinic'
loop_
_space_group_symop_operation_xyz
x,y,z
-x,-y,-z
loop_
_atom_site_type_symbol
_atom_site_label
_atom_site_fract_x
_atom_site_fract_y
_atom_site_fract_z
Si Si1 0.959337 0.153587 0.784204
Si Si2 0.697360 0.359885 0.787354
Si Si3 0.251949 0.953691 0.585099
Si Si4 0.236837 0.905603 0.878331
Si Si5 0.582453 0.531182 0.555049
Si Si6 0.609172 0.858772 0.792796
Si Si7 0.542255 0.943113 0.324198
Si Si8 0.331452 0.302886 0.961934
O O1 0.858983 0.280026 0.795849
O O2 0.297865 0.356889 0.686361
O O3 0.886070 0.096063 0.733312
O O4 0.766976 0.876711 0.917437
O O5 0.513377 0.202692 0.788990
O O6 0.948467 0.675621 0.673869
O O7 0.457225 0.249750 0.903388
O O8 0.500000 0.000000 0.500000
O O9 0.250415 0.172207 0.524135
O O10 0.324339 0.968031 0.646750
O O11 0.207657 0.911610 0.804067
O O12 0.344507 0.769423 0.897508
O O13 0.958810 0.780259 0.990411
O O14 0.500000 0.500000 0.500000
O O15 0.661655 0.369480 0.581213
O O16 0.597947 0.961987 0.702068
O O17 0.566678 0.617380 0.856333
#
# Coordination Sequence:
#
# PCOD9012628 Si02
#       8
#     2   2   2   2   2   2   2   2
#     4  11  21  42  65  98 136 170 218 271 330 395
#     4  11  25  42  61  99 137 170 222 264 335 389
#     4  11  23  44  70  98 130 172 219 276 320 393
#     4   9  21  44  63  93 133 172 207 273 326 389
#     4  10  21  40  72  91 125 177 217 265 327 390
#     4   9  22  39  66  98 129 167 221 272 318 396
#     4   9  21  44  68  92 129 171 219 262 335 386
#     4  12  22  39  69  96 132 175 218 275 325 388
#
# _framework density 22.649291000000002
#
# number of rings (size 3 to 8) (size 9 to 14) (size 15 to 20)
#    0.750    1.000    2.500    1.500    3.500    1.000 
#    9.000    6.250    0.000    0.000    0.000    0.000 
#    0.000    0.000    0.000    0.000    0.000    0.000 
#
# Total GULP energy -89135.939435 kJ/mol
# GULP energy per Si atom -5570.996215 kJ/mol
# Density = 2.259774 g / cm^3
# Si number density = 22.649291 Si / 1000 Ang^3
#
#
#
# Elastic Constant Matrix: (Units=GPa)
#
#
# Indices 1 2 3 4 5 6 
#
# 1 34.9812 21.0775 17.5072 5.5213 3.0632 -11.3567
# 2 21.0775 111.4225 30.8866 -4.5620 4.1790 -12.1642
# 3 17.5072 30.8866 66.0868 8.6684 2.1087 -4.7533
# 4 5.5213 -4.5620 8.6684 41.4069 -11.2963 7.1683
# 5 3.0632 4.1790 2.1087 -11.2963 34.7612 -2.7519
# 6 -11.3567 -12.1642 -4.7533 7.1683 -2.7519 30.9354
#
#
#
# Elastic Compliance Matrix: (Units=1/GPa)
#
#
# Indices 1 2 3 4 5 6 
#
# 1 0.040643 -0.004586 -0.006451 -0.008074 -0.004184 0.013625
# 2 -0.004586 0.011296 -0.004299 0.002563 0.000261 0.001527
# 3 -0.006451 -0.004299 0.019402 -0.004015 -0.001418 -0.000273
# 4 -0.008074 0.002563 -0.004015 0.030566 0.009885 -0.008777
# 5 -0.004184 0.000261 -0.001418 0.009885 0.032319 -0.001067
# 6 0.013625 0.001527 -0.000273 -0.008777 -0.001067 0.039824
#
#
# Mechanical properties :
#
#
# Convention : Reuss Voigt Hill
#
# Bulk Modulus (GPa) = 24.58911 39.04812 31.81861
# Shear Modulus (GPa) = 22.90652 30.95532 26.93092
#
# Velocity S-wave (km/s) = 3.18363 3.70093 3.45199
# Velocity P-wave (km/s) = 4.93903 5.96157 5.47423
#
# Compressibility (1/GPa) = 0.04066841
#
# Stress axis : x y z
#
# Youngs Moduli (GPa) = 24.60467 88.52710 51.54142
#
# Poissons Ratio (x) = 0.40602 0.33248
# Poissons Ratio (y) = 0.11285 0.22158
# Poissons Ratio (z) = 0.15872 0.38058
#
# Static dielectric constant tensor:
#      x y z
#    x 1.888420 -0.037160 -0.002540 
#    y -0.037160 1.843600 -0.012800 
#    z -0.002540 -0.012800 1.883510 
# 
# From -- ./inp_files/606709.got.cif
#   From: 2010.05.17/outbox.cif.g08.bks.cpg/sg2_304_cif.got.tgz:606709.got - 2010.06.03 11:33:40.
