data_PCOD9012604
_publ_section_title
;
Structure prediction by ZEFSAII (Michael W. Deem and Ramdas Pophale) SiO2 
 PCOD9012604
Probable space group: P -1
;
_chemical_formula_sum "Si O2"
_cell_formula_units_Z 14
_cell_length_a 23.328544
_cell_length_b 9.365906
_cell_length_c 4.982287
_cell_angle_alpha 106.928562
_cell_angle_beta 79.707026
_cell_angle_gamma 48.709600
_cell_volume 670.336603
_symmetry_space_group_name_H-M "P -1"
_symmetry_group_IT_number 2
_symmetry_cell_setting 'triclinic'
loop_
_space_group_symop_operation_xyz
x,y,z
-x,-y,-z
loop_
_atom_site_type_symbol
_atom_site_label
_atom_site_fract_x
_atom_site_fract_y
_atom_site_fract_z
Si Si1 0.406074 0.119215 0.234341
Si Si2 0.081473 0.739121 0.701803
Si Si3 0.327966 0.124580 0.775739
Si Si4 0.763398 0.435839 0.192291
Si Si5 0.048861 0.616180 0.157921
Si Si6 0.799032 0.901235 0.074285
Si Si7 0.163933 0.990855 0.409016
O O1 0.594189 0.989572 0.566320
O O2 0.662840 0.613779 0.485884
O O3 0.500000 0.000000 0.000000
O O4 0.360563 0.114533 0.031368
O O5 0.170117 0.651965 0.670741
O O6 0.070288 0.712598 0.391551
O O7 0.073205 0.610137 0.829341
O O8 0.000000 0.000000 0.000000
O O9 0.251836 0.384969 0.873441
O O10 0.283504 0.049284 0.779759
O O11 0.801908 0.228891 0.869006
O O12 0.110540 0.362125 0.066918
O O13 0.943273 0.797592 0.370495
O O14 0.797675 0.046209 0.351198
O O15 0.804547 0.942608 0.787067
#
# Coordination Sequence:
#
# PCOD9012604 Si02
#       7
#     2   2   2   2   2   2   2
#     4  10  21  40  72 100 117 148 206 263 308 367
#     4  12  23  37  64  88 127 162 216 264 299 351
#     4  10  22  41  69  89 123 158 207 245 313 372
#     4  10  25  39  65  93 122 163 206 260 312 354
#     4  12  23  40  57  84 120 175 220 251 296 358
#     4  12  24  42  58  88 125 173 205 247 305 369
#     4  12  26  37  60  87 129 163 211 257 303 352
#
# _framework density 20.885027999999998
#
# number of rings (size 3 to 8) (size 9 to 14) (size 15 to 20)
#    0.857    0.000    2.857    5.143    2.000    0.000 
#    0.000    0.000    0.000    5.143    0.000    0.000 
#    0.000    0.000    0.000    0.000    0.000    0.000 
#
# Total GULP energy -78266.656451 kJ/mol
# GULP energy per Si atom -5590.475461 kJ/mol
# Density = 2.083749 g / cm^3
# Si number density = 20.885028 Si / 1000 Ang^3
#
#
#
# Elastic Constant Matrix: (Units=GPa)
#
#
# Indices 1 2 3 4 5 6 
#
# 1 92.9795 -6.5984 36.9574 17.9091 -6.2036 -3.7236
# 2 -6.5984 21.0320 -4.4268 -4.3189 -3.6775 3.7320
# 3 36.9574 -4.4268 88.4000 -3.1711 -8.3592 -9.3602
# 4 17.9091 -4.3189 -3.1711 28.2225 -7.6144 -6.8927
# 5 -6.2036 -3.6775 -8.3592 -7.6144 46.8111 -6.9370
# 6 -3.7236 3.7320 -9.3602 -6.8927 -6.9370 25.2335
#
#
#
# Elastic Compliance Matrix: (Units=1/GPa)
#
#
# Indices 1 2 3 4 5 6 
#
# 1 0.016018 0.001330 -0.007744 -0.012465 -0.001868 -0.004624
# 2 0.001330 0.051654 0.002572 0.008209 0.005629 -0.002700
# 3 -0.007744 0.002572 0.016506 0.010755 0.005202 0.008968
# 4 -0.012465 0.008209 0.010755 0.053839 0.012498 0.019079
# 5 -0.001868 0.005629 0.005202 0.012498 0.026215 0.011442
# 6 -0.004624 -0.002700 0.008968 0.019079 0.011442 0.051030
#
#
# Mechanical properties :
#
#
# Convention : Reuss Voigt Hill
#
# Bulk Modulus (GPa) = 13.07298 28.25286 20.66292
# Shear Modulus (GPa) = 20.12528 31.81870 25.97199
#
# Velocity S-wave (km/s) = 3.10759 3.90746 3.53025
# Velocity P-wave (km/s) = 4.37599 5.82364 5.15093
#
# Compressibility (1/GPa) = 0.07649367
#
# Stress axis : x y z
#
# Youngs Moduli (GPa) = 62.42827 19.35957 60.58557
#
# Poissons Ratio (x) = -0.02575 0.46915
# Poissons Ratio (y) = -0.08302 -0.15580
# Poissons Ratio (z) = 0.48342 -0.04978
#
# Static dielectric constant tensor:
#      x y z
#    x 1.764460 0.039050 -0.020050 
#    y 0.039050 1.751700 -0.007890 
#    z -0.020050 -0.007890 1.766150 
# 
# From -- ./inp_files/104155.got.cif
#   From: 2010.05.17/outbox.cif.g08.bks.cpg/sg2_53_cif.got.tgz:104155.got - 2010.06.03 11:33:40.
