data_PCOD9012337
_publ_section_title
;
Structure prediction by ZEFSAII (Michael W. Deem and Ramdas Pophale) SiO2 
 PCOD9012337
Probable space group: P -1
;
_chemical_formula_sum "Si O2"
_cell_formula_units_Z 15
_cell_length_a 7.883192
_cell_length_b 16.396128
_cell_length_c 8.090799
_cell_angle_alpha 86.156243
_cell_angle_beta 111.633922
_cell_angle_gamma 51.022407
_cell_volume 688.009360
_symmetry_space_group_name_H-M "P -1"
_symmetry_group_IT_number 2
_symmetry_cell_setting 'triclinic'
loop_
_space_group_symop_operation_xyz
x,y,z
-x,-y,-z
loop_
_atom_site_type_symbol
_atom_site_label
_atom_site_fract_x
_atom_site_fract_y
_atom_site_fract_z
Si Si1 0.976351 0.939725 0.858707
Si Si2 0.973300 0.653294 0.254822
Si Si3 0.317974 0.107928 0.042767
Si Si4 0.771419 0.562493 0.775904
Si Si5 0.500000 0.500000 0.000000
Si Si6 0.524988 0.087203 0.448856
Si Si7 0.055848 0.342668 0.371810
Si Si8 0.494441 0.692536 0.965118
O O1 0.841470 0.905896 0.905135
O O2 0.243659 0.822304 0.901787
O O3 0.792458 0.029638 0.633583
O O4 0.000000 0.000000 0.000000
O O5 0.019596 0.640713 0.467198
O O6 0.215537 0.535559 0.262978
O O7 0.876175 0.770141 0.136159
O O8 0.735127 0.666966 0.129275
O O9 0.489024 0.104779 0.236699
O O10 0.500000 0.000000 0.000000
O O11 0.835314 0.602234 0.644045
O O12 0.529646 0.667291 0.782606
O O13 0.000000 0.500000 0.000000
O O14 0.503972 0.400876 0.957850
O O15 0.810984 0.398947 0.164769
O O16 0.289542 0.208532 0.432192
O O17 0.500000 0.000000 0.500000
#
# Coordination Sequence:
#
# PCOD9012337 Si02
#       8
#     2   2   2   2   1   2   2   2
#     4  11  24  45  71 108 139 176 232 294 339 403
#     4  11  23  44  67  97 136 189 228 273 346 430
#     4  11  23  42  71  98 138 185 233 277 343 423
#     4  10  21  41  67  92 128 185 220 268 345 416
#     4  12  24  38  68 100 134 168 220 298 336 388
#     4  10  21  40  69  94 134 184 221 268 349 409
#     4  12  23  43  70  96 135 179 233 280 350 412
#     4  11  24  41  69  97 142 171 232 279 347 398
#
# _framework density 21.802029999999998
#
# number of rings (size 3 to 8) (size 9 to 14) (size 15 to 20)
#    0.000    1.067    2.667    6.800    1.867    0.000 
#    0.000   12.000    2.933    0.000    0.000    0.000 
#    0.000    0.000    0.000    0.000    0.000    0.000 
#
# Total GULP energy -83604.423939 kJ/mol
# GULP energy per Si atom -5573.628263 kJ/mol
# Density = 2.175241 g / cm^3
# Si number density = 21.802030 Si / 1000 Ang^3
#
#
#
# Elastic Constant Matrix: (Units=GPa)
#
#
# Indices 1 2 3 4 5 6 
#
# 1 48.0139 23.5479 13.0460 -1.4975 0.2734 -1.6507
# 2 23.5479 155.0259 26.3646 -2.1764 0.8778 -18.0118
# 3 13.0460 26.3646 57.2211 5.9011 -9.7698 -5.6902
# 4 -1.4975 -2.1764 5.9011 36.5485 -4.0763 -5.5986
# 5 0.2734 0.8778 -9.7698 -4.0763 38.9493 -4.0155
# 6 -1.6507 -18.0118 -5.6902 -5.5986 -4.0155 45.1393
#
#
#
# Elastic Compliance Matrix: (Units=1/GPa)
#
#
# Indices 1 2 3 4 5 6 
#
# 1 0.023461 -0.002879 -0.004429 0.001253 -0.001162 -0.000797
# 2 -0.002879 0.007702 -0.002820 0.001161 -0.000459 0.002716
# 3 -0.004429 -0.002820 0.021131 -0.002951 0.005238 0.001476
# 4 0.001253 0.001161 -0.002951 0.028859 0.002653 0.003952
# 5 -0.001162 -0.000459 0.005238 0.002653 0.027616 0.003220
# 6 -0.000797 0.002716 0.001476 0.003952 0.003220 0.024171
#
#
# Mechanical properties :
#
#
# Convention : Reuss Voigt Hill
#
# Bulk Modulus (GPa) = 31.21425 42.90864 37.06145
# Shear Modulus (GPa) = 30.51080 37.28090 33.89585
#
# Velocity S-wave (km/s) = 3.74498 4.13967 3.94726
# Velocity P-wave (km/s) = 5.74874 6.52479 6.14902
#
# Compressibility (1/GPa) = 0.03203665
#
# Stress axis : x y z
#
# Youngs Moduli (GPa) = 42.62389 129.83856 47.32391
#
# Poissons Ratio (x) = 0.37378 0.20962
# Poissons Ratio (y) = 0.12271 0.13347
# Poissons Ratio (z) = 0.18880 0.36619
#
# Static dielectric constant tensor:
#      x y z
#    x 1.847180 0.012460 -0.005020 
#    y 0.012460 1.784050 -0.010700 
#    z -0.005020 -0.010700 1.788310 
# 
# From -- ./inp_files/197270.got.cif
#   From: 2010.05.17/outbox.cif.g08.bks.cpg/sg2_99_cif.got.tgz:197270.got - 2010.06.03 11:33:40.
