data_PCOD9012512
_publ_section_title
;
Structure prediction by ZEFSAII (Michael W. Deem and Ramdas Pophale) SiO2 
 PCOD9012512
Probable space group: P -1
;
_chemical_formula_sum "Si O2"
_cell_formula_units_Z 14
_cell_length_a 8.522493
_cell_length_b 18.256667
_cell_length_c 5.521186
_cell_angle_alpha 89.088352
_cell_angle_beta 124.835429
_cell_angle_gamma 118.275124
_cell_volume 581.159111
_symmetry_space_group_name_H-M "P -1"
_symmetry_group_IT_number 2
_symmetry_cell_setting 'triclinic'
loop_
_space_group_symop_operation_xyz
x,y,z
-x,-y,-z
loop_
_atom_site_type_symbol
_atom_site_label
_atom_site_fract_x
_atom_site_fract_y
_atom_site_fract_z
Si Si1 0.586378 0.277719 0.305004
Si Si2 0.891466 0.776621 0.655679
Si Si3 0.582560 0.978175 0.323952
Si Si4 0.732857 0.459189 0.268345
Si Si5 0.036975 0.147843 0.786532
Si Si6 0.569980 0.222755 0.790509
Si Si7 0.613685 0.577841 0.405007
O O1 0.608386 0.370854 0.330484
O O2 0.691804 0.266275 0.640133
O O3 0.314296 0.194762 0.049323
O O4 0.691907 0.274659 0.142848
O O5 0.997539 0.806543 0.479020
O O6 0.664385 0.779250 0.434740
O O7 0.806048 0.676930 0.644246
O O8 0.027398 0.834729 0.006441
O O9 0.499140 0.876701 0.249459
O O10 0.500000 0.000000 0.500000
O O11 0.864076 0.043941 0.582782
O O12 0.500000 0.000000 0.000000
O O13 0.715192 0.540891 0.309867
O O14 0.000000 0.500000 0.500000
O O15 0.593583 0.421348 0.898824
O O16 0.500000 0.500000 0.500000
#
# Coordination Sequence:
#
# PCOD9012512 Si02
#       7
#     2   2   2   2   2   2   2
#     4  10  21  43  69  96 130 176 237 279 351 422
#     4  10  21  40  70  97 125 179 240 280 347 419
#     4  12  26  44  61 100 143 175 226 290 365 418
#     4  11  25  45  68 107 147 188 243 306 362 426
#     4  10  21  41  66  92 130 175 228 282 340 426
#     4  10  21  41  67  92 128 173 225 286 335 424
#     4  11  23  44  71 101 147 190 246 303 357 439
#
# _framework density 24.089787000000001
#
# number of rings (size 3 to 8) (size 9 to 14) (size 15 to 20)
#    0.000    1.429    2.857    3.429    2.000    5.143 
#    7.714    0.000    0.000    0.000    0.000    0.000 
#    0.000    0.000    0.000    0.000    0.000    0.000 
#
# Total GULP energy -78207.955462 kJ/mol
# GULP energy per Si atom -5586.282533 kJ/mol
# Density = 2.403496 g / cm^3
# Si number density = 24.089787 Si / 1000 Ang^3
#
#
#
# Elastic Constant Matrix: (Units=GPa)
#
#
# Indices 1 2 3 4 5 6 
#
# 1 60.0306 15.2199 55.7420 -4.9790 -9.9288 -4.3105
# 2 15.2199 103.5342 23.3890 -28.6227 -26.8521 -24.1348
# 3 55.7420 23.3890 116.7724 -17.2479 -34.1299 2.3070
# 4 -4.9790 -28.6227 -17.2479 41.5803 8.1639 -9.7751
# 5 -9.9288 -26.8521 -34.1299 8.1639 59.3852 -2.8274
# 6 -4.3105 -24.1348 2.3070 -9.7751 -2.8274 34.6412
#
#
#
# Elastic Compliance Matrix: (Units=1/GPa)
#
#
# Indices 1 2 3 4 5 6 
#
# 1 0.031832 -0.002835 -0.016649 -0.003688 -0.004943 0.001651
# 2 -0.002835 0.022047 0.001935 0.018786 0.009020 0.020916
# 3 -0.016649 0.001935 0.019458 0.005817 0.008490 0.000315
# 4 -0.003688 0.018786 0.005817 0.043584 0.006423 0.025065
# 5 -0.004943 0.009020 0.008490 0.006423 0.024512 0.008917
# 6 0.001651 0.020916 0.000315 0.025065 0.008917 0.051424
#
#
# Mechanical properties :
#
#
# Convention : Reuss Voigt Hill
#
# Bulk Modulus (GPa) = 26.15130 52.11548 39.13339
# Shear Modulus (GPa) = 20.77257 39.52043 30.14650
#
# Velocity S-wave (km/s) = 2.93968 4.05476 3.54138
# Velocity P-wave (km/s) = 4.73303 6.60320 5.74473
#
# Compressibility (1/GPa) = 0.03823901
#
# Stress axis : x y z
#
# Youngs Moduli (GPa) = 31.41497 45.35821 51.39260
#
# Poissons Ratio (x) = 0.12859 0.85565
# Poissons Ratio (y) = 0.08906 -0.09947
# Poissons Ratio (z) = 0.52304 -0.08779
#
# Static dielectric constant tensor:
#      x y z
#    x 2.070380 0.004080 -0.064280 
#    y 0.004080 1.952200 0.034280 
#    z -0.064280 0.034280 2.002640 
# 
# From -- ./inp_files/47682.got.cif
#   From: 2010.05.17/outbox.cif.g08.bks.cpg/sg2_24_cif.got.tgz:47682.got - 2010.06.03 11:33:40.
