data_PCOD9012882
_publ_section_title
;
Structure prediction by ZEFSAII (Michael W. Deem and Ramdas Pophale) SiO2 
 PCOD9012882
Probable space group: P -1
;
_chemical_formula_sum "Si O2"
_cell_formula_units_Z 16
_cell_length_a 25.960124
_cell_length_b 5.101150
_cell_length_c 5.465564
_cell_angle_alpha 93.523989
_cell_angle_beta 117.595052
_cell_angle_gamma 81.292185
_cell_volume 634.025360
_symmetry_space_group_name_H-M "P -1"
_symmetry_group_IT_number 2
_symmetry_cell_setting 'triclinic'
loop_
_space_group_symop_operation_xyz
x,y,z
-x,-y,-z
loop_
_atom_site_type_symbol
_atom_site_label
_atom_site_fract_x
_atom_site_fract_y
_atom_site_fract_z
Si Si1 0.041771 0.722461 0.074812
Si Si2 0.885405 0.280559 0.263067
Si Si3 0.483486 0.269158 0.617960
Si Si4 0.396433 0.745896 0.938678
Si Si5 0.365685 0.257031 0.607974
Si Si6 0.715917 0.052646 0.074372
Si Si7 0.183986 0.201829 0.020983
Si Si8 0.251205 0.448034 0.549656
O O1 0.083302 0.728005 0.405341
O O2 0.074279 0.677087 0.881539
O O3 0.000000 0.500000 0.000000
O O4 0.000000 0.000000 0.000000
O O5 0.835145 0.538029 0.172199
O O6 0.862320 0.002498 0.131566
O O7 0.500000 0.500000 0.500000
O O8 0.415457 0.295467 0.527591
O O9 0.500000 0.000000 0.500000
O O10 0.534289 0.246872 0.933763
O O11 0.387236 0.441515 0.880051
O O12 0.353863 0.849585 0.078730
O O13 0.369604 0.952989 0.682054
O O14 0.299965 0.403463 0.435094
O O15 0.746348 0.263687 0.316675
O O16 0.755741 0.989961 0.921608
O O17 0.723505 0.771111 0.211245
O O18 0.193788 0.344932 0.308047
#
# Coordination Sequence:
#
# PCOD9012882 Si02
#       8
#     2   2   2   2   2   2   2   2
#     4  12  26  52  80 114 156 196 248 299 358 423
#     4  12  28  45  80 116 152 203 246 301 360 421
#     4  12  24  36  58  90 120 152 214 292 348 426
#     4  10  21  41  62  84 117 171 218 278 353 432
#     4  10  21  41  62  84 117 171 218 278 353 432
#     4  10  23  42  66  94 136 183 235 289 361 427
#     4  12  26  43  70 107 150 190 238 301 342 429
#     4  10  23  42  66  94 136 183 235 289 361 427
#
# _framework density 25.235582999999998
#
# number of rings (size 3 to 8) (size 9 to 14) (size 15 to 20)
#    0.000    1.000    0.000    6.000    7.000    0.000 
#    2.250    0.000    0.000    0.000    0.000    0.000 
#    0.000    0.000    0.000    0.000    0.000    0.000 
#
# Total GULP energy -89401.501583 kJ/mol
# GULP energy per Si atom -5587.593849 kJ/mol
# Density = 2.517815 g / cm^3
# Si number density = 25.235583 Si / 1000 Ang^3
#
#
#
# Elastic Constant Matrix: (Units=GPa)
#
#
# Indices 1 2 3 4 5 6 
#
# 1 88.3682 32.2888 17.2869 19.7277 -15.4198 -7.5273
# 2 32.2888 161.9925 29.5359 19.2076 3.8848 8.3719
# 3 17.2869 29.5359 100.9322 27.7672 1.9249 2.8123
# 4 19.7277 19.2076 27.7672 36.9036 12.7716 11.5191
# 5 -15.4198 3.8848 1.9249 12.7716 28.0859 11.1670
# 6 -7.5273 8.3719 2.8123 11.5191 11.1670 52.3321
#
#
#
# Elastic Compliance Matrix: (Units=1/GPa)
#
#
# Indices 1 2 3 4 5 6 
#
# 1 0.019020 -0.002671 0.001805 -0.017071 0.017197 0.003154
# 2 -0.002671 0.007098 -0.001509 -0.000171 -0.001869 -0.001002
# 3 0.001805 -0.001509 0.013346 -0.012534 0.005435 0.001383
# 4 -0.017071 -0.000171 -0.012534 0.059416 -0.032356 -0.007928
# 5 0.017197 -0.001869 0.005435 -0.032356 0.061004 -0.003415
# 6 0.003154 -0.001002 0.001383 -0.007928 -0.003415 0.022122
#
#
# Mechanical properties :
#
#
# Convention : Reuss Voigt Hill
#
# Bulk Modulus (GPa) = 28.80808 56.61290 42.71049
# Shear Modulus (GPa) = 25.21092 41.60974 33.41033
#
# Velocity S-wave (km/s) = 3.16416 4.06501 3.64254
# Velocity P-wave (km/s) = 4.97892 6.67195 5.88662
#
# Compressibility (1/GPa) = 0.03471248
#
# Stress axis : x y z
#
# Youngs Moduli (GPa) = 52.57683 140.89241 74.92876
#
# Poissons Ratio (x) = 0.37638 -0.13522
# Poissons Ratio (y) = 0.14045 0.11305
# Poissons Ratio (z) = -0.09488 0.21257
#
# Static dielectric constant tensor:
#      x y z
#    x -0.207680 -0.125580 -1.328000 
#    y -0.125580 1.914730 -0.050130 
#    z -1.328000 -0.050130 1.313750 
# 
# From -- ./inp_files/121791.got.cif
#   From: 2010.05.17/outbox.cif.g08.bks.cpg/sg2_61_cif.got.tgz:121791.got - 2010.06.03 11:33:40.
