data_PCOD9012732
_publ_section_title
;
Structure prediction by ZEFSAII (Michael W. Deem and Ramdas Pophale) SiO2 
 PCOD9012732
Probable space group: P -1
;
_chemical_formula_sum "Si O2"
_cell_formula_units_Z 14
_cell_length_a 11.649176
_cell_length_b 13.090151
_cell_length_c 14.812732
_cell_angle_alpha 160.044741
_cell_angle_beta 75.034381
_cell_angle_gamma 96.560033
_cell_volume 685.864253
_symmetry_space_group_name_H-M "P -1"
_symmetry_group_IT_number 2
_symmetry_cell_setting 'triclinic'
loop_
_space_group_symop_operation_xyz
x,y,z
-x,-y,-z
loop_
_atom_site_type_symbol
_atom_site_label
_atom_site_fract_x
_atom_site_fract_y
_atom_site_fract_z
Si Si1 0.397768 0.202611 0.612215
Si Si2 0.543897 0.798558 0.732007
Si Si3 0.499831 0.253415 0.952180
Si Si4 0.885994 0.746333 0.853430
Si Si5 0.203394 0.637891 0.299495
Si Si6 0.862553 0.625574 0.083953
Si Si7 0.829299 0.477953 0.457723
O O1 0.254744 0.332162 0.789231
O O2 0.500000 0.000000 0.500000
O O3 0.415528 0.967668 0.328808
O O4 0.437677 0.498482 0.821823
O O5 0.500000 0.500000 0.500000
O O6 0.698945 0.658105 0.579631
O O7 0.487902 0.029243 0.849522
O O8 0.500000 0.000000 0.000000
O O9 0.357925 0.461203 0.115169
O O10 0.843675 0.551151 0.773852
O O11 0.835798 0.688403 0.717571
O O12 0.041156 0.605820 0.696190
O O13 0.834308 0.129435 0.201136
O O14 0.166617 0.010351 0.642998
O O15 0.143685 0.601629 0.185660
O O16 0.000000 0.500000 0.000000
#
# Coordination Sequence:
#
# PCOD9012732 Si02
#       7
#     2   2   2   2   2   2   2
#     4  12  23  45  66  93 129 163 219 269 307 386
#     4  12  25  41  63  96 136 161 210 268 310 372
#     4  12  24  40  72  95 120 179 212 256 324 379
#     4  10  22  38  67  87 122 167 208 249 313 381
#     4  12  22  42  65  92 121 161 216 252 315 387
#     4  12  27  42  64  92 128 161 203 272 323 364
#     4  10  21  41  59  92 126 165 201 259 312 364
#
# _framework density 20.412202000000001
#
# number of rings (size 3 to 8) (size 9 to 14) (size 15 to 20)
#    0.000    0.571    2.857    6.000    0.000    2.286 
#    0.000    0.000    0.000    0.000    0.000    0.000 
#    0.000    0.000    0.000    0.000    0.000    0.000 
#
# Total GULP energy -78383.509778 kJ/mol
# GULP energy per Si atom -5598.822127 kJ/mol
# Density = 2.036574 g / cm^3
# Si number density = 20.412202 Si / 1000 Ang^3
#
#
#
# Elastic Constant Matrix: (Units=GPa)
#
#
# Indices 1 2 3 4 5 6 
#
# 1 102.0912 -6.8140 15.0888 8.3810 -14.4472 2.0682
# 2 -6.8140 40.1112 -5.1823 5.9103 -7.2809 10.7190
# 3 15.0888 -5.1823 59.4702 5.7240 13.7728 2.7056
# 4 8.3810 5.9103 5.7240 28.5213 3.6832 9.7322
# 5 -14.4472 -7.2809 13.7728 3.6832 35.8415 7.5387
# 6 2.0682 10.7190 2.7056 9.7322 7.5387 34.7138
#
#
#
# Elastic Compliance Matrix: (Units=1/GPa)
#
#
# Indices 1 2 3 4 5 6 
#
# 1 0.012244 0.004276 -0.004176 -0.003887 0.008322 -0.002442
# 2 0.004276 0.031334 0.000150 -0.005512 0.010860 -0.010755
# 3 -0.004176 0.000150 0.020224 -0.002071 -0.009478 0.001265
# 4 -0.003887 -0.005512 -0.002071 0.041230 -0.004335 -0.008522
# 5 0.008322 0.010860 -0.009478 -0.004335 0.039764 -0.010530
# 6 -0.002442 -0.010755 0.001265 -0.008522 -0.010530 0.036851
#
#
# Mechanical properties :
#
#
# Convention : Reuss Voigt Hill
#
# Bulk Modulus (GPa) = 15.55111 23.09527 19.32319
# Shear Modulus (GPa) = 24.68165 33.05400 28.86783
#
# Velocity S-wave (km/s) = 3.48107 4.02845 3.76472
# Velocity P-wave (km/s) = 4.87773 5.74255 5.32772
#
# Compressibility (1/GPa) = 0.06430410
#
# Stress axis : x y z
#
# Youngs Moduli (GPa) = 81.67241 31.91414 49.44510
#
# Poissons Ratio (x) = -0.13648 0.20648
# Poissons Ratio (y) = -0.34926 -0.00743
# Poissons Ratio (z) = 0.34106 -0.00480
#
# Static dielectric constant tensor:
#      x y z
#    x 1.711530 0.009030 -0.006480 
#    y 0.009030 1.686210 0.006370 
#    z -0.006480 0.006370 1.703280 
# 
# From -- ./inp_files/67940.got.cif
#   From: 2010.05.17/outbox.cif.g08.bks.cpg/sg2_34_cif.got.tgz:67940.got - 2010.06.03 11:33:40.
