data_PCOD9012582
_publ_section_title
;
Structure prediction by ZEFSAII (Michael W. Deem and Ramdas Pophale) SiO2 
 PCOD9012582
Probable space group: P -1
;
_chemical_formula_sum "Si O2"
_cell_formula_units_Z 14
_cell_length_a 20.631300
_cell_length_b 9.385172
_cell_length_c 14.687755
_cell_angle_alpha 137.436384
_cell_angle_beta 26.523566
_cell_angle_gamma 151.765807
_cell_volume 582.498185
_symmetry_space_group_name_H-M "P -1"
_symmetry_group_IT_number 2
_symmetry_cell_setting 'triclinic'
loop_
_space_group_symop_operation_xyz
x,y,z
-x,-y,-z
loop_
_atom_site_type_symbol
_atom_site_label
_atom_site_fract_x
_atom_site_fract_y
_atom_site_fract_z
Si Si1 0.774854 0.660240 0.479699
Si Si2 0.780837 0.875340 0.237318
Si Si3 0.597499 0.845948 0.903798
Si Si4 0.229504 0.820874 0.764027
Si Si5 0.806915 0.127324 0.958857
Si Si6 0.369548 0.191176 0.426311
Si Si7 0.220241 0.686675 0.257502
O O1 0.682098 0.708939 0.698210
O O2 0.729827 0.733236 0.476378
O O3 0.029666 0.892523 0.273483
O O4 0.687446 0.327677 0.429197
O O5 0.606139 0.511084 0.305750
O O6 0.780561 0.008646 0.392784
O O7 0.710423 0.943083 0.274248
O O8 0.000000 0.000000 0.000000
O O9 0.631556 0.921535 0.003748
O O10 0.756889 0.180546 0.807174
O O11 0.349712 0.606747 0.067701
O O12 0.970690 0.502902 0.925074
O O13 0.266708 0.937786 0.874945
O O14 0.384608 0.004744 0.258459
O O15 0.000000 0.500000 0.500000
#
# Coordination Sequence:
#
# PCOD9012582 Si02
#       7
#     2   2   2   2   2   2   2
#     4   9  19  39  62  98 135 176 222 286 330 411
#     4  11  24  40  67  98 132 185 225 283 340 405
#     4  10  21  40  71  95 135 182 224 283 350 401
#     4   9  21  37  68  99 140 177 224 280 342 401
#     4   9  19  37  66 101 137 178 224 282 334 412
#     4  10  24  40  63  98 134 170 233 283 340 404
#     4  10  24  42  66  99 135 179 232 289 341 412
#
# _framework density 24.034409
#
# number of rings (size 3 to 8) (size 9 to 14) (size 15 to 20)
#    0.857    1.429    0.000    1.286    4.000    4.000 
#    0.000    1.429    0.000   12.000    0.000    0.000 
#    0.000    0.000    0.000    0.000    0.000    0.000 
#
# Total GULP energy -78144.043453 kJ/mol
# GULP energy per Si atom -5581.717390 kJ/mol
# Density = 2.397971 g / cm^3
# Si number density = 24.034409 Si / 1000 Ang^3
#
#
#
# Elastic Constant Matrix: (Units=GPa)
#
#
# Indices 1 2 3 4 5 6 
#
# 1 116.9505 21.0353 46.1230 19.8584 17.3090 4.9441
# 2 21.0353 50.6748 31.4758 16.9658 9.8556 -3.4711
# 3 46.1230 31.4758 113.2745 7.8536 2.9575 -13.6290
# 4 19.8584 16.9658 7.8536 36.6987 2.7083 0.5546
# 5 17.3090 9.8556 2.9575 2.7083 52.5262 8.2219
# 6 4.9441 -3.4711 -13.6290 0.5546 8.2219 23.2604
#
#
#
# Elastic Compliance Matrix: (Units=1/GPa)
#
#
# Indices 1 2 3 4 5 6 
#
# 1 0.011974 0.000104 -0.004999 -0.005190 -0.002732 -0.004369
# 2 0.000104 0.028961 -0.006885 -0.011649 -0.004833 0.002251
# 3 -0.004999 -0.006885 0.013468 0.002829 0.000852 0.007558
# 4 -0.005190 -0.011649 0.002829 0.034696 0.002030 -0.000522
# 5 -0.002732 -0.004833 0.000852 0.002030 0.021853 -0.007414
# 6 -0.004369 0.002251 0.007558 -0.000522 -0.007414 0.051318
#
#
# Mechanical properties :
#
#
# Convention : Reuss Voigt Hill
#
# Bulk Modulus (GPa) = 32.42224 53.12979 42.77601
# Shear Modulus (GPa) = 25.49593 34.64809 30.07201
#
# Velocity S-wave (km/s) = 3.26054 3.80096 3.54108
# Velocity P-wave (km/s) = 5.26251 6.43559 5.87839
#
# Compressibility (1/GPa) = 0.03084303
#
# Stress axis : x y z
#
# Youngs Moduli (GPa) = 83.51638 34.52891 74.25133
#
# Poissons Ratio (x) = -0.00361 0.37118
# Poissons Ratio (y) = -0.00872 0.51125
# Poissons Ratio (z) = 0.41750 0.23774
#
# Static dielectric constant tensor:
#      x y z
#    x 1.960960 0.016670 -0.038280 
#    y 0.016670 2.038750 0.006490 
#    z -0.038280 0.006490 2.099030 
# 
# From -- ./inp_files/108998.got.cif
#   From: 2010.05.17/outbox.cif.g08.bks.cpg/sg2_55_cif.got.tgz:108998.got - 2010.06.03 11:33:40.
