data_PCOD9012380
_publ_section_title
;
Structure prediction by ZEFSAII (Michael W. Deem and Ramdas Pophale) SiO2 
 PCOD9012380
Probable space group: P -1
;
_chemical_formula_sum "Si O2"
_cell_formula_units_Z 16
_cell_length_a 16.109661
_cell_length_b 16.076898
_cell_length_c 8.981395
_cell_angle_alpha 113.490864
_cell_angle_beta 48.225732
_cell_angle_gamma 152.645572
_cell_volume 658.504908
_symmetry_space_group_name_H-M "P -1"
_symmetry_group_IT_number 2
_symmetry_cell_setting 'triclinic'
loop_
_space_group_symop_operation_xyz
x,y,z
-x,-y,-z
loop_
_atom_site_type_symbol
_atom_site_label
_atom_site_fract_x
_atom_site_fract_y
_atom_site_fract_z
Si Si1 0.835710 0.285137 0.949351
Si Si2 0.792578 0.262573 0.334672
Si Si3 0.216887 0.011789 0.575749
Si Si4 0.793509 0.973989 0.935600
Si Si5 0.341139 0.293311 0.480145
Si Si6 0.118247 0.333125 0.048214
Si Si7 0.367364 0.668017 0.441173
Si Si8 0.545177 0.901051 0.925515
O O1 0.102878 0.435081 0.671487
O O2 0.604664 0.039490 0.034049
O O3 0.862487 0.325584 0.119647
O O4 0.731649 0.287873 0.966162
O O5 0.993004 0.339618 0.225911
O O6 0.743000 0.325087 0.507394
O O7 0.500000 0.000000 0.500000
O O8 0.277936 0.162133 0.572332
O O9 0.449099 0.158518 0.519983
O O10 0.254775 0.979860 0.361788
O O11 0.947707 0.784321 0.822007
O O12 0.610408 0.878385 0.958159
O O13 0.578072 0.769156 0.161118
O O14 0.040787 0.102002 0.661618
O O15 0.951478 0.166989 0.986609
O O16 0.500000 0.500000 0.500000
O O17 0.566056 0.426531 0.191014
#
# Coordination Sequence:
#
# PCOD9012380 Si02
#       8
#     2   2   2   2   2   2   2   2
#     4  11  23  38  63  97 135 173 207 263 333 401
#     4  12  18  37  65  98 131 160 214 267 323 383
#     4  11  23  42  67 100 127 169 225 270 321 386
#     4  10  22  43  60  89 129 173 211 270 326 375
#     4  10  24  43  69  95 128 171 228 279 315 377
#     4  10  21  40  69  98 125 175 216 267 323 386
#     4  11  23  38  68  98 122 176 220 267 317 400
#     4  11  23  41  61  94 141 167 206 267 337 392
#
# _framework density 24.297464000000002
#
# number of rings (size 3 to 8) (size 9 to 14) (size 15 to 20)
#    0.000    1.250    5.000    1.125    3.500    6.500 
#    2.250    0.625    0.000    0.000    0.000    0.000 
#    0.000    0.000    0.000    0.000    0.000    0.000 
#
# Total GULP energy -89276.405253 kJ/mol
# GULP energy per Si atom -5579.775328 kJ/mol
# Density = 2.424216 g / cm^3
# Si number density = 24.297464 Si / 1000 Ang^3
#
#
#
# Elastic Constant Matrix: (Units=GPa)
#
#
# Indices 1 2 3 4 5 6 
#
# 1 86.7044 36.2318 61.7563 -13.9056 0.6435 -6.6680
# 2 36.2318 72.2335 31.5063 0.2686 -0.5878 2.3389
# 3 61.7563 31.5063 149.1760 -32.6965 -1.5881 14.9550
# 4 -13.9056 0.2686 -32.6965 39.2121 -0.7015 2.0850
# 5 0.6435 -0.5878 -1.5881 -0.7015 40.6478 1.2161
# 6 -6.6680 2.3389 14.9550 2.0850 1.2161 36.5902
#
#
#
# Elastic Compliance Matrix: (Units=1/GPa)
#
#
# Indices 1 2 3 4 5 6 
#
# 1 0.020695 -0.007296 -0.007640 0.000610 -0.000941 0.007357
# 2 -0.007296 0.018233 -0.001510 -0.003877 0.000303 -0.001667
# 3 -0.007640 -0.001510 0.012714 0.008291 0.000948 -0.006996
# 4 0.000610 -0.003877 0.008291 0.032939 0.000974 -0.004939
# 5 -0.000941 0.000303 0.000948 0.000974 0.024718 -0.001456
# 6 0.007357 -0.001667 -0.006996 -0.004939 -0.001456 0.031966
#
#
# Mechanical properties :
#
#
# Convention : Reuss Voigt Hill
#
# Bulk Modulus (GPa) = 53.33405 63.01140 58.17272
# Shear Modulus (GPa) = 27.71510 35.19800 31.45655
#
# Velocity S-wave (km/s) = 3.38103 3.81021 3.60202
# Velocity P-wave (km/s) = 6.10245 6.73399 6.42598
#
# Compressibility (1/GPa) = 0.01874975
#
# Stress axis : x y z
#
# Youngs Moduli (GPa) = 48.32165 54.84547 78.65337
#
# Poissons Ratio (x) = 0.40015 0.60092
# Poissons Ratio (y) = 0.35256 0.11876
# Poissons Ratio (z) = 0.36918 0.08281
#
# Static dielectric constant tensor:
#      x y z
#    x 1.939410 -0.044710 -0.001830 
#    y -0.044710 1.992190 -0.008700 
#    z -0.001830 -0.008700 1.985630 
# 
# From -- ./inp_files/206063.got.cif
#   From: 2010.05.17/outbox.cif.g08.bks.cpg/sg2_104_cif.got.tgz:206063.got - 2010.06.03 11:33:40.
