data_PCOD9012654
_publ_section_title
;
Structure prediction by ZEFSAII (Michael W. Deem and Ramdas Pophale) SiO2 
 PCOD9012654
Probable space group: P -1
;
_chemical_formula_sum "Si O2"
_cell_formula_units_Z 12
_cell_length_a 11.859035
_cell_length_b 12.654637
_cell_length_c 7.489814
_cell_angle_alpha 101.294006
_cell_angle_beta 137.816545
_cell_angle_gamma 50.099089
_cell_volume 486.412932
_symmetry_space_group_name_H-M "P -1"
_symmetry_group_IT_number 2
_symmetry_cell_setting 'triclinic'
loop_
_space_group_symop_operation_xyz
x,y,z
-x,-y,-z
loop_
_atom_site_type_symbol
_atom_site_label
_atom_site_fract_x
_atom_site_fract_y
_atom_site_fract_z
Si Si1 0.779881 0.342148 0.201640
Si Si2 0.444586 0.776684 0.112719
Si Si3 0.172183 0.020793 0.175878
Si Si4 0.036220 0.585071 0.294022
Si Si5 0.517697 0.108946 0.148918
Si Si6 0.205978 0.608332 0.159861
O O1 0.947443 0.307319 0.545977
O O2 0.500000 0.500000 0.000000
O O3 0.747912 0.231312 0.087719
O O4 0.827236 0.385546 0.089933
O O5 0.741450 0.595376 0.415415
O O6 0.385484 0.889358 0.237043
O O7 0.387520 0.856662 0.882343
O O8 0.300002 0.992309 0.501751
O O9 0.983690 0.203891 0.948352
O O10 0.000000 0.000000 0.000000
O O11 0.739196 0.708387 0.016851
O O12 0.874142 0.445938 0.815898
O O13 0.500000 0.000000 0.000000
O O14 0.500000 0.500000 0.500000
#
# Coordination Sequence:
#
# PCOD9012654 Si02
#       6
#     2   2   2   2   2   2
#     4  10  21  40  73 107 137 183 239 291 353 424
#     4  11  25  46  75 108 144 192 245 295 360 432
#     4  12  27  45  73 108 143 190 244 297 359 428
#     4  11  25  45  75 107 144 194 237 299 360 431
#     4  12  29  49  70 107 152 193 237 302 367 426
#     4  12  22  43  73 103 143 183 244 295 360 424
#
# _framework density 24.670396
#
# number of rings (size 3 to 8) (size 9 to 14) (size 15 to 20)
#    0.000    0.667    5.000    2.500    2.333    8.000 
#    0.000    1.667    0.000    0.000    0.000    0.000 
#    0.000    0.000    0.000    0.000    0.000    0.000 
#
# Total GULP energy -67164.395792 kJ/mol
# GULP energy per Si atom -5597.032983 kJ/mol
# Density = 2.461425 g / cm^3
# Si number density = 24.670396 Si / 1000 Ang^3
#
#
#
# Elastic Constant Matrix: (Units=GPa)
#
#
# Indices 1 2 3 4 5 6 
#
# 1 125.2948 24.1055 36.4517 8.1004 -31.7552 -23.7960
# 2 24.1055 112.0038 46.3280 -13.6499 -5.9697 -24.2165
# 3 36.4517 46.3280 104.1473 -11.8958 -11.4001 -12.4669
# 4 8.1004 -13.6499 -11.8958 43.7587 -10.6387 0.5147
# 5 -31.7552 -5.9697 -11.4001 -10.6387 41.0204 -5.6179
# 6 -23.7960 -24.2165 -12.4669 0.5147 -5.6179 40.3358
#
#
#
# Elastic Compliance Matrix: (Units=1/GPa)
#
#
# Indices 1 2 3 4 5 6 
#
# 1 0.012970 0.000717 -0.002727 -0.000480 0.010454 0.008701
# 2 0.000717 0.012652 -0.004329 0.003286 0.003012 0.007058
# 3 -0.002727 -0.004329 0.013022 0.003104 0.001685 0.000012
# 4 -0.000480 0.003286 0.003104 0.026811 0.008399 0.003477
# 5 0.010454 0.003012 0.001685 0.008399 0.037418 0.013601
# 6 0.008701 0.007058 0.000012 0.003477 0.013601 0.036016
#
#
# Mechanical properties :
#
#
# Convention : Reuss Voigt Hill
#
# Bulk Modulus (GPa) = 38.51329 61.69073 50.10201
# Shear Modulus (GPa) = 31.20655 40.66036 35.93346
#
# Velocity S-wave (km/s) = 3.56046 4.06414 3.82061
# Velocity P-wave (km/s) = 5.70504 6.86172 6.30994
#
# Compressibility (1/GPa) = 0.02596507
#
# Stress axis : x y z
#
# Youngs Moduli (GPa) = 77.10317 79.04156 76.79163
#
# Poissons Ratio (x) = -0.05665 0.20942
# Poissons Ratio (y) = -0.05526 0.33241
# Poissons Ratio (z) = 0.21027 0.34215
#
# Static dielectric constant tensor:
#      x y z
#    x 2.148790 0.063470 -0.031050 
#    y 0.063470 2.019200 0.057710 
#    z -0.031050 0.057710 1.921010 
# 
# From -- ./inp_files/308230.got.cif
#   From: 2010.05.17/outbox.cif.g08.bks.cpg/sg2_155_cif.got.tgz:308230.got - 2010.06.03 11:33:40.
