data_PCOD9012000
_publ_section_title
;
Structure prediction by ZEFSAII (Michael W. Deem and Ramdas Pophale) SiO2 
 PCOD9012000
Probable space group: P -1
;
_chemical_formula_sum "Si O2"
_cell_formula_units_Z 16
_cell_length_a 10.944940
_cell_length_b 11.911188
_cell_length_c 11.820673
_cell_angle_alpha 103.067268
_cell_angle_beta 147.072418
_cell_angle_gamma 63.179512
_cell_volume 709.595797
_symmetry_space_group_name_H-M "P -1"
_symmetry_group_IT_number 2
_symmetry_cell_setting 'triclinic'
loop_
_space_group_symop_operation_xyz
x,y,z
-x,-y,-z
loop_
_atom_site_type_symbol
_atom_site_label
_atom_site_fract_x
_atom_site_fract_y
_atom_site_fract_z
Si Si1 0.053328 0.458667 0.901648
Si Si2 0.301894 0.367443 0.526967
Si Si3 0.415333 0.573268 0.769499
Si Si4 0.129465 0.179283 0.957569
Si Si5 0.698881 0.977381 0.320602
Si Si6 0.063932 0.751399 0.727048
Si Si7 0.872304 0.156762 0.957540
Si Si8 0.103787 0.823378 0.434378
O O1 0.803644 0.547267 0.650637
O O2 0.287472 0.474728 0.036371
O O3 0.139453 0.302951 0.937152
O O4 0.000000 0.500000 0.000000
O O5 0.344242 0.457896 0.672555
O O6 0.579070 0.236137 0.703716
O O7 0.093364 0.325787 0.390945
O O8 0.315629 0.653178 0.827240
O O9 0.255766 0.678695 0.571048
O O10 0.397870 0.043291 0.125827
O O11 0.036631 0.204720 0.019854
O O12 0.915886 0.169177 0.713320
O O13 0.878005 0.875729 0.532336
O O14 0.812148 0.896919 0.274420
O O15 0.758825 0.097859 0.394707
O O16 0.120102 0.804849 0.898099
O O17 0.000000 0.000000 0.000000
#
# Coordination Sequence:
#
# PCOD9012000 Si02
#       8
#     2   2   2   2   2   2   2   2
#     4  12  27  43  70 105 142 182 228 290 352 421
#     4  12  26  47  71 102 143 188 239 288 355 417
#     4  11  24  46  73 106 144 184 235 294 351 420
#     4  12  23  42  69 100 138 181 229 283 347 414
#     4  10  22  41  69 101 140 176 226 292 344 408
#     4  11  26  47  71 104 143 190 241 287 350 419
#     4  12  29  48  71 104 142 193 237 292 348 424
#     4  10  21  40  68 105 137 177 227 286 349 410
#
# _framework density 22.548048000000001
#
# number of rings (size 3 to 8) (size 9 to 14) (size 15 to 20)
#    0.000    0.750    2.500    4.500    1.750    8.000 
#    2.250    0.000    0.000    0.000    0.000    0.000 
#    0.000    0.000    0.000    0.000    0.000    0.000 
#
# Total GULP energy -89540.867829 kJ/mol
# GULP energy per Si atom -5596.304239 kJ/mol
# Density = 2.249673 g / cm^3
# Si number density = 22.548048 Si / 1000 Ang^3
#
#
#
# Elastic Constant Matrix: (Units=GPa)
#
#
# Indices 1 2 3 4 5 6 
#
# 1 114.4330 34.6453 57.1442 -3.8904 -11.4446 -17.8180
# 2 34.6453 123.7003 49.2361 -10.6543 -3.7164 -6.6750
# 3 57.1442 49.2361 100.9432 -16.3780 -8.6863 -26.6633
# 4 -3.8904 -10.6543 -16.3780 39.7455 -1.4551 -0.0918
# 5 -11.4446 -3.7164 -8.6863 -1.4551 35.7364 7.0577
# 6 -17.8180 -6.6750 -26.6633 -0.0918 7.0577 39.0165
#
#
#
# Elastic Compliance Matrix: (Units=1/GPa)
#
#
# Indices 1 2 3 4 5 6 
#
# 1 0.012562 -0.000954 -0.006540 -0.001642 0.002126 0.000715
# 2 -0.000954 0.010242 -0.004887 0.000634 -0.000003 -0.002021
# 3 -0.006540 -0.004887 0.019528 0.006138 0.000529 0.009441
# 4 -0.001642 0.000634 0.006138 0.027761 0.001501 0.003347
# 5 0.002126 -0.000003 0.000529 0.001501 0.029648 -0.004028
# 6 0.000715 -0.002021 0.009441 0.003347 -0.004028 0.032799
#
#
# Mechanical properties :
#
#
# Convention : Reuss Voigt Hill
#
# Bulk Modulus (GPa) = 56.91832 69.01418 62.96625
# Shear Modulus (GPa) = 30.64499 36.10308 33.37404
#
# Velocity S-wave (km/s) = 3.69059 4.00579 3.85142
# Velocity P-wave (km/s) = 6.59231 7.21590 6.91114
#
# Compressibility (1/GPa) = 0.01756904
#
# Stress axis : x y z
#
# Youngs Moduli (GPa) = 79.60626 97.63994 51.20897
#
# Poissons Ratio (x) = 0.09314 0.33493
# Poissons Ratio (y) = 0.07594 0.25025
# Poissons Ratio (z) = 0.52066 0.47715
#
# Static dielectric constant tensor:
#      x y z
#    x 1.839650 0.005310 0.008660 
#    y 0.005310 1.845910 0.002280 
#    z 0.008660 0.002280 1.818640 
# 
# From -- ./inp_files/365238.got.cif
#   From: 2010.05.17/outbox.cif.g08.bks.cpg/sg2_183_cif.got.tgz:365238.got - 2010.06.03 11:33:40.
