data_PCOD9012771
_publ_section_title
;
Structure prediction by ZEFSAII (Michael W. Deem and Ramdas Pophale) SiO2 
 PCOD9012771
Probable space group: P -1
;
_chemical_formula_sum "Si O2"
_cell_formula_units_Z 16
_cell_length_a 19.103608
_cell_length_b 7.968125
_cell_length_c 7.372440
_cell_angle_alpha 69.940584
_cell_angle_beta 50.496452
_cell_angle_gamma 52.526664
_cell_volume 685.430319
_symmetry_space_group_name_H-M "P -1"
_symmetry_group_IT_number 2
_symmetry_cell_setting 'triclinic'
loop_
_space_group_symop_operation_xyz
x,y,z
-x,-y,-z
loop_
_atom_site_type_symbol
_atom_site_label
_atom_site_fract_x
_atom_site_fract_y
_atom_site_fract_z
Si Si1 0.922977 0.346692 0.225728
Si Si2 0.833858 0.739242 0.720695
Si Si3 0.976293 0.268276 0.750010
Si Si4 0.582131 0.842968 0.709999
Si Si5 0.135895 0.967011 0.099869
Si Si6 0.385331 0.905044 0.154579
Si Si7 0.228502 0.191860 0.777567
Si Si8 0.725271 0.340727 0.685443
O O1 0.860008 0.598844 0.261728
O O2 0.826550 0.305805 0.414396
O O3 0.968645 0.307422 0.961987
O O4 0.025159 0.198238 0.239604
O O5 0.900572 0.488821 0.688062
O O6 0.906433 0.820030 0.489800
O O7 0.722781 0.864123 0.754717
O O8 0.800808 0.784761 0.969699
O O9 0.923472 0.135085 0.854720
O O10 0.657712 0.835869 0.427964
O O11 0.652219 0.593864 0.756610
O O12 0.560419 0.054624 0.776559
O O13 0.465525 0.875356 0.870764
O O14 0.210493 0.004528 0.828575
O O15 0.214475 0.809490 0.184391
O O16 0.347235 0.740056 0.256792
#
# Coordination Sequence:
#
# PCOD9012771 Si02
#       8
#     2   2   2   2   2   2   2   2
#     4  10  23  39  59  93 128 166 200 251 302 378
#     4  10  21  41  60  93 125 165 199 260 307 367
#     4  10  23  37  62  93 131 160 206 250 307 369
#     4  10  25  43  66  92 119 165 210 265 309 365
#     4  12  22  37  60  93 125 164 204 248 310 370
#     4  11  22  43  68  88 124 163 211 257 317 361
#     4  10  23  40  60  89 126 161 206 251 307 365
#     4  11  23  41  66  93 126 161 210 255 311 369
#
# _framework density 23.343
#
# number of rings (size 3 to 8) (size 9 to 14) (size 15 to 20)
#    0.000    1.500    1.250    3.000    5.250    0.500 
#    0.000    0.000    0.000    2.250    0.000    0.000 
#    0.000    0.000    0.000    0.000    0.000    0.000 
#
# Total GULP energy -89229.928864 kJ/mol
# GULP energy per Si atom -5576.870554 kJ/mol
# Density = 2.328987 g / cm^3
# Si number density = 23.343000 Si / 1000 Ang^3
#
#
#
# Elastic Constant Matrix: (Units=GPa)
#
#
# Indices 1 2 3 4 5 6 
#
# 1 46.0011 12.8083 46.6740 -12.5635 -18.0069 18.6032
# 2 12.8083 84.9773 48.4389 -14.8819 -7.6660 8.1433
# 3 46.6740 48.4389 168.7829 -12.6517 -43.0070 13.7231
# 4 -12.5635 -14.8819 -12.6517 34.6654 7.6366 -8.0754
# 5 -18.0069 -7.6660 -43.0070 7.6366 38.4796 -8.0182
# 6 18.6032 8.1433 13.7231 -8.0754 -8.0182 29.1014
#
#
#
# Elastic Compliance Matrix: (Units=1/GPa)
#
#
# Indices 1 2 3 4 5 6 
#
# 1 0.042066 0.002401 -0.009003 0.007335 0.004467 -0.020051
# 2 0.002401 0.015371 -0.005305 0.005657 -0.003431 -0.002710
# 3 -0.009003 -0.005305 0.011795 -0.002427 0.009127 0.003519
# 4 0.007335 0.005657 -0.002427 0.034784 -0.004363 0.003322
# 5 0.004467 -0.003431 0.009127 -0.004363 0.039166 0.003381
# 6 -0.020051 -0.002710 0.003519 0.003322 0.003381 0.048132
#
#
# Mechanical properties :
#
#
# Convention : Reuss Voigt Hill
#
# Bulk Modulus (GPa) = 22.01861 57.28931 39.65396
# Shear Modulus (GPa) = 21.71394 33.23862 27.47628
#
# Velocity S-wave (km/s) = 3.05325 3.77758 3.43456
# Velocity P-wave (km/s) = 4.67791 6.60473 5.72300
#
# Compressibility (1/GPa) = 0.04541613
#
# Stress axis : x y z
#
# Youngs Moduli (GPa) = 23.77232 65.05824 84.78499
#
# Poissons Ratio (x) = -0.15618 0.76334
# Poissons Ratio (y) = -0.05707 0.44978
# Poissons Ratio (z) = 0.21403 0.34513
#
# Static dielectric constant tensor:
#      x y z
#    x 1.972550 0.083080 0.011270 
#    y 0.083080 1.948100 -0.006680 
#    z 0.011270 -0.006680 1.907900 
# 
# From -- ./inp_files/342523.got.cif
#   From: 2010.05.17/outbox.cif.g08.bks.cpg/sg2_172_cif.got.tgz:342523.got - 2010.06.03 11:33:40.
