data_PCOD9012676
_publ_section_title
;
Structure prediction by ZEFSAII (Michael W. Deem and Ramdas Pophale) SiO2 
 PCOD9012676
Probable space group: P -1
;
_chemical_formula_sum "Si O2"
_cell_formula_units_Z 16
_cell_length_a 8.054746
_cell_length_b 24.237319
_cell_length_c 8.145358
_cell_angle_alpha 124.779806
_cell_angle_beta 62.822948
_cell_angle_gamma 147.652547
_cell_volume 697.682914
_symmetry_space_group_name_H-M "P -1"
_symmetry_group_IT_number 2
_symmetry_cell_setting 'triclinic'
loop_
_space_group_symop_operation_xyz
x,y,z
-x,-y,-z
loop_
_atom_site_type_symbol
_atom_site_label
_atom_site_fract_x
_atom_site_fract_y
_atom_site_fract_z
Si Si1 0.814898 0.133394 0.069822
Si Si2 0.846206 0.313459 0.859922
Si Si3 0.592480 0.340050 0.562778
Si Si4 0.400388 0.137472 0.243073
Si Si5 0.790653 0.877685 0.065748
Si Si6 0.842772 0.700700 0.089306
Si Si7 0.743093 0.416182 0.275417
Si Si8 0.572257 0.481933 0.270027
O O1 0.683774 0.170822 0.230778
O O2 0.959866 0.190506 0.922987
O O3 0.060450 0.153862 0.081430
O O4 0.500000 0.000000 0.000000
O O5 0.476695 0.203149 0.812957
O O6 0.097937 0.403104 0.760374
O O7 0.860411 0.378180 0.096657
O O8 0.948437 0.272557 0.820401
O O9 0.458230 0.227227 0.441297
O O10 0.545643 0.354784 0.425123
O O11 0.963162 0.451160 0.600144
O O12 0.439773 0.343330 0.770747
O O13 0.366342 0.139960 0.063154
O O14 0.073547 0.007467 0.208997
O O15 0.701261 0.596944 0.873977
O O16 0.569217 0.402396 0.183485
O O17 0.500000 0.500000 0.500000
#
# Coordination Sequence:
#
# PCOD9012676 Si02
#       8
#     2   2   2   2   2   2   2   2
#     4  10  22  42  69  98 130 180 227 277 336 397
#     4  12  23  46  68  99 137 181 224 282 342 398
#     4  11  24  41  68  97 138 177 223 277 346 404
#     4  10  21  44  69  98 134 178 220 280 340 400
#     4  10  21  40  74  98 132 175 228 278 335 398
#     4  12  25  43  67  97 138 181 223 282 342 403
#     4  11  24  42  66  97 133 178 224 280 339 404
#     4  12  28  42  64  98 133 179 231 280 336 405
#
# _framework density 22.933055
#
# number of rings (size 3 to 8) (size 9 to 14) (size 15 to 20)
#    0.000    1.000    3.750    2.250    7.000    0.000 
#    0.000    4.375    0.000    0.000    0.000    0.000 
#    0.000    0.000    0.000    0.000    0.000    0.000 
#
# Total GULP energy -89344.272726 kJ/mol
# GULP energy per Si atom -5584.017045 kJ/mol
# Density = 2.288086 g / cm^3
# Si number density = 22.933055 Si / 1000 Ang^3
#
#
#
# Elastic Constant Matrix: (Units=GPa)
#
#
# Indices 1 2 3 4 5 6 
#
# 1 94.3275 24.5573 5.5097 -3.0704 -13.9647 -13.1686
# 2 24.5573 172.9343 55.1589 -15.8837 -2.2937 -15.9559
# 3 5.5097 55.1589 96.2254 -14.4545 -7.7526 -4.9369
# 4 -3.0704 -15.8837 -14.4545 40.4283 -6.6818 -1.0819
# 5 -13.9647 -2.2937 -7.7526 -6.6818 22.1940 -4.6766
# 6 -13.1686 -15.9559 -4.9369 -1.0819 -4.6766 27.7249
#
#
#
# Elastic Compliance Matrix: (Units=1/GPa)
#
#
# Indices 1 2 3 4 5 6 
#
# 1 0.013896 -0.001330 0.001878 0.003419 0.012048 0.008335
# 2 -0.001330 0.007650 -0.003948 0.001522 -0.000319 0.003074
# 3 0.001878 -0.003948 0.014050 0.004962 0.007728 0.002619
# 4 0.003419 0.001522 0.004962 0.029957 0.014537 0.007005
# 5 0.012048 -0.000319 0.007728 0.014537 0.063515 0.018196
# 6 0.008335 0.003074 0.002619 0.007005 0.018196 0.045606
#
#
# Mechanical properties :
#
#
# Convention : Reuss Voigt Hill
#
# Bulk Modulus (GPa) = 34.72510 59.32654 47.02582
# Shear Modulus (GPa) = 26.16803 36.62018 31.39411
#
# Velocity S-wave (km/s) = 3.38163 4.00037 3.70394
# Velocity P-wave (km/s) = 5.51561 6.87480 6.23237
#
# Compressibility (1/GPa) = 0.02879762
#
# Stress axis : x y z
#
# Youngs Moduli (GPa) = 71.96095 130.72112 71.17278
#
# Poissons Ratio (x) = 0.17380 -0.13369
# Poissons Ratio (y) = 0.09568 0.28101
# Poissons Ratio (z) = -0.13517 0.51613
#
# Static dielectric constant tensor:
#      x y z
#    x 1.950900 0.014810 0.054940 
#    y 0.014810 1.855890 0.004670 
#    z 0.054940 0.004670 1.851650 
# 
# From -- ./inp_files/227487.got.cif
#   From: 2010.05.17/outbox.cif.g08.bks.cpg/sg2_114_cif.got.tgz:227487.got - 2010.06.03 11:33:40.
