data_PCOD9012635
_publ_section_title
;
Structure prediction by ZEFSAII (Michael W. Deem and Ramdas Pophale) SiO2 
 PCOD9012635
Probable space group: P -1
;
_chemical_formula_sum "Si O2"
_cell_formula_units_Z 15
_cell_length_a 15.498974
_cell_length_b 15.193320
_cell_length_c 14.502498
_cell_angle_alpha 144.460581
_cell_angle_beta 161.658059
_cell_angle_gamma 40.358809
_cell_volume 623.664688
_symmetry_space_group_name_H-M "P -1"
_symmetry_group_IT_number 2
_symmetry_cell_setting 'triclinic'
loop_
_space_group_symop_operation_xyz
x,y,z
-x,-y,-z
loop_
_atom_site_type_symbol
_atom_site_label
_atom_site_fract_x
_atom_site_fract_y
_atom_site_fract_z
Si Si1 0.780333 0.292460 0.692908
Si Si2 0.285089 0.176746 0.369904
Si Si3 0.717644 0.930487 0.340075
Si Si4 0.500000 0.000000 0.000000
Si Si5 0.265796 0.294860 0.067373
Si Si6 0.005441 0.650390 0.353574
Si Si7 0.516672 0.456849 0.736798
Si Si8 0.229801 0.021336 0.364365
O O1 0.582498 0.336954 0.446482
O O2 0.640356 0.349301 0.691398
O O3 0.772467 0.109696 0.529885
O O4 0.087738 0.336149 0.010918
O O5 0.356577 0.345636 0.551681
O O6 0.192082 0.149431 0.358101
O O7 0.565691 0.094599 0.570019
O O8 0.052505 0.080459 0.993152
O O9 0.969704 0.823836 0.492627
O O10 0.640912 0.916730 0.356999
O O11 0.506881 0.896612 0.013836
O O12 0.730959 0.887880 0.095856
O O13 0.134427 0.362596 0.901245
O O14 0.294275 0.575874 0.583790
O O15 0.793567 0.556261 0.127073
#
# Coordination Sequence:
#
# PCOD9012635 Si02
#       8
#     2   2   2   1   2   2   2   2
#     4  11  23  37  67  87 123 164 235 263 311 370
#     4  10  22  41  66 102 127 161 217 282 329 373
#     4  10  22  42  66 100 124 179 217 271 320 392
#     4   8  20  38  62  92 136 160 220 264 320 364
#     4  10  22  39  57  93 121 174 214 272 309 382
#     4  11  26  40  61  88 140 170 209 258 343 385
#     4  12  24  42  61  94 130 175 203 277 325 396
#     4  10  21  40  72  98 126 161 222 280 320 382
#
# _framework density 24.051383000000001
#
# number of rings (size 3 to 8) (size 9 to 14) (size 15 to 20)
#    0.000    1.600    1.333    2.400    1.867   12.267 
#    0.000    1.333    0.000    0.000    0.000    0.000 
#    0.000    0.000    0.000    0.000    0.000    0.000 
#
# Total GULP energy -83520.283936 kJ/mol
# GULP energy per Si atom -5568.018929 kJ/mol
# Density = 2.399664 g / cm^3
# Si number density = 24.051383 Si / 1000 Ang^3
#
#
#
# Elastic Constant Matrix: (Units=GPa)
#
#
# Indices 1 2 3 4 5 6 
#
# 1 82.9091 29.9799 12.7877 -4.2397 7.1897 19.2130
# 2 29.9799 163.0711 25.2287 -10.4452 25.6343 -4.8880
# 3 12.7877 25.2287 70.7033 -13.5594 28.7104 3.4056
# 4 -4.2397 -10.4452 -13.5594 28.3984 1.7897 4.2238
# 5 7.1897 25.6343 28.7104 1.7897 31.2949 -5.5594
# 6 19.2130 -4.8880 3.4056 4.2238 -5.5594 32.4663
#
#
#
# Elastic Compliance Matrix: (Units=1/GPa)
#
#
# Indices 1 2 3 4 5 6 
#
# 1 0.016051 -0.002407 0.001530 0.004294 -0.005409 -0.011506
# 2 -0.002407 0.007707 0.000964 0.003218 -0.006665 0.000924
# 3 0.001530 0.000964 0.031298 0.019437 -0.033142 -0.012247
# 4 0.004294 0.003218 0.019437 0.050294 -0.027044 -0.015269
# 5 -0.005409 -0.006665 -0.033142 -0.027044 0.074507 0.021951
# 6 -0.011506 0.000924 -0.012247 -0.015269 0.021951 0.044779
#
#
# Mechanical properties :
#
#
# Convention : Reuss Voigt Hill
#
# Bulk Modulus (GPa) = 18.10585 50.29734 34.20160
# Shear Modulus (GPa) = 20.58690 35.01108 27.79899
#
# Velocity S-wave (km/s) = 2.92884 3.81947 3.40342
# Velocity P-wave (km/s) = 4.35682 6.35681 5.44935
#
# Compressibility (1/GPa) = 0.05523076
#
# Stress axis : x y z
#
# Youngs Moduli (GPa) = 62.30173 129.74927 31.95055
#
# Poissons Ratio (x) = 0.31233 -0.04888
# Poissons Ratio (y) = 0.14997 -0.03081
# Poissons Ratio (z) = -0.09532 -0.12512
#
# Static dielectric constant tensor:
#      x y z
#    x 1.988880 -0.006710 -0.115240 
#    y -0.006710 1.959300 0.111910 
#    z -0.115240 0.111910 2.178920 
# 
# From -- ./inp_files/533873.got.cif
#   From: 2010.05.17/outbox.cif.g08.bks.cpg/sg2_267_cif.got.tgz:533873.got - 2010.06.03 11:33:40.
