data_PCOD9012199
_publ_section_title
;
Structure prediction by ZEFSAII (Michael W. Deem and Ramdas Pophale) SiO2 
 PCOD9012199
Probable space group: P -1
;
_chemical_formula_sum "Si O2"
_cell_formula_units_Z 16
_cell_length_a 9.025732
_cell_length_b 17.703076
_cell_length_c 17.706068
_cell_angle_alpha 155.808487
_cell_angle_beta 131.030082
_cell_angle_gamma 36.370676
_cell_volume 651.091989
_symmetry_space_group_name_H-M "P -1"
_symmetry_group_IT_number 2
_symmetry_cell_setting 'triclinic'
loop_
_space_group_symop_operation_xyz
x,y,z
-x,-y,-z
loop_
_atom_site_type_symbol
_atom_site_label
_atom_site_fract_x
_atom_site_fract_y
_atom_site_fract_z
Si Si1 0.094857 0.108179 0.305783
Si Si2 0.955250 0.453265 0.067781
Si Si3 0.362140 0.152212 0.806184
Si Si4 0.017390 0.436187 0.358269
Si Si5 0.756536 0.389084 0.658131
Si Si6 0.572543 0.284531 0.636999
Si Si7 0.155621 0.874914 0.257618
Si Si8 0.207218 0.933401 0.942923
O O1 0.938230 0.398825 0.519869
O O2 0.233359 0.961669 0.295649
O O3 0.921048 0.052171 0.165410
O O4 0.330706 0.997578 0.225446
O O5 0.230266 0.240877 0.923721
O O6 0.861738 0.325159 0.957581
O O7 0.017305 0.598650 0.266708
O O8 0.768445 0.623505 0.090805
O O9 0.323439 0.975621 0.596595
O O10 0.737023 0.530777 0.319772
O O11 0.000000 0.500000 0.500000
O O12 0.222465 0.144345 0.145826
O O13 0.710808 0.358062 0.701719
O O14 0.869405 0.136364 0.424996
O O15 0.478285 0.649798 0.779737
O O16 0.655581 0.241496 0.712497
O O17 0.000000 0.000000 0.000000
#
# Coordination Sequence:
#
# PCOD9012199 Si02
#       8
#     2   2   2   2   2   2   2   2
#     4  11  27  46  69 106 144 179 233 293 354 412
#     4  11  23  39  68  99 137 182 234 280 344 410
#     4  10  21  40  68  99 135 179 235 282 337 413
#     4  11  24  44  74 103 133 178 237 292 335 406
#     4  12  24  43  72 100 141 185 243 283 339 418
#     4  11  21  42  71 100 142 180 230 283 346 418
#     4  12  27  45  65 107 148 186 219 292 365 410
#     4  12  24  45  75 102 132 185 244 287 342 408
#
# _framework density 24.574102
#
# number of rings (size 3 to 8) (size 9 to 14) (size 15 to 20)
#    0.000    0.750    5.000    2.625    3.500    5.000 
#    0.000    1.250    0.000    0.000    0.000    0.000 
#    0.000    0.000    0.000    0.000    0.000    0.000 
#
# Total GULP energy -89546.159187 kJ/mol
# GULP energy per Si atom -5596.634949 kJ/mol
# Density = 2.451817 g / cm^3
# Si number density = 24.574102 Si / 1000 Ang^3
#
#
#
# Elastic Constant Matrix: (Units=GPa)
#
#
# Indices 1 2 3 4 5 6 
#
# 1 46.8499 16.5782 24.9955 2.2353 8.0715 13.9397
# 2 16.5782 111.7010 31.5920 6.5347 3.8246 -0.1197
# 3 24.9955 31.5920 127.6715 6.9886 29.2773 -0.6684
# 4 2.2353 6.5347 6.9886 35.9547 -5.6493 0.5555
# 5 8.0715 3.8246 29.2773 -5.6493 38.9264 11.2663
# 6 13.9397 -0.1197 -0.6684 0.5555 11.2663 28.7347
#
#
#
# Elastic Compliance Matrix: (Units=1/GPa)
#
#
# Indices 1 2 3 4 5 6 
#
# 1 0.029665 -0.002880 -0.005966 0.000601 0.003292 -0.015844
# 2 -0.002880 0.009988 -0.001970 -0.001180 0.000583 0.001187
# 3 -0.005966 -0.001970 0.012049 -0.003329 -0.010208 0.007233
# 4 0.000601 -0.001180 -0.003329 0.029962 0.008030 -0.004102
# 5 0.003292 0.000583 -0.010208 0.008030 0.038767 -0.017187
# 6 -0.015844 0.001187 0.007233 -0.004102 -0.017187 0.049478
#
#
# Mechanical properties :
#
#
# Convention : Reuss Voigt Hill
#
# Bulk Modulus (GPa) = 33.25684 48.06155 40.65920
# Shear Modulus (GPa) = 24.80576 34.92694 29.86635
#
# Velocity S-wave (km/s) = 3.18059 3.77409 3.48998
# Velocity P-wave (km/s) = 5.20105 6.21224 5.72900
#
# Compressibility (1/GPa) = 0.03006900
#
# Stress axis : x y z
#
# Youngs Moduli (GPa) = 33.70930 100.12437 82.99328
#
# Poissons Ratio (x) = 0.28839 0.49512
# Poissons Ratio (y) = 0.09709 0.16353
# Poissons Ratio (z) = 0.20110 0.19728
#
# Static dielectric constant tensor:
#      x y z
#    x 1.954240 -0.028550 -0.010360 
#    y -0.028550 1.976030 -0.000490 
#    z -0.010360 -0.000490 1.980230 
# 
# From -- ./inp_files/596273.got.cif
#   From: 2010.05.17/outbox.cif.g08.bks.cpg/sg2_299_cif.got.tgz:596273.got - 2010.06.03 11:33:40.
