data_PCOD9012701
_publ_section_title
;
Structure prediction by ZEFSAII (Michael W. Deem and Ramdas Pophale) SiO2 
 PCOD9012701
Probable space group: P -1
;
_chemical_formula_sum "Si O2"
_cell_formula_units_Z 16
_cell_length_a 30.319019
_cell_length_b 5.795604
_cell_length_c 7.259268
_cell_angle_alpha 94.269668
_cell_angle_beta 41.320834
_cell_angle_gamma 122.500858
_cell_volume 573.020055
_symmetry_space_group_name_H-M "P -1"
_symmetry_group_IT_number 2
_symmetry_cell_setting 'triclinic'
loop_
_space_group_symop_operation_xyz
x,y,z
-x,-y,-z
loop_
_atom_site_type_symbol
_atom_site_label
_atom_site_fract_x
_atom_site_fract_y
_atom_site_fract_z
Si Si1 0.265026 0.889450 0.079478
Si Si2 0.899479 0.307570 0.576548
Si Si3 0.728458 0.821634 0.567865
Si Si4 0.924947 0.524575 0.913192
Si Si5 0.485639 0.445551 0.321559
Si Si6 0.273162 0.475804 0.909907
Si Si7 0.245481 0.621463 0.628616
Si Si8 0.502745 0.027397 0.717133
O O1 0.146816 0.629940 0.415020
O O2 0.292630 0.152809 0.158096
O O3 0.267458 0.624089 0.116631
O O4 0.367379 0.146560 0.654210
O O5 0.938757 0.533022 0.648855
O O6 0.975057 0.295688 0.292655
O O7 0.794884 0.917060 0.918387
O O8 0.703472 0.491178 0.592409
O O9 0.706546 0.004506 0.534747
O O10 0.846951 0.127419 0.187311
O O11 0.862456 0.601238 0.133649
O O12 0.500000 0.500000 0.500000
O O13 0.527669 0.788619 0.126909
O O14 0.531651 0.311392 0.119930
O O15 0.234082 0.551204 0.879110
O O16 0.384619 0.691363 0.553103
O O17 0.500000 0.000000 0.500000
#
# Coordination Sequence:
#
# PCOD9012701 Si02
#       8
#     2   2   2   2   2   2   2   2
#     4  11  22  35  59  91 117 148 198 246 295 347
#     4  11  20  36  61  88 113 154 205 251 282 341
#     4  10  23  39  56  82 123 158 189 242 298 342
#     4   9  22  38  55  85 119 161 194 246 291 342
#     4   9  18  33  53  84 117 143 176 234 295 338
#     4  11  20  35  61  86 114 149 208 239 280 354
#     4  10  21  41  56  80 116 164 196 231 291 352
#     4   9  18  31  53  87 115 136 176 244 297 322
#
# _framework density 27.922229999999999
#
# number of rings (size 3 to 8) (size 9 to 14) (size 15 to 20)
#    0.750    1.250    3.750    0.000    1.750    2.000 
#    0.000    1.250    0.000    0.000    0.000   58.625 
#    0.000    0.000    0.000    0.000    0.000    0.000 
#
# Total GULP energy -89123.468015 kJ/mol
# GULP energy per Si atom -5570.216751 kJ/mol
# Density = 2.785868 g / cm^3
# Si number density = 27.922230 Si / 1000 Ang^3
#
#
#
# Elastic Constant Matrix: (Units=GPa)
#
#
# Indices 1 2 3 4 5 6 
#
# 1 104.6369 12.3567 38.4034 13.5705 -32.2790 -19.0292
# 2 12.3567 102.3698 26.2265 39.2042 -14.7683 -40.3881
# 3 38.4034 26.2265 93.6825 33.6817 -43.5666 -14.8829
# 4 13.5705 39.2042 33.6817 40.4338 -14.8793 -13.9947
# 5 -32.2790 -14.7683 -43.5666 -14.8793 40.4913 4.9938
# 6 -19.0292 -40.3881 -14.8829 -13.9947 4.9938 50.1701
#
#
#
# Elastic Compliance Matrix: (Units=1/GPa)
#
#
# Indices 1 2 3 4 5 6 
#
# 1 0.013831 0.002744 -0.000002 -0.001227 0.010829 0.006034
# 2 0.002744 0.022068 0.004991 -0.019000 0.006860 0.014304
# 3 -0.000002 0.004991 0.027735 -0.017096 0.024760 0.005011
# 4 -0.001227 -0.019000 -0.017096 0.053835 -0.005875 -0.005231
# 5 0.010829 0.006860 0.024760 -0.005875 0.059148 0.009449
# 6 0.006034 0.014304 0.005011 -0.005231 0.009449 0.032823
#
#
# Mechanical properties :
#
#
# Convention : Reuss Voigt Hill
#
# Bulk Modulus (GPa) = 12.64224 50.51805 31.58015
# Shear Modulus (GPa) = 22.69220 41.13255 31.91237
#
# Velocity S-wave (km/s) = 2.85387 3.84228 3.38435
# Velocity P-wave (km/s) = 3.92389 6.14946 5.15814
#
# Compressibility (1/GPa) = 0.07909990
#
# Stress axis : x y z
#
# Youngs Moduli (GPa) = 72.30319 45.31452 36.05520
#
# Poissons Ratio (x) = -0.12434 0.00007
# Poissons Ratio (y) = -0.19839 -0.17995
# Poissons Ratio (z) = 0.00014 -0.22617
#
# Static dielectric constant tensor:
#      x y z
#    x 2.320150 -0.009330 0.075030 
#    y -0.009330 2.281910 0.025050 
#    z 0.075030 0.025050 2.269940 
# 
# From -- ./inp_files/358160.got.cif
#   From: 2010.05.17/outbox.cif.g08.bks.cpg/sg2_180_cif.got.tgz:358160.got - 2010.06.03 11:33:40.
