data_PCOD9012513
_publ_section_title
;
Structure prediction by ZEFSAII (Michael W. Deem and Ramdas Pophale) SiO2 
 PCOD9012513
Probable space group: P -1
;
_chemical_formula_sum "Si O2"
_cell_formula_units_Z 16
_cell_length_a 14.134636
_cell_length_b 11.365740
_cell_length_c 8.831733
_cell_angle_alpha 139.997969
_cell_angle_beta 48.971543
_cell_angle_gamma 133.838633
_cell_volume 633.146418
_symmetry_space_group_name_H-M "P -1"
_symmetry_group_IT_number 2
_symmetry_cell_setting 'triclinic'
loop_
_space_group_symop_operation_xyz
x,y,z
-x,-y,-z
loop_
_atom_site_type_symbol
_atom_site_label
_atom_site_fract_x
_atom_site_fract_y
_atom_site_fract_z
Si Si1 0.444859 0.569978 0.771714
Si Si2 0.909926 0.715057 0.343322
Si Si3 0.130112 0.682083 0.859148
Si Si4 0.701766 0.708439 0.073418
Si Si5 0.658608 0.128655 0.928706
Si Si6 0.840252 0.948726 0.424479
Si Si7 0.446164 0.100535 0.807421
Si Si8 0.303451 0.694732 0.445941
O O1 0.500000 0.500000 0.500000
O O2 0.397348 0.411894 0.802689
O O3 0.333236 0.655135 0.918525
O O4 0.561180 0.767024 0.914430
O O5 0.856474 0.522619 0.312501
O O6 0.807673 0.788574 0.436701
O O7 0.015413 0.885970 0.509186
O O8 0.991982 0.675230 0.073027
O O9 0.163375 0.703397 0.666307
O O10 0.242101 0.843633 0.005749
O O11 0.832771 0.850924 0.171698
O O12 0.640026 0.838640 0.169226
O O13 0.714682 0.533298 0.783131
O O14 0.725366 0.037383 0.642997
O O15 0.500000 0.000000 0.000000
O O16 0.606153 0.202458 0.693548
O O17 0.403813 0.863474 0.623696
#
# Coordination Sequence:
#
# PCOD9012513 Si02
#       8
#     2   2   2   2   2   2   2   2
#     4  11  23  38  62  97 139 182 223 268 326 418
#     4   9  21  46  67  95 131 177 239 292 339 377
#     4  10  21  40  70  97 130 182 230 287 336 408
#     4  11  24  41  64  98 134 184 220 274 346 408
#     4  11  23  35  63 107 140 168 222 280 351 408
#     4  10  22  42  67  92 136 179 224 290 337 404
#     4  10  24  43  63  94 153 184 211 269 348 430
#     4  10  22  41  65  96 136 187 217 268 344 420
#
# _framework density 25.270614999999999
#
# number of rings (size 3 to 8) (size 9 to 14) (size 15 to 20)
#    0.000    1.750    0.000    3.750   10.500    1.000 
#    6.750    1.250    0.000    0.000    0.000    0.000 
#    0.000    0.000    0.000    0.000    0.000    0.000 
#
# Total GULP energy -89197.801861 kJ/mol
# GULP energy per Si atom -5574.862616 kJ/mol
# Density = 2.521310 g / cm^3
# Si number density = 25.270615 Si / 1000 Ang^3
#
#
#
# Elastic Constant Matrix: (Units=GPa)
#
#
# Indices 1 2 3 4 5 6 
#
# 1 103.6211 6.4556 36.1878 7.1443 5.8800 -10.0146
# 2 6.4556 56.0708 25.1635 11.4736 7.8378 3.7285
# 3 36.1878 25.1635 182.3890 10.9148 25.9421 -1.7429
# 4 7.1443 11.4736 10.9148 45.9262 1.5739 0.8451
# 5 5.8800 7.8378 25.9421 1.5739 34.3619 9.4584
# 6 -10.0146 3.7285 -1.7429 0.8451 9.4584 23.5231
#
#
#
# Elastic Compliance Matrix: (Units=1/GPa)
#
#
# Indices 1 2 3 4 5 6 
#
# 1 0.010997 -0.000322 -0.001736 -0.001251 -0.001935 0.005427
# 2 -0.000322 0.020200 -0.002204 -0.004358 -0.001988 -0.002546
# 3 -0.001736 -0.002204 0.006899 -0.000688 -0.004968 0.002144
# 4 -0.001251 -0.004358 -0.000688 0.023208 0.000973 -0.001118
# 5 -0.001935 -0.001988 -0.004968 0.000973 0.038055 -0.016213
# 6 0.005427 -0.002546 0.002144 -0.001118 -0.016213 0.051944
#
#
# Mechanical properties :
#
#
# Convention : Reuss Voigt Hill
#
# Bulk Modulus (GPa) = 33.81327 53.07719 43.44523
# Shear Modulus (GPa) = 29.46659 39.04718 34.25688
#
# Velocity S-wave (km/s) = 3.41844 3.93512 3.68584
# Velocity P-wave (km/s) = 5.38428 6.45724 5.94502
#
# Compressibility (1/GPa) = 0.02957419
#
# Stress axis : x y z
#
# Youngs Moduli (GPa) = 90.93131 49.50605 144.93841
#
# Poissons Ratio (x) = 0.01592 0.25157
# Poissons Ratio (y) = 0.02924 0.31942
# Poissons Ratio (z) = 0.15783 0.10910
#
# Static dielectric constant tensor:
#      x y z
#    x 2.044350 -0.007160 0.025290 
#    y -0.007160 2.141140 0.004160 
#    z 0.025290 0.004160 2.086910 
# 
# From -- ./inp_files/308693.got.cif
#   From: 2010.05.17/outbox.cif.g08.bks.cpg/sg2_155_cif.got.tgz:308693.got - 2010.06.03 11:33:40.
