data_PCOD9012621
_publ_section_title
;
Structure prediction by ZEFSAII (Michael W. Deem and Ramdas Pophale) SiO2 
 PCOD9012621
Probable space group: P -1
;
_chemical_formula_sum "Si O2"
_cell_formula_units_Z 16
_cell_length_a 8.004581
_cell_length_b 11.917187
_cell_length_c 12.473635
_cell_angle_alpha 107.004233
_cell_angle_beta 144.322661
_cell_angle_gamma 67.648166
_cell_volume 641.525543
_symmetry_space_group_name_H-M "P -1"
_symmetry_group_IT_number 2
_symmetry_cell_setting 'triclinic'
loop_
_space_group_symop_operation_xyz
x,y,z
-x,-y,-z
loop_
_atom_site_type_symbol
_atom_site_label
_atom_site_fract_x
_atom_site_fract_y
_atom_site_fract_z
Si Si1 0.148861 0.824233 0.008757
Si Si2 0.238604 0.617653 0.427556
Si Si3 0.538786 0.960442 0.751278
Si Si4 0.242652 0.101475 0.450827
Si Si5 0.364932 0.723596 0.313422
Si Si6 0.687773 0.464960 0.331839
Si Si7 0.415121 0.350596 0.965627
Si Si8 0.583354 0.119646 0.114481
O O1 0.151316 0.801823 0.133142
O O2 0.362087 0.708286 0.030465
O O3 0.295739 0.936307 0.097231
O O4 0.807642 0.862999 0.806112
O O5 0.500000 0.500000 0.500000
O O6 0.270994 0.721184 0.388185
O O7 0.274913 0.632791 0.578527
O O8 0.916217 0.591823 0.232825
O O9 0.433822 0.888607 0.770140
O O10 0.272558 0.041140 0.567107
O O11 0.345899 0.224511 0.533292
O O12 0.911482 0.117884 0.247237
O O13 0.500000 0.000000 0.500000
O O14 0.445194 0.585307 0.277137
O O15 0.573663 0.424453 0.149136
O O16 0.000000 0.500000 0.500000
O O17 0.378428 0.238750 0.989067
O O18 0.500000 0.000000 0.000000
#
# Coordination Sequence:
#
# PCOD9012621 Si02
#       8
#     2   2   2   2   2   2   2   2
#     4  10  21  40  72 107 140 195 242 301 372 441
#     4  10  25  47  75 108 147 195 253 312 369 446
#     4  10  22  42  67 100 148 185 243 300 364 437
#     4  11  25  41  69 105 143 193 242 300 375 439
#     4  10  23  44  69  99 148 185 245 304 365 436
#     4  11  25  47  72 105 145 188 249 309 369 447
#     4  12  25  44  76 106 148 198 248 304 387 436
#     4  12  25  43  70 105 146 188 241 301 367 441
#
# _framework density 24.940548
#
# number of rings (size 3 to 8) (size 9 to 14) (size 15 to 20)
#    0.000    1.250    1.250    3.375    5.250    6.000 
#    0.000    6.250    0.000    0.000    0.000    0.000 
#    0.000    0.000    0.000    0.000    0.000    0.000 
#
# Total GULP energy -89523.722065 kJ/mol
# GULP energy per Si atom -5595.232629 kJ/mol
# Density = 2.488378 g / cm^3
# Si number density = 24.940548 Si / 1000 Ang^3
#
#
#
# Elastic Constant Matrix: (Units=GPa)
#
#
# Indices 1 2 3 4 5 6 
#
# 1 115.1067 24.8115 26.4368 -7.8212 -2.0445 19.4859
# 2 24.8115 95.2682 26.1441 -2.8146 -4.0090 11.9826
# 3 26.4368 26.1441 143.5665 -7.7445 15.4279 -4.8023
# 4 -7.8212 -2.8146 -7.7445 31.3074 4.6334 -12.9210
# 5 -2.0445 -4.0090 15.4279 4.6334 40.5110 -12.3769
# 6 19.4859 11.9826 -4.8023 -12.9210 -12.3769 46.9359
#
#
#
# Elastic Compliance Matrix: (Units=1/GPa)
#
#
# Indices 1 2 3 4 5 6 
#
# 1 0.010109 -0.001695 -0.001632 0.000403 -0.000271 -0.003892
# 2 -0.001695 0.011858 -0.002126 -0.001107 0.001256 -0.002515
# 3 -0.001632 -0.002126 0.008201 0.002710 -0.003120 0.001983
# 4 0.000403 -0.001107 0.002710 0.037078 -0.002310 0.009991
# 5 -0.000271 0.001256 -0.003120 -0.002310 0.028161 0.006263
# 6 -0.003892 -0.002515 0.001983 0.009991 0.006263 0.028168
#
#
# Mechanical properties :
#
#
# Convention : Reuss Voigt Hill
#
# Bulk Modulus (GPa) = 51.91633 56.52511 54.22072
# Shear Modulus (GPa) = 35.48563 42.18746 38.83655
#
# Velocity S-wave (km/s) = 3.77611 4.11727 3.95037
# Velocity P-wave (km/s) = 6.31452 6.73170 6.52644
#
# Compressibility (1/GPa) = 0.01926176
#
# Stress axis : x y z
#
# Youngs Moduli (GPa) = 98.91982 84.33128 121.93738
#
# Poissons Ratio (x) = 0.14293 0.19902
# Poissons Ratio (y) = 0.16766 0.25925
# Poissons Ratio (z) = 0.16146 0.17930
#
# Static dielectric constant tensor:
#      x y z
#    x 2.082340 0.002130 -0.084050 
#    y 0.002130 1.969270 -0.033290 
#    z -0.084050 -0.033290 1.963020 
# 
# From -- ./inp_files/311329.got.cif
#   From: 2010.05.17/outbox.cif.g08.bks.cpg/sg2_156_cif.got.tgz:311329.got - 2010.06.03 11:33:40.
