data_PCOD9012903
_publ_section_title
;
Structure prediction by ZEFSAII (Michael W. Deem and Ramdas Pophale) SiO2 
 PCOD9012903
Probable space group: P -1
;
_chemical_formula_sum "Si O2"
_cell_formula_units_Z 16
_cell_length_a 17.532999
_cell_length_b 13.462830
_cell_length_c 25.897080
_cell_angle_alpha 157.562173
_cell_angle_beta 159.244516
_cell_angle_gamma 22.560175
_cell_volume 743.519680
_symmetry_space_group_name_H-M "P -1"
_symmetry_group_IT_number 2
_symmetry_cell_setting 'triclinic'
loop_
_space_group_symop_operation_xyz
x,y,z
-x,-y,-z
loop_
_atom_site_type_symbol
_atom_site_label
_atom_site_fract_x
_atom_site_fract_y
_atom_site_fract_z
Si Si1 0.954176 0.237148 0.366842
Si Si2 0.104729 0.517921 0.850487
Si Si3 0.986754 0.867183 0.109194
Si Si4 0.317507 0.622409 0.489601
Si Si5 0.509233 0.459636 0.268876
Si Si6 0.938123 0.941884 0.856902
Si Si7 0.518442 0.119652 0.458569
Si Si8 0.520457 0.060083 0.178222
O O1 0.720291 0.349721 0.308186
O O2 0.000000 0.500000 0.500000
O O3 0.941256 0.034972 0.215285
O O4 0.206892 0.050918 0.465441
O O5 0.940720 0.350868 0.676142
O O6 0.073042 0.651233 0.836589
O O7 0.369888 0.286294 0.921737
O O8 0.013253 0.803231 0.964829
O O9 0.241283 0.584037 0.135919
O O10 0.995739 0.074686 0.168906
O O11 0.763247 0.798163 0.924269
O O12 0.500000 0.500000 0.500000
O O13 0.400766 0.380957 0.470428
O O14 0.347302 0.882544 0.661125
O O15 0.501528 0.736490 0.428673
O O16 0.555900 0.209968 0.220857
O O17 0.653248 0.038095 0.726904
#
# Coordination Sequence:
#
# PCOD9012903 Si02
#       8
#     2   2   2   2   2   2   2   2
#     4  11  23  39  64  97 122 168 213 251 316 379
#     4  10  23  40  66  93 123 171 210 256 320 370
#     4  11  24  41  63  95 126 168 209 261 316 368
#     4  10  21  41  62  88 125 165 204 261 315 370
#     4  10  23  43  64  92 134 163 205 268 309 374
#     4  10  21  43  64  91 134 162 208 269 309 365
#     4   9  21  40  63  91 126 165 205 256 317 368
#     4  11  24  41  64  96 125 165 217 252 316 387
#
# _framework density 21.519268
#
# number of rings (size 3 to 8) (size 9 to 14) (size 15 to 20)
#    0.000    1.750    0.000    3.000    5.250    3.000 
#    4.500    0.000    0.000    0.000    0.000    0.000 
#    0.000    0.000    0.000    0.000    0.000    0.000 
#
# Total GULP energy -89351.048029 kJ/mol
# GULP energy per Si atom -5584.440502 kJ/mol
# Density = 2.147029 g / cm^3
# Si number density = 21.519268 Si / 1000 Ang^3
#
#
#
# Elastic Constant Matrix: (Units=GPa)
#
#
# Indices 1 2 3 4 5 6 
#
# 1 105.3679 38.6072 14.0943 -11.7485 12.9142 -25.6269
# 2 38.6072 105.4767 17.6409 -16.8342 7.7842 -17.0019
# 3 14.0943 17.6409 73.1992 -14.6136 11.5089 -11.8045
# 4 -11.7485 -16.8342 -14.6136 29.2375 0.0723 6.0694
# 5 12.9142 7.7842 11.5089 0.0723 17.8301 -5.5937
# 6 -25.6269 -17.0019 -11.8045 6.0694 -5.5937 35.0936
#
#
#
# Elastic Compliance Matrix: (Units=1/GPa)
#
#
# Indices 1 2 3 4 5 6 
#
# 1 0.013283 -0.002960 0.000866 0.002622 -0.006690 0.007037
# 2 -0.002960 0.011966 -0.000662 0.004907 -0.001966 0.002251
# 3 0.000866 -0.000662 0.017438 0.008069 -0.010660 0.003083
# 4 0.002622 0.004907 0.008069 0.042545 -0.010034 -0.001951
# 5 -0.006690 -0.001966 -0.010660 -0.010034 0.069788 0.003435
# 6 0.007037 0.002251 0.003083 -0.001951 0.003435 0.036647
#
#
# Mechanical properties :
#
#
# Convention : Reuss Voigt Hill
#
# Bulk Modulus (GPa) = 26.89992 47.19207 37.04599
# Shear Modulus (GPa) = 23.85823 30.67902 27.26862
#
# Velocity S-wave (km/s) = 3.33331 3.77988 3.56360
# Velocity P-wave (km/s) = 5.22897 6.40529 5.84679
#
# Compressibility (1/GPa) = 0.03717483
#
# Stress axis : x y z
#
# Youngs Moduli (GPa) = 75.28262 83.56919 57.34514
#
# Poissons Ratio (x) = 0.24739 -0.04966
# Poissons Ratio (y) = 0.22286 0.03796
# Poissons Ratio (z) = -0.06519 0.05533
#
# Static dielectric constant tensor:
#      x y z
#    x 1.689600 -0.013630 0.038090 
#    y -0.013630 1.862870 -0.007270 
#    z 0.038090 -0.007270 1.831720 
# 
# From -- ./inp_files/577953.got.cif
#   From: 2010.05.17/outbox.cif.g08.bks.cpg/sg2_289_cif.got.tgz:577953.got - 2010.06.03 11:33:40.
