data_PCOD9012249
_publ_section_title
;
Structure prediction by ZEFSAII (Michael W. Deem and Ramdas Pophale) SiO2 
 PCOD9012249
Probable space group: P -1
;
_chemical_formula_sum "Si O2"
_cell_formula_units_Z 14
_cell_length_a 8.076996
_cell_length_b 11.387311
_cell_length_c 7.979421
_cell_angle_alpha 51.224814
_cell_angle_beta 76.602001
_cell_angle_gamma 68.599433
_cell_volume 532.708024
_symmetry_space_group_name_H-M "P -1"
_symmetry_group_IT_number 2
_symmetry_cell_setting 'triclinic'
loop_
_space_group_symop_operation_xyz
x,y,z
-x,-y,-z
loop_
_atom_site_type_symbol
_atom_site_label
_atom_site_fract_x
_atom_site_fract_y
_atom_site_fract_z
Si Si1 0.382751 0.763904 0.469239
Si Si2 0.521783 0.947290 0.739270
Si Si3 0.989310 0.415282 0.843359
Si Si4 0.920598 0.164935 0.281779
Si Si5 0.860040 0.966812 0.190780
Si Si6 0.857640 0.349824 0.568565
Si Si7 0.384447 0.378356 0.159796
O O1 0.228051 0.735109 0.649831
O O2 0.325900 0.694918 0.374572
O O3 0.559378 0.689235 0.602631
O O4 0.355624 0.951267 0.303988
O O5 0.575260 0.760311 0.864887
O O6 0.500000 0.000000 0.500000
O O7 0.339749 0.020736 0.821333
O O8 0.901543 0.374995 0.728099
O O9 0.824670 0.536159 0.866683
O O10 0.133700 0.497292 0.673674
O O11 0.041100 0.261368 0.084947
O O12 0.821785 0.109810 0.201598
O O13 0.000000 0.000000 0.500000
O O14 0.970194 0.797944 0.390808
O O15 0.000000 0.000000 0.000000
O O16 0.500000 0.500000 0.000000
#
# Coordination Sequence:
#
# PCOD9012249 Si02
#       7
#     2   2   2   2   2   2   2
#     4  11  23  42  67 104 133 181 242 291 337 419
#     4  10  21  40  69 102 135 188 236 283 352 412
#     4  11  25  46  68 102 140 192 223 287 375 418
#     4  12  23  42  72 104 133 179 243 294 342 417
#     4  12  22  42  72 100 142 188 234 286 353 421
#     4  11  25  43  70 102 146 181 231 295 359 422
#     4  11  21  41  69  97 142 180 227 282 349 422
#
# _framework density 26.280812999999998
#
# number of rings (size 3 to 8) (size 9 to 14) (size 15 to 20)
#    0.000    0.857    7.143    1.714    0.000    1.143 
#    2.571    0.714    0.000    0.000    0.000    0.000 
#    0.000    0.000    0.000    0.000    0.000    0.000 
#
# Total GULP energy -78218.948462 kJ/mol
# GULP energy per Si atom -5587.067747 kJ/mol
# Density = 2.622100 g / cm^3
# Si number density = 26.280813 Si / 1000 Ang^3
#
#
#
# Elastic Constant Matrix: (Units=GPa)
#
#
# Indices 1 2 3 4 5 6 
#
# 1 101.2823 33.1536 36.6728 -14.2993 -10.5861 15.2861
# 2 33.1536 79.8890 26.4917 -20.2312 -2.4675 22.5447
# 3 36.6728 26.4917 146.7558 -33.2397 -23.0212 3.7370
# 4 -14.2993 -20.2312 -33.2397 45.3097 -1.8374 -7.0793
# 5 -10.5861 -2.4675 -23.0212 -1.8374 29.9035 -9.3022
# 6 15.2861 22.5447 3.7370 -7.0793 -9.3022 55.1555
#
#
#
# Elastic Compliance Matrix: (Units=1/GPa)
#
#
# Indices 1 2 3 4 5 6 
#
# 1 0.012342 -0.003925 -0.001822 0.000711 0.002310 -0.001212
# 2 -0.003925 0.017273 -0.001378 0.004465 -0.002534 -0.005734
# 3 -0.001822 -0.001378 0.010432 0.007237 0.008568 0.002735
# 4 0.000711 0.004465 0.007237 0.030415 0.008964 0.002903
# 5 0.002310 -0.002534 0.008568 0.008964 0.043794 0.008352
# 6 -0.001212 -0.005734 0.002735 0.002903 0.008352 0.022406
#
#
# Mechanical properties :
#
#
# Convention : Reuss Voigt Hill
#
# Bulk Modulus (GPa) = 38.76016 57.84039 48.30027
# Shear Modulus (GPa) = 31.34609 41.51433 36.43021
#
# Velocity S-wave (km/s) = 3.45735 3.97879 3.72720
# Velocity P-wave (km/s) = 5.54240 6.56993 6.07792
#
# Compressibility (1/GPa) = 0.02579969
#
# Stress axis : x y z
#
# Youngs Moduli (GPa) = 81.02189 57.89269 95.86319
#
# Poissons Ratio (x) = 0.22720 0.17463
# Poissons Ratio (y) = 0.31797 0.13206
# Poissons Ratio (z) = 0.14759 0.07975
#
# Static dielectric constant tensor:
#      x y z
#    x 2.182620 0.040300 0.089610 
#    y 0.040300 2.142510 0.022750 
#    z 0.089610 0.022750 2.194730 
# 
# From -- ./inp_files/174038.got.cif
#   From: 2010.05.17/outbox.cif.g08.bks.cpg/sg2_88_cif.got.tgz:174038.got - 2010.06.03 11:33:40.
