data_PCOD9012192
_publ_section_title
;
Structure prediction by ZEFSAII (Michael W. Deem and Ramdas Pophale) SiO2 
 PCOD9012192
Probable space group: P -1
;
_chemical_formula_sum "Si O2"
_cell_formula_units_Z 16
_cell_length_a 12.777588
_cell_length_b 7.979381
_cell_length_c 10.904849
_cell_angle_alpha 120.296401
_cell_angle_beta 45.898298
_cell_angle_gamma 118.016593
_cell_volume 676.630007
_symmetry_space_group_name_H-M "P -1"
_symmetry_group_IT_number 2
_symmetry_cell_setting 'triclinic'
loop_
_space_group_symop_operation_xyz
x,y,z
-x,-y,-z
loop_
_atom_site_type_symbol
_atom_site_label
_atom_site_fract_x
_atom_site_fract_y
_atom_site_fract_z
Si Si1 0.297085 0.437885 0.868640
Si Si2 0.784267 0.444908 0.753653
Si Si3 0.589490 0.456167 0.533094
Si Si4 0.306513 0.151487 0.266823
Si Si5 0.017774 0.190024 0.410297
Si Si6 0.279116 0.793707 0.838717
Si Si7 0.491554 0.853166 0.130358
Si Si8 0.035691 0.100119 0.874379
O O1 0.455640 0.374281 0.703720
O O2 0.314187 0.652449 0.868290
O O3 0.175309 0.277865 0.839347
O O4 0.246302 0.465636 0.057425
O O5 0.867620 0.621913 0.668667
O O6 0.625390 0.331143 0.792070
O O7 0.895405 0.289650 0.613654
O O8 0.500000 0.500000 0.500000
O O9 0.678952 0.658876 0.588157
O O10 0.695616 0.312668 0.348344
O O11 0.133620 0.084530 0.350384
O O12 0.384503 0.990126 0.209089
O O13 0.406330 0.205411 0.083385
O O14 0.946439 0.052888 0.304653
O O15 0.392431 0.002063 0.826860
O O16 0.112687 0.818423 0.003848
O O17 0.000000 0.000000 0.000000
#
# Coordination Sequence:
#
# PCOD9012192 Si02
#       8
#     2   2   2   2   2   2   2   2
#     4  11  22  45  68  95 131 176 214 273 329 383
#     4  11  25  44  67  93 136 176 220 269 322 391
#     4  10  21  40  68  99 133 165 213 271 332 379
#     4  11  21  41  69  96 135 166 218 274 322 388
#     4  11  27  45  64  97 134 179 221 261 331 389
#     4  11  24  44  68 102 129 171 219 272 330 391
#     4  11  21  42  68  97 129 165 219 275 321 382
#     4  12  26  46  67  93 138 177 217 268 327 394
#
# _framework density 23.646602000000001
#
# number of rings (size 3 to 8) (size 9 to 14) (size 15 to 20)
#    0.000    1.000    6.250    1.125    3.500    1.000 
#    2.250    0.625    0.000    0.000    0.000    0.000 
#    0.000    0.000    0.000    0.000    0.000    0.000 
#
# Total GULP energy -89578.356270 kJ/mol
# GULP energy per Si atom -5598.647267 kJ/mol
# Density = 2.359278 g / cm^3
# Si number density = 23.646602 Si / 1000 Ang^3
#
#
#
# Elastic Constant Matrix: (Units=GPa)
#
#
# Indices 1 2 3 4 5 6 
#
# 1 61.8708 15.4509 -0.1703 6.4942 2.1737 17.5328
# 2 15.4509 118.8636 16.9590 -1.2423 6.5870 33.7356
# 3 -0.1703 16.9590 104.7265 10.6831 0.3715 13.2516
# 4 6.4942 -1.2423 10.6831 40.3431 14.0847 -1.1214
# 5 2.1737 6.5870 0.3715 14.0847 28.0764 7.0733
# 6 17.5328 33.7356 13.2516 -1.1214 7.0733 39.1427
#
#
#
# Elastic Compliance Matrix: (Units=1/GPa)
#
#
# Indices 1 2 3 4 5 6 
#
# 1 0.019458 -0.000223 0.001841 -0.005167 0.003620 -0.009949
# 2 -0.000223 0.011186 -0.000697 0.000494 -0.000529 -0.009195
# 3 0.001841 -0.000697 0.010678 -0.004401 0.003233 -0.004549
# 4 -0.005167 0.000494 -0.004401 0.033419 -0.018350 0.007652
# 5 0.003620 -0.000529 0.003233 -0.018350 0.047487 -0.011367
# 6 -0.009949 -0.009195 -0.004549 0.007652 -0.011367 0.041742
#
#
# Mechanical properties :
#
#
# Convention : Reuss Voigt Hill
#
# Bulk Modulus (GPa) = 23.16778 38.88224 31.02501
# Shear Modulus (GPa) = 28.32628 38.39385 33.36007
#
# Velocity S-wave (km/s) = 3.46483 4.03383 3.76011
# Velocity P-wave (km/s) = 5.08188 6.17855 5.65685
#
# Compressibility (1/GPa) = 0.04316340
#
# Stress axis : x y z
#
# Youngs Moduli (GPa) = 51.39309 89.40103 93.65427
#
# Poissons Ratio (x) = 0.01993 -0.17240
# Poissons Ratio (y) = 0.01146 0.06525
# Poissons Ratio (z) = -0.09461 0.06229
#
# Static dielectric constant tensor:
#      x y z
#    x 1.972370 -0.073720 0.009710 
#    y -0.073720 1.914320 -0.013530 
#    z 0.009710 -0.013530 1.886980 
# 
# From -- ./inp_files/298224.got.cif
#   From: 2010.05.17/outbox.cif.g08.bks.cpg/sg2_150_cif.got.tgz:298224.got - 2010.06.03 11:33:40.
