data_PCOD9012818
_publ_section_title
;
Structure prediction by ZEFSAII (Michael W. Deem and Ramdas Pophale) SiO2 
 PCOD9012818
Probable space group: P -1
;
_chemical_formula_sum "Si O2"
_cell_formula_units_Z 12
_cell_length_a 14.628235
_cell_length_b 7.130548
_cell_length_c 8.970121
_cell_angle_alpha 53.307694
_cell_angle_beta 45.334405
_cell_angle_gamma 60.360777
_cell_volume 529.025606
_symmetry_space_group_name_H-M "P -1"
_symmetry_group_IT_number 2
_symmetry_cell_setting 'triclinic'
loop_
_space_group_symop_operation_xyz
x,y,z
-x,-y,-z
loop_
_atom_site_type_symbol
_atom_site_label
_atom_site_fract_x
_atom_site_fract_y
_atom_site_fract_z
Si Si1 0.776983 0.966687 0.883962
Si Si2 0.133440 0.601219 0.306273
Si Si3 0.320416 0.221523 0.190693
Si Si4 0.945454 0.268257 0.973830
Si Si5 0.590908 0.266825 0.763569
Si Si6 0.814663 0.535128 0.269878
O O1 0.873322 0.156857 0.710897
O O2 0.643313 0.138197 0.919897
O O3 0.789488 0.826198 0.781445
O O4 0.782412 0.776473 0.097693
O O5 0.154152 0.666820 0.077746
O O6 0.000000 0.500000 0.500000
O O7 0.069256 0.415828 0.775247
O O8 0.381812 0.952378 0.281056
O O9 0.438372 0.334903 0.924761
O O10 0.249488 0.395959 0.308939
O O11 0.875320 0.330222 0.182465
O O12 0.000000 0.000000 0.000000
O O13 0.684949 0.454071 0.523731
#
# Coordination Sequence:
#
# PCOD9012818 Si02
#       6
#     2   2   2   2   2   2
#     4  10  21  41  61  91 119 155 204 244 298 361
#     4  12  24  38  64  89 123 162 195 250 305 353
#     4   9  22  44  57  92 122 150 214 244 286 375
#     4  11  23  38  56  95 122 153 207 242 292 369
#     4   9  21  44  64  86 120 163 198 249 305 343
#     4  11  22  40  65  85 126 159 196 256 296 351
#
# _framework density 22.683212999999999
#
# number of rings (size 3 to 8) (size 9 to 14) (size 15 to 20)
#    1.000    0.667    3.333    1.000    2.333    2.000 
#    0.000    0.833    0.000    0.000    0.000    0.000 
#    0.000    0.000    0.000    0.000    0.000    0.000 
#
# Total GULP energy -66827.826870 kJ/mol
# GULP energy per Si atom -5568.985572 kJ/mol
# Density = 2.263158 g / cm^3
# Si number density = 22.683213 Si / 1000 Ang^3
#
#
#
# Elastic Constant Matrix: (Units=GPa)
#
#
# Indices 1 2 3 4 5 6 
#
# 1 76.3142 39.2448 34.0126 -2.8188 -19.9633 20.0482
# 2 39.2448 122.1212 42.2609 -0.6802 -24.6518 5.5930
# 3 34.0126 42.2609 77.2741 -6.7215 -34.6181 3.1858
# 4 -2.8188 -0.6802 -6.7215 27.5014 0.2728 -2.5918
# 5 -19.9633 -24.6518 -34.6181 0.2728 46.5002 -3.5031
# 6 20.0482 5.5930 3.1858 -2.5918 -3.5031 35.4865
#
#
#
# Elastic Compliance Matrix: (Units=1/GPa)
#
#
# Indices 1 2 3 4 5 6 
#
# 1 0.020936 -0.003842 -0.005935 -0.000411 0.001741 -0.010548
# 2 -0.003842 0.010979 -0.003803 -0.000986 0.001410 0.000849
# 3 -0.005935 -0.003803 0.024029 0.005368 0.013559 0.003526
# 4 -0.000411 -0.000986 0.005368 0.037857 0.003301 0.002996
# 5 0.001741 0.001410 0.013559 0.003301 0.033157 0.001091
# 6 -0.010548 0.000849 0.003526 0.002996 0.001091 0.034015
#
#
# Mechanical properties :
#
#
# Convention : Reuss Voigt Hill
#
# Bulk Modulus (GPa) = 34.74025 56.30511 45.52268
# Shear Modulus (GPa) = 25.28744 32.57704 28.93224
#
# Velocity S-wave (km/s) = 3.34250 3.79380 3.57528
# Velocity P-wave (km/s) = 5.49955 6.63828 6.09557
#
# Compressibility (1/GPa) = 0.02878505
#
# Stress axis : x y z
#
# Youngs Moduli (GPa) = 47.76543 91.07947 41.61683
#
# Poissons Ratio (x) = 0.34992 0.24699
# Poissons Ratio (y) = 0.18351 0.15825
# Poissons Ratio (z) = 0.28348 0.34634
#
# Static dielectric constant tensor:
#      x y z
#    x 1.920740 -0.009340 0.064610 
#    y -0.009340 1.881380 -0.034630 
#    z 0.064610 -0.034630 1.880980 
# 
# From -- ./inp_files/316789.got.cif
#   From: 2010.05.17/outbox.cif.g08.bks.cpg/sg2_159_cif.got.tgz:316789.got - 2010.06.03 11:33:40.
