data_PCOD9012636
_publ_section_title
;
Structure prediction by ZEFSAII (Michael W. Deem and Ramdas Pophale) SiO2 
 PCOD9012636
Probable space group: P -1
;
_chemical_formula_sum "Si O2"
_cell_formula_units_Z 14
_cell_length_a 8.335243
_cell_length_b 9.026608
_cell_length_c 10.248127
_cell_angle_alpha 95.708020
_cell_angle_beta 46.324335
_cell_angle_gamma 103.148410
_cell_volume 541.235215
_symmetry_space_group_name_H-M "P -1"
_symmetry_group_IT_number 2
_symmetry_cell_setting 'triclinic'
loop_
_space_group_symop_operation_xyz
x,y,z
-x,-y,-z
loop_
_atom_site_type_symbol
_atom_site_label
_atom_site_fract_x
_atom_site_fract_y
_atom_site_fract_z
Si Si1 0.242969 0.693256 0.282710
Si Si2 0.705423 0.387782 0.195746
Si Si3 0.618112 0.070440 0.573254
Si Si4 0.779906 0.800789 0.542402
Si Si5 0.180138 0.923194 0.966740
Si Si6 0.880507 0.564107 0.863640
Si Si7 0.711363 0.837502 0.887439
O O1 0.300354 0.754922 0.405907
O O2 0.194648 0.521237 0.238478
O O3 0.006621 0.741645 0.391818
O O4 0.459223 0.770888 0.079603
O O5 0.454259 0.313732 0.383364
O O6 0.827161 0.253751 0.061903
O O7 0.874838 0.455310 0.223917
O O8 0.716121 0.498145 0.073766
O O9 0.500000 0.000000 0.500000
O O10 0.802637 0.970265 0.486953
O O11 0.418441 0.003590 0.778586
O O12 0.721859 0.812184 0.727777
O O13 0.204467 0.987972 0.103573
O O14 0.000000 0.000000 0.000000
O O15 0.870283 0.738247 0.859943
#
# Coordination Sequence:
#
# PCOD9012636 Si02
#       7
#     2   2   2   2   2   2   2
#     4  11  25  43  70 102 136 187 217 284 350 397
#     4  10  23  42  69 102 138 183 225 282 342 402
#     4  10  25  45  65 104 140 171 232 289 336 406
#     4  11  25  44  71  98 138 179 230 288 330 411
#     4  10  21  40  72  98 126 185 226 279 340 397
#     4  11  23  44  67 101 146 175 227 284 337 415
#     4  11  24  45  70 102 137 177 237 279 338 410
#
# _framework density 25.866754
#
# number of rings (size 3 to 8) (size 9 to 14) (size 15 to 20)
#    0.000    1.429    2.857    0.857    4.000    4.000 
#    2.571    0.000    0.000    0.000    0.000    0.000 
#    0.000    0.000    0.000    0.000    0.000    0.000 
#
# Total GULP energy -78266.722281 kJ/mol
# GULP energy per Si atom -5590.480163 kJ/mol
# Density = 2.580788 g / cm^3
# Si number density = 25.866754 Si / 1000 Ang^3
#
#
#
# Elastic Constant Matrix: (Units=GPa)
#
#
# Indices 1 2 3 4 5 6 
#
# 1 105.1508 19.1383 22.0362 10.0862 11.4119 17.2596
# 2 19.1383 70.0105 -1.6403 15.0753 35.3056 19.6371
# 3 22.0362 -1.6403 112.3461 9.3205 -10.1680 11.8949
# 4 10.0862 15.0753 9.3205 25.7949 3.7540 -0.4807
# 5 11.4119 35.3056 -10.1680 3.7540 40.2216 4.8348
# 6 17.2596 19.6371 11.8949 -0.4807 4.8348 51.3915
#
#
#
# Elastic Compliance Matrix: (Units=1/GPa)
#
#
# Indices 1 2 3 4 5 6 
#
# 1 0.011024 -0.000065 -0.001834 -0.003248 -0.002869 -0.003013
# 2 -0.000065 0.034957 0.000585 -0.016801 -0.027625 -0.011029
# 3 -0.001834 0.000585 0.010114 -0.003786 0.003192 -0.002284
# 4 -0.003248 -0.016801 -0.003786 0.050052 0.009079 0.008001
# 5 -0.002869 -0.027625 0.003192 0.009079 0.049134 0.006243
# 6 -0.003013 -0.011029 -0.002284 0.008001 0.006243 0.024701
#
#
# Mechanical properties :
#
#
# Convention : Reuss Voigt Hill
#
# Bulk Modulus (GPa) = 18.70357 40.73064 29.71710
# Shear Modulus (GPa) = 24.94585 40.01314 32.47949
#
# Velocity S-wave (km/s) = 3.10884 3.93732 3.54735
# Velocity P-wave (km/s) = 4.48698 6.03743 5.31900
#
# Compressibility (1/GPa) = 0.05346574
#
# Stress axis : x y z
#
# Youngs Moduli (GPa) = 90.71122 28.60645 98.87044
#
# Poissons Ratio (x) = 0.00186 0.18137
# Poissons Ratio (y) = 0.00590 -0.05779
# Poissons Ratio (z) = 0.16640 -0.01672
#
# Static dielectric constant tensor:
#      x y z
#    x 1.927020 0.134380 0.083120 
#    y 0.134380 2.056620 0.013590 
#    z 0.083120 0.013590 2.006330 
# 
# From -- ./inp_files/379393.got.cif
#   From: 2010.05.17/outbox.cif.g08.bks.cpg/sg2_190_cif.got.tgz:379393.got - 2010.06.03 11:33:40.
