data_PCOD9012331
_publ_section_title
;
Structure prediction by ZEFSAII (Michael W. Deem and Ramdas Pophale) SiO2 
 PCOD9012331
Probable space group: P -1
;
_chemical_formula_sum "Si O2"
_cell_formula_units_Z 16
_cell_length_a 9.421173
_cell_length_b 14.326900
_cell_length_c 6.466714
_cell_angle_alpha 91.764383
_cell_angle_beta 80.635152
_cell_angle_gamma 116.479790
_cell_volume 770.007776
_symmetry_space_group_name_H-M "P -1"
_symmetry_group_IT_number 2
_symmetry_cell_setting 'triclinic'
loop_
_space_group_symop_operation_xyz
x,y,z
-x,-y,-z
loop_
_atom_site_type_symbol
_atom_site_label
_atom_site_fract_x
_atom_site_fract_y
_atom_site_fract_z
Si Si1 0.070092 0.742346 0.373101
Si Si2 0.081044 0.970822 0.787399
Si Si3 0.977734 0.565075 0.697474
Si Si4 0.845368 0.830171 0.492823
Si Si5 0.385929 0.047361 0.944323
Si Si6 0.218683 0.625900 0.026278
Si Si7 0.466001 0.220812 0.239436
Si Si8 0.591553 0.121961 0.538732
O O1 0.140429 0.687644 0.187383
O O2 0.228634 0.841307 0.424363
O O3 0.989336 0.666078 0.582604
O O4 0.937200 0.777892 0.334007
O O5 0.151793 0.071563 0.626135
O O6 0.229428 0.961622 0.862844
O O7 0.957473 0.876852 0.672604
O O8 0.000000 0.000000 0.000000
O O9 0.822271 0.482137 0.851354
O O10 0.000000 0.500000 0.500000
O O11 0.120279 0.597773 0.832756
O O12 0.663530 0.756816 0.601595
O O13 0.490115 0.131660 0.755159
O O14 0.356937 0.113135 0.135425
O O15 0.500000 0.000000 0.000000
O O16 0.405870 0.692320 0.932953
O O17 0.575555 0.190212 0.363717
O O18 0.500000 0.000000 0.500000
#
# Coordination Sequence:
#
# PCOD9012331 Si02
#       8
#     2   2   2   2   2   2   2   2
#     4  11  23  39  64  95 124 168 212 262 313 382
#     4  11  24  41  56  83 131 184 213 257 309 370
#     4   9  20  41  68  98 120 153 211 274 327 373
#     4  11  26  40  59  88 135 173 213 253 324 380
#     4  12  24  37  60  88 120 170 228 264 300 360
#     4  10  21  40  69  94 122 158 215 270 321 379
#     4  12  23  40  59  92 125 169 207 262 323 369
#     4  12  23  37  58  90 131 167 218 261 297 368
#
# _framework density 20.77901
#
# number of rings (size 3 to 8) (size 9 to 14) (size 15 to 20)
#    0.000    1.000    6.250    0.750    3.500    1.000 
#    0.000    0.625    0.000    6.750    0.000    0.000 
#    0.000    0.000    0.000    0.000    0.000    0.000 
#
# Total GULP energy -89292.344373 kJ/mol
# GULP energy per Si atom -5580.771523 kJ/mol
# Density = 2.073172 g / cm^3
# Si number density = 20.779010 Si / 1000 Ang^3
#
#
#
# Elastic Constant Matrix: (Units=GPa)
#
#
# Indices 1 2 3 4 5 6 
#
# 1 112.4906 24.6519 19.4753 -2.0014 -13.4363 11.7249
# 2 24.6519 70.5654 17.5895 -10.4312 -6.0133 15.1945
# 3 19.4753 17.5895 81.8868 -1.3988 -3.5551 13.0886
# 4 -2.0014 -10.4312 -1.3988 32.2655 4.6317 -2.7331
# 5 -13.4363 -6.0133 -3.5551 4.6317 38.1357 -3.1272
# 6 11.7249 15.1945 13.0886 -2.7331 -3.1272 22.5592
#
#
#
# Elastic Compliance Matrix: (Units=1/GPa)
#
#
# Indices 1 2 3 4 5 6 
#
# 1 0.010299 -0.002594 -0.001378 -0.000901 0.002996 -0.002500
# 2 -0.002594 0.018260 -0.001715 0.004814 0.000457 -0.009309
# 3 -0.001378 -0.001715 0.013902 -0.000581 0.000098 -0.006251
# 4 -0.000901 0.004814 -0.000581 0.033068 -0.003540 0.001079
# 5 0.002996 0.000457 0.000098 -0.003540 0.027913 0.001519
# 6 -0.002500 -0.009309 -0.006251 0.001079 0.001519 0.055865
#
#
# Mechanical properties :
#
#
# Convention : Reuss Voigt Hill
#
# Bulk Modulus (GPa) = 32.16899 43.15292 37.66095
# Shear Modulus (GPa) = 27.61767 32.14049 29.87908
#
# Velocity S-wave (km/s) = 3.64966 3.93718 3.79614
# Velocity P-wave (km/s) = 5.76846 6.44058 6.11376
#
# Compressibility (1/GPa) = 0.03108584
#
# Stress axis : x y z
#
# Youngs Moduli (GPa) = 97.09647 54.76426 71.93403
#
# Poissons Ratio (x) = 0.14206 0.09912
# Poissons Ratio (y) = 0.25188 0.12339
# Poissons Ratio (z) = 0.13380 0.09394
#
# Static dielectric constant tensor:
#      x y z
#    x 1.783320 0.001630 -0.030060 
#    y 0.001630 1.767250 0.006340 
#    z -0.030060 0.006340 1.835770 
# 
# From -- ./inp_files/38636.got.cif
#   From: 2010.05.17/outbox.cif.g08.bks.cpg/sg2_20_cif.got.tgz:38636.got - 2010.06.03 11:33:40.
