data_PCOD9012521
_publ_section_title
;
Structure prediction by ZEFSAII (Michael W. Deem and Ramdas Pophale) SiO2 
 PCOD9012521
Probable space group: P -1
;
_chemical_formula_sum "Si O2"
_cell_formula_units_Z 16
_cell_length_a 11.445511
_cell_length_b 8.573380
_cell_length_c 8.718970
_cell_angle_alpha 59.227372
_cell_angle_beta 109.519803
_cell_angle_gamma 114.988730
_cell_volume 658.599120
_symmetry_space_group_name_H-M "P -1"
_symmetry_group_IT_number 2
_symmetry_cell_setting 'triclinic'
loop_
_space_group_symop_operation_xyz
x,y,z
-x,-y,-z
loop_
_atom_site_type_symbol
_atom_site_label
_atom_site_fract_x
_atom_site_fract_y
_atom_site_fract_z
Si Si1 0.025133 0.503642 0.192723
Si Si2 0.266781 0.584607 0.805767
Si Si3 0.097265 0.178955 0.537052
Si Si4 0.383938 0.258730 0.655122
Si Si5 0.452793 0.658801 0.565890
Si Si6 0.312036 0.214500 0.165937
Si Si7 0.501230 0.162311 0.036235
Si Si8 0.938067 0.120475 0.798991
O O1 0.881743 0.421704 0.248611
O O2 0.105437 0.361961 0.343968
O O3 0.086566 0.712092 0.192323
O O4 0.000000 0.500000 0.000000
O O5 0.340582 0.653295 0.642034
O O6 0.272249 0.375949 0.970130
O O7 0.356630 0.729645 0.894332
O O8 0.234158 0.139634 0.642101
O O9 0.038363 0.206889 0.662308
O O10 0.000000 0.000000 0.500000
O O11 0.386459 0.476520 0.520345
O O12 0.475227 0.191145 0.611160
O O13 0.443526 0.289590 0.834595
O O14 0.584833 0.681179 0.711656
O O15 0.187364 0.039848 0.246234
O O16 0.397613 0.118951 0.147552
O O17 0.500000 0.000000 0.000000
O O18 0.000000 0.000000 0.000000
#
# Coordination Sequence:
#
# PCOD9012521 Si02
#       8
#     2   2   2   2   2   2   2   2
#     4  12  29  47  73 105 143 197 244 299 357 430
#     4  11  22  46  71  96 144 175 243 280 363 417
#     4  12  28  48  72 107 149 190 241 297 358 437
#     4  11  22  41  71  99 137 174 237 281 363 409
#     4  10  21  40  70  98 126 184 218 291 346 417
#     4  11  21  44  68 100 138 182 230 283 359 428
#     4  11  24  41  69 104 134 183 232 303 348 422
#     4  12  24  45  74 103 144 192 236 293 364 427
#
# _framework density 24.293990999999998
#
# number of rings (size 3 to 8) (size 9 to 14) (size 15 to 20)
#    0.000    0.750    3.750    4.125    5.250    0.000 
#    2.250    1.250    0.000    0.000    0.000    0.000 
#    0.000    0.000    0.000    0.000    0.000    0.000 
#
# Total GULP energy -89362.289028 kJ/mol
# GULP energy per Si atom -5585.143064 kJ/mol
# Density = 2.423870 g / cm^3
# Si number density = 24.293991 Si / 1000 Ang^3
#
#
#
# Elastic Constant Matrix: (Units=GPa)
#
#
# Indices 1 2 3 4 5 6 
#
# 1 82.8880 30.5591 14.5107 10.8281 -9.1465 19.7129
# 2 30.5591 119.7231 3.8210 10.8907 -6.9476 -0.9786
# 3 14.5107 3.8210 80.9028 14.2843 -17.6841 -8.2965
# 4 10.8281 10.8907 14.2843 31.6340 -7.4973 4.3628
# 5 -9.1465 -6.9476 -17.6841 -7.4973 35.5567 2.1329
# 6 19.7129 -0.9786 -8.2965 4.3628 2.1329 47.8745
#
#
#
# Elastic Compliance Matrix: (Units=1/GPa)
#
#
# Indices 1 2 3 4 5 6 
#
# 1 0.016069 -0.003814 -0.002700 -0.001473 0.002162 -0.007124
# 2 -0.003814 0.009590 0.001075 -0.002601 0.000750 0.002157
# 3 -0.002700 0.001075 0.015467 -0.005622 0.005779 0.004069
# 4 -0.001473 -0.002601 -0.005622 0.037142 0.004388 -0.004001
# 5 0.002162 0.000750 0.005779 0.004388 0.032730 -0.001732
# 6 -0.007124 0.002157 0.004069 -0.004001 -0.001732 0.025012
#
#
# Mechanical properties :
#
#
# Convention : Reuss Voigt Hill
#
# Bulk Modulus (GPa) = 33.05972 42.36618 37.71295
# Shear Modulus (GPa) = 31.85342 38.65459 35.25400
#
# Velocity S-wave (km/s) = 3.62493 3.99321 3.81352
# Velocity P-wave (km/s) = 5.58192 6.22397 5.91167
#
# Compressibility (1/GPa) = 0.03024829
#
# Stress axis : x y z
#
# Youngs Moduli (GPa) = 62.23283 104.27987 64.65402
#
# Poissons Ratio (x) = 0.39773 0.17456
# Poissons Ratio (y) = 0.23736 -0.06953
# Poissons Ratio (z) = 0.16802 -0.11215
#
# Static dielectric constant tensor:
#      x y z
#    x 2.119920 -0.058730 0.601310 
#    y -0.058730 1.979920 -0.339320 
#    z 0.601310 -0.339320 4.677110 
# 
# From -- ./inp_files/242654.got.cif
#   From: 2010.05.17/outbox.cif.g08.bks.cpg/sg2_122_cif.got.tgz:242654.got - 2010.06.03 11:33:40.
