data_PCOD9012421
_publ_section_title
;
Structure prediction by ZEFSAII (Michael W. Deem and Ramdas Pophale) SiO2 
 PCOD9012421
Probable space group: P -1
;
_chemical_formula_sum "Si O2"
_cell_formula_units_Z 16
_cell_length_a 5.682257
_cell_length_b 9.146863
_cell_length_c 15.269633
_cell_angle_alpha 98.392257
_cell_angle_beta 112.826771
_cell_angle_gamma 100.022484
_cell_volume 700.111834
_symmetry_space_group_name_H-M "P -1"
_symmetry_group_IT_number 2
_symmetry_cell_setting 'triclinic'
loop_
_space_group_symop_operation_xyz
x,y,z
-x,-y,-z
loop_
_atom_site_type_symbol
_atom_site_label
_atom_site_fract_x
_atom_site_fract_y
_atom_site_fract_z
Si Si1 0.373089 0.438739 0.595632
Si Si2 0.829193 0.291167 0.717128
Si Si3 0.252457 0.176519 0.116965
Si Si4 0.504255 0.917646 0.210263
Si Si5 0.753924 0.959880 0.074549
Si Si6 0.010789 0.970877 0.394978
Si Si7 0.775536 0.425000 0.243742
Si Si8 0.811943 0.710931 0.614438
O O1 0.586987 0.343693 0.640531
O O2 0.237544 0.468751 0.666186
O O3 0.541246 0.603778 0.601793
O O4 0.170481 0.356467 0.485907
O O5 0.723800 0.206927 0.785569
O O6 0.915685 0.175432 0.650853
O O7 0.051065 0.447968 0.784285
O O8 0.476868 0.334181 0.170083
O O9 0.394829 0.053790 0.168165
O O10 0.171448 0.143855 0.000582
O O11 0.975864 0.121178 0.124087
O O12 0.667934 0.877773 0.147037
O O13 0.719493 0.970193 0.320521
O O14 0.500000 0.000000 0.000000
O O15 0.000000 0.000000 0.500000
O O16 0.196693 0.116863 0.386062
O O17 0.952036 0.313843 0.293398
#
# Coordination Sequence:
#
# PCOD9012421 Si02
#       8
#     2   2   2   2   2   2   2   2
#     4  10  23  39  60  89 134 181 214 276 321 390
#     4  11  25  41  60  95 138 178 219 266 336 381
#     4  10  21  40  70 101 125 170 222 275 332 397
#     4  11  22  40  65  97 131 174 217 277 327 390
#     4   9  21  40  67  99 132 161 217 279 337 393
#     4  12  25  40  64  95 135 177 226 275 318 388
#     4  11  22  41  65  93 131 173 220 272 329 394
#     4  10  22  39  60  90 125 175 231 267 324 380
#
# _framework density 22.853490000000001
#
# number of rings (size 3 to 8) (size 9 to 14) (size 15 to 20)
#    0.000    1.500    1.250    3.375    3.500    5.000 
#    0.000    0.625    0.000   12.750    0.000    0.000 
#    0.000    0.000    0.000    0.000    0.000    0.000 
#
# Total GULP energy -89329.637325 kJ/mol
# GULP energy per Si atom -5583.102333 kJ/mol
# Density = 2.280147 g / cm^3
# Si number density = 22.853490 Si / 1000 Ang^3
#
#
#
# Elastic Constant Matrix: (Units=GPa)
#
#
# Indices 1 2 3 4 5 6 
#
# 1 69.7818 35.6124 51.3597 0.7509 -9.0507 17.7938
# 2 35.6124 142.3097 44.2160 -0.2140 -11.6812 33.4780
# 3 51.3597 44.2160 119.1876 -0.6314 -3.1782 21.1366
# 4 0.7509 -0.2140 -0.6314 25.3135 8.1444 2.7726
# 5 -9.0507 -11.6812 -3.1782 8.1444 32.7682 -7.0124
# 6 17.7938 33.4780 21.1366 2.7726 -7.0124 44.2352
#
#
#
# Elastic Compliance Matrix: (Units=1/GPa)
#
#
# Indices 1 2 3 4 5 6 
#
# 1 0.023013 -0.002079 -0.008549 -0.002140 0.004737 -0.002714
# 2 -0.002079 0.009415 -0.001617 0.000220 0.001436 -0.005303
# 3 -0.008549 -0.001617 0.012977 0.001595 -0.002511 -0.002036
# 4 -0.002140 0.000220 0.001595 0.044106 -0.012346 -0.004789
# 5 0.004737 0.001436 -0.002511 -0.012346 0.036172 0.004716
# 6 -0.002714 -0.005303 -0.002036 -0.004789 0.004716 0.029732
#
#
# Mechanical properties :
#
#
# Convention : Reuss Voigt Hill
#
# Bulk Modulus (GPa) = 47.81377 65.96170 56.88773
# Shear Modulus (GPa) = 26.75566 33.80278 30.27922
#
# Velocity S-wave (km/s) = 3.42533 3.85009 3.64390
# Velocity P-wave (km/s) = 6.05071 6.97781 6.53073
#
# Compressibility (1/GPa) = 0.02091448
#
# Stress axis : x y z
#
# Youngs Moduli (GPa) = 43.45390 106.21044 77.06175
#
# Poissons Ratio (x) = 0.22076 0.65882
# Poissons Ratio (y) = 0.09032 0.12463
# Poissons Ratio (z) = 0.37150 0.17178
#
# Static dielectric constant tensor:
#      x y z
#    x 1.971120 0.022420 -0.057270 
#    y 0.022420 1.876190 0.015390 
#    z -0.057270 0.015390 1.870960 
# 
# From -- ./inp_files/480695.got.cif
#   From: 2010.05.17/outbox.cif.g08.bks.cpg/sg2_241_cif.got.tgz:480695.got - 2010.06.03 11:33:40.
