data_PCOD9012756
_publ_section_title
;
Structure prediction by ZEFSAII (Michael W. Deem and Ramdas Pophale) SiO2 
 PCOD9012756
Probable space group: P -1
;
_chemical_formula_sum "Si O2"
_cell_formula_units_Z 14
_cell_length_a 6.470984
_cell_length_b 5.039268
_cell_length_c 16.014147
_cell_angle_alpha 81.867845
_cell_angle_beta 103.101641
_cell_angle_gamma 95.708863
_cell_volume 502.265993
_symmetry_space_group_name_H-M "P -1"
_symmetry_group_IT_number 2
_symmetry_cell_setting 'triclinic'
loop_
_space_group_symop_operation_xyz
x,y,z
-x,-y,-z
loop_
_atom_site_type_symbol
_atom_site_label
_atom_site_fract_x
_atom_site_fract_y
_atom_site_fract_z
Si Si1 0.597781 0.417152 0.683382
Si Si2 0.827882 0.676635 0.012288
Si Si3 0.760469 0.400442 0.525963
Si Si4 0.107333 0.762016 0.756692
Si Si5 0.552785 0.173507 0.083277
Si Si6 0.668498 0.080487 0.382504
Si Si7 0.927182 0.188242 0.817705
O O1 0.775311 0.395150 0.627334
O O2 0.505149 0.706499 0.665346
O O3 0.698357 0.311913 0.782954
O O4 0.407150 0.210625 0.643963
O O5 0.674243 0.454086 0.055444
O O6 0.949282 0.868294 0.082172
O O7 0.690130 0.786067 0.920271
O O8 0.000000 0.500000 0.000000
O O9 0.500000 0.500000 0.500000
O O10 0.719003 0.123961 0.482462
O O11 0.000000 0.500000 0.500000
O O12 0.312090 0.895302 0.821243
O O13 0.132247 0.827391 0.659924
O O14 0.073913 0.446961 0.784822
O O15 0.925476 0.926790 0.772586
O O16 0.500000 0.000000 0.000000
#
# Coordination Sequence:
#
# PCOD9012756 Si02
#       7
#     2   2   2   2   2   2   2
#     4  11  24  43  67 102 140 177 231 285 344 418
#     4  10  23  39  62  91 126 172 222 278 343 410
#     4  10  23  46  74 108 145 188 237 291 353 422
#     4  11  23  41  65  91 133 178 226 285 347 412
#     4  10  21  41  60  89 128 169 221 280 341 404
#     4  11  24  43  68 102 136 183 227 280 353 412
#     4  11  23  42  62  95 131 176 229 283 345 414
#
# _framework density 27.873678000000002
#
# number of rings (size 3 to 8) (size 9 to 14) (size 15 to 20)
#    0.000    1.429    1.429    3.000    2.000    4.000 
#    0.000    6.429    0.000    0.000    0.000    0.000 
#    0.000    0.000    0.000    0.000    0.000    0.000 
#
# Total GULP energy -78014.586693 kJ/mol
# GULP energy per Si atom -5572.470478 kJ/mol
# Density = 2.781024 g / cm^3
# Si number density = 27.873678 Si / 1000 Ang^3
#
#
#
# Elastic Constant Matrix: (Units=GPa)
#
#
# Indices 1 2 3 4 5 6 
#
# 1 106.8811 24.7861 19.7917 8.0184 8.1551 16.0341
# 2 24.7861 71.4358 9.4968 8.2290 1.7390 17.2590
# 3 19.7917 9.4968 88.5758 14.4479 12.2889 -6.3934
# 4 8.0184 8.2290 14.4479 42.0221 -0.5374 4.4042
# 5 8.1551 1.7390 12.2889 -0.5374 56.0567 3.3776
# 6 16.0341 17.2590 -6.3934 4.4042 3.3776 61.4091
#
#
#
# Elastic Compliance Matrix: (Units=1/GPa)
#
#
# Indices 1 2 3 4 5 6 
#
# 1 0.010838 -0.002882 -0.002044 -0.000588 -0.000916 -0.002140
# 2 -0.002882 0.016277 -0.001129 -0.001843 0.000375 -0.003828
# 3 -0.002044 -0.001129 0.013130 -0.004218 -0.002747 0.002672
# 4 -0.000588 -0.001843 -0.004218 0.025917 0.001419 -0.001704
# 5 -0.000916 0.000375 -0.002747 0.001419 0.018654 -0.001280
# 6 -0.002140 -0.003828 0.002672 -0.001704 -0.001280 0.018390
#
#
# Mechanical properties :
#
#
# Convention : Reuss Voigt Hill
#
# Bulk Modulus (GPa) = 35.54300 41.67133 38.60717
# Shear Modulus (GPa) = 40.09864 46.08545 43.09204
#
# Velocity S-wave (km/s) = 3.79698 4.07057 3.93616
# Velocity P-wave (km/s) = 5.65702 6.08895 5.87695
#
# Compressibility (1/GPa) = 0.02813493
#
# Stress axis : x y z
#
# Youngs Moduli (GPa) = 92.26736 61.43799 76.16378
#
# Poissons Ratio (x) = 0.17704 0.15569
# Poissons Ratio (y) = 0.26588 0.08598
# Poissons Ratio (z) = 0.18861 0.06936
#
# Static dielectric constant tensor:
#      x y z
#    x 2.325600 -0.050760 0.017790 
#    y -0.050760 2.146650 -0.049770 
#    z 0.017790 -0.049770 2.163150 
# 
# From -- ./inp_files/7445.got.cif
#   From: 2010.05.17/outbox.cif.g08.bks.cpg/sg2_4_cif.got.tgz:7445.got - 2010.06.03 11:33:40.
