data_PCOD9012067
_publ_section_title
;
Structure prediction by ZEFSAII (Michael W. Deem and Ramdas Pophale) SiO2 
 PCOD9012067
Probable space group: P -1
;
_chemical_formula_sum "Si O2"
_cell_formula_units_Z 14
_cell_length_a 19.608593
_cell_length_b 8.115918
_cell_length_c 9.784919
_cell_angle_alpha 114.212006
_cell_angle_beta 24.707534
_cell_angle_gamma 119.802644
_cell_volume 561.108460
_symmetry_space_group_name_H-M "P -1"
_symmetry_group_IT_number 2
_symmetry_cell_setting 'triclinic'
loop_
_space_group_symop_operation_xyz
x,y,z
-x,-y,-z
loop_
_atom_site_type_symbol
_atom_site_label
_atom_site_fract_x
_atom_site_fract_y
_atom_site_fract_z
Si Si1 0.053830 0.009488 0.227998
Si Si2 0.586111 0.337370 0.051503
Si Si3 0.568428 0.315871 0.787107
Si Si4 0.137832 0.692162 0.257276
Si Si5 0.823063 0.840468 0.217595
Si Si6 0.741833 0.776871 0.824140
Si Si7 0.123454 0.547154 0.928215
O O1 0.939053 0.150335 0.488589
O O2 0.174176 0.072763 0.161357
O O3 0.904302 0.802176 0.434245
O O4 0.181980 0.068442 0.889915
O O5 0.378341 0.235169 0.392953
O O6 0.642754 0.273079 0.779939
O O7 0.680936 0.293261 0.996007
O O8 0.658922 0.570782 0.978228
O O9 0.697771 0.355410 0.441684
O O10 0.500000 0.500000 0.000000
O O11 0.395959 0.165805 0.994307
O O12 0.000000 0.500000 0.500000
O O13 0.129854 0.668204 0.098770
O O14 0.874987 0.651203 0.076593
O O15 0.000000 0.000000 0.000000
O O16 0.000000 0.500000 0.000000
#
# Coordination Sequence:
#
# PCOD9012067 Si02
#       7
#     2   2   2   2   2   2   2
#     4  11  25  41  70 100 142 172 228 281 340 396
#     4  11  23  44  74  94 138 181 229 272 346 404
#     4  10  21  40  68  94 124 180 228 267 325 407
#     4  12  24  44  67 104 140 181 220 281 347 403
#     4  12  26  45  69 105 133 177 233 288 334 402
#     4  10  21  41  71  94 129 183 228 267 333 406
#     4  12  26  42  70  99 137 178 226 276 339 405
#
# _framework density 24.950614000000002
#
# number of rings (size 3 to 8) (size 9 to 14) (size 15 to 20)
#    0.000    0.857    5.714    1.714    6.000    2.286 
#    2.571    2.143    0.000    0.000    0.000    0.000 
#    0.000    0.000    0.000    0.000    0.000    0.000 
#
# Total GULP energy -77993.358851 kJ/mol
# GULP energy per Si atom -5570.954204 kJ/mol
# Density = 2.489383 g / cm^3
# Si number density = 24.950614 Si / 1000 Ang^3
#
#
#
# Elastic Constant Matrix: (Units=GPa)
#
#
# Indices 1 2 3 4 5 6 
#
# 1 139.0842 7.4986 44.8799 -5.5313 -10.4016 14.0563
# 2 7.4986 90.8797 43.4487 -21.5845 -13.7181 5.6262
# 3 44.8799 43.4487 127.3554 -36.0707 23.0023 13.0312
# 4 -5.5313 -21.5845 -36.0707 40.1406 -2.1267 -3.2690
# 5 -10.4016 -13.7181 23.0023 -2.1267 52.5017 -7.5973
# 6 14.0563 5.6262 13.0312 -3.2690 -7.5973 24.6509
#
#
#
# Elastic Compliance Matrix: (Units=1/GPa)
#
#
# Indices 1 2 3 4 5 6 
#
# 1 0.009130 0.001869 -0.005012 -0.002186 0.004114 -0.002005
# 2 0.001869 0.015955 -0.006765 0.003317 0.007889 0.001741
# 3 -0.005012 -0.006765 0.017537 0.010284 -0.011026 -0.006903
# 4 -0.002186 0.003317 0.010284 0.035397 -0.002800 -0.001116
# 5 0.004114 0.007889 -0.011026 -0.002800 0.028083 0.009966
# 6 -0.002005 0.001741 -0.006903 -0.001116 0.009966 0.047885
#
#
# Mechanical properties :
#
#
# Convention : Reuss Voigt Hill
#
# Bulk Modulus (GPa) = 43.85089 60.99706 52.42398
# Shear Modulus (GPa) = 27.56263 40.89146 34.22704
#
# Velocity S-wave (km/s) = 3.32729 4.05272 3.70779
# Velocity P-wave (km/s) = 5.68985 6.81172 6.27590
#
# Compressibility (1/GPa) = 0.02280456
#
# Stress axis : x y z
#
# Youngs Moduli (GPa) = 109.53144 62.67744 57.02270
#
# Poissons Ratio (x) = -0.11713 0.28580
# Poissons Ratio (y) = -0.20470 0.38577
# Poissons Ratio (z) = 0.54898 0.42403
#
# Static dielectric constant tensor:
#      x y z
#    x 2.169610 0.014430 0.049260 
#    y 0.014430 2.300220 0.110690 
#    z 0.049260 0.110690 2.188390 
# 
# From -- ./inp_files/329239.got.cif
#   From: 2010.05.17/outbox.cif.g08.bks.cpg/sg2_165_cif.got.tgz:329239.got - 2010.06.03 11:33:40.
