data_PCOD9012680
_publ_section_title
;
Structure prediction by ZEFSAII (Michael W. Deem and Ramdas Pophale) SiO2 
 PCOD9012680
Probable space group: P -1
;
_chemical_formula_sum "Si O2"
_cell_formula_units_Z 12
_cell_length_a 14.226431
_cell_length_b 6.730968
_cell_length_c 9.625689
_cell_angle_alpha 121.673378
_cell_angle_beta 58.336809
_cell_angle_gamma 144.197403
_cell_volume 449.719506
_symmetry_space_group_name_H-M "P -1"
_symmetry_group_IT_number 2
_symmetry_cell_setting 'triclinic'
loop_
_space_group_symop_operation_xyz
x,y,z
-x,-y,-z
loop_
_atom_site_type_symbol
_atom_site_label
_atom_site_fract_x
_atom_site_fract_y
_atom_site_fract_z
Si Si1 0.503041 0.213443 0.464381
Si Si2 0.902322 0.589884 0.904189
Si Si3 0.693958 0.682449 0.987453
Si Si4 0.871783 0.323179 0.409260
Si Si5 0.637553 0.775648 0.782879
Si Si6 0.786730 0.370960 0.211422
O O1 0.575725 0.550883 0.610933
O O2 0.311291 0.954189 0.491236
O O3 0.500000 0.000000 0.500000
O O4 0.281545 0.001625 0.884523
O O5 0.818705 0.687809 0.947028
O O6 0.783517 0.186927 0.808803
O O7 0.071320 0.809802 0.774177
O O8 0.906434 0.588651 0.068011
O O9 0.688636 0.663180 0.817192
O O10 0.480160 0.649675 0.930023
O O11 0.868986 0.512014 0.353474
O O12 0.000000 0.500000 0.500000
O O13 0.362415 0.677741 0.706283
#
# Coordination Sequence:
#
# PCOD9012680 Si02
#       6
#     2   2   2   2   2   2
#     4  10  21  45  76  94 142 191 229 283 351 414
#     4  11  25  43  74 108 141 175 242 290 350 414
#     4  10  21  40  75 103 137 186 234 286 347 416
#     4  11  25  44  72 104 144 186 226 295 360 404
#     4  10  21  42  71 105 139 185 235 287 342 418
#     4  10  23  49  75 100 141 189 237 284 343 425
#
# _framework density 26.683297
#
# number of rings (size 3 to 8) (size 9 to 14) (size 15 to 20)
#    0.000    1.667    3.333    1.000    4.667    2.000 
#    3.000    5.000    0.000    0.000    0.000    0.000 
#    0.000    0.000    0.000    0.000    0.000    0.000 
#
# Total GULP energy -67157.276088 kJ/mol
# GULP energy per Si atom -5596.439674 kJ/mol
# Density = 2.662256 g / cm^3
# Si number density = 26.683297 Si / 1000 Ang^3
#
#
#
# Elastic Constant Matrix: (Units=GPa)
#
#
# Indices 1 2 3 4 5 6 
#
# 1 234.3604 46.6799 85.1620 -12.3971 -5.3717 7.2208
# 2 46.6799 91.1437 30.5776 -0.4899 -1.8381 1.4573
# 3 85.1620 30.5776 131.4956 -15.4946 11.4219 6.8513
# 4 -12.3971 -0.4899 -15.4946 38.8334 0.8907 10.1935
# 5 -5.3717 -1.8381 11.4219 0.8907 56.7739 -3.2465
# 6 7.2208 1.4573 6.8513 10.1935 -3.2465 25.1969
#
#
#
# Elastic Compliance Matrix: (Units=1/GPa)
#
#
# Indices 1 2 3 4 5 6 
#
# 1 0.005964 -0.001875 -0.003398 0.000714 0.001129 -0.000820
# 2 -0.001875 0.012597 -0.002015 -0.001542 0.000721 0.001074
# 3 -0.003398 -0.002015 0.011290 0.004568 -0.002970 -0.004210
# 4 0.000714 -0.001542 0.004568 0.031623 -0.002223 -0.014437
# 5 0.001129 0.000721 -0.002970 -0.002223 0.018590 0.003737
# 6 -0.000820 0.001074 -0.004210 -0.014437 0.003737 0.047327
#
#
# Mechanical properties :
#
#
# Convention : Reuss Voigt Hill
#
# Bulk Modulus (GPa) = 65.46767 86.87096 76.16932
# Shear Modulus (GPa) = 34.00020 43.79952 38.89986
#
# Velocity S-wave (km/s) = 3.57348 4.05589 3.82230
# Velocity P-wave (km/s) = 6.45095 7.38652 6.93453
#
# Compressibility (1/GPa) = 0.01527472
#
# Stress axis : x y z
#
# Youngs Moduli (GPa) = 167.67398 79.38309 88.57721
#
# Poissons Ratio (x) = 0.14883 0.30096
# Poissons Ratio (y) = 0.31436 0.17852
# Poissons Ratio (z) = 0.56971 0.15999
#
# Static dielectric constant tensor:
#      x y z
#    x 2.226030 0.056370 0.095610 
#    y 0.056370 2.081500 0.047160 
#    z 0.095610 0.047160 2.198630 
# 
# From -- ./inp_files/232664.got.cif
#   From: 2010.05.17/outbox.cif.g08.bks.cpg/sg2_117_cif.got.tgz:232664.got - 2010.06.03 11:33:40.
