data_PCOD9012456
_publ_section_title
;
Structure prediction by ZEFSAII (Michael W. Deem and Ramdas Pophale) SiO2 
 PCOD9012456
Probable space group: P -1
;
_chemical_formula_sum "Si O2"
_cell_formula_units_Z 16
_cell_length_a 17.463508
_cell_length_b 9.712698
_cell_length_c 12.484880
_cell_angle_alpha 136.731970
_cell_angle_beta 139.683071
_cell_angle_gamma 75.220797
_cell_volume 691.418318
_symmetry_space_group_name_H-M "P -1"
_symmetry_group_IT_number 2
_symmetry_cell_setting 'triclinic'
loop_
_space_group_symop_operation_xyz
x,y,z
-x,-y,-z
loop_
_atom_site_type_symbol
_atom_site_label
_atom_site_fract_x
_atom_site_fract_y
_atom_site_fract_z
Si Si1 0.373568 0.260537 0.912884
Si Si2 0.176686 0.311724 0.857011
Si Si3 0.930920 0.211099 0.807535
Si Si4 0.464707 0.818722 0.121405
Si Si5 0.514911 0.198707 0.210998
Si Si6 0.213088 0.238903 0.086354
Si Si7 0.187037 0.764771 0.864395
Si Si8 0.762348 0.158199 0.792208
O O1 0.294998 0.385037 0.926957
O O2 0.518535 0.355759 0.041156
O O3 0.231100 0.988868 0.545424
O O4 0.391005 0.198004 0.016306
O O5 0.259569 0.360928 0.086491
O O6 0.161906 0.532649 0.960382
O O7 0.000000 0.000000 0.500000
O O8 0.882962 0.163603 0.853560
O O9 0.000000 0.500000 0.000000
O O10 0.041243 0.146072 0.868048
O O11 0.506366 0.066636 0.237227
O O12 0.590456 0.948781 0.428226
O O13 0.288006 0.682703 0.893122
O O14 0.670272 0.517080 0.567322
O O15 0.500000 0.000000 0.000000
O O16 0.218027 0.005042 0.967012
O O17 0.000000 0.500000 0.500000
O O18 0.239751 0.887014 0.110251
#
# Coordination Sequence:
#
# PCOD9012456 Si02
#       8
#     2   2   2   2   2   2   2   2
#     4  10  22  36  67 104 134 174 230 298 347 411
#     4  12  21  38  71 108 136 176 241 294 350 417
#     4  11  20  42  69 103 138 181 233 290 354 420
#     4  10  22  47  68  95 140 188 238 293 353 420
#     4  10  21  40  70 108 136 172 233 302 356 406
#     4  12  24  42  74 107 145 186 233 294 360 428
#     4  12  29  46  67 101 149 191 237 294 360 426
#     4  11  24  43  70  97 140 190 235 291 352 425
#
# _framework density 23.140840000000001
#
# number of rings (size 3 to 8) (size 9 to 14) (size 15 to 20)
#    0.000    1.000    3.750    3.375    1.750    4.500 
#    0.000    0.625    0.000    0.000    0.000    0.000 
#    0.000    0.000    0.000    0.000    0.000    0.000 
#
# Total GULP energy -89175.034315 kJ/mol
# GULP energy per Si atom -5573.439645 kJ/mol
# Density = 2.308817 g / cm^3
# Si number density = 23.140840 Si / 1000 Ang^3
#
#
#
# Elastic Constant Matrix: (Units=GPa)
#
#
# Indices 1 2 3 4 5 6 
#
# 1 201.5244 4.1947 -2.0736 -0.4176 -19.2402 -25.3183
# 2 4.1947 77.6202 4.1599 -8.5447 -2.6834 7.2567
# 3 -2.0736 4.1599 100.9499 -26.0167 18.3830 3.0751
# 4 -0.4176 -8.5447 -26.0167 39.8751 -13.9886 -7.9737
# 5 -19.2402 -2.6834 18.3830 -13.9886 53.4728 -6.6268
# 6 -25.3183 7.2567 3.0751 -7.9737 -6.6268 35.5108
#
#
#
# Elastic Compliance Matrix: (Units=1/GPa)
#
#
# Indices 1 2 3 4 5 6 
#
# 1 0.005995 -0.000473 -0.000078 0.002214 0.003423 0.005514
# 2 -0.000473 0.013459 0.000053 0.002781 0.000930 -0.002294
# 3 -0.000078 0.000053 0.012165 0.007138 -0.002334 0.000047
# 4 0.002214 0.002781 0.007138 0.035531 0.009023 0.010054
# 5 0.003423 0.000930 -0.002334 0.009023 0.024258 0.009005
# 6 0.005514 -0.002294 0.000047 0.010054 0.009005 0.036494
#
#
# Mechanical properties :
#
#
# Convention : Reuss Voigt Hill
#
# Bulk Modulus (GPa) = 32.65544 43.62850 38.14197
# Shear Modulus (GPa) = 35.94345 50.69265 43.31805
#
# Velocity S-wave (km/s) = 3.94540 4.68548 4.33128
# Velocity P-wave (km/s) = 5.90738 6.94017 6.44450
#
# Compressibility (1/GPa) = 0.03062277
#
# Stress axis : x y z
#
# Youngs Moduli (GPa) = 166.79707 74.30090 82.19978
#
# Poissons Ratio (x) = 0.03517 0.00642
# Poissons Ratio (y) = 0.07894 -0.00435
# Poissons Ratio (z) = 0.01302 -0.00393
#
# Static dielectric constant tensor:
#      x y z
#    x 1.942400 -0.172190 0.087090 
#    y -0.172190 2.488120 -0.058150 
#    z 0.087090 -0.058150 1.808710 
# 
# From -- ./inp_files/462487.got.cif
#   From: 2010.05.17/outbox.cif.g08.bks.cpg/sg2_232_cif.got.tgz:462487.got - 2010.06.03 11:33:40.
