data_PCOD9012876
_publ_section_title
;
Structure prediction by ZEFSAII (Michael W. Deem and Ramdas Pophale) SiO2 
 PCOD9012876
Probable space group: P -1
;
_chemical_formula_sum "Si O2"
_cell_formula_units_Z 16
_cell_length_a 11.876380
_cell_length_b 13.344902
_cell_length_c 5.369667
_cell_angle_alpha 109.074910
_cell_angle_beta 65.983900
_cell_angle_gamma 121.355409
_cell_volume 656.574451
_symmetry_space_group_name_H-M "P -1"
_symmetry_group_IT_number 2
_symmetry_cell_setting 'triclinic'
loop_
_space_group_symop_operation_xyz
x,y,z
-x,-y,-z
loop_
_atom_site_type_symbol
_atom_site_label
_atom_site_fract_x
_atom_site_fract_y
_atom_site_fract_z
Si Si1 0.567809 0.944115 0.089150
Si Si2 0.154045 0.592858 0.388718
Si Si3 0.320475 0.748398 0.997618
Si Si4 0.911721 0.834213 0.031897
Si Si5 0.608034 0.404202 0.514214
Si Si6 0.206218 0.843709 0.782296
Si Si7 0.217787 0.145281 0.346404
Si Si8 0.328871 0.378544 0.717033
O O1 0.654387 0.035922 0.303035
O O2 0.435536 0.818672 0.158377
O O3 0.683540 0.915923 0.832419
O O4 0.500000 0.000000 0.000000
O O5 0.262555 0.555947 0.388449
O O6 0.176759 0.722916 0.568131
O O7 0.000000 0.500000 0.500000
O O8 0.200545 0.622716 0.087511
O O9 0.404839 0.718833 0.686198
O O10 0.241521 0.817661 0.009355
O O11 0.874264 0.893601 0.351360
O O12 0.810906 0.693498 0.060420
O O13 0.133509 0.133039 0.160629
O O14 0.069254 0.859780 0.908306
O O15 0.464484 0.388741 0.745503
O O16 0.641260 0.498674 0.337797
O O17 0.308517 0.285630 0.434695
#
# Coordination Sequence:
#
# PCOD9012876 Si02
#       8
#     2   2   2   2   2   2   2   2
#     4  10  22  48  70  98 133 177 237 286 347 415
#     4  11  27  38  66  98 137 178 233 284 350 415
#     4  10  22  42  67  93 134 176 233 289 344 410
#     4  10  24  42  71  97 149 175 236 279 354 412
#     4  10  21  41  62 100 130 183 227 288 343 413
#     4  10  25  43  64  98 133 183 229 285 349 408
#     4  10  23  43  70 101 138 184 227 290 342 416
#     4   9  22  38  67  95 139 177 230 281 348 411
#
# _framework density 24.368904000000001
#
# number of rings (size 3 to 8) (size 9 to 14) (size 15 to 20)
#    0.750    1.250    1.250    0.000    8.750    2.500 
#    4.500    2.500    0.000    0.000    0.000    0.000 
#    0.000    0.000    0.000    0.000    0.000    0.000 
#
# Total GULP energy -89340.755719 kJ/mol
# GULP energy per Si atom -5583.797232 kJ/mol
# Density = 2.431344 g / cm^3
# Si number density = 24.368904 Si / 1000 Ang^3
#
#
#
# Elastic Constant Matrix: (Units=GPa)
#
#
# Indices 1 2 3 4 5 6 
#
# 1 194.5170 35.4314 35.3958 -3.8957 -4.0526 2.1902
# 2 35.4314 84.4502 12.1535 4.6711 -6.2285 20.4257
# 3 35.3958 12.1535 73.9909 12.5845 3.8898 -4.3081
# 4 -3.8957 4.6711 12.5845 38.1431 -4.2154 -8.5241
# 5 -4.0526 -6.2285 3.8898 -4.2154 26.5490 1.0465
# 6 2.1902 20.4257 -4.3081 -8.5241 1.0465 40.4528
#
#
#
# Elastic Compliance Matrix: (Units=1/GPa)
#
#
# Indices 1 2 3 4 5 6 
#
# 1 0.006181 -0.002467 -0.002933 0.002258 0.001112 0.001045
# 2 -0.002467 0.015620 -0.001516 -0.003236 0.003339 -0.008683
# 3 -0.002933 -0.001516 0.016439 -0.005642 -0.004171 0.001594
# 4 0.002258 -0.003236 -0.005642 0.030890 0.005029 0.007290
# 5 0.001112 0.003339 -0.004171 0.005029 0.040114 -0.002168
# 6 0.001045 -0.008683 0.001594 0.007290 -0.002168 0.030810
#
#
# Mechanical properties :
#
#
# Convention : Reuss Voigt Hill
#
# Bulk Modulus (GPa) = 40.97134 57.65774 49.31454
# Shear Modulus (GPa) = 30.86007 39.02747 34.94377
#
# Velocity S-wave (km/s) = 3.56247 4.00625 3.79086
# Velocity P-wave (km/s) = 5.81129 6.71653 6.28024
#
# Compressibility (1/GPa) = 0.02440730
#
# Stress axis : x y z
#
# Youngs Moduli (GPa) = 161.79731 64.02134 60.83078
#
# Poissons Ratio (x) = 0.15792 0.17842
# Poissons Ratio (y) = 0.39911 0.09224
# Poissons Ratio (z) = 0.47455 0.09708
#
# Static dielectric constant tensor:
#      x y z
#    x 1.862380 0.022310 0.025540 
#    y 0.022310 2.049800 0.044940 
#    z 0.025540 0.044940 1.997840 
# 
# From -- ./inp_files/76419.got.cif
#   From: 2010.05.17/outbox.cif.g08.bks.cpg/sg2_39_cif.got.tgz:76419.got - 2010.06.03 11:33:40.
