data_PCOD9012130
_publ_section_title
;
Structure prediction by ZEFSAII (Michael W. Deem and Ramdas Pophale) SiO2 
 PCOD9012130
Probable space group: P -1
;
_chemical_formula_sum "Si O2"
_cell_formula_units_Z 16
_cell_length_a 8.700212
_cell_length_b 13.592186
_cell_length_c 9.164832
_cell_angle_alpha 75.554771
_cell_angle_beta 44.174443
_cell_angle_gamma 68.580735
_cell_volume 702.939971
_symmetry_space_group_name_H-M "P -1"
_symmetry_group_IT_number 2
_symmetry_cell_setting 'triclinic'
loop_
_space_group_symop_operation_xyz
x,y,z
-x,-y,-z
loop_
_atom_site_type_symbol
_atom_site_label
_atom_site_fract_x
_atom_site_fract_y
_atom_site_fract_z
Si Si1 0.045371 0.152530 0.908402
Si Si2 0.486050 0.080325 0.845235
Si Si3 0.375588 0.619547 0.486494
Si Si4 0.539371 0.224272 0.218411
Si Si5 0.769261 0.653671 0.376749
Si Si6 0.703676 0.951215 0.492142
Si Si7 0.469415 0.706054 0.116206
Si Si8 0.026692 0.439312 0.156651
O O1 0.089111 0.264436 0.791261
O O2 0.085463 0.088268 0.749512
O O3 0.246290 0.101722 0.908170
O O4 0.788975 0.167688 0.137797
O O5 0.515290 0.186979 0.856060
O O6 0.500000 0.000000 0.000000
O O7 0.685712 0.032299 0.606787
O O8 0.500000 0.500000 0.500000
O O9 0.562458 0.675616 0.391357
O O10 0.335064 0.645714 0.334591
O O11 0.128243 0.641903 0.717467
O O12 0.377237 0.318489 0.386910
O O13 0.379547 0.144956 0.343970
O O14 0.609973 0.264061 0.003261
O O15 0.921153 0.533242 0.307713
O O16 0.500000 0.000000 0.500000
O O17 0.718359 0.624178 0.964038
O O18 0.000000 0.500000 0.000000
#
# Coordination Sequence:
#
# PCOD9012130 Si02
#       8
#     2   2   2   2   2   2   2   2
#     4  10  22  43  70  93 135 180 217 268 342 400
#     4  11  21  42  69  96 132 174 225 281 325 381
#     4  10  21  40  68  97 126 172 224 269 326 395
#     4  11  25  41  65 101 139 172 221 275 342 392
#     4  10  22  40  67  99 132 175 224 264 331 411
#     4   9  21  42  65  91 134 175 223 271 328 397
#     4  12  24  43  66 102 137 171 226 286 317 399
#     4  11  22  41  71  97 131 176 220 271 338 388
#
# _framework density 22.761545999999999
#
# number of rings (size 3 to 8) (size 9 to 14) (size 15 to 20)
#    0.000    1.500    5.000    0.000    3.500    4.500 
#    0.000    6.250    0.000    0.000    0.000    0.000 
#    0.000    0.000    0.000    0.000    0.000    0.000 
#
# Total GULP energy -89289.325134 kJ/mol
# GULP energy per Si atom -5580.582821 kJ/mol
# Density = 2.270974 g / cm^3
# Si number density = 22.761546 Si / 1000 Ang^3
#
#
#
# Elastic Constant Matrix: (Units=GPa)
#
#
# Indices 1 2 3 4 5 6 
#
# 1 46.5197 23.4530 24.9179 1.9414 11.6772 -5.9589
# 2 23.4530 93.9726 40.6864 12.2456 14.8055 -2.1067
# 3 24.9179 40.6864 102.6073 12.3947 9.0734 7.8085
# 4 1.9414 12.2456 12.3947 47.3842 -3.3709 13.9158
# 5 11.6772 14.8055 9.0734 -3.3709 43.2786 -2.2193
# 6 -5.9589 -2.1067 7.8085 13.9158 -2.2193 22.5142
#
#
#
# Elastic Compliance Matrix: (Units=1/GPa)
#
#
# Indices 1 2 3 4 5 6 
#
# 1 0.028969 -0.003438 -0.005736 -0.002143 -0.005083 0.010158
# 2 -0.003438 0.014545 -0.004493 -0.003870 -0.003198 0.004086
# 3 -0.005736 -0.004493 0.013448 -0.000227 -0.000084 -0.006471
# 4 -0.002143 -0.003870 -0.000227 0.027657 0.003200 -0.017629
# 5 -0.005083 -0.003198 -0.000084 0.003200 0.025785 -0.001052
# 6 0.010158 0.004086 -0.006471 -0.017629 -0.001052 0.060525
#
#
# Mechanical properties :
#
#
# Convention : Reuss Voigt Hill
#
# Bulk Modulus (GPa) = 33.75417 46.80158 40.27788
# Shear Modulus (GPa) = 24.02256 32.90489 28.46372
#
# Velocity S-wave (km/s) = 3.25222 3.80628 3.54010
# Velocity P-wave (km/s) = 5.38184 6.31849 5.86888
#
# Compressibility (1/GPa) = 0.02962597
#
# Stress axis : x y z
#
# Youngs Moduli (GPa) = 34.51968 68.75429 74.36151
#
# Poissons Ratio (x) = 0.23641 0.42656
# Poissons Ratio (y) = 0.11869 0.33410
# Poissons Ratio (z) = 0.19802 0.30891
#
# Static dielectric constant tensor:
#      x y z
#    x 1.888500 0.047180 0.017580 
#    y 0.047180 1.666210 0.141450 
#    z 0.017580 0.141450 1.837070 
# 
# From -- ./inp_files/206649.got.cif
#   From: 2010.05.17/outbox.cif.g08.bks.cpg/sg2_104_cif.got.tgz:206649.got - 2010.06.03 11:33:40.
