data_PCOD9012123
_publ_section_title
;
Structure prediction by ZEFSAII (Michael W. Deem and Ramdas Pophale) SiO2 
 PCOD9012123
Probable space group: P -1
;
_chemical_formula_sum "Si O2"
_cell_formula_units_Z 16
_cell_length_a 11.383406
_cell_length_b 9.140688
_cell_length_c 25.465198
_cell_angle_alpha 131.183042
_cell_angle_beta 22.572563
_cell_angle_gamma 132.317874
_cell_volume 745.717252
_symmetry_space_group_name_H-M "P -1"
_symmetry_group_IT_number 2
_symmetry_cell_setting 'triclinic'
loop_
_space_group_symop_operation_xyz
x,y,z
-x,-y,-z
loop_
_atom_site_type_symbol
_atom_site_label
_atom_site_fract_x
_atom_site_fract_y
_atom_site_fract_z
Si Si1 0.851290 0.373933 0.270908
Si Si2 0.714013 0.472798 0.969043
Si Si3 0.821318 0.563034 0.434399
Si Si4 0.082200 0.366177 0.886869
Si Si5 0.810711 0.363202 0.590831
Si Si6 0.211480 0.072253 0.062024
Si Si7 0.044578 0.987862 0.416872
Si Si8 0.647019 0.913380 0.107945
O O1 0.852282 0.399882 0.340070
O O2 0.528478 0.431449 0.400784
O O3 0.126951 0.493465 0.146702
O O4 0.898782 0.148745 0.192416
O O5 0.982864 0.456741 0.895671
O O6 0.445293 0.268876 0.035988
O O7 0.592017 0.673135 0.080332
O O8 0.042377 0.577012 0.397393
O O9 0.905458 0.758218 0.408087
O O10 0.448427 0.368136 0.739931
O O11 0.888172 0.135757 0.916404
O O12 0.000000 0.500000 0.000000
O O13 0.000000 0.500000 0.500000
O O14 0.868334 0.144297 0.502986
O O15 0.379903 0.038090 0.930492
O O16 0.408277 0.017924 0.261081
O O17 0.000000 0.000000 0.500000
O O18 0.000000 0.000000 0.000000
#
# Coordination Sequence:
#
# PCOD9012123 Si02
#       8
#     2   2   2   2   2   2   2   2
#     4  10  21  40  70  99 127 180 218 283 331 409
#     4  11  24  44  68  97 142 174 233 273 342 400
#     4  10  21  40  68  96 136 167 229 271 342 398
#     4  12  28  44  68  97 138 183 228 276 340 409
#     4  11  26  43  65  97 139 177 218 283 339 402
#     4  11  24  42  67  98 135 179 228 276 344 399
#     4  10  23  38  65  92 132 172 219 278 334 383
#     4  11  24  39  72 103 133 174 231 285 333 397
#
# _framework density 21.455853999999999
#
# number of rings (size 3 to 8) (size 9 to 14) (size 15 to 20)
#    0.000    1.250    0.000    5.625   19.250    0.000 
#    0.000    0.000    0.000    5.250    0.000    0.000 
#    0.000    0.000    0.000    0.000    0.000    0.000 
#
# Total GULP energy -89330.691479 kJ/mol
# GULP energy per Si atom -5583.168217 kJ/mol
# Density = 2.140702 g / cm^3
# Si number density = 21.455854 Si / 1000 Ang^3
#
#
#
# Elastic Constant Matrix: (Units=GPa)
#
#
# Indices 1 2 3 4 5 6 
#
# 1 107.0283 21.4933 39.7794 7.5374 -10.9901 -7.3080
# 2 21.4933 80.5876 29.1625 -0.7031 -1.1793 -17.5503
# 3 39.7794 29.1625 175.0552 14.7357 -8.1433 -4.7993
# 4 7.5374 -0.7031 14.7357 24.3935 3.8505 -2.8534
# 5 -10.9901 -1.1793 -8.1433 3.8505 33.2550 -0.6418
# 6 -7.3080 -17.5503 -4.7993 -2.8534 -0.6418 34.6309
#
#
#
# Elastic Compliance Matrix: (Units=1/GPa)
#
#
# Indices 1 2 3 4 5 6 
#
# 1 0.011028 -0.002105 -0.001727 -0.002877 0.003496 0.000849
# 2 -0.002105 0.015380 -0.002217 0.003438 -0.000950 0.007309
# 3 -0.001727 -0.002217 0.006857 -0.004004 0.001477 -0.000840
# 4 -0.002877 0.003438 -0.004004 0.046011 -0.007055 0.004241
# 5 0.003496 -0.000950 0.001477 -0.007055 0.032380 0.000480
# 6 0.000849 0.007309 -0.000840 0.004241 0.000480 0.033001
#
#
# Mechanical properties :
#
#
# Convention : Reuss Voigt Hill
#
# Bulk Modulus (GPa) = 47.24521 60.39350 53.81935
# Shear Modulus (GPa) = 30.52287 36.60492 33.56390
#
# Velocity S-wave (km/s) = 3.77581 4.13493 3.95944
# Velocity P-wave (km/s) = 6.40910 7.14183 6.78536
#
# Compressibility (1/GPa) = 0.02116617
#
# Stress axis : x y z
#
# Youngs Moduli (GPa) = 90.68142 65.01771 145.83657
#
# Poissons Ratio (x) = 0.13688 0.25187
# Poissons Ratio (y) = 0.19091 0.32333
# Poissons Ratio (z) = 0.15661 0.14415
#
# Static dielectric constant tensor:
#      x y z
#    x 1.817830 0.082190 0.015620 
#    y 0.082190 1.914140 0.031290 
#    z 0.015620 0.031290 1.864510 
# 
# From -- ./inp_files/278659.got.cif
#   From: 2010.05.17/outbox.cif.g08.bks.cpg/sg2_140_cif.got.tgz:278659.got - 2010.06.03 11:33:40.
