data_PCOD9012599
_publ_section_title
;
Structure prediction by ZEFSAII (Michael W. Deem and Ramdas Pophale) SiO2 
 PCOD9012599
Probable space group: P -1
;
_chemical_formula_sum "Si O2"
_cell_formula_units_Z 15
_cell_length_a 8.681403
_cell_length_b 11.937727
_cell_length_c 17.355021
_cell_angle_alpha 40.872569
_cell_angle_beta 131.390207
_cell_angle_gamma 101.630023
_cell_volume 701.194534
_symmetry_space_group_name_H-M "P -1"
_symmetry_group_IT_number 2
_symmetry_cell_setting 'triclinic'
loop_
_space_group_symop_operation_xyz
x,y,z
-x,-y,-z
loop_
_atom_site_type_symbol
_atom_site_label
_atom_site_fract_x
_atom_site_fract_y
_atom_site_fract_z
Si Si1 0.344232 0.405803 0.924727
Si Si2 0.111337 0.452664 0.186489
Si Si3 0.474352 0.567352 0.311397
Si Si4 0.302352 0.813060 0.698914
Si Si5 0.000000 0.000000 0.000000
Si Si6 0.469827 0.833134 0.037440
Si Si7 0.887281 0.097055 0.730145
Si Si8 0.296222 0.153813 0.265289
O O1 0.367266 0.588611 0.807559
O O2 0.362172 0.268493 0.931009
O O3 0.080137 0.521871 0.824736
O O4 0.575330 0.250164 0.141933
O O5 0.302527 0.494304 0.263740
O O6 0.241794 0.237253 0.291330
O O7 0.931935 0.646699 0.965983
O O8 0.543397 0.650076 0.218091
O O9 0.731848 0.353297 0.543061
O O10 0.293809 0.769199 0.203292
O O11 0.450647 0.879523 0.664543
O O12 0.000000 0.000000 0.500000
O O13 0.051440 0.983698 0.119463
O O14 0.500000 0.000000 0.000000
O O15 0.166247 0.964817 0.849955
O O16 0.724437 0.033386 0.665968
#
# Coordination Sequence:
#
# PCOD9012599 Si02
#       8
#     2   2   2   2   1   2   2   2
#     4  10  24  42  64  96 136 178 220 275 341 402
#     4  10  21  40  71  98 135 178 223 273 339 409
#     4  11  24  43  71 102 129 178 230 282 338 416
#     4  10  23  40  64 100 136 174 217 274 340 409
#     4  10  22  46  66  98 134 170 222 288 338 390
#     4  11  26  46  67  93 138 179 224 289 350 395
#     4  11  25  42  73 101 131 177 234 278 339 411
#     4  10  21  41  68  98 137 178 218 275 339 406
#
# _framework density 21.392067000000001
#
# number of rings (size 3 to 8) (size 9 to 14) (size 15 to 20)
#    0.000    1.600    2.667    1.200   11.200    3.200 
#    0.000    0.000    0.000    0.000    0.000    0.000 
#    0.000    0.000    0.000    0.000    0.000    0.000 
#
# Total GULP energy -83630.041284 kJ/mol
# GULP energy per Si atom -5575.336086 kJ/mol
# Density = 2.134338 g / cm^3
# Si number density = 21.392067 Si / 1000 Ang^3
#
#
#
# Elastic Constant Matrix: (Units=GPa)
#
#
# Indices 1 2 3 4 5 6 
#
# 1 83.8912 45.6709 34.4551 -3.6227 14.9806 -4.3504
# 2 45.6709 89.2270 9.9207 -8.8303 5.2925 -12.5520
# 3 34.4551 9.9207 106.0942 -14.8306 -0.5609 -2.1405
# 4 -3.6227 -8.8303 -14.8306 28.3065 0.4258 8.9323
# 5 14.9806 5.2925 -0.5609 0.4258 16.7688 -10.8409
# 6 -4.3504 -12.5520 -2.1405 8.9323 -10.8409 41.4196
#
#
#
# Elastic Compliance Matrix: (Units=1/GPa)
#
#
# Indices 1 2 3 4 5 6 
#
# 1 0.025305 -0.011887 -0.007636 -0.001863 -0.023675 -0.007134
# 2 -0.011887 0.017612 0.002869 0.003518 0.008806 0.005783
# 3 -0.007636 0.002869 0.012536 0.005984 0.006996 0.001256
# 4 -0.001863 0.003518 0.005984 0.042485 -0.006602 -0.009710
# 5 -0.023675 0.008806 0.006996 -0.006602 0.095908 0.027069
# 6 -0.007134 0.005783 0.001256 -0.009710 0.027069 0.034390
#
#
# Mechanical properties :
#
#
# Convention : Reuss Voigt Hill
#
# Bulk Modulus (GPa) = 45.15825 51.03398 48.09612
# Shear Modulus (GPa) = 18.59239 29.91002 24.25121
#
# Velocity S-wave (km/s) = 2.95129 3.74329 3.37063
# Velocity P-wave (km/s) = 5.72443 6.52619 6.13842
#
# Compressibility (1/GPa) = 0.02214435
#
# Stress axis : x y z
#
# Youngs Moduli (GPa) = 39.51767 56.77868 79.76987
#
# Poissons Ratio (x) = 0.67493 0.60913
# Poissons Ratio (y) = 0.46975 -0.22883
# Poissons Ratio (z) = 0.30176 -0.16288
#
# Static dielectric constant tensor:
#      x y z
#    x -0.873470 -6.045160 4.381180 
#    y -6.045160 -12.176440 10.079020 
#    z 4.381180 10.079020 -5.503150 
# 
# From -- ./inp_files/559699.got.cif
#   From: 2010.05.17/outbox.cif.g08.bks.cpg/sg2_280_cif.got.tgz:559699.got - 2010.06.03 11:33:40.
