data_PCOD9012374
_publ_section_title
;
Structure prediction by ZEFSAII (Michael W. Deem and Ramdas Pophale) SiO2 
 PCOD9012374
Probable space group: P -1
;
_chemical_formula_sum "Si O2"
_cell_formula_units_Z 16
_cell_length_a 8.443014
_cell_length_b 9.374210
_cell_length_c 18.266162
_cell_angle_alpha 91.590982
_cell_angle_beta 45.908917
_cell_angle_gamma 118.549369
_cell_volume 798.614887
_symmetry_space_group_name_H-M "P -1"
_symmetry_group_IT_number 2
_symmetry_cell_setting 'triclinic'
loop_
_space_group_symop_operation_xyz
x,y,z
-x,-y,-z
loop_
_atom_site_type_symbol
_atom_site_label
_atom_site_fract_x
_atom_site_fract_y
_atom_site_fract_z
Si Si1 0.177725 0.335822 0.625892
Si Si2 0.846580 0.978614 0.623279
Si Si3 0.098039 0.290557 0.819833
Si Si4 0.359286 0.733739 0.948129
Si Si5 0.332441 0.941173 0.822128
Si Si6 0.336722 0.668614 0.206901
Si Si7 0.798062 0.876618 0.934306
Si Si8 0.443949 0.406267 0.218465
O O1 0.500000 0.500000 0.500000
O O2 0.149556 0.278506 0.718537
O O3 0.975245 0.391165 0.692294
O O4 0.035114 0.161859 0.615190
O O5 0.546383 0.936253 0.703692
O O6 0.769795 0.805674 0.691418
O O7 0.000000 0.000000 0.500000
O O8 0.389221 0.465849 0.763422
O O9 0.970350 0.094631 0.893289
O O10 0.870258 0.317958 0.917356
O O11 0.345208 0.854819 0.893270
O O12 0.657411 0.832540 0.898088
O O13 0.329637 0.575934 0.909288
O O14 0.023568 0.845842 0.884161
O O15 0.481967 0.155481 0.793353
O O16 0.310972 0.491450 0.228239
O O17 0.529884 0.759584 0.073496
#
# Coordination Sequence:
#
# PCOD9012374 Si02
#       8
#     2   2   2   2   2   2   2   2
#     4  11  25  47  71  94 125 183 236 271 328 407
#     4  10  23  48  69  92 136 178 222 281 343 390
#     4  12  21  40  69  97 133 183 224 266 335 411
#     4  11  23  40  61  99 142 177 215 275 338 393
#     4  10  21  40  69  97 133 178 221 271 333 403
#     4  11  21  42  65  99 138 169 227 276 326 405
#     4  12  21  39  70 102 135 179 226 270 332 411
#     4  11  24  40  64 101 139 169 216 284 341 390
#
# _framework density 20.034685
#
# number of rings (size 3 to 8) (size 9 to 14) (size 15 to 20)
#    0.000    1.000    3.750    4.875    0.000    1.500 
#    9.000    2.500    0.000    0.000    0.000    0.000 
#    0.000    0.000    0.000    0.000    0.000    0.000 
#
# Total GULP energy -89260.711691 kJ/mol
# GULP energy per Si atom -5578.794481 kJ/mol
# Density = 1.998909 g / cm^3
# Si number density = 20.034685 Si / 1000 Ang^3
#
#
#
# Elastic Constant Matrix: (Units=GPa)
#
#
# Indices 1 2 3 4 5 6 
#
# 1 120.9048 50.9896 69.8204 2.4685 -16.4650 -7.2093
# 2 50.9896 105.1693 50.5045 4.1126 4.2674 -22.5746
# 3 69.8204 50.5045 168.9295 13.7479 -3.6199 -8.5729
# 4 2.4685 4.1126 13.7479 32.9882 4.6209 4.3482
# 5 -16.4650 4.2674 -3.6199 4.6209 13.5911 -3.4239
# 6 -7.2093 -22.5746 -8.5729 4.3482 -3.4239 30.6698
#
#
#
# Elastic Compliance Matrix: (Units=1/GPa)
#
#
# Indices 1 2 3 4 5 6 
#
# 1 0.016563 -0.006733 -0.004201 -0.001757 0.021770 0.000443
# 2 -0.006733 0.015894 -0.001769 -0.000245 -0.011423 0.008382
# 3 -0.004201 -0.001769 0.008405 -0.002835 -0.001250 0.000323
# 4 -0.001757 -0.000245 -0.002835 0.035099 -0.016816 -0.008240
# 5 0.021770 -0.011423 -0.001250 -0.016816 0.111748 0.011219
# 6 0.000443 0.008382 0.000323 -0.008240 0.011219 0.041390
#
#
# Mechanical properties :
#
#
# Convention : Reuss Voigt Hill
#
# Bulk Modulus (GPa) = 64.69112 81.95920 73.32516
# Shear Modulus (GPa) = 19.25623 30.36242 24.80933
#
# Velocity S-wave (km/s) = 3.10360 3.89716 3.52279
# Velocity P-wave (km/s) = 6.72330 7.82610 7.29557
#
# Compressibility (1/GPa) = 0.01545807
#
# Stress axis : x y z
#
# Youngs Moduli (GPa) = 60.37470 62.91609 118.97614
#
# Poissons Ratio (x) = 0.42358 0.49982
# Poissons Ratio (y) = 0.40647 0.21043
# Poissons Ratio (z) = 0.25363 0.11128
#
# Static dielectric constant tensor:
#      x y z
#    x 1.776790 0.015740 0.000250 
#    y 0.015740 1.709320 0.000800 
#    z 0.000250 0.000800 1.704000 
# 
# From -- ./inp_files/177432.got.cif
#   From: 2010.05.17/outbox.cif.g08.bks.cpg/sg2_89_cif.got.tgz:177432.got - 2010.06.03 11:33:40.
