data_PCOD9012833
_publ_section_title
;
Structure prediction by ZEFSAII (Michael W. Deem and Ramdas Pophale) SiO2 
 PCOD9012833
Probable space group: P -1
;
_chemical_formula_sum "Si O2"
_cell_formula_units_Z 13
_cell_length_a 12.975917
_cell_length_b 10.894019
_cell_length_c 14.056773
_cell_angle_alpha 19.947872
_cell_angle_beta 42.670995
_cell_angle_gamma 51.134180
_cell_volume 441.736027
_symmetry_space_group_name_H-M "P -1"
_symmetry_group_IT_number 2
_symmetry_cell_setting 'triclinic'
loop_
_space_group_symop_operation_xyz
x,y,z
-x,-y,-z
loop_
_atom_site_type_symbol
_atom_site_label
_atom_site_fract_x
_atom_site_fract_y
_atom_site_fract_z
Si Si1 0.974636 0.573826 0.231769
Si Si2 0.746448 0.976198 0.152041
Si Si3 0.525554 0.435311 0.252088
Si Si4 0.612239 0.910441 0.091318
Si Si5 0.886507 0.639863 0.046146
Si Si6 0.202651 0.174362 0.314389
Si Si7 0.500000 0.500000 0.000000
O O1 0.028623 0.204481 0.437637
O O2 0.812375 0.610549 0.360888
O O3 0.981812 0.790842 0.968482
O O4 0.114592 0.766067 0.068799
O O5 0.577079 0.924860 0.357752
O O6 0.714630 0.078561 0.993474
O O7 0.711624 0.516532 0.047716
O O8 0.459127 0.400988 0.215290
O O9 0.486247 0.786085 0.077228
O O10 0.500000 0.500000 0.500000
O O11 0.746336 0.832682 0.988453
O O12 0.786397 0.213083 0.454046
O O13 0.000000 0.500000 0.000000
O O14 0.318218 0.270507 0.255628
#
# Coordination Sequence:
#
# PCOD9012833 Si02
#       7
#     2   2   2   2   2   2   1
#     4  10  23  43  60  91 133 156 217 261 305 396
#     4  10  24  42  65  96 121 173 207 260 327 370
#     4  10  22  40  68  92 124 169 206 262 319 363
#     4  11  22  45  63  94 133 157 218 266 303 387
#     4  11  25  39  62  93 127 171 207 257 323 370
#     4  10  21  41  61  92 124 161 212 260 306 373
#     4   8  20  38  62  94 122 152 216 258 298 378
#
# _framework density 29.429341999999998
#
# number of rings (size 3 to 8) (size 9 to 14) (size 15 to 20)
#    0.923    0.923    1.538    1.385    4.308    2.462 
#    0.000    3.077    0.000    0.000    0.000    0.000 
#    0.000    0.000    0.000    0.000    0.000    0.000 
#
# Total GULP energy -72480.265473 kJ/mol
# GULP energy per Si atom -5575.405036 kJ/mol
# Density = 2.936236 g / cm^3
# Si number density = 29.429342 Si / 1000 Ang^3
#
#
#
# Elastic Constant Matrix: (Units=GPa)
#
#
# Indices 1 2 3 4 5 6 
#
# 1 152.4482 45.9398 -9.0918 1.6714 -26.1798 -3.3529
# 2 45.9398 202.2269 27.0464 30.4095 -14.6110 -22.9139
# 3 -9.0918 27.0464 33.6069 9.4685 -1.3660 -6.3624
# 4 1.6714 30.4095 9.4685 70.4231 -6.7896 -0.9118
# 5 -26.1798 -14.6110 -1.3660 -6.7896 33.8311 6.8654
# 6 -3.3529 -22.9139 -6.3624 -0.9118 6.8654 67.0178
#
#
#
# Elastic Compliance Matrix: (Units=1/GPa)
#
#
# Indices 1 2 3 4 5 6 
#
# 1 0.008478 -0.002205 0.003985 0.000790 0.006042 -0.000559
# 2 -0.002205 0.006633 -0.005027 -0.002095 0.000204 0.001631
# 3 0.003985 -0.005027 0.035996 -0.002597 0.001498 0.001709
# 4 0.000790 -0.002095 -0.002597 0.015707 0.002960 -0.001013
# 5 0.006042 0.000204 0.001498 0.002960 0.035604 -0.003093
# 6 -0.000559 0.001631 0.001709 -0.001013 -0.003093 0.015916
#
#
# Mechanical properties :
#
#
# Convention : Reuss Voigt Hill
#
# Bulk Modulus (GPa) = 22.41498 57.34121 39.87810
# Shear Modulus (GPa) = 35.79132 55.88022 45.83577
#
# Velocity S-wave (km/s) = 3.49116 4.36224 3.95078
# Velocity P-wave (km/s) = 4.88712 6.70066 5.86442
#
# Compressibility (1/GPa) = 0.04461301
#
# Stress axis : x y z
#
# Youngs Moduli (GPa) = 117.94976 150.76884 27.78113
#
# Poissons Ratio (x) = 0.33239 -0.11071
# Poissons Ratio (y) = 0.26004 0.13966
# Poissons Ratio (z) = -0.47002 0.75792
#
# Static dielectric constant tensor:
#      x y z
#    x 2.305850 0.162600 0.110630 
#    y 0.162600 2.048930 0.123980 
#    z 0.110630 0.123980 2.490160 
# 
# From -- ./inp_files/362620.got.cif
#   From: 2010.05.17/outbox.cif.g08.bks.cpg/sg2_182_cif.got.tgz:362620.got - 2010.06.03 11:33:40.
