data_PCOD9012213
_publ_section_title
;
Structure prediction by ZEFSAII (Michael W. Deem and Ramdas Pophale) SiO2 
 PCOD9012213
Probable space group: P -1
;
_chemical_formula_sum "Si O2"
_cell_formula_units_Z 16
_cell_length_a 14.829838
_cell_length_b 14.664159
_cell_length_c 7.773604
_cell_angle_alpha 87.883459
_cell_angle_beta 107.776413
_cell_angle_gamma 152.290534
_cell_volume 636.143447
_symmetry_space_group_name_H-M "P -1"
_symmetry_group_IT_number 2
_symmetry_cell_setting 'triclinic'
loop_
_space_group_symop_operation_xyz
x,y,z
-x,-y,-z
loop_
_atom_site_type_symbol
_atom_site_label
_atom_site_fract_x
_atom_site_fract_y
_atom_site_fract_z
Si Si1 0.378119 0.792274 0.617679
Si Si2 0.366314 0.632342 0.337713
Si Si3 0.052550 0.229705 0.751767
Si Si4 0.685296 0.767518 0.691655
Si Si5 0.412952 0.243458 0.875512
Si Si6 0.098051 0.723299 0.500093
Si Si7 0.181348 0.871090 0.924021
Si Si8 0.708670 0.680671 0.365245
O O1 0.385610 0.741551 0.449817
O O2 0.277688 0.804703 0.535361
O O3 0.170437 0.557056 0.625166
O O4 0.626058 0.007361 0.850537
O O5 0.464414 0.637293 0.513944
O O6 0.534182 0.771577 0.260938
O O7 0.089320 0.371138 0.147873
O O8 0.096089 0.216746 0.596188
O O9 0.916723 0.202926 0.637135
O O10 0.319924 0.490563 0.939669
O O11 0.909737 0.034407 0.806352
O O12 0.737833 0.741765 0.572282
O O13 0.560581 0.600755 0.782148
O O14 0.284644 0.223272 0.752488
O O15 0.278203 0.059791 0.942809
O O16 0.163101 0.808501 0.728605
#
# Coordination Sequence:
#
# PCOD9012213 Si02
#       8
#     2   2   2   2   2   2   2   2
#     4  10  21  41  70  97 133 177 221 269 340 389
#     4  10  24  43  65  99 136 175 218 278 327 390
#     4  12  23  41  68  94 136 178 217 276 331 388
#     4  10  23  40  66  93 135 171 221 272 331 393
#     4  11  25  41  65 103 135 171 228 269 327 403
#     4  10  21  40  69 100 130 174 224 274 326 397
#     4  11  22  43  70  96 136 177 217 274 332 394
#     4  10  22  41  62  97 130 175 220 270 334 393
#
# _framework density 25.151561000000001
#
# number of rings (size 3 to 8) (size 9 to 14) (size 15 to 20)
#    0.000    1.500    1.250    4.125    1.750    3.500 
#    0.000    3.125    0.000    0.000    0.000    0.000 
#    0.000    0.000    0.000    0.000    0.000    0.000 
#
# Total GULP energy -89672.728253 kJ/mol
# GULP energy per Si atom -5604.545516 kJ/mol
# Density = 2.509432 g / cm^3
# Si number density = 25.151561 Si / 1000 Ang^3
#
#
#
# Elastic Constant Matrix: (Units=GPa)
#
#
# Indices 1 2 3 4 5 6 
#
# 1 144.0528 45.8346 9.1254 -3.9762 9.3036 12.1790
# 2 45.8346 96.8558 9.0571 26.2245 2.6501 8.8933
# 3 9.1254 9.0571 78.0259 32.7574 4.6046 8.5561
# 4 -3.9762 26.2245 32.7574 41.4986 8.9620 -7.5141
# 5 9.3036 2.6501 4.6046 8.9620 32.8455 3.8216
# 6 12.1790 8.8933 8.5561 -7.5141 3.8216 31.5363
#
#
#
# Elastic Compliance Matrix: (Units=1/GPa)
#
#
# Indices 1 2 3 4 5 6 
#
# 1 0.010011 -0.007432 -0.005041 0.011218 -0.004924 0.002867
# 2 -0.007432 0.020933 0.010390 -0.026138 0.007604 -0.013001
# 3 -0.005041 0.010390 0.027953 -0.034040 0.008012 -0.017649
# 4 0.011218 -0.026138 -0.034040 0.079419 -0.021905 0.033852
# 5 -0.004924 0.007604 0.008012 -0.021905 0.037497 -0.012180
# 6 0.002867 -0.013001 -0.017649 0.033852 -0.012180 0.048599
#
#
# Mechanical properties :
#
#
# Convention : Reuss Voigt Hill
#
# Bulk Modulus (GPa) = 18.27163 49.66317 33.96740
# Shear Modulus (GPa) = 20.25739 38.17056 29.21398
#
# Velocity S-wave (km/s) = 2.84106 3.89989 3.41180
# Velocity P-wave (km/s) = 4.24765 6.32987 5.39026
#
# Compressibility (1/GPa) = 0.05472966
#
# Stress axis : x y z
#
# Youngs Moduli (GPa) = 99.88830 47.77200 35.77409
#
# Poissons Ratio (x) = 0.35504 0.18035
# Poissons Ratio (y) = 0.74236 -0.37168
# Poissons Ratio (z) = 0.50358 -0.49633
#
# Static dielectric constant tensor:
#      x y z
#    x 1.947580 -0.014780 -0.067170 
#    y -0.014780 2.010400 0.022110 
#    z -0.067170 0.022110 2.044690 
# 
# From -- ./inp_files/315332.got.cif
#   From: 2010.05.17/outbox.cif.g08.bks.cpg/sg2_158_cif.got.tgz:315332.got - 2010.06.03 11:33:40.
