data_PCOD9012428
_publ_section_title
;
Structure prediction by ZEFSAII (Michael W. Deem and Ramdas Pophale) SiO2 
 PCOD9012428
Probable space group: P -1
;
_chemical_formula_sum "Si O2"
_cell_formula_units_Z 14
_cell_length_a 10.450253
_cell_length_b 15.431691
_cell_length_c 11.481456
_cell_angle_alpha 151.114835
_cell_angle_beta 136.289702
_cell_angle_gamma 54.273381
_cell_volume 611.351178
_symmetry_space_group_name_H-M "P -1"
_symmetry_group_IT_number 2
_symmetry_cell_setting 'triclinic'
loop_
_space_group_symop_operation_xyz
x,y,z
-x,-y,-z
loop_
_atom_site_type_symbol
_atom_site_label
_atom_site_fract_x
_atom_site_fract_y
_atom_site_fract_z
Si Si1 0.376549 0.351142 0.824286
Si Si2 0.242380 0.142392 0.835101
Si Si3 0.970585 0.662772 0.259691
Si Si4 0.279411 0.317365 0.305247
Si Si5 0.642877 0.170357 0.342622
Si Si6 0.390206 0.711431 0.867214
Si Si7 0.788193 0.928200 0.803765
O O1 0.183167 0.396306 0.811047
O O2 0.311768 0.180797 0.498560
O O3 0.500000 0.500000 0.000000
O O4 0.510233 0.307378 0.965228
O O5 0.115651 0.188832 0.700659
O O6 0.269703 0.931532 0.612674
O O7 0.187671 0.213818 0.009222
O O8 0.442470 0.264034 0.086915
O O9 0.183404 0.751896 0.532967
O O10 0.000000 0.500000 0.000000
O O11 0.506447 0.314698 0.451477
O O12 0.252182 0.525625 0.536992
O O13 0.216661 0.205184 0.246551
O O14 0.500000 0.000000 0.000000
O O15 0.307675 0.896827 0.027859
O O16 0.000000 0.000000 0.000000
#
# Coordination Sequence:
#
# PCOD9012428 Si02
#       7
#     2   2   2   2   2   2   2
#     4  11  25  49  72 100 147 193 235 294 357 423
#     4  10  22  40  70 103 140 183 230 298 358 410
#     4  11  25  43  71 110 139 182 243 293 350 421
#     4  11  23  44  71 104 143 185 235 294 359 416
#     4  10  21  40  70 101 138 180 227 293 352 411
#     4  11  23  46  72 100 139 189 237 292 359 416
#     4  12  28  45  71 103 142 190 241 289 355 434
#
# _framework density 22.900093999999999
#
# number of rings (size 3 to 8) (size 9 to 14) (size 15 to 20)
#    0.000    1.143    2.857    3.000    4.000    2.857 
#    2.571    0.000    0.000    0.000    0.000    0.000 
#    0.000    0.000    0.000    0.000    0.000    0.000 
#
# Total GULP energy -78298.277363 kJ/mol
# GULP energy per Si atom -5592.734097 kJ/mol
# Density = 2.284797 g / cm^3
# Si number density = 22.900094 Si / 1000 Ang^3
#
#
#
# Elastic Constant Matrix: (Units=GPa)
#
#
# Indices 1 2 3 4 5 6 
#
# 1 122.1618 24.4384 45.2673 4.1854 23.4456 14.2464
# 2 24.4384 56.4210 22.5483 14.7858 8.7125 20.2748
# 3 45.2673 22.5483 115.4302 10.0311 4.7472 -4.5039
# 4 4.1854 14.7858 10.0311 39.0592 -2.1102 1.6296
# 5 23.4456 8.7125 4.7472 -2.1102 49.1041 -3.8358
# 6 14.2464 20.2748 -4.5039 1.6296 -3.8358 38.6930
#
#
#
# Elastic Compliance Matrix: (Units=1/GPa)
#
#
# Indices 1 2 3 4 5 6 
#
# 1 0.011542 -0.000661 -0.004374 0.000054 -0.005355 -0.004945
# 2 -0.000661 0.029013 -0.004968 -0.009302 -0.005981 -0.015738
# 3 -0.004374 -0.004968 0.011546 -0.000736 0.002276 0.005814
# 4 0.000054 -0.009302 -0.000736 0.029322 0.003257 0.003857
# 5 -0.005355 -0.005981 0.002276 0.003257 0.024501 0.007662
# 6 -0.004945 -0.015738 0.005814 0.003857 0.007662 0.037186
#
#
# Mechanical properties :
#
#
# Convention : Reuss Voigt Hill
#
# Bulk Modulus (GPa) = 31.15882 53.16901 42.16391
# Shear Modulus (GPa) = 28.76638 38.82186 33.79412
#
# Velocity S-wave (km/s) = 3.54809 4.12183 3.84568
# Velocity P-wave (km/s) = 5.51554 6.77650 6.17827
#
# Compressibility (1/GPa) = 0.03209364
#
# Stress axis : x y z
#
# Youngs Moduli (GPa) = 86.64288 34.46788 86.60753
#
# Poissons Ratio (x) = 0.02279 0.37886
# Poissons Ratio (y) = 0.05728 0.43025
# Poissons Ratio (z) = 0.37902 0.17123
#
# Static dielectric constant tensor:
#      x y z
#    x 1.817740 -0.052870 0.047180 
#    y -0.052870 1.991980 -0.022960 
#    z 0.047180 -0.022960 1.826150 
# 
# From -- ./inp_files/400190.got.cif
#   From: 2010.05.17/outbox.cif.g08.bks.cpg/sg2_201_cif.got.tgz:400190.got - 2010.06.03 11:33:40.
