data_PCOD9012671
_publ_section_title
;
Structure prediction by ZEFSAII (Michael W. Deem and Ramdas Pophale) SiO2 
 PCOD9012671
Probable space group: P -1
;
_chemical_formula_sum "Si O2"
_cell_formula_units_Z 16
_cell_length_a 15.968446
_cell_length_b 8.558091
_cell_length_c 11.808738
_cell_angle_alpha 53.067148
_cell_angle_beta 26.813073
_cell_angle_gamma 52.705054
_cell_volume 570.917290
_symmetry_space_group_name_H-M "P -1"
_symmetry_group_IT_number 2
_symmetry_cell_setting 'triclinic'
loop_
_space_group_symop_operation_xyz
x,y,z
-x,-y,-z
loop_
_atom_site_type_symbol
_atom_site_label
_atom_site_fract_x
_atom_site_fract_y
_atom_site_fract_z
Si Si1 0.909459 0.722062 0.043950
Si Si2 0.631239 0.166238 0.251650
Si Si3 0.438424 0.557731 0.177712
Si Si4 0.926887 0.015711 0.761218
Si Si5 0.356682 0.096015 0.267604
Si Si6 0.497699 0.731747 0.416664
Si Si7 0.105896 0.361393 0.650692
Si Si8 0.917096 0.750433 0.666907
O O1 0.701067 0.738302 0.227945
O O2 0.902368 0.753530 0.173362
O O3 0.000000 0.500000 0.000000
O O4 0.055637 0.846989 0.755762
O O5 0.540008 0.380291 0.215144
O O6 0.671145 0.201247 0.318400
O O7 0.500000 0.000000 0.500000
O O8 0.788309 0.079068 0.009420
O O9 0.226111 0.529489 0.468933
O O10 0.500000 0.500000 0.000000
O O11 0.498605 0.771324 0.016779
O O12 0.902327 0.224884 0.637332
O O13 0.896193 0.871658 0.754944
O O14 0.221437 0.226542 0.471398
O O15 0.214747 0.105514 0.328409
O O16 0.463022 0.891427 0.285897
O O17 0.500000 0.500000 0.500000
O O18 0.914725 0.516428 0.777017
#
# Coordination Sequence:
#
# PCOD9012671 Si02
#       8
#     2   2   2   2   2   2   2   2
#     4  12  25  47  76 102 145 195 255 308 379 456
#     4  12  22  47  79 110 146 198 262 311 366 459
#     4  10  21  40  74 109 140 187 251 307 371 449
#     4  11  24  44  77 107 143 208 256 303 379 455
#     4  11  26  48  74 111 155 201 250 316 387 450
#     4  12  29  49  75 112 153 194 260 327 382 443
#     4  11  22  45  77 110 144 198 254 309 376 462
#     4  11  26  46  73 110 163 194 250 312 385 461
#
# _framework density 28.025075999999999
#
# number of rings (size 3 to 8) (size 9 to 14) (size 15 to 20)
#    0.000    0.750    3.750    4.125    3.500    1.000 
#    4.500    2.500    0.000    0.000    0.000    0.000 
#    0.000    0.000    0.000    0.000    0.000    0.000 
#
# Total GULP energy -89137.460057 kJ/mol
# GULP energy per Si atom -5571.091254 kJ/mol
# Density = 2.796129 g / cm^3
# Si number density = 28.025076 Si / 1000 Ang^3
#
#
#
# Elastic Constant Matrix: (Units=GPa)
#
#
# Indices 1 2 3 4 5 6 
#
# 1 219.1685 117.0463 161.3381 2.8144 5.4017 2.5667
# 2 117.0463 193.8920 98.5397 -19.0124 -15.5303 -11.8072
# 3 161.3381 98.5397 228.8609 -4.6143 8.6783 18.9772
# 4 2.8144 -19.0124 -4.6143 59.8924 -15.7914 28.2952
# 5 5.4017 -15.5303 8.6783 -15.7914 66.4232 -8.1662
# 6 2.5667 -11.8072 18.9772 28.2952 -8.1662 56.1383
#
#
#
# Elastic Compliance Matrix: (Units=1/GPa)
#
#
# Indices 1 2 3 4 5 6 
#
# 1 0.011801 -0.004012 -0.006841 -0.004086 -0.001637 0.002750
# 2 -0.004012 0.008837 -0.001154 0.003191 0.003465 0.001328
# 3 -0.006841 -0.001154 0.010192 0.002813 -0.000983 -0.004936
# 4 -0.004086 0.003191 0.002813 0.025174 0.005218 -0.012022
# 5 -0.001637 0.003465 -0.000983 0.005218 0.017496 0.001051
# 6 0.002750 0.001328 -0.004936 -0.012022 0.001051 0.025848
#
#
# Mechanical properties :
#
#
# Convention : Reuss Voigt Hill
#
# Bulk Modulus (GPa) = 146.67454 155.08551 150.88003
# Shear Modulus (GPa) = 39.79819 54.15726 46.97772
#
# Velocity S-wave (km/s) = 3.77250 4.40074 4.09868
# Velocity P-wave (km/s) = 8.45140 9.01556 8.73803
#
# Compressibility (1/GPa) = 0.00681782
#
# Stress axis : x y z
#
# Youngs Moduli (GPa) = 84.73504 113.15849 98.11773
#
# Poissons Ratio (x) = 0.45400 0.67117
# Poissons Ratio (y) = 0.33996 0.11321
# Poissons Ratio (z) = 0.57963 0.13056
#
# Static dielectric constant tensor:
#      x y z
#    x 2.528590 -0.453510 -0.112850 
#    y -0.453510 2.811330 0.067140 
#    z -0.112850 0.067140 2.099120 
# 
# From -- ./inp_files/461879.got.cif
#   From: 2010.05.17/outbox.cif.g08.bks.cpg/sg2_231_cif.got.tgz:461879.got - 2010.06.03 11:33:40.
