data_PCOD9012623
_publ_section_title
;
Structure prediction by ZEFSAII (Michael W. Deem and Ramdas Pophale) SiO2 
 PCOD9012623
Probable space group: P -1
;
_chemical_formula_sum "Si O2"
_cell_formula_units_Z 14
_cell_length_a 8.680996
_cell_length_b 5.259399
_cell_length_c 18.606511
_cell_angle_alpha 81.837046
_cell_angle_beta 133.479951
_cell_angle_gamma 97.392552
_cell_volume 609.607712
_symmetry_space_group_name_H-M "P -1"
_symmetry_group_IT_number 2
_symmetry_cell_setting 'triclinic'
loop_
_space_group_symop_operation_xyz
x,y,z
-x,-y,-z
loop_
_atom_site_type_symbol
_atom_site_label
_atom_site_fract_x
_atom_site_fract_y
_atom_site_fract_z
Si Si1 0.330502 0.116652 0.014013
Si Si2 0.948987 0.820339 0.307322
Si Si3 0.591201 0.593155 0.727121
Si Si4 0.405706 0.724410 0.508383
Si Si5 0.458768 0.043241 0.769912
Si Si6 0.628325 0.537702 0.120160
Si Si7 0.960286 0.180141 0.162949
O O1 0.398121 0.395412 0.060847
O O2 0.438567 0.948840 0.117233
O O3 0.385835 0.212827 0.945359
O O4 0.110202 0.968378 0.927031
O O5 0.795786 0.985183 0.300507
O O6 0.778529 0.603466 0.232645
O O7 0.152685 0.723392 0.415948
O O8 0.020625 0.978012 0.252450
O O9 0.473697 0.672580 0.613484
O O10 0.522398 0.306409 0.739501
O O11 0.843606 0.621811 0.794027
O O12 0.539006 0.804895 0.761014
O O13 0.500000 0.500000 0.500000
O O14 0.500000 0.000000 0.500000
O O15 0.766947 0.333263 0.128662
#
# Coordination Sequence:
#
# PCOD9012623 Si02
#       7
#     2   2   2   2   2   2   2
#     4  10  23  39  70 101 145 192 236 297 344 419
#     4  11  25  44  77 102 140 190 241 292 354 420
#     4  12  29  47  70 107 151 179 241 297 359 429
#     4  12  26  49  82 109 134 183 241 304 352 415
#     4  12  28  47  66 107 154 191 225 293 366 424
#     4  10  21  40  72 108 135 182 260 295 329 420
#     4  11  23  42  73 104 134 195 250 290 337 424
#
# _framework density 22.965588
#
# number of rings (size 3 to 8) (size 9 to 14) (size 15 to 20)
#    0.000    0.857    2.857    3.000   10.000    2.286 
#    0.000    0.000    0.000    0.000    0.000    0.000 
#    0.000    0.000    0.000    0.000    0.000    0.000 
#
# Total GULP energy -78158.253197 kJ/mol
# GULP energy per Si atom -5582.732371 kJ/mol
# Density = 2.291332 g / cm^3
# Si number density = 22.965588 Si / 1000 Ang^3
#
#
#
# Elastic Constant Matrix: (Units=GPa)
#
#
# Indices 1 2 3 4 5 6 
#
# 1 38.5898 12.2574 12.3086 0.3922 -7.4316 -3.1017
# 2 12.2574 128.9840 38.2027 -19.1854 -9.6545 9.6568
# 3 12.3086 38.2027 155.5388 -9.6377 -7.7069 15.8416
# 4 0.3922 -19.1854 -9.6377 39.1910 5.9847 -6.9988
# 5 -7.4316 -9.6545 -7.7069 5.9847 40.9466 2.6594
# 6 -3.1017 9.6568 15.8416 -6.9988 2.6594 37.6198
#
#
#
# Elastic Compliance Matrix: (Units=1/GPa)
#
#
# Indices 1 2 3 4 5 6 
#
# 1 0.028360 -0.002338 -0.001891 -0.002010 0.004336 0.003054
# 2 -0.002338 0.009190 -0.001668 0.003747 0.000960 -0.001220
# 3 -0.001891 -0.001668 0.007336 0.000389 0.000769 -0.002799
# 4 -0.002010 0.003747 0.000389 0.028840 -0.003906 0.004350
# 5 0.004336 0.000960 0.000769 -0.003906 0.026333 -0.002801
# 6 0.003054 -0.001220 -0.002799 0.004350 -0.002801 0.029333
#
#
# Mechanical properties :
#
#
# Convention : Reuss Voigt Hill
#
# Bulk Modulus (GPa) = 30.21906 49.85001 40.03453
# Shear Modulus (GPa) = 32.84815 40.90773 36.87794
#
# Velocity S-wave (km/s) = 3.78606 4.22508 4.01158
# Velocity P-wave (km/s) = 5.68325 6.74946 6.23917
#
# Compressibility (1/GPa) = 0.03309170
#
# Stress axis : x y z
#
# Youngs Moduli (GPa) = 35.26064 108.81686 136.31634
#
# Poissons Ratio (x) = 0.25444 0.25775
# Poissons Ratio (y) = 0.08245 0.22739
# Poissons Ratio (z) = 0.06667 0.18152
#
# Static dielectric constant tensor:
#      x y z
#    x 1.921520 -0.046580 -0.012230 
#    y -0.046580 1.926500 0.009310 
#    z -0.012230 0.009310 1.845190 
# 
# From -- ./inp_files/552501.got.cif
#   From: 2010.05.17/outbox.cif.g08.bks.cpg/sg2_277_cif.got.tgz:552501.got - 2010.06.03 11:33:40.
