data_PCOD9012347
_publ_section_title
;
Structure prediction by ZEFSAII (Michael W. Deem and Ramdas Pophale) SiO2 
 PCOD9012347
Probable space group: P -1
;
_chemical_formula_sum "Si O2"
_cell_formula_units_Z 16
_cell_length_a 23.358319
_cell_length_b 8.016240
_cell_length_c 18.882902
_cell_angle_alpha 127.434590
_cell_angle_beta 14.673326
_cell_angle_gamma 122.953788
_cell_volume 693.895234
_symmetry_space_group_name_H-M "P -1"
_symmetry_group_IT_number 2
_symmetry_cell_setting 'triclinic'
loop_
_space_group_symop_operation_xyz
x,y,z
-x,-y,-z
loop_
_atom_site_type_symbol
_atom_site_label
_atom_site_fract_x
_atom_site_fract_y
_atom_site_fract_z
Si Si1 0.618640 0.828837 0.725201
Si Si2 0.413718 0.407848 0.158932
Si Si3 0.703702 0.964395 0.301145
Si Si4 0.737737 0.735463 0.342155
Si Si5 0.758563 0.442548 0.357198
Si Si6 0.892606 0.149795 0.321903
Si Si7 0.835296 0.868553 0.704039
Si Si8 0.091200 0.825635 0.532988
O O1 0.527342 0.767023 0.893333
O O2 0.700721 0.603161 0.531455
O O3 0.824878 0.951248 0.519389
O O4 0.419190 0.975819 0.954448
O O5 0.321090 0.643614 0.363596
O O6 0.207692 0.329903 0.343088
O O7 0.664787 0.356121 0.806657
O O8 0.630996 0.853074 0.429287
O O9 0.500000 0.000000 0.500000
O O10 0.727757 0.206537 0.350489
O O11 0.931268 0.847531 0.953518
O O12 0.627199 0.574852 0.480705
O O13 0.806079 0.926643 0.357125
O O14 0.973239 0.591382 0.991752
O O15 0.007984 0.157913 0.263981
O O16 0.931512 0.803538 0.650981
O O17 0.000000 0.000000 0.500000
#
# Coordination Sequence:
#
# PCOD9012347 Si02
#       8
#     2   2   2   2   2   2   2   2
#     4  11  20  38  66  93 124 169 220 258 322 387
#     4  11  22  38  65  92 127 175 215 263 326 381
#     4  11  25  44  63  99 138 160 213 277 326 395
#     4  10  21  43  69  90 127 165 218 267 319 393
#     4  10  21  40  69  96 119 173 216 260 327 390
#     4  11  23  43  64  90 126 173 214 263 328 387
#     4  11  21  38  59  91 130 164 213 270 312 381
#     4  11  22  41  62  93 130 166 219 268 314 386
#
# _framework density 23.058233999999999
#
# number of rings (size 3 to 8) (size 9 to 14) (size 15 to 20)
#    0.000    1.250    3.750    4.125    0.000    3.000 
#    4.500    0.000    0.000    0.000    0.000    0.000 
#    0.000    0.000    0.000    0.000    0.000    0.000 
#
# Total GULP energy -89316.785712 kJ/mol
# GULP energy per Si atom -5582.299107 kJ/mol
# Density = 2.300575 g / cm^3
# Si number density = 23.058234 Si / 1000 Ang^3
#
#
#
# Elastic Constant Matrix: (Units=GPa)
#
#
# Indices 1 2 3 4 5 6 
#
# 1 148.1324 38.3206 28.7419 14.6237 -20.5373 6.9109
# 2 38.3206 9.9084 35.2502 -2.9965 26.0240 -20.0559
# 3 28.7419 35.2502 58.2139 22.0411 6.1942 22.7725
# 4 14.6237 -2.9965 22.0411 19.1405 17.7741 -3.8258
# 5 -20.5373 26.0240 6.1942 17.7741 34.0951 9.2594
# 6 6.9109 -20.0559 22.7725 -3.8258 9.2594 33.3503
#
#
#
# Elastic Compliance Matrix: (Units=1/GPa)
#
#
# Indices 1 2 3 4 5 6 
#
# 1 0.007643 0.001884 -0.007735 0.002208 0.002205 0.004472
# 2 0.001884 0.003673 0.008609 -0.023963 0.012015 -0.010145
# 3 -0.007735 0.008609 0.016955 0.001587 -0.015016 -0.000447
# 4 0.002208 -0.023963 0.001587 0.042676 0.000095 -0.011083
# 5 0.002205 0.012015 -0.015016 0.000095 0.021134 0.011165
# 6 0.004472 -0.010145 -0.000447 -0.011083 0.011165 0.018891
#
#
# Mechanical properties :
#
#
# Convention : Reuss Voigt Hill
#
# Bulk Modulus (GPa) = 29.59628 46.76445 38.18036
# Shear Modulus (GPa) = 42.83841 24.91331 33.87586
#
# Velocity S-wave (km/s) = 4.31494 3.29059 3.83710
# Velocity P-wave (km/s) = 6.13907 5.89596 6.01874
#
# Compressibility (1/GPa) = 0.03378803
#
# Stress axis : x y z
#
# Youngs Moduli (GPa) = 130.83630 272.27762 58.97811
#
# Poissons Ratio (x) = -0.51303 0.45617
# Poissons Ratio (y) = -0.24653 -0.50773
# Poissons Ratio (z) = 1.01197 -2.34397
#
# Static dielectric constant tensor:
#      x y z
#    x 1.985940 -0.054650 -0.041100 
#    y -0.054650 2.016650 -0.035400 
#    z -0.041100 -0.035400 1.892390 
# 
# From -- ./inp_files/446614.got.cif
#   From: 2010.05.17/outbox.cif.g08.bks.cpg/sg2_224_cif.got.tgz:446614.got - 2010.06.03 11:33:40.
