data_PCOD9012793
_publ_section_title
;
Structure prediction by ZEFSAII (Michael W. Deem and Ramdas Pophale) SiO2 
 PCOD9012793
Probable space group: P -1
;
_chemical_formula_sum "Si O2"
_cell_formula_units_Z 10
_cell_length_a 14.126344
_cell_length_b 7.678917
_cell_length_c 18.602823
_cell_angle_alpha 142.297480
_cell_angle_beta 18.776676
_cell_angle_gamma 143.077574
_cell_volume 384.012043
_symmetry_space_group_name_H-M "P -1"
_symmetry_group_IT_number 2
_symmetry_cell_setting 'triclinic'
loop_
_space_group_symop_operation_xyz
x,y,z
-x,-y,-z
loop_
_atom_site_type_symbol
_atom_site_label
_atom_site_fract_x
_atom_site_fract_y
_atom_site_fract_z
Si Si1 0.215857 0.184939 0.844412
Si Si2 0.308492 0.300281 0.282934
Si Si3 0.676182 0.784754 0.375045
Si Si4 0.289410 0.592001 0.239267
Si Si5 0.807147 0.811357 0.453142
O O1 0.362873 0.525345 0.870408
O O2 0.105831 0.168856 0.835768
O O3 0.495709 0.034566 0.591625
O O4 0.000000 0.000000 0.000000
O O5 0.285091 0.391963 0.246907
O O6 0.053531 0.433367 0.548867
O O7 0.146551 0.950762 0.286901
O O8 0.820038 0.771225 0.345088
O O9 0.407469 0.486607 0.460203
O O10 0.364143 0.930743 0.323078
O O11 0.500000 0.500000 0.000000
#
# Coordination Sequence:
#
# PCOD9012793 Si02
#       5
#     2   2   2   2   2
#     4  11  23  40  59  86 123 169 194 235 308 355
#     4   9  19  37  57  87 118 152 207 230 296 357
#     4  10  21  41  61  86 129 147 196 262 292 356
#     4   9  17  34  63  89 114 152 201 244 290 356
#     4   9  19  41  63  91 114 157 196 255 302 333
#
# _framework density 26.040851
#
# number of rings (size 3 to 8) (size 9 to 14) (size 15 to 20)
#    1.200    1.200    2.000    0.000    0.000    5.600 
#    3.600    3.000    0.000    0.000    0.000    0.000 
#    0.000    0.000    0.000    0.000    0.000    0.000 
#
# Total GULP energy -55870.286383 kJ/mol
# GULP energy per Si atom -5587.028638 kJ/mol
# Density = 2.598158 g / cm^3
# Si number density = 26.040851 Si / 1000 Ang^3
#
#
#
# Elastic Constant Matrix: (Units=GPa)
#
#
# Indices 1 2 3 4 5 6 
#
# 1 91.8582 28.1363 70.7157 -16.3976 37.4623 2.9881
# 2 28.1363 174.8220 60.2256 -11.9790 12.0036 23.8274
# 3 70.7157 60.2256 127.5374 -11.4566 29.1102 14.0969
# 4 -16.3976 -11.9790 -11.4566 24.2073 -15.8970 -4.6806
# 5 37.4623 12.0036 29.1102 -15.8970 43.8088 -1.8142
# 6 2.9881 23.8274 14.0969 -4.6806 -1.8142 31.5279
#
#
#
# Elastic Compliance Matrix: (Units=1/GPa)
#
#
# Indices 1 2 3 4 5 6 
#
# 1 0.025162 0.000705 -0.011246 0.004151 -0.012648 0.001999
# 2 0.000705 0.007399 -0.003305 0.001878 0.000086 -0.003897
# 3 -0.011246 -0.003305 0.016179 -0.003535 -0.001690 -0.004293
# 4 0.004151 0.001878 -0.003535 0.058236 0.019813 0.009554
# 5 -0.012648 0.000086 -0.001690 0.019813 0.042232 0.007261
# 6 0.001999 -0.003897 -0.004293 0.009554 0.007261 0.038229
#
#
# Mechanical properties :
#
#
# Convention : Reuss Voigt Hill
#
# Bulk Modulus (GPa) = 47.50790 79.15255 63.33023
# Shear Modulus (GPa) = 22.50774 35.58480 29.04627
#
# Velocity S-wave (km/s) = 2.94313 3.70063 3.34340
# Velocity P-wave (km/s) = 5.46192 6.98005 6.26712
#
# Compressibility (1/GPa) = 0.02104913
#
# Stress axis : x y z
#
# Youngs Moduli (GPa) = 39.74247 135.15019 61.80704
#
# Poissons Ratio (x) = -0.09526 0.69505
# Poissons Ratio (y) = -0.02801 0.20427
# Poissons Ratio (z) = 0.44692 0.44667
#
# Static dielectric constant tensor:
#      x y z
#    x 2.054940 0.054080 -0.008310 
#    y 0.054080 2.108440 -0.023410 
#    z -0.008310 -0.023410 2.036390 
# 
# From -- ./inp_files/233662.got.cif
#   From: 2010.05.17/outbox.cif.g08.bks.cpg/sg2_117_cif.got.tgz:233662.got - 2010.06.03 11:33:40.
