data_PCOD9012652
_publ_section_title
;
Structure prediction by ZEFSAII (Michael W. Deem and Ramdas Pophale) SiO2 
 PCOD9012652
Probable space group: P -1
;
_chemical_formula_sum "Si O2"
_cell_formula_units_Z 16
_cell_length_a 12.493329
_cell_length_b 20.532939
_cell_length_c 8.192822
_cell_angle_alpha 39.643253
_cell_angle_beta 66.270334
_cell_angle_gamma 36.478736
_cell_volume 654.215282
_symmetry_space_group_name_H-M "P -1"
_symmetry_group_IT_number 2
_symmetry_cell_setting 'triclinic'
loop_
_space_group_symop_operation_xyz
x,y,z
-x,-y,-z
loop_
_atom_site_type_symbol
_atom_site_label
_atom_site_fract_x
_atom_site_fract_y
_atom_site_fract_z
Si Si1 0.222236 0.466621 0.038991
Si Si2 0.966214 0.187264 0.108209
Si Si3 0.058981 0.474714 0.697289
Si Si4 0.525035 0.859872 0.740216
Si Si5 0.109502 0.120082 0.659348
Si Si6 0.723545 0.899621 0.091836
Si Si7 0.541809 0.581290 0.741933
Si Si8 0.050845 0.944276 0.301120
O O1 0.349336 0.287075 0.203354
O O2 0.388181 0.393062 0.208585
O O3 0.025560 0.555872 0.081768
O O4 0.101472 0.649269 0.668689
O O5 0.968406 0.117306 0.406685
O O6 0.749989 0.417194 0.812422
O O7 0.941637 0.128246 0.083327
O O8 0.178266 0.102472 0.109956
O O9 0.000000 0.500000 0.500000
O O10 0.911031 0.678747 0.442578
O O11 0.315610 0.294964 0.913295
O O12 0.500000 0.000000 0.500000
O O13 0.278198 0.007187 0.624207
O O14 0.258353 0.042970 0.870341
O O15 0.027318 0.067250 0.778802
O O16 0.500000 0.000000 0.000000
O O17 0.306181 0.782168 0.429816
O O18 0.500000 0.500000 0.000000
#
# Coordination Sequence:
#
# PCOD9012652 Si02
#       8
#     2   2   2   2   2   2   2   2
#     4  12  24  44  72 104 144 193 250 305 366 454
#     4  10  23  46  71 107 145 191 243 309 369 444
#     4  12  26  45  70 104 146 195 248 303 382 444
#     4  12  26  45  72 102 147 202 252 307 368 444
#     4  12  25  45  72 106 147 193 247 306 371 448
#     4  12  28  49  71 107 157 196 244 313 383 448
#     4  10  21  40  73 105 138 179 245 309 362 429
#     4  10  24  43  77 106 141 193 255 306 367 439
#
# _framework density 24.456780999999999
#
# number of rings (size 3 to 8) (size 9 to 14) (size 15 to 20)
#    0.000    0.750    5.000    2.625    7.000    1.500 
#    2.250    0.625    0.000    0.000    0.000    0.000 
#    0.000    0.000    0.000    0.000    0.000    0.000 
#
# Total GULP energy -89456.312461 kJ/mol
# GULP energy per Si atom -5591.019529 kJ/mol
# Density = 2.440112 g / cm^3
# Si number density = 24.456781 Si / 1000 Ang^3
#
#
#
# Elastic Constant Matrix: (Units=GPa)
#
#
# Indices 1 2 3 4 5 6 
#
# 1 207.2584 80.6897 64.2736 -23.7121 9.1371 20.3834
# 2 80.6897 131.2145 40.3997 -31.5530 0.6586 10.8611
# 3 64.2736 40.3997 100.2271 -29.2109 -5.5598 8.5230
# 4 -23.7121 -31.5530 -29.2109 35.3193 -5.8148 -2.4974
# 5 9.1371 0.6586 -5.5598 -5.8148 47.6758 6.1764
# 6 20.3834 10.8611 8.5230 -2.4974 6.1764 51.7296
#
#
#
# Elastic Compliance Matrix: (Units=1/GPa)
#
#
# Indices 1 2 3 4 5 6 
#
# 1 0.007472 -0.003751 -0.003819 -0.001901 -0.001877 -0.001395
# 2 -0.003751 0.011987 0.000261 0.008633 0.001750 -0.000874
# 3 -0.003819 0.000261 0.016000 0.011504 0.004143 -0.001125
# 4 -0.001901 0.008633 0.011504 0.045354 0.007331 -0.001645
# 5 -0.001877 0.001750 0.004143 0.007331 0.023039 -0.002707
# 6 -0.001395 -0.000874 -0.001125 -0.001645 -0.002707 0.020494
#
#
# Mechanical properties :
#
#
# Convention : Reuss Voigt Hill
#
# Bulk Modulus (GPa) = 47.98412 89.93624 68.96018
# Shear Modulus (GPa) = 34.26753 43.83407 39.05080
#
# Velocity S-wave (km/s) = 3.74725 4.23816 4.00024
# Velocity P-wave (km/s) = 6.19557 7.79761 7.04229
#
# Compressibility (1/GPa) = 0.02084023
#
# Stress axis : x y z
#
# Youngs Moduli (GPa) = 133.82942 83.42415 62.50133
#
# Poissons Ratio (x) = 0.31295 0.23870
# Poissons Ratio (y) = 0.50204 -0.01633
# Poissons Ratio (z) = 0.51112 -0.02179
#
# Static dielectric constant tensor:
#      x y z
#    x 2.029110 -0.166140 -0.049030 
#    y -0.166140 2.480180 0.203740 
#    z -0.049030 0.203740 1.966270 
# 
# From -- ./inp_files/282740.got.cif
#   From: 2010.05.17/outbox.cif.g08.bks.cpg/sg2_142_cif.got.tgz:282740.got - 2010.06.03 11:33:40.
