data_PCOD9012216
_publ_section_title
;
Structure prediction by ZEFSAII (Michael W. Deem and Ramdas Pophale) SiO2 
 PCOD9012216
Probable space group: P -1
;
_chemical_formula_sum "Si O2"
_cell_formula_units_Z 16
_cell_length_a 11.148485
_cell_length_b 5.526811
_cell_length_c 10.879304
_cell_angle_alpha 95.153672
_cell_angle_beta 90.254887
_cell_angle_gamma 101.714990
_cell_volume 653.540857
_symmetry_space_group_name_H-M "P -1"
_symmetry_group_IT_number 2
_symmetry_cell_setting 'triclinic'
loop_
_space_group_symop_operation_xyz
x,y,z
-x,-y,-z
loop_
_atom_site_type_symbol
_atom_site_label
_atom_site_fract_x
_atom_site_fract_y
_atom_site_fract_z
Si Si1 0.824237 0.548247 0.596749
Si Si2 0.642422 0.026680 0.331638
Si Si3 0.436360 0.673383 0.422287
Si Si4 0.547641 0.237387 0.101616
Si Si5 0.886323 0.132723 0.994270
Si Si6 0.304165 0.320538 0.042450
Si Si7 0.863154 0.031087 0.469242
Si Si8 0.934036 0.524578 0.837215
O O1 0.691775 0.436661 0.648377
O O2 0.859012 0.316000 0.514012
O O3 0.930031 0.605411 0.701358
O O4 0.798874 0.789625 0.537763
O O5 0.609507 0.149285 0.466408
O O6 0.613657 0.177068 0.221797
O O7 0.781586 0.989162 0.342536
O O8 0.537070 0.781441 0.326414
O O9 0.500000 0.500000 0.500000
O O10 0.415397 0.302625 0.132097
O O11 0.634155 0.468436 0.043538
O O12 0.500000 0.000000 0.000000
O O13 0.934976 0.366687 0.094851
O O14 0.895997 0.234340 0.858773
O O15 0.758292 0.957239 0.018296
O O16 0.000000 0.000000 0.000000
O O17 0.182799 0.386521 0.101647
O O18 0.000000 0.000000 0.500000
#
# Coordination Sequence:
#
# PCOD9012216 Si02
#       8
#     2   2   2   2   2   2   2   2
#     4  11  25  42  76 106 135 182 237 292 367 417
#     4  10  24  43  67  99 139 182 234 297 359 425
#     4  10  21  40  69 100 132 171 230 298 355 411
#     4  11  25  43  63 100 139 190 232 279 362 436
#     4   9  20  41  61  91 139 174 231 287 347 413
#     4  10  23  41  64  94 142 179 233 288 347 431
#     4  11  25  51  68 104 145 185 236 290 358 442
#     4  10  22  40  68 100 133 177 233 301 350 422
#
# _framework density 24.482019000000001
#
# number of rings (size 3 to 8) (size 9 to 14) (size 15 to 20)
#    0.000    1.750    1.250    1.125    8.750    1.000 
#    9.000    0.000    0.000    0.000    0.000    0.000 
#    0.000    0.000    0.000    0.000    0.000    0.000 
#
# Total GULP energy -89156.418307 kJ/mol
# GULP energy per Si atom -5572.276144 kJ/mol
# Density = 2.442630 g / cm^3
# Si number density = 24.482019 Si / 1000 Ang^3
#
#
#
# Elastic Constant Matrix: (Units=GPa)
#
#
# Indices 1 2 3 4 5 6 
#
# 1 126.8627 21.9946 28.3811 4.2243 28.5799 27.6618
# 2 21.9946 103.7645 31.8713 -12.1098 5.8414 27.2793
# 3 28.3811 31.8713 105.5489 -20.0612 39.2249 10.0037
# 4 4.2243 -12.1098 -20.0612 32.7401 -9.4831 10.6719
# 5 28.5799 5.8414 39.2249 -9.4831 40.7843 8.3305
# 6 27.6618 27.2793 10.0037 10.6719 8.3305 45.1995
#
#
#
# Elastic Compliance Matrix: (Units=1/GPa)
#
#
# Indices 1 2 3 4 5 6 
#
# 1 0.010607 -0.001120 -0.000004 -0.002558 -0.007065 -0.003908
# 2 -0.001120 0.014386 -0.003910 0.008315 0.006522 -0.010296
# 3 -0.000004 -0.003910 0.016996 0.004620 -0.014756 0.000230
# 4 -0.002558 0.008315 0.004620 0.045279 0.010167 -0.017040
# 5 -0.007065 0.006522 -0.014756 0.010167 0.046590 -0.007334
# 6 -0.003908 -0.010296 0.000230 -0.017040 -0.007334 0.036054
#
#
# Mechanical properties :
#
#
# Convention : Reuss Voigt Hill
#
# Bulk Modulus (GPa) = 31.32861 55.62998 43.47929
# Shear Modulus (GPa) = 26.23015 40.67337 33.45176
#
# Velocity S-wave (km/s) = 3.27678 4.08040 3.70047
# Velocity P-wave (km/s) = 5.20968 6.70609 6.00468
#
# Compressibility (1/GPa) = 0.03191971
#
# Stress axis : x y z
#
# Youngs Moduli (GPa) = 94.28121 69.51293 58.83704
#
# Poissons Ratio (x) = 0.07788 0.00023
# Poissons Ratio (y) = 0.10563 0.23006
# Poissons Ratio (z) = 0.00037 0.27180
#
# Static dielectric constant tensor:
#      x y z
#    x 1.952030 0.038120 -0.051700 
#    y 0.038120 1.995880 0.128780 
#    z -0.051700 0.128780 2.041910 
# 
# From -- ./inp_files/410316.got.cif
#   From: 2010.05.17/outbox.cif.g08.bks.cpg/sg2_206_cif.got.tgz:410316.got - 2010.06.03 11:33:40.
