data_PCOD9012361
_publ_section_title
;
Structure prediction by ZEFSAII (Michael W. Deem and Ramdas Pophale) SiO2 
 PCOD9012361
Probable space group: P -1
;
_chemical_formula_sum "Si O2"
_cell_formula_units_Z 16
_cell_length_a 14.952943
_cell_length_b 8.850156
_cell_length_c 9.208708
_cell_angle_alpha 70.537511
_cell_angle_beta 64.904531
_cell_angle_gamma 41.493494
_cell_volume 730.933070
_symmetry_space_group_name_H-M "P -1"
_symmetry_group_IT_number 2
_symmetry_cell_setting 'triclinic'
loop_
_space_group_symop_operation_xyz
x,y,z
-x,-y,-z
loop_
_atom_site_type_symbol
_atom_site_label
_atom_site_fract_x
_atom_site_fract_y
_atom_site_fract_z
Si Si1 0.407892 0.867856 0.957671
Si Si2 0.660383 0.404700 0.591724
Si Si3 0.858007 0.615679 0.976724
Si Si4 0.411960 0.165296 0.372897
Si Si5 0.117727 0.474451 0.353143
Si Si6 0.917407 0.109469 0.674467
Si Si7 0.175404 0.688978 0.781874
Si Si8 0.599463 0.428543 0.154593
O O1 0.485374 0.923016 0.803344
O O2 0.390342 0.737414 0.902611
O O3 0.521463 0.668039 0.056596
O O4 0.259471 0.110297 0.029977
O O5 0.634851 0.608005 0.610342
O O6 0.766332 0.209646 0.703277
O O7 0.739382 0.343065 0.406516
O O8 0.511426 0.489430 0.668597
O O9 0.885702 0.540770 0.813244
O O10 0.803665 0.521289 0.130466
O O11 0.000000 0.500000 0.000000
O O12 0.269366 0.247876 0.388393
O O13 0.500000 0.000000 0.500000
O O14 0.094469 0.689599 0.338295
O O15 0.000000 0.500000 0.500000
O O16 0.000000 0.000000 0.500000
O O17 0.012346 0.911233 0.790813
O O18 0.246265 0.702724 0.859500
#
# Coordination Sequence:
#
# PCOD9012361 Si02
#       8
#     2   2   2   2   2   2   2   2
#     4  10  24  45  66  96 145 174 233 283 362 409
#     4   9  20  38  65  98 132 171 219 281 353 399
#     4  12  30  44  69 101 145 192 232 296 352 412
#     4  10  21  40  69  96 135 185 222 288 346 417
#     4  11  27  45  68 106 141 186 243 283 355 418
#     4   9  22  42  67  93 139 180 221 285 341 416
#     4  11  23  41  67  99 134 175 239 279 346 415
#     4  10  22  41  72 100 128 181 227 293 340 422
#
# _framework density 21.889828999999999
#
# number of rings (size 3 to 8) (size 9 to 14) (size 15 to 20)
#    0.000    1.750    0.000    1.875   10.500    6.500 
#    0.000    0.000    0.000    0.000    0.000    0.000 
#    0.000    0.000    0.000    0.000    0.000    0.000 
#
# Total GULP energy -89343.662465 kJ/mol
# GULP energy per Si atom -5583.978904 kJ/mol
# Density = 2.184001 g / cm^3
# Si number density = 21.889829 Si / 1000 Ang^3
#
#
#
# Elastic Constant Matrix: (Units=GPa)
#
#
# Indices 1 2 3 4 5 6 
#
# 1 104.9761 36.7845 40.0159 -11.8903 14.4694 -25.6749
# 2 36.7845 123.1538 45.4916 -8.5156 15.6555 -9.5986
# 3 40.0159 45.4916 106.6035 -11.4389 6.4037 -2.7366
# 4 -11.8903 -8.5156 -11.4389 31.7093 0.3747 5.4842
# 5 14.4694 15.6555 6.4037 0.3747 30.9057 -8.7818
# 6 -25.6749 -9.5986 -2.7366 5.4842 -8.7818 26.9418
#
#
#
# Elastic Compliance Matrix: (Units=1/GPa)
#
#
# Indices 1 2 3 4 5 6 
#
# 1 0.015312 -0.001595 -0.004465 0.001536 -0.001859 0.012651
# 2 -0.001595 0.010473 -0.003539 0.000902 -0.003705 0.000460
# 3 -0.004465 -0.003539 0.012755 0.002817 -0.000172 -0.004850
# 4 0.001536 0.000902 0.002817 0.034497 -0.003951 -0.006238
# 5 -0.001859 -0.003705 -0.000172 -0.003951 0.038057 0.010100
# 6 0.012651 0.000460 -0.004850 -0.006238 0.010100 0.053406
#
#
# Mechanical properties :
#
#
# Convention : Reuss Voigt Hill
#
# Bulk Modulus (GPa) = 51.70703 64.36858 58.03780
# Shear Modulus (GPa) = 26.29551 32.07413 29.18482
#
# Velocity S-wave (km/s) = 3.46969 3.83201 3.65534
# Velocity P-wave (km/s) = 6.30273 7.00347 6.66232
#
# Compressibility (1/GPa) = 0.01933973
#
# Stress axis : x y z
#
# Youngs Moduli (GPa) = 65.31014 95.48371 78.39942
#
# Poissons Ratio (x) = 0.15233 0.35009
# Poissons Ratio (y) = 0.10419 0.27747
# Poissons Ratio (z) = 0.29164 0.33794
#
# Static dielectric constant tensor:
#      x y z
#    x 1.799980 -0.053720 0.032120 
#    y -0.053720 1.841040 -0.052060 
#    z 0.032120 -0.052060 1.974360 
# 
# From -- ./inp_files/297828.got.cif
#   From: 2010.05.17/outbox.cif.g08.bks.cpg/sg2_149_cif.got.tgz:297828.got - 2010.06.03 11:33:40.
