data_PCOD9012646
_publ_section_title
;
Structure prediction by ZEFSAII (Michael W. Deem and Ramdas Pophale) SiO2 
 PCOD9012646
Probable space group: P -1
;
_chemical_formula_sum "Si O2"
_cell_formula_units_Z 14
_cell_length_a 12.723441
_cell_length_b 13.631172
_cell_length_c 8.690439
_cell_angle_alpha 44.413601
_cell_angle_beta 140.397200
_cell_angle_gamma 142.820132
_cell_volume 560.551796
_symmetry_space_group_name_H-M "P -1"
_symmetry_group_IT_number 2
_symmetry_cell_setting 'triclinic'
loop_
_space_group_symop_operation_xyz
x,y,z
-x,-y,-z
loop_
_atom_site_type_symbol
_atom_site_label
_atom_site_fract_x
_atom_site_fract_y
_atom_site_fract_z
Si Si1 0.950777 0.766467 0.843472
Si Si2 0.762981 0.842988 0.308634
Si Si3 0.918198 0.115151 0.727438
Si Si4 0.266667 0.772667 0.361295
Si Si5 0.303080 0.487499 0.734284
Si Si6 0.609799 0.948508 0.301963
Si Si7 0.484484 0.501132 0.298639
O O1 0.890852 0.771130 0.595317
O O2 0.093895 0.969682 0.805885
O O3 0.743868 0.638116 0.841692
O O4 0.086753 0.701557 0.116098
O O5 0.671752 0.857754 0.350315
O O6 0.588399 0.702377 0.161845
O O7 0.772559 0.121849 0.679297
O O8 0.808205 0.065998 0.494468
O O9 0.000000 0.000000 0.000000
O O10 0.267516 0.622785 0.612230
O O11 0.458220 0.870299 0.361353
O O12 0.371644 0.540127 0.575523
O O13 0.500000 0.500000 0.000000
O O14 0.110894 0.303334 0.729752
O O15 0.500000 0.000000 0.000000
O O16 0.500000 0.500000 0.500000
#
# Coordination Sequence:
#
# PCOD9012646 Si02
#       7
#     2   2   2   2   2   2   2
#     4  10  21  40  73 101 151 193 253 310 385 451
#     4  10  22  42  70 108 154 199 254 312 387 460
#     4  12  29  50  80 111 150 212 262 317 401 470
#     4  12  25  49  73 110 154 201 257 326 387 468
#     4  12  28  50  75 108 154 202 264 320 393 467
#     4  12  26  45  72 115 156 197 257 324 380 468
#     4  10  23  43  73 107 146 198 247 317 388 455
#
# _framework density 24.975391999999999
#
# number of rings (size 3 to 8) (size 9 to 14) (size 15 to 20)
#    0.000    0.857    1.429    5.143    8.000    2.286 
#    0.000    4.286    0.000    0.000    0.000    0.000 
#    0.000    0.000    0.000    0.000    0.000    0.000 
#
# Total GULP energy -78089.822068 kJ/mol
# GULP energy per Si atom -5577.844433 kJ/mol
# Density = 2.491855 g / cm^3
# Si number density = 24.975392 Si / 1000 Ang^3
#
#
#
# Elastic Constant Matrix: (Units=GPa)
#
#
# Indices 1 2 3 4 5 6 
#
# 1 156.1723 73.2189 14.0774 5.5351 0.3475 -6.5308
# 2 73.2189 167.7290 71.0539 5.2967 14.2933 23.2596
# 3 14.0774 71.0539 161.0065 8.9146 16.5563 -13.3007
# 4 5.5351 5.2967 8.9146 33.9389 -2.4528 1.7952
# 5 0.3475 14.2933 16.5563 -2.4528 32.2585 2.2966
# 6 -6.5308 23.2596 -13.3007 1.7952 2.2966 53.1729
#
#
#
# Elastic Compliance Matrix: (Units=1/GPa)
#
#
# Indices 1 2 3 4 5 6 
#
# 1 0.008890 -0.005221 0.001818 -0.001249 0.000916 0.003833
# 2 -0.005221 0.011451 -0.004998 0.000600 -0.001920 -0.006838
# 3 0.001818 -0.004998 0.009103 -0.002384 -0.003007 0.004897
# 4 -0.001249 0.000600 -0.002384 0.030566 0.003452 -0.002193
# 5 0.000916 -0.001920 -0.003007 0.003452 0.033744 -0.001374
# 6 0.003833 -0.006838 0.004897 -0.002193 -0.001374 0.023627
#
#
# Mechanical properties :
#
#
# Convention : Reuss Voigt Hill
#
# Bulk Modulus (GPa) = 79.09275 89.06758 84.08016
# Shear Modulus (GPa) = 36.12796 45.64456 40.88626
#
# Velocity S-wave (km/s) = 3.80747 4.27966 4.05045
# Velocity P-wave (km/s) = 7.14606 7.75630 7.45742
#
# Compressibility (1/GPa) = 0.01264338
#
# Stress axis : x y z
#
# Youngs Moduli (GPa) = 112.49013 87.32654 109.85099
#
# Poissons Ratio (x) = 0.45595 -0.19976
# Poissons Ratio (y) = 0.58733 0.54900
# Poissons Ratio (z) = -0.20456 0.43643
#
# Static dielectric constant tensor:
#      x y z
#    x 2.062770 0.010790 -0.028450 
#    y 0.010790 2.100350 0.002500 
#    z -0.028450 0.002500 2.138310 
# 
# From -- ./inp_files/309340.got.cif
#   From: 2010.05.17/outbox.cif.g08.bks.cpg/sg2_155_cif.got.tgz:309340.got - 2010.06.03 11:33:40.
