data_PCOD9012144
_publ_section_title
;
Structure prediction by ZEFSAII (Michael W. Deem and Ramdas Pophale) SiO2 
 PCOD9012144
Probable space group: P -1
;
_chemical_formula_sum "Si O2"
_cell_formula_units_Z 16
_cell_length_a 8.416560
_cell_length_b 21.018922
_cell_length_c 12.536368
_cell_angle_alpha 156.106911
_cell_angle_beta 129.282527
_cell_angle_gamma 58.940092
_cell_volume 681.127172
_symmetry_space_group_name_H-M "P -1"
_symmetry_group_IT_number 2
_symmetry_cell_setting 'triclinic'
loop_
_space_group_symop_operation_xyz
x,y,z
-x,-y,-z
loop_
_atom_site_type_symbol
_atom_site_label
_atom_site_fract_x
_atom_site_fract_y
_atom_site_fract_z
Si Si1 0.228972 0.522035 0.502430
Si Si2 0.451942 0.540573 0.836640
Si Si3 0.535123 0.982669 0.861639
Si Si4 0.146513 0.421861 0.705769
Si Si5 0.010718 0.872153 0.675233
Si Si6 0.248122 0.672148 0.310828
Si Si7 0.321652 0.103699 0.578766
Si Si8 0.645149 0.773630 0.990883
O O1 0.265277 0.519156 0.639282
O O2 0.438104 0.645320 0.741683
O O3 0.215333 0.340658 0.177151
O O4 0.041050 0.586722 0.470065
O O5 0.353896 0.490162 0.831923
O O6 0.612726 0.422600 0.701267
O O7 0.576049 0.721790 0.157616
O O8 0.409569 0.804055 0.514307
O O9 0.785781 0.025847 0.023965
O O10 0.428762 0.104570 0.935796
O O11 0.500000 0.000000 0.000000
O O12 0.124963 0.250468 0.488681
O O13 0.125384 0.544727 0.980564
O O14 0.103569 0.761040 0.457498
O O15 0.868821 0.966267 0.688499
O O16 0.500000 0.000000 0.500000
O O17 0.257967 0.135075 0.721253
#
# Coordination Sequence:
#
# PCOD9012144 Si02
#       8
#     2   2   2   2   2   2   2   2
#     4  10  21  40  68  97 131 176 236 271 328 410
#     4  11  25  43  65 101 141 175 218 290 343 386
#     4  10  22  42  65 101 133 166 224 287 330 382
#     4  12  23  40  69  99 134 177 229 276 337 400
#     4  11  23  45  72 100 127 186 237 267 331 410
#     4  11  24  42  71  99 138 172 231 289 325 398
#     4  11  26  45  67  96 147 177 219 275 346 411
#     4  10  21  41  69  96 133 182 221 282 334 389
#
# _framework density 23.490473999999999
#
# number of rings (size 3 to 8) (size 9 to 14) (size 15 to 20)
#    0.000    1.250    2.500    3.375    5.250    0.000 
#   11.250    4.375    0.000    0.000    0.000    0.000 
#    0.000    0.000    0.000    0.000    0.000    0.000 
#
# Total GULP energy -89542.343207 kJ/mol
# GULP energy per Si atom -5596.396450 kJ/mol
# Density = 2.343701 g / cm^3
# Si number density = 23.490474 Si / 1000 Ang^3
#
#
#
# Elastic Constant Matrix: (Units=GPa)
#
#
# Indices 1 2 3 4 5 6 
#
# 1 37.0108 17.4662 5.9810 4.5342 -5.0840 14.0290
# 2 17.4662 181.7415 28.3605 -6.7683 4.0868 -2.6317
# 3 5.9810 28.3605 52.2582 11.5414 -1.2047 11.1044
# 4 4.5342 -6.7683 11.5414 43.9041 1.1566 1.1651
# 5 -5.0840 4.0868 -1.2047 1.1566 26.0542 5.1541
# 6 14.0290 -2.6317 11.1044 1.1651 5.1541 39.0673
#
#
#
# Elastic Compliance Matrix: (Units=1/GPa)
#
#
# Indices 1 2 3 4 5 6 
#
# 1 0.036962 -0.004721 0.003119 -0.005247 0.011462 -0.015834
# 2 -0.004721 0.006920 -0.004713 0.002773 -0.003105 0.003828
# 3 0.003119 -0.004713 0.024996 -0.007504 0.004603 -0.008926
# 4 -0.005247 0.002773 -0.007504 0.025713 -0.003724 0.003928
# 5 0.011462 -0.003105 0.004603 -0.003724 0.043717 -0.011290
# 6 -0.015834 0.003828 -0.008926 0.003928 -0.011290 0.035450
#
#
# Mechanical properties :
#
#
# Convention : Reuss Voigt Hill
#
# Bulk Modulus (GPa) = 17.77797 41.62512 29.70154
# Shear Modulus (GPa) = 24.37392 36.41865 30.39628
#
# Velocity S-wave (km/s) = 3.22469 3.94173 3.60110
# Velocity P-wave (km/s) = 4.63135 6.20280 5.47376
#
# Compressibility (1/GPa) = 0.05624938
#
# Stress axis : x y z
#
# Youngs Moduli (GPa) = 27.05456 144.50819 40.00587
#
# Poissons Ratio (x) = 0.68229 -0.12480
# Poissons Ratio (y) = 0.12774 0.18853
# Poissons Ratio (z) = -0.08440 0.68102
#
# Static dielectric constant tensor:
#      x y z
#    x 1.937800 -0.009990 0.006410 
#    y -0.009990 1.851310 -0.037230 
#    z 0.006410 -0.037230 1.909600 
# 
# From -- ./inp_files/279495.got.cif
#   From: 2010.05.17/outbox.cif.g08.bks.cpg/sg2_140_cif.got.tgz:279495.got - 2010.06.03 11:33:40.
