data_PCOD9012868
_publ_section_title
;
Structure prediction by ZEFSAII (Michael W. Deem and Ramdas Pophale) SiO2 
 PCOD9012868
Probable space group: P -1
;
_chemical_formula_sum "Si O2"
_cell_formula_units_Z 12
_cell_length_a 9.522688
_cell_length_b 12.700794
_cell_length_c 5.402123
_cell_angle_alpha 116.810435
_cell_angle_beta 82.069731
_cell_angle_gamma 70.969651
_cell_volume 518.848352
_symmetry_space_group_name_H-M "P -1"
_symmetry_group_IT_number 2
_symmetry_cell_setting 'triclinic'
loop_
_space_group_symop_operation_xyz
x,y,z
-x,-y,-z
loop_
_atom_site_type_symbol
_atom_site_label
_atom_site_fract_x
_atom_site_fract_y
_atom_site_fract_z
Si Si1 0.568119 0.164775 0.190804
Si Si2 0.273812 0.664645 0.615573
Si Si3 0.606196 0.564855 0.261469
Si Si4 0.349088 0.087609 0.866041
Si Si5 0.060314 0.302963 0.406310
Si Si6 0.178643 0.344438 0.924638
O O1 0.704644 0.209670 0.155951
O O2 0.420299 0.305353 0.430819
O O3 0.505396 0.099143 0.930009
O O4 0.616722 0.063121 0.298992
O O5 0.420866 0.598624 0.314057
O O6 0.311169 0.562118 0.722952
O O7 0.105902 0.701626 0.579420
O O8 0.710507 0.581157 0.036029
O O9 0.208171 0.159848 0.177536
O O10 0.283268 0.185971 0.756998
O O11 0.078293 0.364395 0.723504
O O12 0.081189 0.375147 0.232939
#
# Coordination Sequence:
#
# PCOD9012868 Si02
#       6
#     2   2   2   2   2   2
#     4   9  17  40  60  91 122 160 206 251 302 368
#     4   9  20  37  63  91 126 160 202 257 309 356
#     4   9  18  39  61  90 121 167 204 249 301 370
#     4   9  20  36  66  88 121 161 206 250 302 367
#     4  10  21  41  61  96 122 160 203 256 310 356
#     4  10  21  41  62  93 122 161 211 242 309 371
#
# _framework density 23.128142
#
# number of rings (size 3 to 8) (size 9 to 14) (size 15 to 20)
#    2.000    0.667    1.667    0.000    0.000    2.667 
#    3.000    1.667    0.000    0.000    0.000    0.000 
#    0.000    0.000    0.000    0.000    0.000    0.000 
#
# Total GULP energy -66908.098541 kJ/mol
# GULP energy per Si atom -5575.674878 kJ/mol
# Density = 2.307550 g / cm^3
# Si number density = 23.128142 Si / 1000 Ang^3
#
#
#
# Elastic Constant Matrix: (Units=GPa)
#
#
# Indices 1 2 3 4 5 6 
#
# 1 166.7908 54.3957 38.8657 -12.0093 15.9686 9.2068
# 2 54.3957 154.8792 34.1269 -1.4231 19.9312 27.1769
# 3 38.8657 34.1269 67.1228 -12.2313 -2.0491 0.1094
# 4 -12.0093 -1.4231 -12.2313 30.2186 -6.3057 2.5576
# 5 15.9686 19.9312 -2.0491 -6.3057 23.4689 1.7746
# 6 9.2068 27.1769 0.1094 2.5576 1.7746 39.9540
#
#
#
# Elastic Compliance Matrix: (Units=1/GPa)
#
#
# Indices 1 2 3 4 5 6 
#
# 1 0.007809 -0.001136 -0.003974 0.000580 -0.004475 -0.000854
# 2 -0.001136 0.010229 -0.005444 -0.003512 -0.008874 -0.006062
# 3 -0.003974 -0.005444 0.021979 0.009155 0.011444 0.003464
# 4 0.000580 -0.003512 0.009155 0.039903 0.014181 -0.000954
# 5 -0.004475 -0.008874 0.011444 0.014181 0.057731 0.003564
# 6 -0.000854 -0.006062 0.003464 -0.000954 0.003564 0.029242
#
#
# Mechanical properties :
#
#
# Convention : Reuss Voigt Hill
#
# Bulk Modulus (GPa) = 52.88275 71.50770 62.19522
# Shear Modulus (GPa) = 25.73300 36.15526 30.94413
#
# Velocity S-wave (km/s) = 3.33923 3.95810 3.66176
# Velocity P-wave (km/s) = 6.14670 7.20235 6.69537
#
# Compressibility (1/GPa) = 0.01890976
#
# Stress axis : x y z
#
# Youngs Moduli (GPa) = 128.05091 97.76574 45.49856
#
# Poissons Ratio (x) = 0.11106 0.18080
# Poissons Ratio (y) = 0.14546 0.24768
# Poissons Ratio (z) = 0.50885 0.53220
#
# Static dielectric constant tensor:
#      x y z
#    x 1.872360 -0.011900 -0.030610 
#    y -0.011900 1.902750 0.040180 
#    z -0.030610 0.040180 1.979490 
# 
# From -- ./inp_files/36293.got.cif
#   From: 2010.05.17/outbox.cif.g08.bks.cpg/sg2_19_cif.got.tgz:36293.got - 2010.06.03 11:33:40.
