data_PCOD9012430
_publ_section_title
;
Structure prediction by ZEFSAII (Michael W. Deem and Ramdas Pophale) SiO2 
 PCOD9012430
Probable space group: P -1
;
_chemical_formula_sum "Si O2"
_cell_formula_units_Z 16
_cell_length_a 17.230910
_cell_length_b 7.516875
_cell_length_c 7.975210
_cell_angle_alpha 110.516238
_cell_angle_beta 44.767337
_cell_angle_gamma 91.730036
_cell_volume 642.786961
_symmetry_space_group_name_H-M "P -1"
_symmetry_group_IT_number 2
_symmetry_cell_setting 'triclinic'
loop_
_space_group_symop_operation_xyz
x,y,z
-x,-y,-z
loop_
_atom_site_type_symbol
_atom_site_label
_atom_site_fract_x
_atom_site_fract_y
_atom_site_fract_z
Si Si1 0.636085 0.428467 0.799875
Si Si2 0.155904 0.860081 0.505017
Si Si3 0.662481 0.839517 0.857384
Si Si4 0.972076 0.672927 0.739429
Si Si5 0.223215 0.195573 0.692344
Si Si6 0.366704 0.658182 0.592131
Si Si7 0.542921 0.797969 0.567451
Si Si8 0.836509 0.024245 0.823117
O O1 0.705878 0.267086 0.774612
O O2 0.657838 0.633499 0.869641
O O3 0.677724 0.323397 0.523270
O O4 0.500000 0.500000 0.000000
O O5 0.090671 0.711584 0.626563
O O6 0.160210 0.034804 0.680707
O O7 0.103908 0.940052 0.429043
O O8 0.712312 0.788404 0.575626
O O9 0.756514 0.902420 0.834656
O O10 0.540732 0.020609 0.131210
O O11 0.900881 0.886301 0.832083
O O12 0.000000 0.500000 0.500000
O O13 0.886747 0.635151 0.999423
O O14 0.334802 0.159547 0.633990
O O15 0.463181 0.765641 0.524431
O O16 0.423306 0.421314 0.468101
O O17 0.251309 0.762802 0.910740
#
# Coordination Sequence:
#
# PCOD9012430 Si02
#       8
#     2   2   2   2   2   2   2   2
#     4  12  25  39  67 107 139 184 227 284 344 414
#     4  11  26  46  70  96 141 184 234 286 342 411
#     4  10  22  42  67 102 141 178 226 281 352 414
#     4  12  27  47  72 103 132 180 240 293 343 409
#     4  11  23  43  71  97 137 184 226 285 345 412
#     4  10  23  38  68 101 140 175 229 277 350 414
#     4  10  21  40  70 101 140 184 220 282 352 413
#     4  10  24  47  71  97 135 184 225 290 351 408
#
# _framework density 24.891605999999999
#
# number of rings (size 3 to 8) (size 9 to 14) (size 15 to 20)
#    0.000    1.250    1.250    3.375    8.750    1.000 
#    0.000    8.750    0.000    0.000    0.000    0.000 
#    0.000    0.000    0.000    0.000    0.000    0.000 
#
# Total GULP energy -89352.515089 kJ/mol
# GULP energy per Si atom -5584.532193 kJ/mol
# Density = 2.483495 g / cm^3
# Si number density = 24.891606 Si / 1000 Ang^3
#
#
#
# Elastic Constant Matrix: (Units=GPa)
#
#
# Indices 1 2 3 4 5 6 
#
# 1 75.4555 17.0816 9.0552 4.4449 1.1994 1.6036
# 2 17.0816 28.9393 14.8695 3.9597 12.5492 10.5561
# 3 9.0552 14.8695 118.4457 7.1500 14.5336 12.8247
# 4 4.4449 3.9597 7.1500 30.3006 9.9147 -10.9697
# 5 1.1994 12.5492 14.5336 9.9147 34.2198 -0.2899
# 6 1.6036 10.5561 12.8247 -10.9697 -0.2899 54.1934
#
#
#
# Elastic Compliance Matrix: (Units=1/GPa)
#
#
# Indices 1 2 3 4 5 6 
#
# 1 0.015861 -0.011347 -0.000378 -0.001587 0.004239 0.001532
# 2 -0.011347 0.054387 -0.002494 -0.002777 -0.017771 -0.010325
# 3 -0.000378 -0.002494 0.009437 -0.001761 -0.002588 -0.002107
# 4 -0.001587 -0.002777 -0.001761 0.040554 -0.009850 0.009161
# 5 0.004239 -0.017771 -0.002588 -0.009850 0.039562 0.002166
# 6 0.001532 -0.010325 -0.002107 0.009161 0.002166 0.022783
#
#
# Mechanical properties :
#
#
# Convention : Reuss Voigt Hill
#
# Bulk Modulus (GPa) = 19.51417 33.87257 26.69337
# Shear Modulus (GPa) = 21.91995 35.86504 28.89249
#
# Velocity S-wave (km/s) = 2.97074 3.79997 3.41065
# Velocity P-wave (km/s) = 4.42987 5.73503 5.12417
#
# Compressibility (1/GPa) = 0.05124480
#
# Stress axis : x y z
#
# Youngs Moduli (GPa) = 63.04949 18.38690 105.97044
#
# Poissons Ratio (x) = 0.20864 0.04008
# Poissons Ratio (y) = 0.71544 0.26429
# Poissons Ratio (z) = 0.02385 0.04586
#
# Static dielectric constant tensor:
#      x y z
#    x 2.450720 0.367940 0.333100 
#    y 0.367940 2.345730 0.203300 
#    z 0.333100 0.203300 2.393500 
# 
# From -- ./inp_files/329390.got.cif
#   From: 2010.05.17/outbox.cif.g08.bks.cpg/sg2_165_cif.got.tgz:329390.got - 2010.06.03 11:33:40.
