data_PCOD9012057
_publ_section_title
;
Structure prediction by ZEFSAII (Michael W. Deem and Ramdas Pophale) SiO2 
 PCOD9012057
Probable space group: P -1
;
_chemical_formula_sum "Si O2"
_cell_formula_units_Z 14
_cell_length_a 9.221410
_cell_length_b 23.439829
_cell_length_c 13.628147
_cell_angle_alpha 18.067989
_cell_angle_beta 44.467278
_cell_angle_gamma 42.748368
_cell_volume 618.442582
_symmetry_space_group_name_H-M "P -1"
_symmetry_group_IT_number 2
_symmetry_cell_setting 'triclinic'
loop_
_space_group_symop_operation_xyz
x,y,z
-x,-y,-z
loop_
_atom_site_type_symbol
_atom_site_label
_atom_site_fract_x
_atom_site_fract_y
_atom_site_fract_z
Si Si1 0.184387 0.868033 0.997790
Si Si2 0.572530 0.341178 0.142930
Si Si3 0.747670 0.570942 0.015039
Si Si4 0.680551 0.922745 0.860015
Si Si5 0.127162 0.776426 0.975149
Si Si6 0.657978 0.872973 0.738419
Si Si7 0.249685 0.821573 0.267161
O O1 0.199200 0.789600 0.229300
O O2 0.178164 0.720313 0.155065
O O3 0.399831 0.938298 0.764471
O O4 0.968817 0.038760 0.815016
O O5 0.750890 0.362302 0.942203
O O6 0.663943 0.140376 0.481606
O O7 0.500000 0.500000 0.000000
O O8 0.369059 0.342547 0.169721
O O9 0.679040 0.378720 0.385991
O O10 0.701659 0.713345 0.895823
O O11 0.000000 0.500000 0.000000
O O12 0.728223 0.808441 0.920592
O O13 0.876219 0.841218 0.970446
O O14 0.448776 0.914636 0.022551
O O15 0.226985 0.960646 0.613503
#
# Coordination Sequence:
#
# PCOD9012057 Si02
#       7
#     2   2   2   2   2   2   2
#     4  10  21  40  68  93 132 176 224 267 326 398
#     4  11  26  45  65 103 137 174 225 277 329 396
#     4  12  27  41  70 102 133 172 224 290 332 384
#     4  10  25  44  70  94 137 185 218 267 336 407
#     4  11  22  43  72  99 132 184 219 271 331 408
#     4  10  21  41  68  98 131 170 231 271 329 390
#     4  10  25  44  66 100 135 175 224 278 335 394
#
# _framework density 22.637509999999999
#
# number of rings (size 3 to 8) (size 9 to 14) (size 15 to 20)
#    0.000    1.429    1.429    3.000   18.000    2.857 
#    0.000    2.143    0.000    0.000    0.000    0.000 
#    0.000    0.000    0.000    0.000    0.000    0.000 
#
# Total GULP energy -78276.217803 kJ/mol
# GULP energy per Si atom -5591.158414 kJ/mol
# Density = 2.258599 g / cm^3
# Si number density = 22.637510 Si / 1000 Ang^3
#
#
#
# Elastic Constant Matrix: (Units=GPa)
#
#
# Indices 1 2 3 4 5 6 
#
# 1 120.0273 44.3924 -1.1902 -5.1788 -12.8964 -6.4959
# 2 44.3924 144.0260 14.8948 -5.1504 -15.1505 7.0954
# 3 -1.1902 14.8948 14.6828 -4.6401 1.7346 13.5112
# 4 -5.1788 -5.1504 -4.6401 25.8011 -1.3958 -11.4413
# 5 -12.8964 -15.1505 1.7346 -1.3958 18.4968 -5.4711
# 6 -6.4959 7.0954 13.5112 -11.4413 -5.4711 39.4529
#
#
#
# Elastic Compliance Matrix: (Units=1/GPa)
#
#
# Indices 1 2 3 4 5 6 
#
# 1 0.010390 -0.002573 0.000001 0.003794 0.006665 0.004198
# 2 -0.002573 0.010170 -0.015666 0.001353 0.009536 0.004827
# 3 0.000001 -0.015666 0.133030 -0.003204 -0.040111 -0.049232
# 4 0.003794 0.001353 -0.003204 0.047432 0.012658 0.016989
# 5 0.006665 0.009536 -0.040111 0.012658 0.079463 0.027809
# 6 0.004198 0.004827 -0.049232 0.016989 0.027809 0.050813
#
#
# Mechanical properties :
#
#
# Convention : Reuss Voigt Hill
#
# Bulk Modulus (GPa) = 8.53875 43.88113 26.20994
# Shear Modulus (GPa) = 12.29072 31.45943 21.87507
#
# Velocity S-wave (km/s) = 2.33263 3.73192 3.11194
# Velocity P-wave (km/s) = 3.32190 6.16409 4.95131
#
# Compressibility (1/GPa) = 0.11711320
#
# Stress axis : x y z
#
# Youngs Moduli (GPa) = 96.24748 98.32912 7.51713
#
# Poissons Ratio (x) = 0.25296 -0.00001
# Poissons Ratio (y) = 0.24760 0.11777
# Poissons Ratio (z) = -0.00009 1.54046
#
# Static dielectric constant tensor:
#      x y z
#    x 1.843060 0.027550 0.010270 
#    y 0.027550 1.867400 0.017090 
#    z 0.010270 0.017090 1.850660 
# 
# From -- ./inp_files/508535.got.cif
#   From: 2010.05.17/outbox.cif.g08.bks.cpg/sg2_255_cif.got.tgz:508535.got - 2010.06.03 11:33:40.
