data_PCOD9012261
_publ_section_title
;
Structure prediction by ZEFSAII (Michael W. Deem and Ramdas Pophale) SiO2 
 PCOD9012261
Probable space group: P -1
;
_chemical_formula_sum "Si O2"
_cell_formula_units_Z 16
_cell_length_a 9.699519
_cell_length_b 9.903288
_cell_length_c 12.970353
_cell_angle_alpha 94.636649
_cell_angle_beta 69.592825
_cell_angle_gamma 42.929605
_cell_volume 676.121682
_symmetry_space_group_name_H-M "P -1"
_symmetry_group_IT_number 2
_symmetry_cell_setting 'triclinic'
loop_
_space_group_symop_operation_xyz
x,y,z
-x,-y,-z
loop_
_atom_site_type_symbol
_atom_site_label
_atom_site_fract_x
_atom_site_fract_y
_atom_site_fract_z
Si Si1 0.659781 0.279645 0.515840
Si Si2 0.292154 0.248304 0.124398
Si Si3 0.735057 0.440553 0.818419
Si Si4 0.155363 0.466943 0.873521
Si Si5 0.677548 0.937691 0.711507
Si Si6 0.913564 0.010105 0.765272
Si Si7 0.263826 0.083506 0.534125
Si Si8 0.332086 0.620151 0.802305
O O1 0.500000 0.500000 0.500000
O O2 0.567972 0.384948 0.659451
O O3 0.613266 0.157463 0.503585
O O4 0.942064 0.083593 0.388607
O O5 0.308978 0.391341 0.093538
O O6 0.018191 0.399488 0.173623
O O7 0.322551 0.203074 0.235807
O O8 0.500000 0.000000 0.000000
O O9 0.775470 0.256723 0.837615
O O10 0.472981 0.625441 0.833828
O O11 0.002461 0.276115 0.680242
O O12 0.398967 0.195192 0.771383
O O13 0.222730 0.571821 0.887809
O O14 0.000000 0.500000 0.000000
O O15 0.761573 0.988038 0.776803
O O16 0.815968 0.830443 0.559053
O O17 0.116735 0.834338 0.793179
O O18 0.500000 0.000000 0.500000
#
# Coordination Sequence:
#
# PCOD9012261 Si02
#       8
#     2   2   2   2   2   2   2   2
#     4   9  19  34  63  97 140 181 223 266 343 417
#     4  12  28  49  69 100 138 190 244 293 354 420
#     4  11  25  43  70 105 144 177 233 296 354 418
#     4  12  24  44  73  98 134 186 240 291 345 413
#     4  12  23  43  74  99 144 192 234 284 357 423
#     4  10  21  40  69 103 141 181 231 288 350 421
#     4  11  23  40  67 109 151 186 226 286 360 424
#     4  11  21  41  70 102 139 184 239 282 349 423
#
# _framework density 23.664380999999999
#
# number of rings (size 3 to 8) (size 9 to 14) (size 15 to 20)
#    0.000    1.000    5.000    1.500    0.000    6.500 
#    0.000    3.125    0.000    0.000    0.000    0.000 
#    0.000    0.000    0.000    0.000    0.000    0.000 
#
# Total GULP energy -89355.907053 kJ/mol
# GULP energy per Si atom -5584.744191 kJ/mol
# Density = 2.361052 g / cm^3
# Si number density = 23.664381 Si / 1000 Ang^3
#
#
#
# Elastic Constant Matrix: (Units=GPa)
#
#
# Indices 1 2 3 4 5 6 
#
# 1 114.2001 33.0432 10.4716 -5.3723 -2.4466 -2.0226
# 2 33.0432 131.3714 22.9165 -3.7388 2.1593 -5.6521
# 3 10.4716 22.9165 53.1963 -9.2173 -4.4412 8.5563
# 4 -5.3723 -3.7388 -9.2173 34.1845 10.0061 -8.6942
# 5 -2.4466 2.1593 -4.4412 10.0061 24.9588 4.9178
# 6 -2.0226 -5.6521 8.5563 -8.6942 4.9178 47.3514
#
#
#
# Elastic Compliance Matrix: (Units=1/GPa)
#
#
# Indices 1 2 3 4 5 6 
#
# 1 0.009537 -0.002227 -0.000768 0.001005 0.000507 0.000412
# 2 -0.002227 0.008993 -0.003826 0.000839 -0.002422 0.002075
# 3 -0.000768 -0.003826 0.022163 0.003252 0.003740 -0.004286
# 4 0.001005 0.000839 0.003252 0.037046 -0.015824 0.008001
# 5 0.000507 -0.002422 0.003740 -0.015824 0.049098 -0.008948
# 6 0.000412 0.002075 -0.004286 0.008001 -0.008948 0.024557
#
#
# Mechanical properties :
#
#
# Convention : Reuss Voigt Hill
#
# Bulk Modulus (GPa) = 36.96834 47.95891 42.46362
# Shear Modulus (GPa) = 28.72719 36.78804 32.75761
#
# Velocity S-wave (km/s) = 3.48795 3.94709 3.72460
# Velocity P-wave (km/s) = 5.64596 6.40960 6.03986
#
# Compressibility (1/GPa) = 0.02705017
#
# Stress axis : x y z
#
# Youngs Moduli (GPa) = 104.85815 111.20356 45.12059
#
# Poissons Ratio (x) = 0.24762 0.03465
# Poissons Ratio (y) = 0.23349 0.17264
# Poissons Ratio (z) = 0.08052 0.42549
#
# Static dielectric constant tensor:
#      x y z
#    x 1.931570 -0.003830 0.007670 
#    y -0.003830 1.893430 -0.011710 
#    z 0.007670 -0.011710 1.960600 
# 
# From -- ./inp_files/495179.got.cif
#   From: 2010.05.17/outbox.cif.g08.bks.cpg/sg2_248_cif.got.tgz:495179.got - 2010.06.03 11:33:40.
