data_PCOD9012258
_publ_section_title
;
Structure prediction by ZEFSAII (Michael W. Deem and Ramdas Pophale) SiO2 
 PCOD9012258
Probable space group: P -1
;
_chemical_formula_sum "Si O2"
_cell_formula_units_Z 16
_cell_length_a 8.826852
_cell_length_b 11.901490
_cell_length_c 13.239933
_cell_angle_alpha 53.342371
_cell_angle_beta 83.445400
_cell_angle_gamma 124.748467
_cell_volume 664.086272
_symmetry_space_group_name_H-M "P -1"
_symmetry_group_IT_number 2
_symmetry_cell_setting 'triclinic'
loop_
_space_group_symop_operation_xyz
x,y,z
-x,-y,-z
loop_
_atom_site_type_symbol
_atom_site_label
_atom_site_fract_x
_atom_site_fract_y
_atom_site_fract_z
Si Si1 0.942388 0.584666 0.646866
Si Si2 0.794519 0.181121 0.858868
Si Si3 0.761641 0.669998 0.257077
Si Si4 0.765424 0.432054 0.060694
Si Si5 0.425799 0.281282 0.333976
Si Si6 0.468417 0.695651 0.354658
Si Si7 0.389542 0.945673 0.273642
Si Si8 0.064715 0.207435 0.281458
O O1 0.936705 0.418315 0.766780
O O2 0.728819 0.444928 0.650066
O O3 0.899083 0.654276 0.705402
O O4 0.217395 0.816338 0.454862
O O5 0.801383 0.188932 0.733199
O O6 0.948751 0.155322 0.887739
O O7 0.500000 0.000000 0.000000
O O8 0.579161 0.511495 0.260325
O O9 0.703779 0.773359 0.260332
O O10 0.665275 0.482172 0.446437
O O11 0.632028 0.339400 0.229472
O O12 0.562476 0.209245 0.121116
O O13 0.852074 0.649275 0.901474
O O14 0.000000 0.500000 0.000000
O O15 0.249585 0.216278 0.293172
O O16 0.225940 0.059162 0.543671
O O17 0.530252 0.900424 0.271786
#
# Coordination Sequence:
#
# PCOD9012258 Si02
#       8
#     2   2   2   2   2   2   2   2
#     4  11  19  43  68  97 137 183 232 281 354 423
#     4  11  23  38  64  97 136 181 224 283 353 410
#     4  11  22  40  69 106 136 181 233 291 343 423
#     4  12  29  45  71 107 139 185 244 294 342 421
#     4  11  26  47  73 102 145 189 231 291 358 418
#     4  10  21  40  69 103 135 172 238 285 347 414
#     4  11  22  44  66  99 139 183 229 283 351 416
#     4  11  25  48  73 102 141 194 233 288 359 418
#
# _framework density 24.093256
#
# number of rings (size 3 to 8) (size 9 to 14) (size 15 to 20)
#    0.000    1.000    5.000    1.875    5.250    0.500 
#    0.000    5.000    0.000    0.000    0.000    0.000 
#    0.000    0.000    0.000    0.000    0.000    0.000 
#
# Total GULP energy -89494.884697 kJ/mol
# GULP energy per Si atom -5593.430294 kJ/mol
# Density = 2.403842 g / cm^3
# Si number density = 24.093256 Si / 1000 Ang^3
#
#
#
# Elastic Constant Matrix: (Units=GPa)
#
#
# Indices 1 2 3 4 5 6 
#
# 1 95.8923 1.1159 46.4606 -6.5124 -23.2132 -2.8185
# 2 1.1159 43.0494 1.4553 1.2226 -11.6081 -3.3211
# 3 46.4606 1.4553 119.9102 -7.8625 -14.4727 -4.7737
# 4 -6.5124 1.2226 -7.8625 20.1353 -7.4848 -1.1329
# 5 -23.2132 -11.6081 -14.4727 -7.4848 44.9494 3.0927
# 6 -2.8185 -3.3211 -4.7737 -1.1329 3.0927 26.7047
#
#
#
# Elastic Compliance Matrix: (Units=1/GPa)
#
#
# Indices 1 2 3 4 5 6 
#
# 1 0.014803 0.001674 -0.004447 0.005789 0.007585 0.000343
# 2 0.001674 0.025382 0.000205 0.002070 0.007653 0.002571
# 3 -0.004447 0.000205 0.010528 0.003336 0.001606 0.001394
# 4 0.005789 0.002070 0.003336 0.058088 0.014113 0.002294
# 5 0.007585 0.007653 0.001606 0.014113 0.031074 -0.000961
# 6 0.000343 0.002571 0.001394 0.002294 -0.000961 0.038260
#
#
# Mechanical properties :
#
#
# Convention : Reuss Voigt Hill
#
# Bulk Modulus (GPa) = 21.94076 39.65728 30.79902
# Shear Modulus (GPa) = 25.19345 32.34589 28.76967
#
# Velocity S-wave (km/s) = 3.23718 3.66803 3.45932
# Velocity P-wave (km/s) = 4.80612 5.86812 5.36347
#
# Compressibility (1/GPa) = 0.04557727
#
# Stress axis : x y z
#
# Youngs Moduli (GPa) = 67.55382 39.39788 94.98310
#
# Poissons Ratio (x) = -0.06595 0.42241
# Poissons Ratio (y) = -0.11309 -0.01948
# Poissons Ratio (z) = 0.30042 -0.00808
#
# Static dielectric constant tensor:
#      x y z
#    x 1.952900 0.025900 0.012780 
#    y 0.025900 1.886990 0.004370 
#    z 0.012780 0.004370 1.981770 
# 
# From -- ./inp_files/500153.got.cif
#   From: 2010.05.17/outbox.cif.g08.bks.cpg/sg2_251_cif.got.tgz:500153.got - 2010.06.03 11:33:40.
