data_PCOD9012429
_publ_section_title
;
Structure prediction by ZEFSAII (Michael W. Deem and Ramdas Pophale) SiO2 
 PCOD9012429
Probable space group: P -1
;
_chemical_formula_sum "Si O2"
_cell_formula_units_Z 14
_cell_length_a 10.204143
_cell_length_b 8.434780
_cell_length_c 19.054672
_cell_angle_alpha 73.558317
_cell_angle_beta 28.098401
_cell_angle_gamma 60.136883
_cell_volume 618.946266
_symmetry_space_group_name_H-M "P -1"
_symmetry_group_IT_number 2
_symmetry_cell_setting 'triclinic'
loop_
_space_group_symop_operation_xyz
x,y,z
-x,-y,-z
loop_
_atom_site_type_symbol
_atom_site_label
_atom_site_fract_x
_atom_site_fract_y
_atom_site_fract_z
Si Si1 0.537277 0.294539 0.505764
Si Si2 0.123486 0.195715 0.645357
Si Si3 0.220848 0.585282 0.359154
Si Si4 0.642405 0.174835 0.982648
Si Si5 0.148314 0.769879 0.975146
Si Si6 0.953919 0.765745 0.829619
Si Si7 0.587296 0.680427 0.282931
O O1 0.500000 0.500000 0.500000
O O2 0.207626 0.349847 0.613832
O O3 0.549501 0.222053 0.587783
O O4 0.863146 0.170198 0.319411
O O5 0.974803 0.260300 0.630788
O O6 0.872222 0.202662 0.818291
O O7 0.500000 0.000000 0.500000
O O8 0.569791 0.395039 0.189078
O O9 0.307019 0.699888 0.360955
O O10 0.000000 0.500000 0.500000
O O11 0.787694 0.939005 0.944193
O O12 0.664517 0.259886 0.035132
O O13 0.298828 0.258028 0.094481
O O14 0.840930 0.740183 0.129877
O O15 0.000000 0.000000 0.000000
O O16 0.196716 0.555692 0.775846
#
# Coordination Sequence:
#
# PCOD9012429 Si02
#       7
#     2   2   2   2   2   2   2
#     4  10  21  40  70 101 139 183 229 298 355 426
#     4  12  25  46  74 104 145 191 245 298 355 432
#     4  12  29  47  75 108 151 196 241 299 378 431
#     4  11  24  42  71 106 138 192 241 299 360 435
#     4  12  28  47  74 104 150 193 251 301 364 433
#     4  10  22  41  70 104 146 179 241 298 363 433
#     4  11  24  46  71 102 147 188 239 302 365 429
#
# _framework density 22.619087
#
# number of rings (size 3 to 8) (size 9 to 14) (size 15 to 20)
#    0.000    0.857    2.857    3.857    8.000    3.429 
#    0.000    1.429    0.000    0.000    0.000    0.000 
#    0.000    0.000    0.000    0.000    0.000    0.000 
#
# Total GULP energy -78185.534486 kJ/mol
# GULP energy per Si atom -5584.681035 kJ/mol
# Density = 2.256761 g / cm^3
# Si number density = 22.619087 Si / 1000 Ang^3
#
#
#
# Elastic Constant Matrix: (Units=GPa)
#
#
# Indices 1 2 3 4 5 6 
#
# 1 138.0362 1.4213 30.4511 -6.8653 -28.1956 0.0692
# 2 1.4213 42.9632 1.9623 2.8825 -3.6949 -15.1570
# 3 30.4511 1.9623 115.6940 -25.2001 -14.7919 -1.0605
# 4 -6.8653 2.8825 -25.2001 33.5693 11.4686 -2.5208
# 5 -28.1956 -3.6949 -14.7919 11.4686 42.4391 -1.9489
# 6 0.0692 -15.1570 -1.0605 -2.5208 -1.9489 34.8230
#
#
#
# Elastic Compliance Matrix: (Units=1/GPa)
#
#
# Indices 1 2 3 4 5 6 
#
# 1 0.008735 0.000513 -0.001935 -0.001606 0.005623 0.000345
# 2 0.000513 0.028168 -0.000707 -0.003292 0.003998 0.012223
# 3 -0.001935 -0.000707 0.010912 0.007771 0.000384 0.000613
# 4 -0.001606 -0.003292 0.007771 0.038758 -0.009068 0.001105
# 5 0.005623 0.003998 0.000384 -0.009068 0.030359 0.002783
# 6 0.000345 0.012223 0.000613 0.001105 0.002783 0.034291
#
#
# Mechanical properties :
#
#
# Convention : Reuss Voigt Hill
#
# Bulk Modulus (GPa) = 22.95885 40.48475 31.72180
# Shear Modulus (GPa) = 29.41167 39.69019 34.55093
#
# Velocity S-wave (km/s) = 3.60988 4.19348 3.91258
# Velocity P-wave (km/s) = 5.24855 6.43307 5.87076
#
# Compressibility (1/GPa) = 0.04355619
#
# Stress axis : x y z
#
# Youngs Moduli (GPa) = 114.48638 35.50129 91.63942
#
# Poissons Ratio (x) = -0.01820 0.17735
# Poissons Ratio (y) = -0.05868 0.06475
# Poissons Ratio (z) = 0.22157 0.02509
#
# Static dielectric constant tensor:
#      x y z
#    x 1.985420 0.093240 0.061530 
#    y 0.093240 1.917760 0.044840 
#    z 0.061530 0.044840 1.877070 
# 
# From -- ./inp_files/185299.got.cif
#   From: 2010.05.17/outbox.cif.g08.bks.cpg/sg2_93_cif.got.tgz:185299.got - 2010.06.03 11:33:40.
