data_PCOD9012303
_publ_section_title
;
Structure prediction by ZEFSAII (Michael W. Deem and Ramdas Pophale) SiO2 
 PCOD9012303
Probable space group: P -1
;
_chemical_formula_sum "Si O2"
_cell_formula_units_Z 14
_cell_length_a 18.621542
_cell_length_b 17.013272
_cell_length_c 14.802354
_cell_angle_alpha 147.681971
_cell_angle_beta 159.342294
_cell_angle_gamma 21.782703
_cell_volume 603.700788
_symmetry_space_group_name_H-M "P -1"
_symmetry_group_IT_number 2
_symmetry_cell_setting 'triclinic'
loop_
_space_group_symop_operation_xyz
x,y,z
-x,-y,-z
loop_
_atom_site_type_symbol
_atom_site_label
_atom_site_fract_x
_atom_site_fract_y
_atom_site_fract_z
Si Si1 0.379615 0.359942 0.574188
Si Si2 0.173796 0.396253 0.728782
Si Si3 0.912176 0.383169 0.815380
Si Si4 0.473724 0.069500 0.266889
Si Si5 0.891269 0.092070 0.791523
Si Si6 0.393912 0.483045 0.224641
Si Si7 0.541079 0.383430 0.024951
O O1 0.734883 0.172161 0.784896
O O2 0.322261 0.564945 0.696252
O O3 0.173546 0.427351 0.482162
O O4 0.294242 0.277193 0.322912
O O5 0.329057 0.155095 0.666971
O O6 0.354106 0.367940 0.999227
O O7 0.248889 0.467472 0.805942
O O8 0.715858 0.391854 0.523291
O O9 0.708585 0.502129 0.780845
O O10 0.000000 0.500000 0.000000
O O11 0.224127 0.142230 0.976668
O O12 0.710896 0.058589 0.493763
O O13 0.823047 0.278554 0.842529
O O14 0.230165 0.866583 0.970062
O O15 0.500000 0.500000 0.000000
#
# Coordination Sequence:
#
# PCOD9012303 Si02
#       7
#     2   2   2   2   2   2   2
#     4  10  21  45  66  93 131 173 214 269 332 385
#     4  12  23  43  71  95 131 181 220 259 338 391
#     4  11  21  38  64 100 134 170 226 270 308 383
#     4  10  21  40  69  91 133 180 212 260 331 377
#     4  10  21  45  66  93 133 176 211 266 339 387
#     4  11  22  38  69  95 133 181 215 266 322 385
#     4  12  27  44  69 101 129 165 225 279 325 402
#
# _framework density 23.190296
#
# number of rings (size 3 to 8) (size 9 to 14) (size 15 to 20)
#    0.857    0.286    5.714    0.857    0.000    1.714 
#    0.000    2.143    0.000    0.000    0.000    0.000 
#    0.000    0.000    0.000    0.000    0.000    0.000 
#
# Total GULP energy -77977.637253 kJ/mol
# GULP energy per Si atom -5569.831232 kJ/mol
# Density = 2.313751 g / cm^3
# Si number density = 23.190296 Si / 1000 Ang^3
#
#
#
# Elastic Constant Matrix: (Units=GPa)
#
#
# Indices 1 2 3 4 5 6 
#
# 1 115.9601 23.0302 42.4866 1.5756 24.7004 0.2395
# 2 23.0302 96.8531 21.3814 2.6879 4.3661 -0.1049
# 3 42.4866 21.3814 93.0755 6.6639 24.4492 -4.4355
# 4 1.5756 2.6879 6.6639 35.6104 2.0428 4.7204
# 5 24.7004 4.3661 24.4492 2.0428 44.4655 1.2425
# 6 0.2395 -0.1049 -4.4355 4.7204 1.2425 28.1677
#
#
#
# Elastic Compliance Matrix: (Units=1/GPa)
#
#
# Indices 1 2 3 4 5 6 
#
# 1 0.011169 -0.001668 -0.003741 0.000644 -0.003996 -0.000622
# 2 -0.001668 0.011138 -0.002036 -0.000410 0.000978 -0.000239
# 3 -0.003741 -0.002036 0.014771 -0.002513 -0.005812 0.003028
# 4 0.000644 -0.000410 -0.002513 0.029265 -0.000132 -0.005301
# 5 -0.003996 0.000978 -0.005812 -0.000132 0.027873 -0.002085
# 6 -0.000622 -0.000239 0.003028 -0.005301 -0.002085 0.036963
#
#
# Mechanical properties :
#
#
# Convention : Reuss Voigt Hill
#
# Bulk Modulus (GPa) = 45.07259 53.29835 49.18547
# Shear Modulus (GPa) = 32.58042 36.24809 34.41425
#
# Velocity S-wave (km/s) = 3.75229 3.95786 3.85644
# Velocity P-wave (km/s) = 6.18474 6.62715 6.40977
#
# Compressibility (1/GPa) = 0.02218643
#
# Stress axis : x y z
#
# Youngs Moduli (GPa) = 89.52959 89.78158 67.70219
#
# Poissons Ratio (x) = 0.14979 0.25330
# Poissons Ratio (y) = 0.14937 0.13785
# Poissons Ratio (z) = 0.33497 0.18280
#
# Static dielectric constant tensor:
#      x y z
#    x 1.943960 -0.021540 -0.045190 
#    y -0.021540 1.871790 0.005310 
#    z -0.045190 0.005310 1.950380 
# 
# From -- ./inp_files/578375.got.cif
#   From: 2010.05.17/outbox.cif.g08.bks.cpg/sg2_290_cif.got.tgz:578375.got - 2010.06.03 11:33:40.
