data_PCOD9012850
_publ_section_title
;
Structure prediction by ZEFSAII (Michael W. Deem and Ramdas Pophale) SiO2 
 PCOD9012850
Probable space group: P -1
;
_chemical_formula_sum "Si O2"
_cell_formula_units_Z 16
_cell_length_a 14.761188
_cell_length_b 7.609595
_cell_length_c 17.434904
_cell_angle_alpha 80.167738
_cell_angle_beta 24.662561
_cell_angle_gamma 68.363144
_cell_volume 688.073212
_symmetry_space_group_name_H-M "P -1"
_symmetry_group_IT_number 2
_symmetry_cell_setting 'triclinic'
loop_
_space_group_symop_operation_xyz
x,y,z
-x,-y,-z
loop_
_atom_site_type_symbol
_atom_site_label
_atom_site_fract_x
_atom_site_fract_y
_atom_site_fract_z
Si Si1 0.309049 0.982282 0.041538
Si Si2 0.648390 0.554098 0.319735
Si Si3 0.118569 0.419130 0.193403
Si Si4 0.790382 0.225534 0.471435
Si Si5 0.485341 0.549927 0.190624
Si Si6 0.739031 0.099509 0.085485
Si Si7 0.085358 0.206403 0.899011
Si Si8 0.782764 0.522654 0.721777
O O1 0.500000 0.500000 0.500000
O O2 0.053480 0.010563 0.273618
O O3 0.330358 0.169695 0.046425
O O4 0.242863 0.017460 0.998885
O O5 0.433317 0.725260 0.416814
O O6 0.231176 0.498765 0.036546
O O7 0.846556 0.360090 0.127631
O O8 0.113054 0.527634 0.268893
O O9 0.000000 0.500000 0.500000
O O10 0.874495 0.396121 0.374548
O O11 0.651910 0.411942 0.788439
O O12 0.683446 0.264550 0.636050
O O13 0.524122 0.338747 0.215158
O O14 0.198868 0.343129 0.771846
O O15 0.714428 0.979947 0.185653
O O16 0.985657 0.110728 0.919488
O O17 0.443638 0.237234 0.120768
#
# Coordination Sequence:
#
# PCOD9012850 Si02
#       8
#     2   2   2   2   2   2   2   2
#     4   9  22  39  65  87 133 164 215 263 315 386
#     4  11  23  39  68  95 124 174 220 267 320 390
#     4  10  23  39  68  91 127 171 216 268 315 395
#     4  10  22  40  61  93 125 169 216 257 322 385
#     4  11  22  40  67  91 129 171 215 265 331 378
#     4  10  21  41  61  93 130 173 205 276 322 374
#     4  10  23  40  65  90 134 167 218 267 328 377
#     4  11  20  42  66  96 129 168 208 273 330 381
#
# _framework density 23.253339
#
# number of rings (size 3 to 8) (size 9 to 14) (size 15 to 20)
#    0.750    1.000    2.500    1.500    3.500    0.000 
#    0.000   14.375    0.000    0.000    0.000    0.000 
#    0.000    0.000    0.000    0.000    0.000    0.000 
#
# Total GULP energy -89265.700441 kJ/mol
# GULP energy per Si atom -5579.106278 kJ/mol
# Density = 2.320041 g / cm^3
# Si number density = 23.253339 Si / 1000 Ang^3
#
#
#
# Elastic Constant Matrix: (Units=GPa)
#
#
# Indices 1 2 3 4 5 6 
#
# 1 77.7071 12.5098 17.3105 -4.1602 -9.4087 20.9019
# 2 12.5098 51.6341 21.9266 -16.0975 -0.7219 2.9919
# 3 17.3105 21.9266 81.0728 -9.1156 4.6914 3.5050
# 4 -4.1602 -16.0975 -9.1156 40.1400 3.9707 -8.6867
# 5 -9.4087 -0.7219 4.6914 3.9707 36.4913 -5.4242
# 6 20.9019 2.9919 3.5050 -8.6867 -5.4242 20.3732
#
#
#
# Elastic Compliance Matrix: (Units=1/GPa)
#
#
# Indices 1 2 3 4 5 6 
#
# 1 0.019758 -0.003798 -0.003021 -0.004885 0.002891 -0.020506
# 2 -0.003798 0.025179 -0.005129 0.009670 -0.000104 0.005177
# 3 -0.003021 -0.005129 0.014640 0.001494 -0.002741 0.001242
# 4 -0.004885 0.009670 0.001494 0.032434 -0.002330 0.016544
# 5 0.002891 -0.000104 -0.002741 -0.002330 0.029400 0.004355
# 6 -0.020506 0.005177 0.001242 0.016544 0.004355 0.077362
#
#
# Mechanical properties :
#
#
# Convention : Reuss Voigt Hill
#
# Bulk Modulus (GPa) = 28.02815 34.87865 31.45340
# Shear Modulus (GPa) = 21.31620 29.97871 25.64745
#
# Velocity S-wave (km/s) = 3.03098 3.59447 3.32468
# Velocity P-wave (km/s) = 4.93241 5.67969 5.31919
#
# Compressibility (1/GPa) = 0.03567842
#
# Stress axis : x y z
#
# Youngs Moduli (GPa) = 50.61325 39.71629 68.30661
#
# Poissons Ratio (x) = 0.15085 0.20638
# Poissons Ratio (y) = 0.19224 0.35036
# Poissons Ratio (z) = 0.15292 0.20371
#
# Static dielectric constant tensor:
#      x y z
#    x 1.886810 -0.016750 0.004790 
#    y -0.016750 1.933360 -0.010360 
#    z 0.004790 -0.010360 1.886320 
# 
# From -- ./inp_files/568741.got.cif
#   From: 2010.05.17/outbox.cif.g08.bks.cpg/sg2_285_cif.got.tgz:568741.got - 2010.06.03 11:33:40.
