data_PCOD9012916
_publ_section_title
;
Structure prediction by ZEFSAII (Michael W. Deem and Ramdas Pophale) SiO2 
 PCOD9012916
Probable space group: P -1
;
_chemical_formula_sum "Si O2"
_cell_formula_units_Z 16
_cell_length_a 18.781030
_cell_length_b 15.007192
_cell_length_c 24.072490
_cell_angle_alpha 19.926317
_cell_angle_beta 157.557168
_cell_angle_gamma 145.319620
_cell_volume 824.234718
_symmetry_space_group_name_H-M "P -1"
_symmetry_group_IT_number 2
_symmetry_cell_setting 'triclinic'
loop_
_space_group_symop_operation_xyz
x,y,z
-x,-y,-z
loop_
_atom_site_type_symbol
_atom_site_label
_atom_site_fract_x
_atom_site_fract_y
_atom_site_fract_z
Si Si1 0.951629 0.385338 0.975955
Si Si2 0.396882 0.233922 0.241914
Si Si3 0.415905 0.751260 0.247127
Si Si4 0.942900 0.249319 0.250065
Si Si5 0.195132 0.755897 0.493200
Si Si6 0.898316 0.768835 0.063327
Si Si7 0.870178 0.707737 0.209424
Si Si8 0.790079 0.808958 0.422108
O O1 0.746520 0.328837 0.858137
O O2 0.117312 0.085007 0.256955
O O3 0.000000 0.500000 0.000000
O O4 0.955894 0.623928 0.797246
O O5 0.568554 0.347693 0.280724
O O6 0.500000 0.000000 0.500000
O O7 0.220597 0.482475 0.997323
O O8 0.294250 0.146470 0.165981
O O9 0.500000 0.500000 0.500000
O O10 0.579936 0.792617 0.299508
O O11 0.297342 0.033967 0.030856
O O12 0.121669 0.119779 0.498529
O O13 0.825847 0.042283 0.271378
O O14 0.137660 0.579688 0.602867
O O15 0.081093 0.721873 0.374881
O O16 0.849419 0.728868 0.115803
O O17 0.063496 0.486111 0.323481
O O18 0.000000 0.000000 0.000000
#
# Coordination Sequence:
#
# PCOD9012916 Si02
#       8
#     2   2   2   2   2   2   2   2
#     4  11  24  39  62  89 126 162 206 248 306 367
#     4  11  21  39  64  89 121 162 201 246 309 368
#     4  11  21  41  66  88 122 165 205 248 311 370
#     4  10  21  41  62  89 125 161 197 255 312 364
#     4  10  22  42  63  86 125 166 199 252 315 359
#     4  11  24  39  64  93 123 157 210 255 300 365
#     4  10  23  41  64  91 124 160 206 258 303 365
#     4  10  22  40  65  92 121 160 204 257 307 360
#
# _framework density 19.411947000000001
#
# number of rings (size 3 to 8) (size 9 to 14) (size 15 to 20)
#    0.000    1.500    2.500    2.250    5.250    2.500 
#    2.250    0.625    0.000    0.000    0.000    0.000 
#    0.000    0.000    0.000    0.000    0.000    0.000 
#
# Total GULP energy -89222.039409 kJ/mol
# GULP energy per Si atom -5576.377463 kJ/mol
# Density = 1.936776 g / cm^3
# Si number density = 19.411947 Si / 1000 Ang^3
#
#
#
# Elastic Constant Matrix: (Units=GPa)
#
#
# Indices 1 2 3 4 5 6 
#
# 1 88.1837 66.1790 20.7930 15.7898 -8.1215 2.9281
# 2 66.1790 116.0331 28.6046 9.4447 1.0264 14.8383
# 3 20.7930 28.6046 49.1314 13.3154 -6.5648 2.5981
# 4 15.7898 9.4447 13.3154 40.1485 9.5851 -2.1392
# 5 -8.1215 1.0264 -6.5648 9.5851 26.6706 6.1937
# 6 2.9281 14.8383 2.5981 -2.1392 6.1937 30.7261
#
#
#
# Elastic Compliance Matrix: (Units=1/GPa)
#
#
# Indices 1 2 3 4 5 6 
#
# 1 0.023671 -0.013424 0.001781 -0.009369 0.011262 0.001154
# 2 -0.013424 0.018333 -0.006893 0.004626 -0.006928 -0.005273
# 3 0.001781 -0.006893 0.028631 -0.011744 0.012688 -0.002637
# 4 -0.009369 0.004626 -0.011744 0.036648 -0.020567 0.006349
# 5 0.011262 -0.006928 0.012688 -0.020567 0.054301 -0.011178
# 6 0.001154 -0.005273 -0.002637 0.006349 -0.011178 0.037900
#
#
# Mechanical properties :
#
#
# Convention : Reuss Voigt Hill
#
# Bulk Modulus (GPa) = 29.79543 53.83347 41.81445
# Shear Modulus (GPa) = 20.18217 28.69381 24.43799
#
# Velocity S-wave (km/s) = 3.22790 3.84885 3.55197
# Velocity P-wave (km/s) = 5.41062 6.89520 6.19752
#
# Compressibility (1/GPa) = 0.03356219
#
# Stress axis : x y z
#
# Youngs Moduli (GPa) = 42.24560 54.54657 34.92772
#
# Poissons Ratio (x) = 0.73225 -0.06220
# Poissons Ratio (y) = 0.56712 0.24075
# Poissons Ratio (z) = -0.07524 0.37598
#
# Static dielectric constant tensor:
#      x y z
#    x 1.848020 0.204640 -0.247640 
#    y 0.204640 1.833930 -0.178270 
#    z -0.247640 -0.178270 1.933280 
# 
# From -- ./inp_files/260087.got.cif
#   From: 2010.05.17/outbox.cif.g08.bks.cpg/sg2_131_cif.got.tgz:260087.got - 2010.06.03 11:33:40.
