data_PCOD9012431
_publ_section_title
;
Structure prediction by ZEFSAII (Michael W. Deem and Ramdas Pophale) SiO2 
 PCOD9012431
Probable space group: P -1
;
_chemical_formula_sum "Si O2"
_cell_formula_units_Z 14
_cell_length_a 9.157085
_cell_length_b 9.112216
_cell_length_c 12.774967
_cell_angle_alpha 120.270958
_cell_angle_beta 131.706811
_cell_angle_gamma 79.416962
_cell_volume 667.996578
_symmetry_space_group_name_H-M "P -1"
_symmetry_group_IT_number 2
_symmetry_cell_setting 'triclinic'
loop_
_space_group_symop_operation_xyz
x,y,z
-x,-y,-z
loop_
_atom_site_type_symbol
_atom_site_label
_atom_site_fract_x
_atom_site_fract_y
_atom_site_fract_z
Si Si1 0.624150 0.738831 0.252151
Si Si2 0.690755 0.046543 0.826928
Si Si3 0.296692 0.350743 0.348382
Si Si4 0.690176 0.140288 0.099162
Si Si5 0.382792 0.358670 0.016024
Si Si6 0.928426 0.677288 0.549749
Si Si7 0.943261 0.667820 0.980888
O O1 0.520719 0.900450 0.273019
O O2 0.698930 0.721631 0.163349
O O3 0.793234 0.727784 0.412096
O O4 0.437345 0.568392 0.114682
O O5 0.671170 0.843276 0.725269
O O6 0.744933 0.092943 0.991427
O O7 0.867073 0.168618 0.885968
O O8 0.500000 0.500000 0.500000
O O9 0.195785 0.351346 0.412648
O O10 0.153477 0.382562 0.197247
O O11 0.874536 0.171607 0.276889
O O12 0.599567 0.312126 0.113419
O O13 0.500000 0.000000 0.000000
O O14 0.230228 0.289776 0.011946
O O15 0.000000 0.500000 0.500000
O O16 0.000000 0.500000 0.000000
#
# Coordination Sequence:
#
# PCOD9012431 Si02
#       7
#     2   2   2   2   2   2   2
#     4  10  22  44  70 105 140 192 234 299 350 433
#     4  11  25  49  73 104 146 192 248 291 358 442
#     4  12  29  48  71 106 146 190 240 307 366 418
#     4  11  24  44  74 102 142 193 239 297 357 433
#     4  10  21  40  70 101 146 186 239 283 363 424
#     4  12  26  44  73 104 145 184 243 297 365 421
#     4  12  24  43  74 108 140 189 241 291 358 434
#
# _framework density 20.958190999999999
#
# number of rings (size 3 to 8) (size 9 to 14) (size 15 to 20)
#    0.000    0.857    4.286    2.143    6.000    0.571 
#    0.000    2.857    0.000    0.000    0.000    0.000 
#    0.000    0.000    0.000    0.000    0.000    0.000 
#
# Total GULP energy -78331.405679 kJ/mol
# GULP energy per Si atom -5595.100406 kJ/mol
# Density = 2.091049 g / cm^3
# Si number density = 20.958191 Si / 1000 Ang^3
#
#
#
# Elastic Constant Matrix: (Units=GPa)
#
#
# Indices 1 2 3 4 5 6 
#
# 1 93.3866 6.8722 48.3849 1.3939 -7.1457 3.9435
# 2 6.8722 108.1794 53.2570 -3.9655 3.5750 -16.8464
# 3 48.3849 53.2570 139.8884 -29.1861 11.8036 -5.5213
# 4 1.3939 -3.9655 -29.1861 51.9930 7.6898 0.6821
# 5 -7.1457 3.5750 11.8036 7.6898 29.6070 8.3299
# 6 3.9435 -16.8464 -5.5213 0.6821 8.3299 40.9883
#
#
#
# Elastic Compliance Matrix: (Units=1/GPa)
#
#
# Indices 1 2 3 4 5 6 
#
# 1 0.016082 0.002122 -0.008723 -0.006576 0.009864 -0.003745
# 2 0.002122 0.012551 -0.005988 -0.002654 0.000948 0.003999
# 3 -0.008723 -0.005988 0.015575 0.010103 -0.010927 0.002529
# 4 -0.006576 -0.002654 0.010103 0.026779 -0.013129 0.003125
# 5 0.009864 0.000948 -0.010927 -0.013129 0.047006 -0.011366
# 6 -0.003745 0.003999 0.002529 0.003125 -0.011366 0.029000
#
#
# Mechanical properties :
#
#
# Convention : Reuss Voigt Hill
#
# Bulk Modulus (GPa) = 52.54471 62.05362 57.29917
# Shear Modulus (GPa) = 28.00879 40.04701 34.02790
#
# Velocity S-wave (km/s) = 3.65966 4.37602 4.03377
# Velocity P-wave (km/s) = 6.55615 7.43002 7.00673
#
# Compressibility (1/GPa) = 0.01903141
#
# Stress axis : x y z
#
# Youngs Moduli (GPa) = 62.17958 79.67272 64.20496
#
# Poissons Ratio (x) = -0.16909 0.56004
# Poissons Ratio (y) = -0.13196 0.38448
# Poissons Ratio (z) = 0.54237 0.47711
#
# Static dielectric constant tensor:
#      x y z
#    x 1.717600 -0.010760 -0.006940 
#    y -0.010760 1.817730 0.019770 
#    z -0.006940 0.019770 1.727010 
# 
# From -- ./inp_files/156758.got.cif
#   From: 2010.05.17/outbox.cif.g08.bks.cpg/sg2_79_cif.got.tgz:156758.got - 2010.06.03 11:33:40.
