data_PCOD9012339
_publ_section_title
;
Structure prediction by ZEFSAII (Michael W. Deem and Ramdas Pophale) SiO2 
 PCOD9012339
Probable space group: P -1
;
_chemical_formula_sum "Si O2"
_cell_formula_units_Z 16
_cell_length_a 9.863013
_cell_length_b 8.863627
_cell_length_c 14.663829
_cell_angle_alpha 76.873283
_cell_angle_beta 63.055496
_cell_angle_gamma 121.178295
_cell_volume 778.225803
_symmetry_space_group_name_H-M "P -1"
_symmetry_group_IT_number 2
_symmetry_cell_setting 'triclinic'
loop_
_space_group_symop_operation_xyz
x,y,z
-x,-y,-z
loop_
_atom_site_type_symbol
_atom_site_label
_atom_site_fract_x
_atom_site_fract_y
_atom_site_fract_z
Si Si1 0.988558 0.676610 0.983422
Si Si2 0.481470 0.669374 0.494031
Si Si3 0.539898 0.978991 0.148755
Si Si4 0.239687 0.304356 0.110492
Si Si5 0.102158 0.461976 0.774041
Si Si6 0.775857 0.285121 0.554411
Si Si7 0.322166 0.029252 0.077205
Si Si8 0.115821 0.814032 0.652901
O O1 0.890141 0.622623 0.121348
O O2 0.860410 0.671054 0.945772
O O3 0.000000 0.500000 0.000000
O O4 0.240920 0.903094 0.881215
O O5 0.500000 0.500000 0.500000
O O6 0.313681 0.567544 0.641222
O O7 0.357995 0.666560 0.450212
O O8 0.701083 0.927302 0.410390
O O9 0.361806 0.870286 0.295740
O O10 0.505622 0.112501 0.082641
O O11 0.556257 0.873639 0.071274
O O12 0.117488 0.277203 0.242000
O O13 0.198108 0.093043 0.134669
O O14 0.500000 0.500000 0.000000
O O15 0.116318 0.659670 0.737733
O O16 0.868844 0.240278 0.833291
O O17 0.826366 0.207834 0.463482
O O18 0.000000 0.500000 0.500000
#
# Coordination Sequence:
#
# PCOD9012339 Si02
#       8
#     2   2   2   2   2   2   2   2
#     4  11  22  38  66  95 126 167 223 268 322 405
#     4  11  24  44  69  97 139 173 216 280 337 399
#     4  10  22  40  68  95 129 173 223 266 336 392
#     4  12  26  42  65  95 137 170 223 281 341 379
#     4  10  21  40  69  95 128 174 222 263 334 401
#     4  11  24  41  70  97 135 179 226 267 328 413
#     4  10  23  41  67  96 137 170 216 283 333 391
#     4  11  24  44  68  98 133 179 222 274 338 408
#
# _framework density 20.559585999999999
#
# number of rings (size 3 to 8) (size 9 to 14) (size 15 to 20)
#    0.000    1.250    1.250    5.250    7.000    3.000 
#    0.000    1.250    0.000    0.000    0.000    0.000 
#    0.000    0.000    0.000    0.000    0.000    0.000 
#
# Total GULP energy -89158.385601 kJ/mol
# GULP energy per Si atom -5572.399100 kJ/mol
# Density = 2.051279 g / cm^3
# Si number density = 20.559586 Si / 1000 Ang^3
#
#
#
# Elastic Constant Matrix: (Units=GPa)
#
#
# Indices 1 2 3 4 5 6 
#
# 1 117.3934 60.6774 44.4680 8.5339 -19.4238 3.4386
# 2 60.6774 105.4746 43.2630 -8.5165 -8.1455 -11.2130
# 3 44.4680 43.2630 150.7196 7.4537 -14.9039 2.3892
# 4 8.5339 -8.5165 7.4537 34.8985 -0.3543 -10.5627
# 5 -19.4238 -8.1455 -14.9039 -0.3543 30.4122 7.0059
# 6 3.4386 -11.2130 2.3892 -10.5627 7.0059 42.2126
#
#
#
# Elastic Compliance Matrix: (Units=1/GPa)
#
#
# Indices 1 2 3 4 5 6 
#
# 1 0.016132 -0.009856 -0.000500 -0.008426 0.009052 -0.007514
# 2 -0.009856 0.017954 -0.003408 0.010247 -0.005152 0.009184
# 3 -0.000500 -0.003408 0.008304 -0.003272 0.003427 -0.002722
# 4 -0.008426 0.010247 -0.003272 0.038178 -0.007095 0.014324
# 5 0.009052 -0.005152 0.003427 -0.007095 0.041401 -0.010947
# 6 -0.007514 0.009184 -0.002722 0.014324 -0.010947 0.032296
#
#
# Mechanical properties :
#
#
# Convention : Reuss Voigt Hill
#
# Bulk Modulus (GPa) = 67.27409 74.48938 70.88174
# Shear Modulus (GPa) = 26.77427 36.51662 31.64545
#
# Velocity S-wave (km/s) = 3.61262 4.21900 3.92753
# Velocity P-wave (km/s) = 7.08477 7.74873 7.42418
#
# Compressibility (1/GPa) = 0.01486456
#
# Stress axis : x y z
#
# Youngs Moduli (GPa) = 61.98850 55.69711 120.42051
#
# Poissons Ratio (x) = 0.54893 0.06017
# Poissons Ratio (y) = 0.61093 0.41035
# Poissons Ratio (z) = 0.03098 0.18980
#
# Static dielectric constant tensor:
#      x y z
#    x 1.736140 -0.000940 0.047520 
#    y -0.000940 1.952670 -0.004220 
#    z 0.047520 -0.004220 1.814050 
# 
# From -- ./inp_files/494833.got.cif
#   From: 2010.05.17/outbox.cif.g08.bks.cpg/sg2_248_cif.got.tgz:494833.got - 2010.06.03 11:33:40.
