data_PCOD9012311
_publ_section_title
;
Structure prediction by ZEFSAII (Michael W. Deem and Ramdas Pophale) SiO2 
 PCOD9012311
Probable space group: P -1
;
_chemical_formula_sum "Si O2"
_cell_formula_units_Z 16
_cell_length_a 7.736463
_cell_length_b 15.955900
_cell_length_c 9.908373
_cell_angle_alpha 45.600267
_cell_angle_beta 113.110259
_cell_angle_gamma 85.585129
_cell_volume 679.034825
_symmetry_space_group_name_H-M "P -1"
_symmetry_group_IT_number 2
_symmetry_cell_setting 'triclinic'
loop_
_space_group_symop_operation_xyz
x,y,z
-x,-y,-z
loop_
_atom_site_type_symbol
_atom_site_label
_atom_site_fract_x
_atom_site_fract_y
_atom_site_fract_z
Si Si1 0.769657 0.021570 0.962825
Si Si2 0.827915 0.386887 0.800637
Si Si3 0.074868 0.197401 0.505034
Si Si4 0.024893 0.120671 0.308604
Si Si5 0.619074 0.031801 0.619888
Si Si6 0.921238 0.496728 0.132701
Si Si7 0.613383 0.327707 0.581681
Si Si8 0.423364 0.681750 0.730983
O O1 0.821045 0.919980 0.217694
O O2 0.649225 0.997099 0.827582
O O3 0.632435 0.183183 0.780315
O O4 0.000000 0.000000 0.000000
O O5 0.805359 0.337187 0.703597
O O6 0.616142 0.539830 0.588631
O O7 0.032187 0.404657 0.874023
O O8 0.832797 0.276385 0.031302
O O9 0.165122 0.142985 0.442996
O O10 0.069207 0.333771 0.395215
O O11 0.811597 0.255318 0.338535
O O12 0.134029 0.058697 0.266988
O O13 0.000000 0.000000 0.500000
O O14 0.500000 0.000000 0.500000
O O15 0.536889 0.192253 0.404733
O O16 0.659768 0.552027 0.996399
O O17 0.000000 0.500000 0.000000
O O18 0.622895 0.340401 0.411071
#
# Coordination Sequence:
#
# PCOD9012311 Si02
#       8
#     2   2   2   2   2   2   2   2
#     4  11  21  44  69  96 134 184 222 279 336 407
#     4  11  23  40  66  98 131 177 223 282 339 398
#     4  12  24  41  71 101 133 184 230 279 341 410
#     4  12  22  41  67 101 133 172 230 277 335 410
#     4  11  24  40  70 100 136 177 222 282 345 397
#     4  12  24  43  68  98 140 178 227 288 344 403
#     4  10  21  40  69  92 131 176 227 268 342 407
#     4  11  22  43  67  96 133 179 231 272 342 411
#
# _framework density 23.562854999999999
#
# number of rings (size 3 to 8) (size 9 to 14) (size 15 to 20)
#    0.000    0.750    6.250    2.625    0.000    0.000 
#    0.000    5.625    0.000    0.000    0.000    0.000 
#    0.000    0.000    0.000    0.000    0.000    0.000 
#
# Total GULP energy -89387.352688 kJ/mol
# GULP energy per Si atom -5586.709543 kJ/mol
# Density = 2.350923 g / cm^3
# Si number density = 23.562855 Si / 1000 Ang^3
#
#
#
# Elastic Constant Matrix: (Units=GPa)
#
#
# Indices 1 2 3 4 5 6 
#
# 1 44.5679 25.9122 21.3756 3.3066 5.4103 17.4215
# 2 25.9122 173.8711 76.2412 22.1329 -1.7100 17.3687
# 3 21.3756 76.2412 165.4980 -22.0997 -4.1228 7.2699
# 4 3.3066 22.1329 -22.0997 49.1003 6.2896 10.6258
# 5 5.4103 -1.7100 -4.1228 6.2896 29.7061 2.1834
# 6 17.4215 17.3687 7.2699 10.6258 2.1834 32.9758
#
#
#
# Elastic Compliance Matrix: (Units=1/GPa)
#
#
# Indices 1 2 3 4 5 6 
#
# 1 0.031312 -0.002585 -0.002050 0.002090 -0.005473 -0.015040
# 2 -0.002585 0.008955 -0.004528 -0.005999 0.001667 -0.000530
# 3 -0.002050 -0.004528 0.009293 0.006499 0.000076 -0.000680
# 4 0.002090 -0.005999 0.006499 0.028286 -0.005214 -0.008146
# 5 -0.005473 0.001667 0.000076 -0.005214 0.035774 0.001308
# 6 -0.015040 -0.000530 -0.000680 -0.008146 0.001308 0.041239
#
#
# Mechanical properties :
#
#
# Convention : Reuss Voigt Hill
#
# Bulk Modulus (GPa) = 32.01605 70.11058 51.06331
# Shear Modulus (GPa) = 27.23365 39.71697 33.47531
#
# Velocity S-wave (km/s) = 3.40338 4.11003 3.77328
# Velocity P-wave (km/s) = 5.39082 7.23481 6.37979
#
# Compressibility (1/GPa) = 0.03123434
#
# Stress axis : x y z
#
# Youngs Moduli (GPa) = 31.93622 111.66827 107.61203
#
# Poissons Ratio (x) = 0.28866 0.22061
# Poissons Ratio (y) = 0.08256 0.48725
# Poissons Ratio (z) = 0.06547 0.50562
#
# Static dielectric constant tensor:
#      x y z
#    x 2.135970 -0.043410 0.107560 
#    y -0.043410 1.937540 -0.028960 
#    z 0.107560 -0.028960 1.914410 
# 
# From -- ./inp_files/205722.got.cif
#   From: 2010.05.17/outbox.cif.g08.bks.cpg/sg2_103_cif.got.tgz:205722.got - 2010.06.03 11:33:40.
