data_PCOD9012970
_publ_section_title
;
Structure prediction by ZEFSAII (Michael W. Deem and Ramdas Pophale) SiO2 
 PCOD9012970
Probable space group: P -1
;
_chemical_formula_sum "Si O2"
_cell_formula_units_Z 16
_cell_length_a 6.967238
_cell_length_b 12.352319
_cell_length_c 9.609950
_cell_angle_alpha 103.081455
_cell_angle_beta 78.320235
_cell_angle_gamma 72.534750
_cell_volume 735.193057
_symmetry_space_group_name_H-M "P -1"
_symmetry_group_IT_number 2
_symmetry_cell_setting 'triclinic'
loop_
_space_group_symop_operation_xyz
x,y,z
-x,-y,-z
loop_
_atom_site_type_symbol
_atom_site_label
_atom_site_fract_x
_atom_site_fract_y
_atom_site_fract_z
Si Si1 0.007846 0.629319 0.073087
Si Si2 0.414021 0.598412 0.194768
Si Si3 0.948654 0.688432 0.790645
Si Si4 0.135240 0.730443 0.520295
Si Si5 0.765303 0.815145 0.381541
Si Si6 0.313473 0.926548 0.616134
Si Si7 0.472947 0.113998 0.128678
Si Si8 0.441896 0.353897 0.092815
O O1 0.823877 0.719687 0.221242
O O2 0.209534 0.614016 0.134138
O O3 0.013990 0.690512 0.941164
O O4 0.000000 0.500000 0.000000
O O5 0.328611 0.666123 0.368816
O O6 0.548362 0.639375 0.074291
O O7 0.518254 0.457033 0.166569
O O8 0.122266 0.654905 0.636402
O O9 0.778619 0.815880 0.805187
O O10 0.794016 0.613274 0.800389
O O11 0.166284 0.850060 0.601508
O O12 0.923178 0.757551 0.468975
O O13 0.520753 0.862612 0.472595
O O14 0.801621 0.936062 0.368338
O O15 0.409711 0.921456 0.753763
O O16 0.548163 0.216141 0.080118
O O17 0.500000 0.000000 0.000000
#
# Coordination Sequence:
#
# PCOD9012970 Si02
#       8
#     2   2   2   2   2   2   2   2
#     4  11  21  40  64  94 121 170 212 261 316 380
#     4  10  22  40  66  90 126 166 218 262 312 378
#     4  10  22  39  61  91 133 153 212 261 317 372
#     4  11  24  42  62  99 127 163 211 266 317 377
#     4  10  23  43  65  92 129 168 214 261 316 380
#     4  11  23  40  68  90 130 171 209 259 325 376
#     4  10  21  41  62  92 126 169 206 259 321 377
#     4   9  21  40  63  88 126 167 214 255 315 377
#
# _framework density 21.762993000000002
#
# number of rings (size 3 to 8) (size 9 to 14) (size 15 to 20)
#    0.750    1.000    2.500    1.125    3.500    1.500 
#    6.750    1.875    0.000    0.000    0.000    0.000 
#    0.000    0.000    0.000    0.000    0.000    0.000 
#
# Total GULP energy -89188.749815 kJ/mol
# GULP energy per Si atom -5574.296863 kJ/mol
# Density = 2.171346 g / cm^3
# Si number density = 21.762993 Si / 1000 Ang^3
#
#
#
# Elastic Constant Matrix: (Units=GPa)
#
#
# Indices 1 2 3 4 5 6 
#
# 1 35.4796 -0.4331 18.4977 2.8026 10.5652 5.1299
# 2 -0.4331 81.9125 61.1638 -2.8218 0.7097 7.9352
# 3 18.4977 61.1638 166.3376 -5.2927 4.1307 7.1649
# 4 2.8026 -2.8218 -5.2927 38.1883 3.1272 -2.5187
# 5 10.5652 0.7097 4.1307 3.1272 35.6808 -3.6790
# 6 5.1299 7.9352 7.1649 -2.5187 -3.6790 29.2295
#
#
#
# Elastic Compliance Matrix: (Units=1/GPa)
#
#
# Indices 1 2 3 4 5 6 
#
# 1 0.035437 0.004829 -0.005201 -0.002615 -0.010563 -0.007810
# 2 0.004829 0.017768 -0.006860 -0.000153 -0.001407 -0.004180
# 3 -0.005201 -0.006860 0.009103 0.001135 0.000597 0.000717
# 4 -0.002615 -0.000153 0.001135 0.026798 -0.001461 0.002348
# 5 -0.010563 -0.001407 0.000597 -0.001461 0.031857 0.005973
# 6 -0.007810 -0.004180 0.000717 0.002348 0.005973 0.037496
#
#
# Mechanical properties :
#
#
# Convention : Reuss Voigt Hill
#
# Bulk Modulus (GPa) = 20.90139 49.13182 35.01660
# Shear Modulus (GPa) = 26.47293 34.25314 30.36303
#
# Velocity S-wave (km/s) = 3.49150 3.97157 3.73925
# Velocity P-wave (km/s) = 5.08715 6.60727 5.89640
#
# Compressibility (1/GPa) = 0.04784371
#
# Stress axis : x y z
#
# Youngs Moduli (GPa) = 28.21909 56.28044 109.85050
#
# Poissons Ratio (x) = -0.27177 0.57132
# Poissons Ratio (y) = -0.13627 0.75362
# Poissons Ratio (z) = 0.14676 0.38611
#
# Static dielectric constant tensor:
#      x y z
#    x 1.881120 -0.002820 -0.050160 
#    y -0.002820 1.800730 -0.013200 
#    z -0.050160 -0.013200 1.802670 
# 
# From -- ./inp_files/188360.got.cif
#   From: 2010.05.17/outbox.cif.g08.bks.cpg/sg2_95_cif.got.tgz:188360.got - 2010.06.03 11:33:40.
