data_PCOD9012861
_publ_section_title
;
Structure prediction by ZEFSAII (Michael W. Deem and Ramdas Pophale) SiO2 
 PCOD9012861
Probable space group: P -1
;
_chemical_formula_sum "Si O2"
_cell_formula_units_Z 16
_cell_length_a 5.336055
_cell_length_b 9.409353
_cell_length_c 14.131643
_cell_angle_alpha 102.709357
_cell_angle_beta 105.895741
_cell_angle_gamma 99.636441
_cell_volume 645.787569
_symmetry_space_group_name_H-M "P -1"
_symmetry_group_IT_number 2
_symmetry_cell_setting 'triclinic'
loop_
_space_group_symop_operation_xyz
x,y,z
-x,-y,-z
loop_
_atom_site_type_symbol
_atom_site_label
_atom_site_fract_x
_atom_site_fract_y
_atom_site_fract_z
Si Si1 0.542090 0.828138 0.076550
Si Si2 0.133010 0.886791 0.903141
Si Si3 0.465830 0.486040 0.381319
Si Si4 0.195840 0.659001 0.155886
Si Si5 0.760381 0.653184 0.944608
Si Si6 0.354696 0.783612 0.369404
Si Si7 0.207351 0.916913 0.557616
Si Si8 0.859315 0.296772 0.304593
O O1 0.462024 0.778241 0.165457
O O2 0.519628 0.680753 0.987427
O O3 0.825007 0.946457 0.109155
O O4 0.321568 0.902227 0.017442
O O5 0.225980 0.792940 0.814839
O O6 0.855039 0.789590 0.900904
O O7 0.500000 0.500000 0.500000
O O8 0.521041 0.655299 0.371208
O O9 0.655437 0.390858 0.337839
O O10 0.150980 0.403170 0.328082
O O11 0.127842 0.716583 0.258318
O O12 0.979691 0.654442 0.050457
O O13 0.265201 0.498263 0.137313
O O14 0.254361 0.798920 0.466865
O O15 0.522578 0.950244 0.384112
O O16 0.118944 0.826930 0.631538
O O17 0.000000 0.000000 0.500000
#
# Coordination Sequence:
#
# PCOD9012861 Si02
#       8
#     2   2   2   2   2   2   2   2
#     4  10  21  41  62  92 133 172 219 276 339 399
#     4  10  23  39  64  97 128 174 224 273 337 404
#     4  12  26  49  72 104 141 184 236 294 350 413
#     4  10  22  39  62  95 127 171 223 268 343 402
#     4  10  21  41  61  94 131 170 216 282 329 406
#     4  11  25  43  70 101 138 184 232 290 350 419
#     4  11  26  47  68 101 140 182 233 291 351 419
#     4  12  27  46  75 105 141 186 237 288 349 420
#
# _framework density 24.775946000000001
#
# number of rings (size 3 to 8) (size 9 to 14) (size 15 to 20)
#    0.000    1.250    1.250    3.375    7.000    2.000 
#    0.000    0.000    0.000    0.000    0.000    0.000 
#    0.000    0.000    0.000    0.000    0.000    0.000 
#
# Total GULP energy -89454.063587 kJ/mol
# GULP energy per Si atom -5590.878974 kJ/mol
# Density = 2.471956 g / cm^3
# Si number density = 24.775946 Si / 1000 Ang^3
#
#
#
# Elastic Constant Matrix: (Units=GPa)
#
#
# Indices 1 2 3 4 5 6 
#
# 1 77.2498 21.6190 19.4667 3.8311 -16.1098 -8.2990
# 2 21.6190 115.0443 26.2357 -0.3841 -5.5340 0.1071
# 3 19.4667 26.2357 149.4698 15.4694 -24.2719 -0.9757
# 4 3.8311 -0.3841 15.4694 35.2621 -2.4436 -10.4418
# 5 -16.1098 -5.5340 -24.2719 -2.4436 29.5546 5.2725
# 6 -8.2990 0.1071 -0.9757 -10.4418 5.2725 36.8962
#
#
#
# Elastic Compliance Matrix: (Units=1/GPa)
#
#
# Indices 1 2 3 4 5 6 
#
# 1 0.015513 -0.002489 -0.000354 -0.000359 0.007251 0.002349
# 2 -0.002489 0.009483 -0.001558 0.000929 -0.000737 -0.000260
# 3 -0.000354 -0.001558 0.008438 -0.003779 0.006462 -0.001845
# 4 -0.000359 0.000929 -0.003779 0.032695 -0.002093 0.009369
# 5 0.007251 -0.000737 0.006462 -0.002093 0.043681 -0.005031
# 6 0.002349 -0.000260 -0.001845 0.009369 -0.005031 0.030954
#
#
# Mechanical properties :
#
#
# Convention : Reuss Voigt Hill
#
# Bulk Modulus (GPa) = 40.59570 52.93409 46.76489
# Shear Modulus (GPa) = 31.69028 38.63873 35.16451
#
# Velocity S-wave (km/s) = 3.58030 3.95337 3.77145
# Velocity P-wave (km/s) = 5.78896 6.50002 6.15477
#
# Compressibility (1/GPa) = 0.02463315
#
# Stress axis : x y z
#
# Youngs Moduli (GPa) = 64.46203 105.44933 118.50812
#
# Poissons Ratio (x) = 0.26248 0.04190
# Poissons Ratio (y) = 0.16046 0.18463
# Poissons Ratio (z) = 0.02279 0.16428
#
# Static dielectric constant tensor:
#      x y z
#    x 1.997930 -0.007170 0.043310 
#    y -0.007170 1.987190 0.021710 
#    z 0.043310 0.021710 1.943360 
# 
# From -- ./inp_files/38519.got.cif
#   From: 2010.05.17/outbox.cif.g08.bks.cpg/sg2_20_cif.got.tgz:38519.got - 2010.06.03 11:33:40.
