data_PCOD9012208
_publ_section_title
;
Structure prediction by ZEFSAII (Michael W. Deem and Ramdas Pophale) SiO2 
 PCOD9012208
Probable space group: P -1
;
_chemical_formula_sum "Si O2"
_cell_formula_units_Z 16
_cell_length_a 5.190742
_cell_length_b 20.789932
_cell_length_c 8.567908
_cell_angle_alpha 133.383431
_cell_angle_beta 86.809821
_cell_angle_gamma 77.838568
_cell_volume 630.238082
_symmetry_space_group_name_H-M "P -1"
_symmetry_group_IT_number 2
_symmetry_cell_setting 'triclinic'
loop_
_space_group_symop_operation_xyz
x,y,z
-x,-y,-z
loop_
_atom_site_type_symbol
_atom_site_label
_atom_site_fract_x
_atom_site_fract_y
_atom_site_fract_z
Si Si1 0.304925 0.108630 0.654587
Si Si2 0.129016 0.580565 0.601781
Si Si3 0.353431 0.390378 0.795600
Si Si4 0.716598 0.160400 0.923161
Si Si5 0.141876 0.721194 0.625899
Si Si6 0.732653 0.798883 0.520953
Si Si7 0.631412 0.461607 0.177613
Si Si8 0.301935 0.942149 0.943322
O O1 0.243749 0.143938 0.537107
O O2 0.012574 0.126034 0.774026
O O3 0.500000 0.000000 0.500000
O O4 0.528193 0.828083 0.170007
O O5 0.974625 0.662828 0.624489
O O6 0.414924 0.535626 0.422814
O O7 0.175574 0.610804 0.825857
O O8 0.000000 0.500000 0.500000
O O9 0.634286 0.338490 0.603694
O O10 0.212143 0.312198 0.692816
O O11 0.220924 0.483123 0.845851
O O12 0.454334 0.420177 0.003422
O O13 0.715887 0.244765 0.178700
O O14 0.695283 0.083351 0.919061
O O15 0.921718 0.801142 0.666319
O O16 0.426147 0.848774 0.678717
O O17 0.500000 0.000000 0.000000
O O18 0.000000 0.000000 0.000000
#
# Coordination Sequence:
#
# PCOD9012208 Si02
#       8
#     2   2   2   2   2   2   2   2
#     4  12  29  48  73 105 150 193 248 317 385 451
#     4  10  21  40  68  99 145 188 247 295 381 440
#     4  10  22  42  67  99 146 184 247 303 375 447
#     4  12  26  48  71 109 145 190 247 311 376 447
#     4  11  25  42  70 105 142 193 253 309 373 455
#     4  12  26  44  72 105 144 194 252 310 382 452
#     4   9  21  40  66 102 138 192 233 305 368 447
#     4  12  25  46  78 105 142 194 249 306 378 456
#
# _framework density 25.387229999999999
#
# number of rings (size 3 to 8) (size 9 to 14) (size 15 to 20)
#    0.000    1.000    1.250    4.875    3.500    2.000 
#    0.000    3.750    0.000    0.000    0.000    0.000 
#    0.000    0.000    0.000    0.000    0.000    0.000 
#
# Total GULP energy -89579.772274 kJ/mol
# GULP energy per Si atom -5598.735767 kJ/mol
# Density = 2.532945 g / cm^3
# Si number density = 25.387230 Si / 1000 Ang^3
#
#
#
# Elastic Constant Matrix: (Units=GPa)
#
#
# Indices 1 2 3 4 5 6 
#
# 1 101.4804 42.9503 22.4583 -15.6953 -1.5495 14.9245
# 2 42.9503 173.8837 45.9880 -29.6175 8.7181 4.1666
# 3 22.4583 45.9880 100.3463 -20.4137 12.1416 -2.2018
# 4 -15.6953 -29.6175 -20.4137 45.3683 7.9808 4.4354
# 5 -1.5495 8.7181 12.1416 7.9808 44.6713 -1.7843
# 6 14.9245 4.1666 -2.2018 4.4354 -1.7843 41.7600
#
#
#
# Elastic Compliance Matrix: (Units=1/GPa)
#
#
# Indices 1 2 3 4 5 6 
#
# 1 0.012108 -0.002117 -0.001398 0.002507 0.000588 -0.004431
# 2 -0.002117 0.007527 -0.002056 0.003601 -0.001649 -0.000556
# 3 -0.001398 -0.002056 0.012607 0.004450 -0.003840 0.000733
# 4 0.002507 0.003601 0.004450 0.028955 -0.007174 -0.004403
# 5 0.000588 -0.001649 -0.003840 -0.007174 0.025117 0.001587
# 6 -0.004431 -0.000556 0.000733 -0.004403 0.001587 0.026159
#
#
# Mechanical properties :
#
#
# Convention : Reuss Voigt Hill
#
# Bulk Modulus (GPa) = 47.39440 66.50041 56.94741
# Shear Modulus (GPa) = 38.27089 43.98083 41.12586
#
# Velocity S-wave (km/s) = 3.88685 4.16673 4.02922
# Velocity P-wave (km/s) = 6.23318 7.02852 6.64277
#
# Compressibility (1/GPa) = 0.02109954
#
# Stress axis : x y z
#
# Youngs Moduli (GPa) = 82.58996 132.85559 79.32391
#
# Poissons Ratio (x) = 0.28129 0.11088
# Poissons Ratio (y) = 0.17487 0.16308
# Poissons Ratio (z) = 0.11545 0.27313
#
# Static dielectric constant tensor:
#      x y z
#    x 1.991810 0.003810 0.048270 
#    y 0.003810 2.140640 0.171760 
#    z 0.048270 0.171760 2.149720 
# 
# From -- ./inp_files/141587.got.cif
#   From: 2010.05.17/outbox.cif.g08.bks.cpg/sg2_71_cif.got.tgz:141587.got - 2010.06.03 11:33:40.
