data_PCOD9012737
_publ_section_title
;
Structure prediction by ZEFSAII (Michael W. Deem and Ramdas Pophale) SiO2 
 PCOD9012737
Probable space group: P -1
;
_chemical_formula_sum "Si O2"
_cell_formula_units_Z 16
_cell_length_a 5.203505
_cell_length_b 16.460694
_cell_length_c 12.903822
_cell_angle_alpha 44.606636
_cell_angle_beta 129.158885
_cell_angle_gamma 116.133845
_cell_volume 601.740353
_symmetry_space_group_name_H-M "P -1"
_symmetry_group_IT_number 2
_symmetry_cell_setting 'triclinic'
loop_
_space_group_symop_operation_xyz
x,y,z
-x,-y,-z
loop_
_atom_site_type_symbol
_atom_site_label
_atom_site_fract_x
_atom_site_fract_y
_atom_site_fract_z
Si Si1 0.159176 0.184554 0.067691
Si Si2 0.615732 0.349868 0.075340
Si Si3 0.265749 0.116395 0.934255
Si Si4 0.838328 0.954534 0.250166
Si Si5 0.238485 0.920353 0.565378
Si Si6 0.651416 0.647743 0.322538
Si Si7 0.338896 0.373480 0.197502
Si Si8 0.433498 0.606147 0.534056
O O1 0.238217 0.320350 0.966337
O O2 0.547324 0.157527 0.229043
O O3 0.985263 0.083998 0.177930
O O4 0.086963 0.150381 0.962931
O O5 0.584356 0.327316 0.212523
O O6 0.974357 0.318705 0.142412
O O7 0.647107 0.489156 0.941721
O O8 0.488197 0.231476 0.867893
O O9 0.090681 0.100610 0.793665
O O10 0.455442 0.994944 0.115622
O O11 0.991488 0.879192 0.448959
O O12 0.500000 0.000000 0.500000
O O13 0.000000 0.000000 0.500000
O O14 0.586504 0.652256 0.424623
O O15 0.511013 0.532762 0.339110
O O16 0.042700 0.637066 0.408984
O O17 0.432222 0.352480 0.359567
#
# Coordination Sequence:
#
# PCOD9012737 Si02
#       8
#     2   2   2   2   2   2   2   2
#     4  11  23  41  68  92 128 174 216 270 323 396
#     4  10  23  37  65  94 125 164 219 257 329 381
#     4  11  23  42  66  95 131 175 219 274 327 385
#     4  10  24  42  64  96 133 169 224 273 322 389
#     4  10  21  41  62  89 124 164 206 265 317 374
#     4  10  23  39  64  96 124 175 215 265 325 394
#     4  10  21  41  59  94 130 167 206 277 316 387
#     4  10  21  42  63  92 135 165 218 268 327 390
#
# _framework density 26.58954
#
# number of rings (size 3 to 8) (size 9 to 14) (size 15 to 20)
#    0.000    1.750    1.250    1.875    3.500    2.000 
#    4.500    1.250    0.000    0.000    0.000    0.000 
#    0.000    0.000    0.000    0.000    0.000    0.000 
#
# Total GULP energy -89261.245245 kJ/mol
# GULP energy per Si atom -5578.827828 kJ/mol
# Density = 2.652902 g / cm^3
# Si number density = 26.589540 Si / 1000 Ang^3
#
#
#
# Elastic Constant Matrix: (Units=GPa)
#
#
# Indices 1 2 3 4 5 6 
#
# 1 104.1227 5.8271 10.0980 2.7365 -36.1310 -9.1601
# 2 5.8271 92.8132 11.8475 13.5944 -12.2536 15.8145
# 3 10.0980 11.8475 80.5642 10.8998 -6.1465 -19.8680
# 4 2.7365 13.5944 10.8998 40.9187 -3.1081 -11.3968
# 5 -36.1310 -12.2536 -6.1465 -3.1081 30.2043 -4.5861
# 6 -9.1601 15.8145 -19.8680 -11.3968 -4.5861 43.7402
#
#
#
# Elastic Compliance Matrix: (Units=1/GPa)
#
#
# Indices 1 2 3 4 5 6 
#
# 1 0.018174 0.000283 0.000927 0.002209 0.023356 0.007149
# 2 0.000283 0.013629 -0.002788 -0.005532 0.003638 -0.007195
# 3 0.000927 -0.002788 0.015177 -0.000509 0.004291 0.008413
# 4 0.002209 -0.005532 -0.000509 0.029548 0.004922 0.010446
# 5 0.023356 0.003638 0.004291 0.004922 0.065987 0.013726
# 6 0.007149 -0.007195 0.008413 0.010446 0.013726 0.034943
#
#
# Mechanical properties :
#
#
# Convention : Reuss Voigt Hill
#
# Bulk Modulus (GPa) = 22.81929 37.00503 29.91216
# Shear Modulus (GPa) = 25.61174 39.62113 32.61643
#
# Velocity S-wave (km/s) = 3.10696 3.86437 3.50618
# Velocity P-wave (km/s) = 4.63374 5.81881 5.25976
#
# Compressibility (1/GPa) = 0.04382258
#
# Stress axis : x y z
#
# Youngs Moduli (GPa) = 55.02395 73.37328 65.88754
#
# Poissons Ratio (x) = -0.02073 -0.06105
# Poissons Ratio (y) = -0.01555 0.18369
# Poissons Ratio (z) = -0.05099 0.20456
#
# Static dielectric constant tensor:
#      x y z
#    x -3.464800 -9.334920 -0.788320 
#    y -9.334920 -13.470370 -1.525260 
#    z -0.788320 -1.525260 2.012350 
# 
# From -- ./inp_files/369405.got.cif
#   From: 2010.05.17/outbox.cif.g08.bks.cpg/sg2_185_cif.got.tgz:369405.got - 2010.06.03 11:33:40.
