data_PCOD9012828
_publ_section_title
;
Structure prediction by ZEFSAII (Michael W. Deem and Ramdas Pophale) SiO2 
 PCOD9012828
Probable space group: P -1
;
_chemical_formula_sum "Si O2"
_cell_formula_units_Z 12
_cell_length_a 23.108797
_cell_length_b 7.148697
_cell_length_c 8.189414
_cell_angle_alpha 142.674678
_cell_angle_beta 39.785960
_cell_angle_gamma 123.776301
_cell_volume 519.605206
_symmetry_space_group_name_H-M "P -1"
_symmetry_group_IT_number 2
_symmetry_cell_setting 'triclinic'
loop_
_space_group_symop_operation_xyz
x,y,z
-x,-y,-z
loop_
_atom_site_type_symbol
_atom_site_label
_atom_site_fract_x
_atom_site_fract_y
_atom_site_fract_z
Si Si1 0.757581 0.296676 0.906225
Si Si2 0.418047 0.761132 0.305081
Si Si3 0.921234 0.300218 0.996299
Si Si4 0.261673 0.384330 0.492999
Si Si5 0.412237 0.472238 0.783989
Si Si6 0.038849 0.788073 0.536198
O O1 0.865824 0.175031 0.552976
O O2 0.714682 0.985494 0.833899
O O3 0.759513 0.542021 0.219567
O O4 0.686612 0.461240 0.042412
O O5 0.332306 0.616597 0.458764
O O6 0.423229 0.118909 0.585836
O O7 0.500000 0.500000 0.000000
O O8 0.413516 0.732381 0.099941
O O9 0.824074 0.506016 0.361290
O O10 0.930964 0.215146 0.723443
O O11 0.000000 0.500000 0.000000
O O12 0.946380 0.034522 0.891021
O O13 0.500000 0.500000 0.500000
O O14 0.000000 0.500000 0.500000
#
# Coordination Sequence:
#
# PCOD9012828 Si02
#       6
#     2   2   2   2   2   2
#     4  11  23  43  63  94 128 168 208 269 321 367
#     4  12  25  43  68  96 124 170 210 257 324 385
#     4  10  21  41  61  91 128 174 213 268 321 369
#     4  11  23  42  66  90 131 166 214 262 317 383
#     4  12  25  43  67  96 130 162 211 264 317 385
#     4  10  23  39  63  91 130 171 219 265 319 385
#
# _framework density 23.094459000000001
#
# number of rings (size 3 to 8) (size 9 to 14) (size 15 to 20)
#    0.000    1.000    1.667    5.000    2.333    2.000 
#    0.000    0.000    0.000    0.000    0.000    0.000 
#    0.000    0.000    0.000    0.000    0.000    0.000 
#
# Total GULP energy -66947.811080 kJ/mol
# GULP energy per Si atom -5578.984257 kJ/mol
# Density = 2.304189 g / cm^3
# Si number density = 23.094459 Si / 1000 Ang^3
#
#
#
# Elastic Constant Matrix: (Units=GPa)
#
#
# Indices 1 2 3 4 5 6 
#
# 1 101.6799 -7.2794 22.4573 0.7698 -27.4659 -3.2786
# 2 -7.2794 104.3506 8.9171 31.1649 -15.9032 9.7317
# 3 22.4573 8.9171 51.6413 26.1838 -14.9465 -10.8864
# 4 0.7698 31.1649 26.1838 45.2848 -4.8198 -1.0455
# 5 -27.4659 -15.9032 -14.9465 -4.8198 54.2393 8.8918
# 6 -3.2786 9.7317 -10.8864 -1.0455 8.8918 31.2690
#
#
#
# Elastic Compliance Matrix: (Units=1/GPa)
#
#
# Indices 1 2 3 4 5 6 
#
# 1 0.012841 0.001841 -0.006101 0.002621 0.006085 -0.002993
# 2 0.001841 0.014071 0.002845 -0.010871 0.005727 -0.005188
# 3 -0.006101 0.002845 0.035706 -0.021848 0.004169 0.008990
# 4 0.002621 -0.010871 -0.021848 0.041699 -0.003940 -0.001434
# 5 0.006085 0.005727 0.004169 -0.003940 0.025139 -0.006973
# 6 -0.002993 -0.005188 0.008990 -0.001434 -0.006973 0.038346
#
#
# Mechanical properties :
#
#
# Convention : Reuss Voigt Hill
#
# Bulk Modulus (GPa) = 16.72552 33.98464 25.35508
# Shear Modulus (GPa) = 26.23819 41.73041 33.98430
#
# Velocity S-wave (km/s) = 3.37430 4.25543 3.84022
# Velocity P-wave (km/s) = 4.73700 6.23637 5.53767
#
# Compressibility (1/GPa) = 0.05978887
#
# Stress axis : x y z
#
# Youngs Moduli (GPa) = 77.87363 71.06565 28.00680
#
# Poissons Ratio (x) = -0.13082 0.17087
# Poissons Ratio (y) = -0.14335 -0.07969
# Poissons Ratio (z) = 0.47510 -0.20221
#
# Static dielectric constant tensor:
#      x y z
#    x 1.834010 0.007360 -0.004350 
#    y 0.007360 1.744280 -0.157600 
#    z -0.004350 -0.157600 1.701790 
# 
# From -- ./inp_files/3030.got.cif
#   From: 2010.05.17/outbox.cif.g08.bks.cpg/sg2_2_cif.got.tgz:3030.got - 2010.06.03 11:33:40.
