data_PCOD9012836
_publ_section_title
;
Structure prediction by ZEFSAII (Michael W. Deem and Ramdas Pophale) SiO2 
 PCOD9012836
Probable space group: P -1
;
_chemical_formula_sum "Si O2"
_cell_formula_units_Z 16
_cell_length_a 7.668214
_cell_length_b 5.469445
_cell_length_c 18.973928
_cell_angle_alpha 96.361949
_cell_angle_beta 104.037479
_cell_angle_gamma 88.179119
_cell_volume 767.254679
_symmetry_space_group_name_H-M "P -1"
_symmetry_group_IT_number 2
_symmetry_cell_setting 'triclinic'
loop_
_space_group_symop_operation_xyz
x,y,z
-x,-y,-z
loop_
_atom_site_type_symbol
_atom_site_label
_atom_site_fract_x
_atom_site_fract_y
_atom_site_fract_z
Si Si1 0.278922 0.953548 0.824795
Si Si2 0.501629 0.451607 0.840733
Si Si3 0.279422 0.594760 0.283234
Si Si4 0.511738 0.316021 0.559428
Si Si5 0.139682 0.523567 0.079120
Si Si6 0.925398 0.882018 0.696668
Si Si7 0.828753 0.941067 0.530009
Si Si8 0.000277 0.969128 0.914672
O O1 0.393924 0.704048 0.828993
O O2 0.187871 0.965654 0.893490
O O3 0.123303 0.925694 0.749595
O O4 0.385455 0.206775 0.831564
O O5 0.621909 0.421423 0.781850
O O6 0.650318 0.480845 0.918372
O O7 0.434353 0.577026 0.357271
O O8 0.153345 0.361773 0.281277
O O9 0.182032 0.861811 0.289921
O O10 0.500000 0.500000 0.500000
O O11 0.310670 0.209929 0.536836
O O12 0.682655 0.144218 0.549398
O O13 0.095407 0.289282 0.115097
O O14 0.098732 0.789807 0.115799
O O15 0.000000 0.500000 0.000000
O O16 0.905638 0.836582 0.608709
O O17 0.000000 0.000000 0.500000
O O18 0.000000 0.000000 0.000000
#
# Coordination Sequence:
#
# PCOD9012836 Si02
#       8
#     2   2   2   2   2   2   2   2
#     4  12  25  41  64  99 133 156 218 272 315 382
#     4  12  25  41  65  99 129 163 210 276 322 363
#     4  11  23  42  67  88 128 177 216 260 323 394
#     4  10  21  41  61  92 129 172 226 269 330 395
#     4  10  21  42  67  90 122 171 208 241 320 390
#     4  11  23  43  64  92 125 179 216 255 328 394
#     4  10  23  39  63  92 131 173 222 277 329 386
#     4  10  21  42  67  90 124 172 205 247 315 390
#
# _framework density 20.853570999999999
#
# number of rings (size 3 to 8) (size 9 to 14) (size 15 to 20)
#    0.000    1.250    1.250    4.500    1.750    1.500 
#    0.000   15.000    0.000    0.000    0.000    0.000 
#    0.000    0.000    0.000    0.000    0.000    0.000 
#
# Total GULP energy -89188.055374 kJ/mol
# GULP energy per Si atom -5574.253461 kJ/mol
# Density = 2.080611 g / cm^3
# Si number density = 20.853571 Si / 1000 Ang^3
#
#
#
# Elastic Constant Matrix: (Units=GPa)
#
#
# Indices 1 2 3 4 5 6 
#
# 1 165.5050 87.5151 28.6024 78.8479 21.8085 36.4099
# 2 87.5151 201.5577 -14.8461 90.7731 16.6979 35.1649
# 3 28.6024 -14.8461 120.5307 -22.5465 12.5489 -5.5443
# 4 78.8479 90.7731 -22.5465 166.1081 28.6371 57.4989
# 5 21.8085 16.6979 12.5489 28.6371 45.5891 2.1947
# 6 36.4099 35.1649 -5.5443 57.4989 2.1947 62.4422
#
#
#
# Elastic Compliance Matrix: (Units=1/GPa)
#
#
# Indices 1 2 3 4 5 6 
#
# 1 0.010017 -0.002929 -0.003238 -0.002764 -0.001000 -0.001898
# 2 -0.002929 0.007460 0.001155 -0.002478 -0.000088 -0.000106
# 3 -0.003238 0.001155 0.010134 0.003106 -0.003586 -0.000597
# 4 -0.002764 -0.002478 0.003106 0.013235 -0.006521 -0.008675
# 5 -0.001000 -0.000088 -0.003586 -0.006521 0.027271 0.005361
# 6 -0.001898 -0.000106 -0.000597 -0.008675 0.005361 0.024928
#
#
# Mechanical properties :
#
#
# Convention : Reuss Voigt Hill
#
# Bulk Modulus (GPa) = 56.86287 76.68180 66.77234
# Shear Modulus (GPa) = 45.90035 80.58268 63.24152
#
# Velocity S-wave (km/s) = 4.69666 6.22302 5.51292
# Velocity P-wave (km/s) = 7.53248 9.40670 8.52128
#
# Compressibility (1/GPa) = 0.01758617
#
# Stress axis : x y z
#
# Youngs Moduli (GPa) = 99.83402 134.05409 98.67520
#
# Poissons Ratio (x) = 0.39261 0.31951
# Poissons Ratio (y) = 0.29239 -0.11393
# Poissons Ratio (z) = 0.32326 -0.15478
#
# Static dielectric constant tensor:
#      x y z
#    x 1.716430 -0.069240 0.090490 
#    y -0.069240 1.741000 0.087630 
#    z 0.090490 0.087630 1.638350 
# 
# From -- ./inp_files/10759.got.cif
#   From: 2010.05.17/outbox.cif.g08.bks.cpg/sg2_6_cif.got.tgz:10759.got - 2010.06.03 11:33:40.
