data_PCOD9012685
_publ_section_title
;
Structure prediction by ZEFSAII (Michael W. Deem and Ramdas Pophale) SiO2 
 PCOD9012685
Probable space group: P -1
;
_chemical_formula_sum "Si O2"
_cell_formula_units_Z 14
_cell_length_a 8.465773
_cell_length_b 9.036936
_cell_length_c 13.408448
_cell_angle_alpha 149.033738
_cell_angle_beta 106.157198
_cell_angle_gamma 82.427977
_cell_volume 494.976910
_symmetry_space_group_name_H-M "P -1"
_symmetry_group_IT_number 2
_symmetry_cell_setting 'triclinic'
loop_
_space_group_symop_operation_xyz
x,y,z
-x,-y,-z
loop_
_atom_site_type_symbol
_atom_site_label
_atom_site_fract_x
_atom_site_fract_y
_atom_site_fract_z
Si Si1 0.534794 0.438883 0.332788
Si Si2 0.640592 0.206379 0.011676
Si Si3 0.960632 0.168145 0.945697
Si Si4 0.845916 0.291003 0.792668
Si Si5 0.132795 0.469487 0.423030
Si Si6 0.121641 0.975854 0.559768
Si Si7 0.492387 0.097355 0.709406
O O1 0.400210 0.138918 0.162648
O O2 0.683697 0.466553 0.456972
O O3 0.475348 0.745194 0.499175
O O4 0.604325 0.382110 0.203124
O O5 0.943944 0.856764 0.817088
O O6 0.528695 0.206449 0.892358
O O7 0.864361 0.049949 0.755046
O O8 0.829193 0.320654 0.070209
O O9 0.000000 0.500000 0.000000
O O10 0.137454 0.400591 0.105144
O O11 0.946274 0.107586 0.616418
O O12 0.643535 0.236067 0.742704
O O13 0.122435 0.723652 0.488943
O O14 0.000000 0.500000 0.500000
O O15 0.307438 0.151597 0.682344
#
# Coordination Sequence:
#
# PCOD9012685 Si02
#       7
#     2   2   2   2   2   2   2
#     4  11  22  43  76 119 148 197 259 320 393 450
#     4  10  21  40  75 117 154 191 256 324 384 454
#     4  10  22  46  75 108 154 198 253 321 381 457
#     4  10  23  44  73 109 150 203 248 309 390 456
#     4  12  25  45  75 111 154 201 260 319 379 463
#     4  12  27  45  76 110 151 210 255 310 387 456
#     4  11  22  48  78 109 156 203 252 321 380 463
#
# _framework density 28.284148999999999
#
# number of rings (size 3 to 8) (size 9 to 14) (size 15 to 20)
#    0.000    1.143    4.286    2.571    2.000    0.571 
#    5.143    2.857    0.000    6.857    0.000    0.000 
#    0.000    0.000    0.000    0.000    0.000    0.000 
#
# Total GULP energy -78173.836508 kJ/mol
# GULP energy per Si atom -5583.845465 kJ/mol
# Density = 2.821977 g / cm^3
# Si number density = 28.284149 Si / 1000 Ang^3
#
#
#
# Elastic Constant Matrix: (Units=GPa)
#
#
# Indices 1 2 3 4 5 6 
#
# 1 206.9523 115.6534 74.1827 7.6562 12.6909 21.7458
# 2 115.6534 154.2218 66.5889 5.2126 13.6425 28.7947
# 3 74.1827 66.5889 174.7265 -21.8313 -9.8099 2.5809
# 4 7.6562 5.2126 -21.8313 67.7424 7.5182 -2.9385
# 5 12.6909 13.6425 -9.8099 7.5182 40.8506 -2.1726
# 6 21.7458 28.7947 2.5809 -2.9385 -2.1726 63.6156
#
#
#
# Elastic Compliance Matrix: (Units=1/GPa)
#
#
# Indices 1 2 3 4 5 6 
#
# 1 0.008731 -0.005558 -0.001772 -0.001027 -0.001118 -0.000482
# 2 -0.005558 0.012956 -0.002840 -0.001092 -0.003294 -0.004012
# 3 -0.001772 -0.002840 0.008045 0.002754 0.003020 0.001795
# 4 -0.001027 -0.001092 0.002754 0.016082 -0.001539 0.001424
# 5 -0.001118 -0.003294 0.003020 -0.001539 0.027074 0.002604
# 6 -0.000482 -0.004012 0.001795 0.001424 0.002604 0.017782
#
#
# Mechanical properties :
#
#
# Convention : Reuss Voigt Hill
#
# Bulk Modulus (GPa) = 106.48915 116.52784 111.50850
# Shear Modulus (GPa) = 43.80489 53.07344 48.43916
#
# Velocity S-wave (km/s) = 3.93968 4.33649 4.14284
# Velocity P-wave (km/s) = 7.64371 8.14628 7.89899
#
# Compressibility (1/GPa) = 0.00939063
#
# Stress axis : x y z
#
# Youngs Moduli (GPa) = 114.53530 77.18318 124.29727
#
# Poissons Ratio (x) = 0.42902 0.22032
# Poissons Ratio (y) = 0.63664 0.35299
# Poissons Ratio (z) = 0.20301 0.21919
#
# Static dielectric constant tensor:
#      x y z
#    x 2.200840 0.078340 -0.141050 
#    y 0.078340 3.241090 -0.196080 
#    z -0.141050 -0.196080 2.362260 
# 
# From -- ./inp_files/498613.got.cif
#   From: 2010.05.17/outbox.cif.g08.bks.cpg/sg2_250_cif.got.tgz:498613.got - 2010.06.03 11:33:40.
