data_PCOD9012155
_publ_section_title
;
Structure prediction by ZEFSAII (Michael W. Deem and Ramdas Pophale) SiO2 
 PCOD9012155
Probable space group: P -1
;
_chemical_formula_sum "Si O2"
_cell_formula_units_Z 14
_cell_length_a 7.816411
_cell_length_b 9.694075
_cell_length_c 12.016566
_cell_angle_alpha 44.436555
_cell_angle_beta 64.638811
_cell_angle_gamma 83.012659
_cell_volume 551.089916
_symmetry_space_group_name_H-M "P -1"
_symmetry_group_IT_number 2
_symmetry_cell_setting 'triclinic'
loop_
_space_group_symop_operation_xyz
x,y,z
-x,-y,-z
loop_
_atom_site_type_symbol
_atom_site_label
_atom_site_fract_x
_atom_site_fract_y
_atom_site_fract_z
Si Si1 0.297012 0.124327 0.516770
Si Si2 0.001644 0.667688 0.594994
Si Si3 0.592857 0.208391 0.197267
Si Si4 0.707987 0.212127 0.914452
Si Si5 0.280651 0.186928 0.967412
Si Si6 0.619362 0.418792 0.421303
Si Si7 0.122636 0.365203 0.104283
O O1 0.500000 0.500000 0.500000
O O2 0.469850 0.274653 0.458058
O O3 0.106039 0.201945 0.523528
O O4 0.275176 0.901155 0.701845
O O5 0.615340 0.860479 0.641442
O O6 0.873453 0.430056 0.748368
O O7 0.231317 0.690955 0.501391
O O8 0.974091 0.714599 0.705412
O O9 0.672715 0.454093 0.035759
O O10 0.620014 0.145938 0.100126
O O11 0.518058 0.232901 0.887415
O O12 0.788451 0.033437 0.944553
O O13 0.250168 0.377374 0.796288
O O14 0.181136 0.203271 0.103036
O O15 0.000000 0.500000 0.000000
#
# Coordination Sequence:
#
# PCOD9012155 Si02
#       7
#     2   2   2   2   2   2   2
#     4  11  22  43  66  99 137 179 222 269 331 410
#     4  11  23  43  73  97 128 183 229 267 339 396
#     4  10  21  40  68  97 138 177 217 272 336 389
#     4  10  22  40  68 103 127 176 222 277 334 394
#     4  11  21  41  66  99 139 167 220 281 332 387
#     4  12  25  43  65  94 139 175 217 283 338 394
#     4  11  20  41  69 100 130 170 223 278 323 393
#
# _framework density 25.404202999999999
#
# number of rings (size 3 to 8) (size 9 to 14) (size 15 to 20)
#    0.000    1.143    4.286    1.714    0.000    3.429 
#    2.571    9.286    0.000    0.000    0.000    0.000 
#    0.000    0.000    0.000    0.000    0.000    0.000 
#
# Total GULP energy -78524.645290 kJ/mol
# GULP energy per Si atom -5608.903235 kJ/mol
# Density = 2.534638 g / cm^3
# Si number density = 25.404203 Si / 1000 Ang^3
#
#
#
# Elastic Constant Matrix: (Units=GPa)
#
#
# Indices 1 2 3 4 5 6 
#
# 1 145.1270 38.7647 19.9522 -14.2667 10.5908 -36.0118
# 2 38.7647 198.0912 41.5637 -0.8050 -14.8552 -1.5362
# 3 19.9522 41.5637 72.6703 -10.8844 -11.4426 -1.7986
# 4 -14.2667 -0.8050 -10.8844 27.9718 0.5043 0.0212
# 5 10.5908 -14.8552 -11.4426 0.5043 18.8553 -2.3721
# 6 -36.0118 -1.5362 -1.7986 0.0212 -2.3721 37.3070
#
#
#
# Elastic Compliance Matrix: (Units=1/GPa)
#
#
# Indices 1 2 3 4 5 6 
#
# 1 0.011492 -0.002333 -0.002124 0.005112 -0.008416 0.010357
# 2 -0.002333 0.006380 -0.002654 -0.002120 0.004553 -0.001827
# 3 -0.002124 -0.002654 0.018279 0.005774 0.009959 -0.000648
# 4 0.005112 -0.002120 0.005774 0.040566 -0.001492 0.005008
# 5 -0.008416 0.004553 0.009959 -0.001492 0.067032 -0.003194
# 6 0.010357 -0.001827 -0.000648 0.005008 -0.003194 0.036490
#
#
# Mechanical properties :
#
#
# Convention : Reuss Voigt Hill
#
# Bulk Modulus (GPa) = 45.60320 68.49440 57.04880
# Shear Modulus (GPa) = 24.78034 37.86735 31.32384
#
# Velocity S-wave (km/s) = 3.12660 3.86501 3.51525
# Velocity P-wave (km/s) = 5.56993 6.85114 6.24349
#
# Compressibility (1/GPa) = 0.02192829
#
# Stress axis : x y z
#
# Youngs Moduli (GPa) = 87.01341 156.72901 54.70764
#
# Poissons Ratio (x) = 0.36571 0.11620
# Poissons Ratio (y) = 0.20303 0.14522
# Poissons Ratio (z) = 0.18482 0.41602
#
# Static dielectric constant tensor:
#      x y z
#    x 2.067520 0.021840 -0.026100 
#    y 0.021840 1.955190 -0.016650 
#    z -0.026100 -0.016650 1.981800 
# 
# From -- ./inp_files/169215.got.cif
#   From: 2010.05.17/outbox.cif.g08.bks.cpg/sg2_85_cif.got.tgz:169215.got - 2010.06.03 11:33:40.
