data_PCOD9012632
_publ_section_title
;
Structure prediction by ZEFSAII (Michael W. Deem and Ramdas Pophale) SiO2 
 PCOD9012632
Probable space group: P -1
;
_chemical_formula_sum "Si O2"
_cell_formula_units_Z 14
_cell_length_a 12.030897
_cell_length_b 9.025193
_cell_length_c 7.935839
_cell_angle_alpha 79.265354
_cell_angle_beta 71.272393
_cell_angle_gamma 128.005161
_cell_volume 551.375998
_symmetry_space_group_name_H-M "P -1"
_symmetry_group_IT_number 2
_symmetry_cell_setting 'triclinic'
loop_
_space_group_symop_operation_xyz
x,y,z
-x,-y,-z
loop_
_atom_site_type_symbol
_atom_site_label
_atom_site_fract_x
_atom_site_fract_y
_atom_site_fract_z
Si Si1 0.731190 0.389643 0.002818
Si Si2 0.384168 0.995496 0.678543
Si Si3 0.447658 0.500804 0.811669
Si Si4 0.939443 0.614200 0.515800
Si Si5 0.947975 0.160796 0.123486
Si Si6 0.345120 0.497545 0.501202
Si Si7 0.862480 0.961099 0.836781
O O1 0.815046 0.504804 0.759609
O O2 0.888529 0.576860 0.010433
O O3 0.673722 0.166258 0.106477
O O4 0.575757 0.355470 0.132151
O O5 0.211882 0.902694 0.701679
O O6 0.500000 0.000000 0.500000
O O7 0.497079 0.240396 0.630588
O O8 0.348294 0.419445 0.695817
O O9 0.623318 0.592587 0.644648
O O10 0.329819 0.282006 0.027212
O O11 0.818627 0.554665 0.435563
O O12 0.000000 0.500000 0.500000
O O13 0.088198 0.876832 0.368316
O O14 0.887484 0.063725 0.985116
O O15 0.012811 0.068981 0.204229
#
# Coordination Sequence:
#
# PCOD9012632 Si02
#       7
#     2   2   2   2   2   2   2
#     4  11  25  42  64  99 136 170 214 263 325 395
#     4  12  24  39  68 103 129 165 217 279 322 370
#     4  10  22  45  73 100 119 167 233 275 315 370
#     4  12  28  43  62  94 141 180 209 256 335 402
#     4  10  21  40  72  95 125 166 227 273 309 378
#     4  11  24  44  71  95 132 170 217 273 327 380
#     4  10  21  42  69  94 123 174 223 265 319 379
#
# _framework density 25.391022
#
# number of rings (size 3 to 8) (size 9 to 14) (size 15 to 20)
#    0.000    1.143    2.857    3.857    4.000    3.429 
#    0.000    0.000    0.000    0.000    0.000    0.000 
#    0.000    0.000    0.000    0.000    0.000    0.000 
#
# Total GULP energy -78403.277115 kJ/mol
# GULP energy per Si atom -5600.234080 kJ/mol
# Density = 2.533323 g / cm^3
# Si number density = 25.391022 Si / 1000 Ang^3
#
#
#
# Elastic Constant Matrix: (Units=GPa)
#
#
# Indices 1 2 3 4 5 6 
#
# 1 138.0058 9.4542 30.0212 7.1863 -22.4691 -40.2389
# 2 9.4542 48.2404 20.6572 -10.3609 8.2111 -25.8251
# 3 30.0212 20.6572 131.4485 -10.3664 13.7613 -36.5714
# 4 7.1863 -10.3609 -10.3664 55.8710 -10.4797 -0.8434
# 5 -22.4691 8.2111 13.7613 -10.4797 46.1636 1.1121
# 6 -40.2389 -25.8251 -36.5714 -0.8434 1.1121 39.4656
#
#
#
# Elastic Compliance Matrix: (Units=1/GPa)
#
#
# Indices 1 2 3 4 5 6 
#
# 1 0.012288 0.005585 0.000481 0.000656 0.004595 0.016513
# 2 0.005585 0.038863 0.003165 0.006763 -0.004429 0.034327
# 3 0.000481 0.003165 0.011165 0.002140 -0.003486 0.013052
# 4 0.000656 0.006763 0.002140 0.020115 0.002866 0.007426
# 5 0.004595 -0.004429 -0.003486 0.002866 0.026427 -0.002127
# 6 0.016513 0.034327 0.013052 0.007426 -0.002127 0.076951
#
#
# Mechanical properties :
#
#
# Convention : Reuss Voigt Hill
#
# Bulk Modulus (GPa) = 12.37990 48.66222 30.52106
# Shear Modulus (GPa) = 25.73690 45.47083 35.60387
#
# Velocity S-wave (km/s) = 3.18720 4.23640 3.74869
# Velocity P-wave (km/s) = 4.29309 6.56782 5.54828
#
# Compressibility (1/GPa) = 0.08077610
#
# Stress axis : x y z
#
# Youngs Moduli (GPa) = 81.38246 25.73152 89.56362
#
# Poissons Ratio (x) = -0.14370 -0.04307
# Poissons Ratio (y) = -0.45450 -0.28343
# Poissons Ratio (z) = -0.03914 -0.08143
#
# Static dielectric constant tensor:
#      x y z
#    x 2.028600 0.068470 -0.027530 
#    y 0.068470 2.054700 0.023050 
#    z -0.027530 0.023050 2.045910 
# 
# From -- ./inp_files/153872.got.cif
#   From: 2010.05.17/outbox.cif.g08.bks.cpg/sg2_77_cif.got.tgz:153872.got - 2010.06.03 11:33:40.
