data_PCOD9012905
_publ_section_title
;
Structure prediction by ZEFSAII (Michael W. Deem and Ramdas Pophale) SiO2 
 PCOD9012905
Probable space group: P -1
;
_chemical_formula_sum "Si O2"
_cell_formula_units_Z 16
_cell_length_a 8.608287
_cell_length_b 8.243985
_cell_length_c 14.741387
_cell_angle_alpha 91.012064
_cell_angle_beta 107.665486
_cell_angle_gamma 128.020804
_cell_volume 755.550800
_symmetry_space_group_name_H-M "P -1"
_symmetry_group_IT_number 2
_symmetry_cell_setting 'triclinic'
loop_
_space_group_symop_operation_xyz
x,y,z
-x,-y,-z
loop_
_atom_site_type_symbol
_atom_site_label
_atom_site_fract_x
_atom_site_fract_y
_atom_site_fract_z
Si Si1 0.994268 0.186124 0.029826
Si Si2 0.201279 0.958217 0.810144
Si Si3 0.634398 0.380161 0.320117
Si Si4 0.561436 0.382108 0.954434
Si Si5 0.027160 0.381865 0.377909
Si Si6 0.797873 0.754586 0.456897
Si Si7 0.531240 0.214399 0.503481
Si Si8 0.530961 0.882314 0.886647
O O1 0.205059 0.426879 0.044473
O O2 0.774882 0.102412 0.941639
O O3 0.943304 0.150821 0.126943
O O4 0.000000 0.000000 0.000000
O O5 0.373207 0.925184 0.837390
O O6 0.362350 0.214270 0.850317
O O7 0.046583 0.817879 0.698109
O O8 0.699015 0.610610 0.347553
O O9 0.526346 0.255537 0.395179
O O10 0.495165 0.259857 0.203265
O O11 0.839796 0.392624 0.348430
O O12 0.546295 0.238184 0.030953
O O13 0.500000 0.500000 0.000000
O O14 0.101901 0.344182 0.482697
O O15 0.248240 0.616264 0.398547
O O16 0.623024 0.749754 0.478537
O O17 0.000000 0.000000 0.500000
O O18 0.500000 0.000000 0.500000
#
# Coordination Sequence:
#
# PCOD9012905 Si02
#       8
#     2   2   2   2   2   2   2   2
#     4  11  21  39  64  87 124 163 205 258 307 361
#     4  10  23  41  61  92 126 157 206 259 307 367
#     4  10  21  41  62  88 126 159 200 261 306 360
#     4  11  21  41  62  89 122 167 207 254 311 359
#     4  10  21  41  62  88 126 159 200 261 306 360
#     4  11  22  39  62  90 120 163 202 247 310 364
#     4  11  22  41  64  92 126 159 204 247 306 379
#     4  10  23  41  61  92 126 157 206 259 307 367
#
# _framework density 21.176604999999999
#
# number of rings (size 3 to 8) (size 9 to 14) (size 15 to 20)
#    0.000    1.500    2.500    6.000    0.000    5.000 
#   13.500    0.000    0.000    0.000    0.000    0.000 
#    0.000    0.000    0.000    0.000    0.000    0.000 
#
# Total GULP energy -89082.496196 kJ/mol
# GULP energy per Si atom -5567.656012 kJ/mol
# Density = 2.112841 g / cm^3
# Si number density = 21.176605 Si / 1000 Ang^3
#
#
#
# Elastic Constant Matrix: (Units=GPa)
#
#
# Indices 1 2 3 4 5 6 
#
# 1 68.9624 20.6642 16.5194 8.0925 -14.2826 24.8536
# 2 20.6642 124.1643 44.9635 37.4765 -7.6297 18.4863
# 3 16.5194 44.9635 126.2422 29.7916 -24.7071 13.5644
# 4 8.0925 37.4765 29.7916 33.4916 -12.2657 -1.3372
# 5 -14.2826 -7.6297 -24.7071 -12.2657 32.0124 3.2061
# 6 24.8536 18.4863 13.5644 -1.3372 3.2061 39.7420
#
#
#
# Elastic Compliance Matrix: (Units=1/GPa)
#
#
# Indices 1 2 3 4 5 6 
#
# 1 0.022632 -0.000558 0.001908 -0.002796 0.011928 -0.015602
# 2 -0.000558 0.014134 -0.001154 -0.016120 -0.003336 -0.006105
# 3 0.001908 -0.001154 0.011843 -0.007170 0.007525 -0.005547
# 4 -0.002796 -0.016120 -0.007170 0.059442 0.010868 0.012818
# 5 0.011928 -0.003336 0.007525 0.010868 0.046928 -0.011896
# 6 -0.015602 -0.006105 -0.005547 0.012818 -0.011896 0.041043
#
#
# Mechanical properties :
#
#
# Convention : Reuss Voigt Hill
#
# Bulk Modulus (GPa) = 20.40734 53.74034 37.07384
# Shear Modulus (GPa) = 23.58882 36.86399 30.22641
#
# Velocity S-wave (km/s) = 3.34115 4.17680 3.78213
# Velocity P-wave (km/s) = 4.95399 6.97805 6.05125
#
# Compressibility (1/GPa) = 0.04900198
#
# Stress axis : x y z
#
# Youngs Moduli (GPa) = 44.18526 70.75127 84.43450
#
# Poissons Ratio (x) = 0.03946 -0.16108
# Poissons Ratio (y) = 0.02464 0.09742
# Poissons Ratio (z) = -0.08430 0.08164
#
# Static dielectric constant tensor:
#      x y z
#    x 1.773510 0.049640 0.005310 
#    y 0.049640 1.793240 0.006310 
#    z 0.005310 0.006310 1.811670 
# 
# From -- ./inp_files/493206.got.cif
#   From: 2010.05.17/outbox.cif.g08.bks.cpg/sg2_247_cif.got.tgz:493206.got - 2010.06.03 11:33:40.
