data_PCOD9012590
_publ_section_title
;
Structure prediction by ZEFSAII (Michael W. Deem and Ramdas Pophale) SiO2 
 PCOD9012590
Probable space group: P -1
;
_chemical_formula_sum "Si O2"
_cell_formula_units_Z 16
_cell_length_a 13.237552
_cell_length_b 8.885699
_cell_length_c 16.542772
_cell_angle_alpha 133.035302
_cell_angle_beta 145.952551
_cell_angle_gamma 65.345773
_cell_volume 742.165872
_symmetry_space_group_name_H-M "P -1"
_symmetry_group_IT_number 2
_symmetry_cell_setting 'triclinic'
loop_
_space_group_symop_operation_xyz
x,y,z
-x,-y,-z
loop_
_atom_site_type_symbol
_atom_site_label
_atom_site_fract_x
_atom_site_fract_y
_atom_site_fract_z
Si Si1 0.785754 0.162833 0.608079
Si Si2 0.583934 0.551178 0.165721
Si Si3 0.011819 0.055480 0.434760
Si Si4 0.611844 0.152381 0.800818
Si Si5 0.838835 0.019924 0.036685
Si Si6 0.720055 0.905775 0.638200
Si Si7 0.292433 0.838716 0.830575
Si Si8 0.615387 0.504561 0.661622
O O1 0.778547 0.396929 0.714672
O O2 0.589559 0.049473 0.384262
O O3 0.741203 0.003210 0.598111
O O4 0.972799 0.148793 0.682475
O O5 0.432114 0.623993 0.143197
O O6 0.657514 0.373069 0.189561
O O7 0.779246 0.760742 0.370340
O O8 0.500000 0.500000 0.000000
O O9 0.855055 0.153358 0.334739
O O10 0.000000 0.000000 0.500000
O O11 0.760606 0.148567 0.966546
O O12 0.676558 0.077914 0.732554
O O13 0.723053 0.756337 0.852951
O O14 0.792798 0.087429 0.119361
O O15 0.067507 0.091260 0.200234
O O16 0.548192 0.668772 0.452301
O O17 0.500000 0.000000 0.000000
O O18 0.500000 0.500000 0.500000
#
# Coordination Sequence:
#
# PCOD9012590 Si02
#       8
#     2   2   2   2   2   2   2   2
#     4  10  22  44  67  99 142 175 233 290 352 423
#     4  11  23  46  73 103 137 187 237 289 363 423
#     4  11  25  48  71 100 139 186 241 299 354 425
#     4  10  21  40  71  96 138 183 226 283 354 414
#     4  12  24  45  69 107 143 179 239 291 341 433
#     4  11  23  45  70 102 142 186 229 291 353 421
#     4  12  27  47  69 103 145 184 242 298 353 428
#     4  11  23  41  71 105 140 187 229 280 361 417
#
# _framework density 21.558523000000001
#
# number of rings (size 3 to 8) (size 9 to 14) (size 15 to 20)
#    0.000    1.000    5.000    3.000    1.750    3.500 
#    9.000    0.000    0.000    0.000    0.000    0.000 
#    0.000    0.000    0.000    0.000    0.000    0.000 
#
# Total GULP energy -89361.428194 kJ/mol
# GULP energy per Si atom -5585.089262 kJ/mol
# Density = 2.150945 g / cm^3
# Si number density = 21.558523 Si / 1000 Ang^3
#
#
#
# Elastic Constant Matrix: (Units=GPa)
#
#
# Indices 1 2 3 4 5 6 
#
# 1 119.5793 67.8620 21.7537 0.8963 2.9291 -15.1587
# 2 67.8620 170.8114 44.8127 -16.0887 -3.0939 -23.6914
# 3 21.7537 44.8127 68.0819 -18.7639 8.2373 -13.9400
# 4 0.8963 -16.0887 -18.7639 45.8470 -2.4457 -0.6183
# 5 2.9291 -3.0939 8.2373 -2.4457 26.5493 -8.8741
# 6 -15.1587 -23.6914 -13.9400 -0.6183 -8.8741 38.1635
#
#
#
# Elastic Compliance Matrix: (Units=1/GPa)
#
#
# Indices 1 2 3 4 5 6 
#
# 1 0.011134 -0.004237 -0.000987 -0.002160 -0.001245 0.001107
# 2 -0.004237 0.009367 -0.004018 0.002000 0.004219 0.003678
# 3 -0.000987 -0.004018 0.020928 0.006960 -0.004970 0.003716
# 4 -0.002160 0.002000 0.006960 0.025558 0.001933 0.003790
# 5 -0.001245 0.004219 -0.004970 0.001933 0.043510 0.010458
# 6 0.001107 0.003678 0.003716 0.003790 0.010458 0.032776
#
#
# Mechanical properties :
#
#
# Convention : Reuss Voigt Hill
#
# Bulk Modulus (GPa) = 43.58035 69.70327 56.64181
# Shear Modulus (GPa) = 29.51517 37.04825 33.28171
#
# Velocity S-wave (km/s) = 3.70411 4.14997 3.93336
# Velocity P-wave (km/s) = 6.20908 7.44079 6.85267
#
# Compressibility (1/GPa) = 0.02294612
#
# Stress axis : x y z
#
# Youngs Moduli (GPa) = 89.81802 106.76197 47.78256
#
# Poissons Ratio (x) = 0.45234 0.04714
# Poissons Ratio (y) = 0.38055 0.19198
# Poissons Ratio (z) = 0.08861 0.42894
#
# Static dielectric constant tensor:
#      x y z
#    x 1.813960 -0.091490 -0.050300 
#    y -0.091490 1.829010 0.022660 
#    z -0.050300 0.022660 1.797840 
# 
# From -- ./inp_files/516321.got.cif
#   From: 2010.05.17/outbox.cif.g08.bks.cpg/sg2_259_cif.got.tgz:516321.got - 2010.06.03 11:33:40.
