data_PCOD9012080
_publ_section_title
;
Structure prediction by ZEFSAII (Michael W. Deem and Ramdas Pophale) SiO2 
 PCOD9012080
Probable space group: P -1
;
_chemical_formula_sum "Si O2"
_cell_formula_units_Z 16
_cell_length_a 17.731464
_cell_length_b 14.429050
_cell_length_c 23.391151
_cell_angle_alpha 21.467463
_cell_angle_beta 159.081324
_cell_angle_gamma 145.897752
_cell_volume 742.008500
_symmetry_space_group_name_H-M "P -1"
_symmetry_group_IT_number 2
_symmetry_cell_setting 'triclinic'
loop_
_space_group_symop_operation_xyz
x,y,z
-x,-y,-z
loop_
_atom_site_type_symbol
_atom_site_label
_atom_site_fract_x
_atom_site_fract_y
_atom_site_fract_z
Si Si1 0.891851 0.316453 0.228800
Si Si2 0.303074 0.803456 0.425911
Si Si3 0.978062 0.809662 0.808886
Si Si4 0.258736 0.634678 0.721474
Si Si5 0.565042 0.097861 0.929653
Si Si6 0.631789 0.584327 0.199953
Si Si7 0.093031 0.518378 0.358392
Si Si8 0.799434 0.705242 0.851132
O O1 0.968436 0.499044 0.223028
O O2 0.627551 0.388589 0.005667
O O3 0.929297 0.413481 0.135709
O O4 0.000000 0.000000 0.500000
O O5 0.276145 0.618959 0.565836
O O6 0.146534 0.763747 0.286949
O O7 0.568964 0.704442 0.658648
O O8 0.261111 0.098800 0.249960
O O9 0.925755 0.848224 0.816947
O O10 0.795876 0.046678 0.510443
O O11 0.000000 0.500000 0.000000
O O12 0.214857 0.826652 0.950012
O O13 0.259621 0.509240 0.730754
O O14 0.056242 0.589270 0.640572
O O15 0.500000 0.500000 0.000000
O O16 0.341160 0.332995 0.623969
O O17 0.500000 0.000000 0.000000
O O18 0.625501 0.871263 0.054172
#
# Coordination Sequence:
#
# PCOD9012080 Si02
#       8
#     2   2   2   2   2   2   2   2
#     4  11  24  42  70 100 142 192 236 291 366 434
#     4  10  21  40  68  94 136 179 240 286 358 417
#     4  12  27  44  72 105 148 187 243 298 361 427
#     4  12  26  43  72 111 144 185 238 302 362 422
#     4  12  24  43  73 107 138 191 245 291 353 442
#     4  11  22  41  70  99 139 181 237 291 353 431
#     4  12  24  42  71 104 141 187 245 294 351 435
#     4  10  24  43  66  99 138 187 235 294 362 424
#
# _framework density 21.563095000000001
#
# number of rings (size 3 to 8) (size 9 to 14) (size 15 to 20)
#    0.000    0.750    6.250    0.750    5.250    1.500 
#    0.000    1.875    0.000    0.000    0.000    0.000 
#    0.000    0.000    0.000    0.000    0.000    0.000 
#
# Total GULP energy -89263.663657 kJ/mol
# GULP energy per Si atom -5578.978979 kJ/mol
# Density = 2.151402 g / cm^3
# Si number density = 21.563095 Si / 1000 Ang^3
#
#
#
# Elastic Constant Matrix: (Units=GPa)
#
#
# Indices 1 2 3 4 5 6 
#
# 1 88.6358 26.4356 35.6852 6.3488 3.8073 10.2165
# 2 26.4356 129.2482 49.1390 10.8131 -3.6437 -11.1798
# 3 35.6852 49.1390 121.4689 -2.1407 -7.4226 3.4154
# 4 6.3488 10.8131 -2.1407 22.2532 -10.2991 1.3700
# 5 3.8073 -3.6437 -7.4226 -10.2991 27.1542 -4.2751
# 6 10.2165 -11.1798 3.4154 1.3700 -4.2751 45.5523
#
#
#
# Elastic Compliance Matrix: (Units=1/GPa)
#
#
# Indices 1 2 3 4 5 6 
#
# 1 0.014523 -0.001345 -0.004130 -0.006644 -0.006445 -0.003683
# 2 -0.001345 0.010263 -0.004021 -0.005747 -0.001213 0.003181
# 3 -0.004130 -0.004021 0.011562 0.006937 0.005737 -0.000598
# 4 -0.006644 -0.005747 0.006937 0.062156 0.025646 0.000097
# 5 -0.006445 -0.001213 0.005737 0.025646 0.049587 0.004600
# 6 -0.003683 0.003181 -0.000598 0.000097 0.004600 0.024033
#
#
# Mechanical properties :
#
#
# Convention : Reuss Voigt Hill
#
# Bulk Modulus (GPa) = 57.61740 62.43026 60.02383
# Shear Modulus (GPa) = 25.39331 34.19817 29.79574
#
# Velocity S-wave (km/s) = 3.43538 3.98673 3.72128
# Velocity P-wave (km/s) = 6.52029 7.08571 6.80887
#
# Compressibility (1/GPa) = 0.01735587
#
# Stress axis : x y z
#
# Youngs Moduli (GPa) = 68.85563 97.43946 86.48767
#
# Poissons Ratio (x) = 0.13103 0.35720
# Poissons Ratio (y) = 0.09259 0.34781
# Poissons Ratio (z) = 0.28437 0.39185
#
# Static dielectric constant tensor:
#      x y z
#    x 1.899130 -0.100060 -0.042760 
#    y -0.100060 1.849930 0.001830 
#    z -0.042760 0.001830 1.818410 
# 
# From -- ./inp_files/613237.got.cif
#   From: 2010.05.17/outbox.cif.g08.bks.cpg/sg2_307_cif.got.tgz:613237.got - 2010.06.03 11:33:40.
