data_PCOD9012669
_publ_section_title
;
Structure prediction by ZEFSAII (Michael W. Deem and Ramdas Pophale) SiO2 
 PCOD9012669
Probable space group: P -1
;
_chemical_formula_sum "Si O2"
_cell_formula_units_Z 13
_cell_length_a 6.585635
_cell_length_b 15.576707
_cell_length_c 8.728317
_cell_angle_alpha 58.640985
_cell_angle_beta 77.182438
_cell_angle_gamma 121.731952
_cell_volume 475.399376
_symmetry_space_group_name_H-M "P -1"
_symmetry_group_IT_number 2
_symmetry_cell_setting 'triclinic'
loop_
_space_group_symop_operation_xyz
x,y,z
-x,-y,-z
loop_
_atom_site_type_symbol
_atom_site_label
_atom_site_fract_x
_atom_site_fract_y
_atom_site_fract_z
Si Si1 0.148998 0.789104 0.947653
Si Si2 0.608943 0.440686 0.442103
Si Si3 0.500000 0.000000 0.000000
Si Si4 0.120441 0.327056 0.392286
Si Si5 0.343618 0.122237 0.418063
Si Si6 0.558537 0.844126 0.268029
Si Si7 0.381731 0.330339 0.048549
O O1 0.954878 0.611352 0.167664
O O2 0.433808 0.879556 0.693435
O O3 0.880273 0.770404 0.950760
O O4 0.309790 0.880768 0.992573
O O5 0.500000 0.500000 0.500000
O O6 0.352567 0.343684 0.435976
O O7 0.579502 0.314291 0.619857
O O8 0.246052 0.014476 0.012877
O O9 0.177725 0.325053 0.207120
O O10 0.753754 0.188080 0.646350
O O11 0.287746 0.497103 0.227902
O O12 0.352843 0.122727 0.598769
O O13 0.487918 0.279287 0.183290
O O14 0.000000 0.000000 0.500000
#
# Coordination Sequence:
#
# PCOD9012669 Si02
#       7
#     2   2   1   2   2   2   2
#     4  11  26  48  72 109 151 190 249 307 371 442
#     4  11  25  46  78 112 149 195 244 308 378 444
#     4  12  30  46  70 102 152 212 238 288 372 452
#     4  10  21  40  74 107 141 180 239 308 370 430
#     4  12  26  42  75 108 145 198 246 306 366 438
#     4  12  26  48  75 107 152 195 251 309 368 437
#     4  10  21  41  72 111 136 178 242 305 371 430
#
# _framework density 27.345431000000001
#
# number of rings (size 3 to 8) (size 9 to 14) (size 15 to 20)
#    0.000    0.923    3.077    2.769    2.154    8.615 
#    0.000    6.154    0.000    0.000    0.000    0.000 
#    0.000    0.000    0.000    0.000    0.000    0.000 
#
# Total GULP energy -72510.632699 kJ/mol
# GULP energy per Si atom -5577.740977 kJ/mol
# Density = 2.728319 g / cm^3
# Si number density = 27.345431 Si / 1000 Ang^3
#
#
#
# Elastic Constant Matrix: (Units=GPa)
#
#
# Indices 1 2 3 4 5 6 
#
# 1 109.4140 72.5923 57.5303 3.4625 38.5785 -3.9003
# 2 72.5923 162.2777 64.2159 8.3736 8.0354 20.2125
# 3 57.5303 64.2159 128.0660 -6.3825 5.0493 -10.1304
# 4 3.4625 8.3736 -6.3825 44.2129 -5.5531 14.2469
# 5 38.5785 8.0354 5.0493 -5.5531 74.7953 -1.1652
# 6 -3.9003 20.2125 -10.1304 14.2469 -1.1652 51.2350
#
#
#
# Elastic Compliance Matrix: (Units=1/GPa)
#
#
# Indices 1 2 3 4 5 6 
#
# 1 0.019755 -0.006702 -0.005009 -0.003428 -0.009325 0.003899
# 2 -0.006702 0.010874 -0.002956 0.000065 0.002410 -0.005348
# 3 -0.005009 -0.002956 0.011759 0.002109 0.002304 0.002576
# 4 -0.003428 0.000065 0.002109 0.025859 0.003430 -0.006982
# 5 -0.009325 0.002410 0.002304 0.003430 0.017993 -0.001750
# 6 0.003899 -0.005348 0.002576 -0.006982 -0.001750 0.024335
#
#
# Mechanical properties :
#
#
# Convention : Reuss Voigt Hill
#
# Bulk Modulus (GPa) = 76.60820 87.60384 82.10602
# Shear Modulus (GPa) = 34.65942 47.74326 41.20134
#
# Velocity S-wave (km/s) = 3.56401 4.18297 3.88583
# Velocity P-wave (km/s) = 6.70910 7.44548 7.08686
#
# Compressibility (1/GPa) = 0.01305343
#
# Stress axis : x y z
#
# Youngs Moduli (GPa) = 50.61939 91.96510 85.04142
#
# Poissons Ratio (x) = 0.61636 0.42595
# Poissons Ratio (y) = 0.33926 0.25142
# Poissons Ratio (z) = 0.25354 0.27189
#
# Static dielectric constant tensor:
#      x y z
#    x 2.541060 -0.172840 0.405920 
#    y -0.172840 2.185880 -0.299030 
#    z 0.405920 -0.299030 3.119620 
# 
# From -- ./inp_files/134820.got.cif
#   From: 2010.05.17/outbox.cif.g08.bks.cpg/sg2_68_cif.got.tgz:134820.got - 2010.06.03 11:33:40.
