data_PCOD9012191
_publ_section_title
;
Structure prediction by ZEFSAII (Michael W. Deem and Ramdas Pophale) SiO2 
 PCOD9012191
Probable space group: P -1
;
_chemical_formula_sum "Si O2"
_cell_formula_units_Z 14
_cell_length_a 15.579997
_cell_length_b 9.582780
_cell_length_c 11.871616
_cell_angle_alpha 48.590660
_cell_angle_beta 59.287317
_cell_angle_gamma 31.734312
_cell_volume 693.143534
_symmetry_space_group_name_H-M "P -1"
_symmetry_group_IT_number 2
_symmetry_cell_setting 'triclinic'
loop_
_space_group_symop_operation_xyz
x,y,z
-x,-y,-z
loop_
_atom_site_type_symbol
_atom_site_label
_atom_site_fract_x
_atom_site_fract_y
_atom_site_fract_z
Si Si1 0.372113 0.194878 0.084783
Si Si2 0.751596 0.165862 0.804218
Si Si3 0.049756 0.896089 0.890558
Si Si4 0.325886 0.846446 0.387083
Si Si5 0.579389 0.185369 0.078360
Si Si6 0.436881 0.894659 0.634628
Si Si7 0.144537 0.137706 0.575915
O O1 0.440757 0.252256 0.090975
O O2 0.360047 0.013684 0.249674
O O3 0.195502 0.529678 0.985263
O O4 0.500000 0.000000 0.000000
O O5 0.743846 0.132933 0.694548
O O6 0.599278 0.530557 0.727315
O O7 0.706958 0.046045 0.969043
O O8 0.905266 0.034023 0.833020
O O9 0.110951 0.002219 0.742768
O O10 0.000000 0.000000 0.000000
O O11 0.500000 0.500000 0.500000
O O12 0.184706 0.030491 0.477210
O O13 0.650769 0.985249 0.249085
O O14 0.500000 0.500000 0.000000
O O15 0.500000 0.000000 0.500000
O O16 0.311958 0.988214 0.582657
O O17 0.000000 0.500000 0.500000
#
# Coordination Sequence:
#
# PCOD9012191 Si02
#       7
#     2   2   2   2   2   2   2
#     4  12  24  45  71 103 138 183 229 288 358 414
#     4  11  23  43  68 100 136 184 233 286 350 417
#     4  12  25  46  72 100 140 182 238 291 348 427
#     4  12  25  46  71  99 147 183 232 294 355 420
#     4  10  21  40  68  99 132 176 233 282 339 417
#     4  11  21  40  68  99 136 180 237 284 344 420
#     4  12  25  44  67 101 141 183 229 290 356 416
#
# _framework density 20.197835999999999
#
# number of rings (size 3 to 8) (size 9 to 14) (size 15 to 20)
#    0.000    0.571    2.857    7.714    0.000    1.143 
#    2.571    0.000    0.000    0.000    0.000    0.000 
#    0.000    0.000    0.000    0.000    0.000    0.000 
#
# Total GULP energy -78215.158816 kJ/mol
# GULP energy per Si atom -5586.797058 kJ/mol
# Density = 2.015186 g / cm^3
# Si number density = 20.197836 Si / 1000 Ang^3
#
#
#
# Elastic Constant Matrix: (Units=GPa)
#
#
# Indices 1 2 3 4 5 6 
#
# 1 154.7858 33.0163 55.9184 2.5065 5.0328 0.7923
# 2 33.0163 126.3060 69.5118 3.0274 8.5434 8.6031
# 3 55.9184 69.5118 168.1714 20.8901 -19.2242 14.1450
# 4 2.5065 3.0274 20.8901 51.0533 5.4701 10.7060
# 5 5.0328 8.5434 -19.2242 5.4701 46.8034 8.9013
# 6 0.7923 8.6031 14.1450 10.7060 8.9013 24.7855
#
#
#
# Elastic Compliance Matrix: (Units=1/GPa)
#
#
# Indices 1 2 3 4 5 6 
#
# 1 0.007659 -0.000388 -0.002928 0.000655 -0.002442 0.002155
# 2 -0.000388 0.011138 -0.005200 0.001990 -0.004323 -0.000193
# 3 -0.002928 -0.005200 0.010772 -0.003619 0.007108 -0.005239
# 4 0.000655 0.001990 -0.003619 0.022801 -0.003187 -0.007351
# 5 -0.002442 -0.004323 0.007108 -0.003187 0.027819 -0.011092
# 6 0.002155 -0.000193 -0.005239 -0.007351 -0.011092 0.050493
#
#
# Mechanical properties :
#
#
# Convention : Reuss Voigt Hill
#
# Bulk Modulus (GPa) = 79.76321 85.12845 82.44583
# Shear Modulus (GPa) = 32.91794 43.91620 38.41707
#
# Velocity S-wave (km/s) = 4.04143 4.66800 4.36597
# Velocity P-wave (km/s) = 7.83289 8.44349 8.14391
#
# Compressibility (1/GPa) = 0.01253711
#
# Stress axis : x y z
#
# Youngs Moduli (GPa) = 130.56842 89.77936 92.83380
#
# Poissons Ratio (x) = 0.03483 0.27182
# Poissons Ratio (y) = 0.05065 0.48275
# Poissons Ratio (z) = 0.38230 0.46686
#
# Static dielectric constant tensor:
#      x y z
#    x 1.753280 0.053580 0.064440 
#    y 0.053580 1.747630 0.059230 
#    z 0.064440 0.059230 1.774730 
# 
# From -- ./inp_files/156925.got.cif
#   From: 2010.05.17/outbox.cif.g08.bks.cpg/sg2_79_cif.got.tgz:156925.got - 2010.06.03 11:33:40.
