data_PCOD9012799
_publ_section_title
;
Structure prediction by ZEFSAII (Michael W. Deem and Ramdas Pophale) SiO2 
 PCOD9012799
Probable space group: P -1
;
_chemical_formula_sum "Si O2"
_cell_formula_units_Z 14
_cell_length_a 8.716793
_cell_length_b 20.470614
_cell_length_c 18.409310
_cell_angle_alpha 159.913243
_cell_angle_beta 127.765209
_cell_angle_gamma 40.439622
_cell_volume 649.953457
_symmetry_space_group_name_H-M "P -1"
_symmetry_group_IT_number 2
_symmetry_cell_setting 'triclinic'
loop_
_space_group_symop_operation_xyz
x,y,z
-x,-y,-z
loop_
_atom_site_type_symbol
_atom_site_label
_atom_site_fract_x
_atom_site_fract_y
_atom_site_fract_z
Si Si1 0.016971 0.769056 0.239091
Si Si2 0.748903 0.045391 0.824729
Si Si3 0.428212 0.157609 0.718943
Si Si4 0.272501 0.676678 0.678335
Si Si5 0.621130 0.970075 0.220906
Si Si6 0.653280 0.931183 0.899442
Si Si7 0.234390 0.547794 0.693198
O O1 0.796959 0.814127 0.274186
O O2 0.906851 0.824232 0.182432
O O3 0.000000 0.000000 0.500000
O O4 0.288670 0.462164 0.996261
O O5 0.486110 0.151917 0.902206
O O6 0.000429 0.800882 0.688326
O O7 0.693976 0.003312 0.684474
O O8 0.778709 0.251356 0.054021
O O9 0.500000 0.000000 0.500000
O O10 0.500000 0.500000 0.500000
O O11 0.321752 0.547176 0.635353
O O12 0.268523 0.906090 0.929489
O O13 0.551410 0.002322 0.150598
O O14 0.428277 0.273413 0.503400
O O15 0.944784 0.650462 0.704937
O O16 0.500000 0.000000 0.000000
#
# Coordination Sequence:
#
# PCOD9012799 Si02
#       7
#     2   2   2   2   2   2   2
#     4  10  23  45  67  96 128 165 220 272 330 386
#     4  10  21  41  61  88 123 165 206 253 328 372
#     4  10  23  45  69  94 127 168 218 279 324 383
#     4  11  22  37  60  91 125 164 206 255 306 385
#     4  11  21  38  65  86 122 169 199 256 322 374
#     4  11  22  37  56  92 126 159 209 252 306 385
#     4  11  21  40  61  86 130 164 203 258 314 388
#
# _framework density 21.540006000000002
#
# number of rings (size 3 to 8) (size 9 to 14) (size 15 to 20)
#    0.000    1.429    2.857    3.000    2.000    1.714 
#   12.857    0.000    0.000    0.000    0.000    0.000 
#    0.000    0.000    0.000    0.000    0.000    0.000 
#
# Total GULP energy -78051.177189 kJ/mol
# GULP energy per Si atom -5575.084085 kJ/mol
# Density = 2.149098 g / cm^3
# Si number density = 21.540006 Si / 1000 Ang^3
#
#
#
# Elastic Constant Matrix: (Units=GPa)
#
#
# Indices 1 2 3 4 5 6 
#
# 1 50.5799 10.9802 16.0723 -8.2855 0.5585 0.0443
# 2 10.9802 115.2036 29.6413 -25.4364 7.9326 2.5347
# 3 16.0723 29.6413 85.3684 -15.3854 14.7173 2.1590
# 4 -8.2855 -25.4364 -15.3854 43.7277 6.0681 -2.3975
# 5 0.5585 7.9326 14.7173 6.0681 38.6379 -2.7843
# 6 0.0443 2.5347 2.1590 -2.3975 -2.7843 20.8316
#
#
#
# Elastic Compliance Matrix: (Units=1/GPa)
#
#
# Indices 1 2 3 4 5 6 
#
# 1 0.021418 -0.000693 -0.003542 0.002331 0.000873 0.000791
# 2 -0.000693 0.010719 -0.002162 0.005622 -0.002303 -0.000739
# 3 -0.003542 -0.002162 0.014929 0.004061 -0.005945 -0.001604
# 4 0.002331 0.005622 0.004061 0.029080 -0.007210 0.001273
# 5 0.000873 -0.002303 -0.005945 -0.007210 0.030032 0.004079
# 6 0.000791 -0.000739 -0.001604 0.001273 0.004079 0.048950
#
#
# Mechanical properties :
#
#
# Convention : Reuss Voigt Hill
#
# Bulk Modulus (GPa) = 29.17881 40.50438 34.84160
# Shear Modulus (GPa) = 27.87898 33.60332 30.74115
#
# Velocity S-wave (km/s) = 3.60153 3.95402 3.78188
# Velocity P-wave (km/s) = 5.55611 6.30006 5.93975
#
# Compressibility (1/GPa) = 0.03427144
#
# Stress axis : x y z
#
# Youngs Moduli (GPa) = 46.68924 93.29335 66.98448
#
# Poissons Ratio (x) = 0.06463 0.23727
# Poissons Ratio (y) = 0.03234 0.14484
# Poissons Ratio (z) = 0.16538 0.20173
#
# Static dielectric constant tensor:
#      x y z
#    x 1.777370 0.010400 0.004120 
#    y 0.010400 1.803400 0.009350 
#    z 0.004120 0.009350 1.965430 
# 
# From -- ./inp_files/503574.got.cif
#   From: 2010.05.17/outbox.cif.g08.bks.cpg/sg2_252_cif.got.tgz:503574.got - 2010.06.03 11:33:40.
