data_PCOD9012263
_publ_section_title
;
Structure prediction by ZEFSAII (Michael W. Deem and Ramdas Pophale) SiO2 
 PCOD9012263
Probable space group: P -1
;
_chemical_formula_sum "Si O2"
_cell_formula_units_Z 12
_cell_length_a 12.187574
_cell_length_b 10.646685
_cell_length_c 9.666632
_cell_angle_alpha 64.209681
_cell_angle_beta 90.741871
_cell_angle_gamma 145.382596
_cell_volume 473.562130
_symmetry_space_group_name_H-M "P -1"
_symmetry_group_IT_number 2
_symmetry_cell_setting 'triclinic'
loop_
_space_group_symop_operation_xyz
x,y,z
-x,-y,-z
loop_
_atom_site_type_symbol
_atom_site_label
_atom_site_fract_x
_atom_site_fract_y
_atom_site_fract_z
Si Si1 0.462980 0.686015 0.982559
Si Si2 0.742275 0.741793 0.036490
Si Si3 0.777636 0.157459 0.240553
Si Si4 0.308754 0.243714 0.494583
Si Si5 0.726199 0.475418 0.656134
Si Si6 0.820254 0.211904 0.527248
O O1 0.269869 0.353004 0.064041
O O2 0.553484 0.884979 0.762717
O O3 0.700816 0.858426 0.953201
O O4 0.385287 0.682956 0.116585
O O5 0.494157 0.415639 0.285658
O O6 0.000000 0.000000 0.000000
O O7 0.769326 0.205404 0.374491
O O8 0.845046 0.069454 0.304107
O O9 0.498952 0.827024 0.312919
O O10 0.000000 0.500000 0.000000
O O11 0.500000 0.500000 0.500000
O O12 0.210203 0.286428 0.447009
O O13 0.998997 0.716593 0.519177
O O14 0.000000 0.500000 0.500000
#
# Coordination Sequence:
#
# PCOD9012263 Si02
#       6
#     2   2   2   2   2   2
#     4  10  23  43  66 108 140 177 243 289 355 433
#     4  10  21  40  69 103 144 182 226 298 359 421
#     4  11  24  45  72 105 147 191 241 291 360 437
#     4   9  20  41  69 109 137 178 242 287 356 432
#     4  10  25  47  74 104 146 186 240 308 364 420
#     4  12  27  46  75 102 143 193 245 297 362 436
#
# _framework density 25.339865
#
# number of rings (size 3 to 8) (size 9 to 14) (size 15 to 20)
#    0.000    1.667    1.667    1.000    4.667    8.000 
#    0.000    0.000    0.000    0.000    0.000    0.000 
#    0.000    0.000    0.000    0.000    0.000    0.000 
#
# Total GULP energy -67085.867426 kJ/mol
# GULP energy per Si atom -5590.488952 kJ/mol
# Density = 2.528219 g / cm^3
# Si number density = 25.339865 Si / 1000 Ang^3
#
#
#
# Elastic Constant Matrix: (Units=GPa)
#
#
# Indices 1 2 3 4 5 6 
#
# 1 80.3442 21.3899 27.3993 -3.0075 -8.2351 2.2508
# 2 21.3899 198.9145 50.9566 15.5999 -3.2383 15.6848
# 3 27.3993 50.9566 183.4618 19.4394 17.6559 -6.5373
# 4 -3.0075 15.5999 19.4394 49.6697 -7.7772 -0.6635
# 5 -8.2351 -3.2383 17.6559 -7.7772 33.0683 -2.7480
# 6 2.2508 15.6848 -6.5373 -0.6635 -2.7480 40.3782
#
#
#
# Elastic Compliance Matrix: (Units=1/GPa)
#
#
# Indices 1 2 3 4 5 6 
#
# 1 0.014355 -0.000952 -0.002772 0.003134 0.005662 -0.000442
# 2 -0.000952 0.005809 -0.001488 -0.001233 0.000635 -0.002421
# 3 -0.002772 -0.001488 0.007198 -0.003334 -0.005340 0.001480
# 4 0.003134 -0.001233 -0.003334 0.023272 0.007970 0.000689
# 5 0.005662 0.000635 -0.005340 0.007970 0.036538 0.001191
# 6 -0.000442 -0.002421 0.001480 0.000689 0.001191 0.026063
#
#
# Mechanical properties :
#
#
# Convention : Reuss Voigt Hill
#
# Bulk Modulus (GPa) = 59.04102 73.57913 66.31008
# Shear Modulus (GPa) = 38.66819 48.82154 43.74487
#
# Velocity S-wave (km/s) = 3.91062 4.39415 4.15942
# Velocity P-wave (km/s) = 6.61369 7.40572 7.02088
#
# Compressibility (1/GPa) = 0.01693738
#
# Stress axis : x y z
#
# Youngs Moduli (GPa) = 69.66011 172.15294 138.92811
#
# Poissons Ratio (x) = 0.16393 0.38513
# Poissons Ratio (y) = 0.06633 0.20672
# Poissons Ratio (z) = 0.19311 0.25616
#
# Static dielectric constant tensor:
#      x y z
#    x 2.321920 -0.149750 0.058040 
#    y -0.149750 2.117660 -0.045430 
#    z 0.058040 -0.045430 2.088330 
# 
# From -- ./inp_files/300584.got.cif
#   From: 2010.05.17/outbox.cif.g08.bks.cpg/sg2_151_cif.got.tgz:300584.got - 2010.06.03 11:33:40.
