data_PCOD9012772
_publ_section_title
;
Structure prediction by ZEFSAII (Michael W. Deem and Ramdas Pophale) SiO2 
 PCOD9012772
Probable space group: P -1
;
_chemical_formula_sum "Si O2"
_cell_formula_units_Z 16
_cell_length_a 10.897374
_cell_length_b 7.709798
_cell_length_c 9.226718
_cell_angle_alpha 99.143752
_cell_angle_beta 79.287651
_cell_angle_gamma 113.955058
_cell_volume 693.067025
_symmetry_space_group_name_H-M "P -1"
_symmetry_group_IT_number 2
_symmetry_cell_setting 'triclinic'
loop_
_space_group_symop_operation_xyz
x,y,z
-x,-y,-z
loop_
_atom_site_type_symbol
_atom_site_label
_atom_site_fract_x
_atom_site_fract_y
_atom_site_fract_z
Si Si1 0.139446 0.975922 0.996335
Si Si2 0.673210 0.304498 0.475076
Si Si3 0.133591 0.607097 0.078770
Si Si4 0.094806 0.416599 0.379197
Si Si5 0.405355 0.260025 0.677683
Si Si6 0.578655 0.730803 0.008047
Si Si7 0.622518 0.357070 0.175161
Si Si8 0.842416 0.078608 0.346599
O O1 0.161825 0.897450 0.823988
O O2 0.259575 0.179297 0.031142
O O3 0.145123 0.825841 0.095325
O O4 0.000000 0.000000 0.000000
O O5 0.762727 0.505926 0.557536
O O6 0.519149 0.244785 0.547910
O O7 0.673782 0.300786 0.302277
O O8 0.753700 0.168855 0.471431
O O9 0.118699 0.512345 0.227333
O O10 0.259325 0.589420 0.963230
O O11 0.000000 0.500000 0.000000
O O12 0.000000 0.500000 0.500000
O O13 0.000627 0.190967 0.364051
O O14 0.438626 0.194666 0.819750
O O15 0.416400 0.471445 0.734237
O O16 0.250166 0.144331 0.648907
O O17 0.500000 0.500000 0.000000
O O18 0.507999 0.789701 0.898313
#
# Coordination Sequence:
#
# PCOD9012772 Si02
#       8
#     2   2   2   2   2   2   2   2
#     4  11  24  42  69 103 130 170 223 275 336 393
#     4  11  21  42  65  90 132 179 216 268 330 392
#     4  12  23  41  71  99 132 176 217 283 332 390
#     4  10  22  42  66  93 133 176 220 266 334 395
#     4  10  22  39  66  91 128 177 213 271 332 385
#     4   9  22  42  65  97 134 169 217 279 326 395
#     4  11  23  42  66  98 134 168 228 269 334 394
#     4  10  21  41  60  93 129 166 221 269 318 395
#
# _framework density 23.085788999999998
#
# number of rings (size 3 to 8) (size 9 to 14) (size 15 to 20)
#    0.000    1.500    2.500    2.250    5.250    2.500 
#    6.750    0.625    0.000    0.000    0.000    0.000 
#    0.000    0.000    0.000    0.000    0.000    0.000 
#
# Total GULP energy -89178.525532 kJ/mol
# GULP energy per Si atom -5573.657846 kJ/mol
# Density = 2.303324 g / cm^3
# Si number density = 23.085789 Si / 1000 Ang^3
#
#
#
# Elastic Constant Matrix: (Units=GPa)
#
#
# Indices 1 2 3 4 5 6 
#
# 1 103.9417 35.8771 41.5442 -2.6823 -5.4798 25.6420
# 2 35.8771 84.1558 16.2001 7.7541 2.5230 28.9456
# 3 41.5442 16.2001 103.1103 -5.9126 -12.1907 13.5595
# 4 -2.6823 7.7541 -5.9126 24.3707 11.1351 1.0536
# 5 -5.4798 2.5230 -12.1907 11.1351 40.0359 12.8784
# 6 25.6420 28.9456 13.5595 1.0536 12.8784 45.8947
#
#
#
# Elastic Compliance Matrix: (Units=1/GPa)
#
#
# Indices 1 2 3 4 5 6 
#
# 1 0.013825 -0.003568 -0.004049 0.000871 0.002225 -0.004922
# 2 -0.003568 0.017303 0.000013 -0.007088 0.003533 -0.009752
# 3 -0.004049 0.000013 0.012123 0.000931 0.003640 -0.002370
# 4 0.000871 -0.007088 0.000931 0.050329 -0.015356 0.006862
# 5 0.002225 0.003533 0.003640 -0.015356 0.034942 -0.013999
# 6 -0.004922 -0.009752 -0.002370 0.006862 -0.013999 0.035160
#
#
# Mechanical properties :
#
#
# Convention : Reuss Voigt Hill
#
# Bulk Modulus (GPa) = 35.66181 53.16117 44.41149
# Shear Modulus (GPa) = 26.56196 35.23267 30.89732
#
# Velocity S-wave (km/s) = 3.39569 3.91085 3.66234
# Velocity P-wave (km/s) = 5.55476 6.59323 6.09615
#
# Compressibility (1/GPa) = 0.02804121
#
# Stress axis : x y z
#
# Youngs Moduli (GPa) = 72.33366 57.79434 82.48600
#
# Poissons Ratio (x) = 0.20624 0.33401
# Poissons Ratio (y) = 0.25812 -0.00107
# Poissons Ratio (z) = 0.29290 -0.00075
#
# Static dielectric constant tensor:
#      x y z
#    x 1.961590 -0.028390 0.059500 
#    y -0.028390 1.988590 -0.052850 
#    z 0.059500 -0.052850 1.829180 
# 
# From -- ./inp_files/239685.got.cif
#   From: 2010.05.17/outbox.cif.g08.bks.cpg/sg2_120_cif.got.tgz:239685.got - 2010.06.03 11:33:40.
