data_PCOD9012606
_publ_section_title
;
Structure prediction by ZEFSAII (Michael W. Deem and Ramdas Pophale) SiO2 
 PCOD9012606
Probable space group: P -1
;
_chemical_formula_sum "Si O2"
_cell_formula_units_Z 16
_cell_length_a 21.523152
_cell_length_b 10.103494
_cell_length_c 9.290564
_cell_angle_alpha 111.771816
_cell_angle_beta 47.096242
_cell_angle_gamma 146.377698
_cell_volume 717.437454
_symmetry_space_group_name_H-M "P -1"
_symmetry_group_IT_number 2
_symmetry_cell_setting 'triclinic'
loop_
_space_group_symop_operation_xyz
x,y,z
-x,-y,-z
loop_
_atom_site_type_symbol
_atom_site_label
_atom_site_fract_x
_atom_site_fract_y
_atom_site_fract_z
Si Si1 0.083936 0.847347 0.470941
Si Si2 0.781142 0.252814 0.641654
Si Si3 0.389365 0.373393 0.760814
Si Si4 0.281162 0.004813 0.996818
Si Si5 0.868701 0.780147 0.493364
Si Si6 0.948970 0.049647 0.990239
Si Si7 0.018642 0.583786 0.844914
Si Si8 0.527079 0.295473 0.979395
O O1 0.159224 0.814644 0.412135
O O2 0.892987 0.540152 0.641947
O O3 0.140563 0.082409 0.524733
O O4 0.160997 0.950983 0.231478
O O5 0.842673 0.312737 0.407861
O O6 0.593294 0.990537 0.870546
O O7 0.500000 0.500000 0.500000
O O8 0.336950 0.144495 0.813575
O O9 0.459997 0.560993 0.862676
O O10 0.230992 0.232557 0.902315
O O11 0.429920 0.202225 0.950708
O O12 0.159322 0.697090 0.058234
O O13 0.932691 0.769239 0.262587
O O14 0.702852 0.504248 0.725635
O O15 0.000000 0.000000 0.500000
O O16 0.943067 0.195212 0.133509
O O17 0.000000 0.000000 0.000000
O O18 0.000000 0.500000 0.000000
#
# Coordination Sequence:
#
# PCOD9012606 Si02
#       8
#     2   2   2   2   2   2   2   2
#     4   9  18  38  64  93 127 171 219 273 336 406
#     4   9  20  36  66  97 124 164 226 286 330 390
#     4  12  24  41  68 106 139 174 237 297 345 403
#     4  10  21  40  72 100 133 177 240 289 340 400
#     4  12  24  42  66  91 141 182 229 269 351 427
#     4  12  27  45  69 101 141 189 225 282 357 423
#     4  11  22  43  70 100 138 185 234 281 348 416
#     4  11  23  40  67 106 133 177 230 295 343 407
#
# _framework density 22.301594999999999
#
# number of rings (size 3 to 8) (size 9 to 14) (size 15 to 20)
#    0.000    1.250    3.750    2.625    5.250    0.000 
#    0.000    1.250    5.500    0.000    0.000    0.000 
#    0.000    0.000    0.000    0.000    0.000    0.000 
#
# Total GULP energy -89301.077059 kJ/mol
# GULP energy per Si atom -5581.317316 kJ/mol
# Density = 2.225084 g / cm^3
# Si number density = 22.301595 Si / 1000 Ang^3
#
#
#
# Elastic Constant Matrix: (Units=GPa)
#
#
# Indices 1 2 3 4 5 6 
#
# 1 95.0728 16.6195 21.2028 -5.7282 8.9816 16.6360
# 2 16.6195 70.4521 26.8300 -16.6567 -10.9241 20.7490
# 3 21.2028 26.8300 181.2644 -27.6164 20.8037 14.8379
# 4 -5.7282 -16.6567 -27.6164 41.5023 3.7277 -2.5485
# 5 8.9816 -10.9241 20.8037 3.7277 32.4404 -0.9164
# 6 16.6360 20.7490 14.8379 -2.5485 -0.9164 30.6038
#
#
#
# Elastic Compliance Matrix: (Units=1/GPa)
#
#
# Indices 1 2 3 4 5 6 
#
# 1 0.012248 -0.001618 -0.000113 0.000997 -0.004135 -0.005547
# 2 -0.001618 0.021443 -0.002084 0.005541 0.008031 -0.011946
# 3 -0.000113 -0.002084 0.007357 0.004462 -0.005955 -0.001899
# 4 0.000997 0.005541 0.004462 0.029601 -0.004790 -0.004140
# 5 -0.004135 0.008031 -0.005955 -0.004790 0.039058 0.000461
# 6 -0.005547 -0.011946 -0.001899 -0.004140 0.000461 0.044380
#
#
# Mechanical properties :
#
#
# Convention : Reuss Voigt Hill
#
# Bulk Modulus (GPa) = 29.92433 52.89933 41.41183
# Shear Modulus (GPa) = 28.92575 39.71841 34.32208
#
# Velocity S-wave (km/s) = 3.60533 4.22473 3.92726
# Velocity P-wave (km/s) = 5.54783 6.89705 6.25890
#
# Compressibility (1/GPa) = 0.03341762
#
# Stress axis : x y z
#
# Youngs Moduli (GPa) = 81.64924 46.63501 135.92069
#
# Poissons Ratio (x) = 0.07546 0.01531
# Poissons Ratio (y) = 0.13212 0.28331
# Poissons Ratio (z) = 0.00920 0.09720
#
# Static dielectric constant tensor:
#      x y z
#    x 1.899790 0.012440 0.010890 
#    y 0.012440 1.896870 0.006840 
#    z 0.010890 0.006840 1.878020 
# 
# From -- ./inp_files/353565.got.cif
#   From: 2010.05.17/outbox.cif.g08.bks.cpg/sg2_177_cif.got.tgz:353565.got - 2010.06.03 11:33:40.
