data_PCOD9012979
_publ_section_title
;
Structure prediction by ZEFSAII (Michael W. Deem and Ramdas Pophale) SiO2 
 PCOD9012979
Probable space group: P -1
;
_chemical_formula_sum "Si O2"
_cell_formula_units_Z 14
_cell_length_a 7.181110
_cell_length_b 12.232998
_cell_length_c 11.955422
_cell_angle_alpha 141.541755
_cell_angle_beta 126.615093
_cell_angle_gamma 62.358695
_cell_volume 524.281057
_symmetry_space_group_name_H-M "P -1"
_symmetry_group_IT_number 2
_symmetry_cell_setting 'triclinic'
loop_
_space_group_symop_operation_xyz
x,y,z
-x,-y,-z
loop_
_atom_site_type_symbol
_atom_site_label
_atom_site_fract_x
_atom_site_fract_y
_atom_site_fract_z
Si Si1 0.671852 0.334131 0.451551
Si Si2 0.709022 0.707101 0.146635
Si Si3 0.213680 0.674692 0.073073
Si Si4 0.996337 0.616993 0.732681
Si Si5 0.238015 0.076851 0.203080
Si Si6 0.333045 0.896637 0.509351
Si Si7 0.557058 0.235459 0.099581
O O1 0.500000 0.500000 0.500000
O O2 0.690959 0.232416 0.493899
O O3 0.587967 0.212685 0.222453
O O4 0.919055 0.421142 0.576958
O O5 0.462682 0.685048 0.106547
O O6 0.775921 0.907982 0.360770
O O7 0.837439 0.529009 0.080289
O O8 0.668011 0.693486 0.986587
O O9 0.232588 0.794088 0.284628
O O10 0.036528 0.720871 0.947328
O O11 0.233666 0.636428 0.764566
O O12 0.802658 0.721156 0.678405
O O13 0.380607 0.078909 0.373404
O O14 0.408963 0.949040 0.096400
O O15 0.000000 0.000000 0.000000
#
# Coordination Sequence:
#
# PCOD9012979 Si02
#       7
#     2   2   2   2   2   2   2
#     4  12  23  38  61  96 126 168 202 258 326 367
#     4   9  20  38  63  93 118 165 213 255 305 375
#     4  10  21  41  63  88 127 166 208 258 310 370
#     4  10  21  41  62  93 124 160 213 257 310 371
#     4   9  19  38  62  93 119 156 210 262 308 360
#     4  11  22  39  63  91 128 164 209 251 323 373
#     4   9  20  39  63  91 122 160 211 260 304 370
#
# _framework density 26.703233999999998
#
# number of rings (size 3 to 8) (size 9 to 14) (size 15 to 20)
#    0.000    2.000    1.429    2.571    0.000    2.857 
#   12.857    0.714    0.000    0.000    0.000    0.000 
#    0.000    0.000    0.000    0.000    0.000    0.000 
#
# Total GULP energy -78085.334186 kJ/mol
# GULP energy per Si atom -5577.523870 kJ/mol
# Density = 2.664246 g / cm^3
# Si number density = 26.703234 Si / 1000 Ang^3
#
#
#
# Elastic Constant Matrix: (Units=GPa)
#
#
# Indices 1 2 3 4 5 6 
#
# 1 53.1532 24.0825 14.5884 7.3845 4.5521 22.4428
# 2 24.0825 158.5447 65.7500 -1.1048 -6.1337 13.8309
# 3 14.5884 65.7500 161.4614 -15.9094 -11.0297 8.2164
# 4 7.3845 -1.1048 -15.9094 50.7077 17.3374 2.2177
# 5 4.5521 -6.1337 -11.0297 17.3374 44.5179 0.7328
# 6 22.4428 13.8309 8.2164 2.2177 0.7328 39.5642
#
#
#
# Elastic Compliance Matrix: (Units=1/GPa)
#
#
# Indices 1 2 3 4 5 6 
#
# 1 0.026666 -0.002472 -0.001130 -0.003023 -0.001942 -0.013822
# 2 -0.002472 0.008028 -0.003014 -0.000682 0.000890 -0.000756
# 3 -0.001130 -0.003014 0.007803 0.002297 0.000740 -0.000069
# 4 -0.003023 -0.000682 0.002297 0.023750 -0.008470 0.000302
# 5 -0.001942 0.000890 0.000740 -0.008470 0.026256 0.000625
# 6 -0.013822 -0.000756 -0.000069 0.000302 0.000625 0.033366
#
#
# Mechanical properties :
#
#
# Convention : Reuss Voigt Hill
#
# Bulk Modulus (GPa) = 34.16943 64.66680 49.41812
# Shear Modulus (GPa) = 33.58928 44.87383 39.23155
#
# Velocity S-wave (km/s) = 3.55050 4.10379 3.83713
# Velocity P-wave (km/s) = 5.44351 6.83551 6.17884
#
# Compressibility (1/GPa) = 0.02926592
#
# Stress axis : x y z
#
# Youngs Moduli (GPa) = 37.50056 124.55669 128.15297
#
# Poissons Ratio (x) = 0.30796 0.14478
# Poissons Ratio (y) = 0.09272 0.38623
# Poissons Ratio (z) = 0.04237 0.37539
#
# Static dielectric constant tensor:
#      x y z
#    x 2.339530 0.040390 0.066130 
#    y 0.040390 2.187400 -0.086190 
#    z 0.066130 -0.086190 2.401790 
# 
# From -- ./inp_files/154167.got.cif
#   From: 2010.05.17/outbox.cif.g08.bks.cpg/sg2_78_cif.got.tgz:154167.got - 2010.06.03 11:33:40.
