data_PCOD9012874
_publ_section_title
;
Structure prediction by ZEFSAII (Michael W. Deem and Ramdas Pophale) SiO2 
 PCOD9012874
Probable space group: P -1
;
_chemical_formula_sum "Si O2"
_cell_formula_units_Z 16
_cell_length_a 5.409178
_cell_length_b 12.320782
_cell_length_c 10.924737
_cell_angle_alpha 88.536894
_cell_angle_beta 88.217271
_cell_angle_gamma 100.454186
_cell_volume 715.289799
_symmetry_space_group_name_H-M "P -1"
_symmetry_group_IT_number 2
_symmetry_cell_setting 'triclinic'
loop_
_space_group_symop_operation_xyz
x,y,z
-x,-y,-z
loop_
_atom_site_type_symbol
_atom_site_label
_atom_site_fract_x
_atom_site_fract_y
_atom_site_fract_z
Si Si1 0.948954 0.397178 0.599984
Si Si2 0.991926 0.476186 0.151498
Si Si3 0.798601 0.980326 0.369759
Si Si4 0.463374 0.398345 0.098406
Si Si5 0.400136 0.267904 0.532169
Si Si6 0.794932 0.001363 0.101877
Si Si7 0.507771 0.839065 0.936164
Si Si8 0.344090 0.117364 0.336992
O O1 0.673184 0.327213 0.572798
O O2 0.000000 0.500000 0.500000
O O3 0.948022 0.432920 0.743460
O O4 0.176880 0.330500 0.574483
O O5 0.705063 0.420522 0.180552
O O6 0.197970 0.398930 0.165088
O O7 0.000000 0.500000 0.000000
O O8 0.669316 0.859384 0.419718
O O9 0.855393 0.955994 0.229560
O O10 0.578608 0.055541 0.368304
O O11 0.077919 0.049937 0.395243
O O12 0.477115 0.285228 0.033478
O O13 0.500000 0.500000 0.000000
O O14 0.397865 0.240782 0.387721
O O15 0.749953 0.126792 0.106007
O O16 0.564519 0.912659 0.053982
O O17 0.000000 0.000000 0.000000
O O18 0.671671 0.875090 0.810433
#
# Coordination Sequence:
#
# PCOD9012874 Si02
#       8
#     2   2   2   2   2   2   2   2
#     4  12  28  47  71 102 141 180 238 290 339 411
#     4  10  24  45  69  94 138 174 231 284 339 400
#     4  11  23  42  68 101 138 172 229 279 344 419
#     4  10  23  42  66 101 133 181 230 282 332 415
#     4  12  26  46  72  98 136 186 222 287 355 398
#     4  10  21  41  61  99 139 175 220 285 346 412
#     4  10  23  37  66  96 135 179 225 274 347 409
#     4  11  23  41  68 100 132 175 227 278 336 420
#
# _framework density 22.368556000000002
#
# number of rings (size 3 to 8) (size 9 to 14) (size 15 to 20)
#    0.000    1.250    1.250    3.375    5.250    4.000 
#    2.250    0.000    0.000    0.000    0.000    0.000 
#    0.000    0.000    0.000    0.000    0.000    0.000 
#
# Total GULP energy -89067.852798 kJ/mol
# GULP energy per Si atom -5566.740800 kJ/mol
# Density = 2.231764 g / cm^3
# Si number density = 22.368556 Si / 1000 Ang^3
#
#
#
# Elastic Constant Matrix: (Units=GPa)
#
#
# Indices 1 2 3 4 5 6 
#
# 1 192.9699 62.2459 -1.0769 16.2367 -28.7707 3.7008
# 2 62.2459 136.0536 33.7589 10.4975 3.3339 -8.1720
# 3 -1.0769 33.7589 116.1950 10.1334 30.5356 27.0173
# 4 16.2367 10.4975 10.1334 43.1927 -2.8377 -2.7691
# 5 -28.7707 3.3339 30.5356 -2.8377 88.6875 31.9047
# 6 3.7008 -8.1720 27.0173 -2.7691 31.9047 43.1086
#
#
#
# Elastic Compliance Matrix: (Units=1/GPa)
#
#
# Indices 1 2 3 4 5 6 
#
# 1 0.007363 -0.004035 0.001697 -0.002282 0.003845 -0.005453
# 2 -0.004035 0.010678 -0.004035 0.000131 -0.002838 0.007008
# 3 0.001697 -0.004035 0.012144 -0.003077 -0.000601 -0.008275
# 4 -0.002282 0.000131 -0.003077 0.024934 -0.000324 0.003990
# 5 0.003845 -0.002838 -0.000601 -0.000324 0.017731 -0.013635
# 6 -0.005453 0.007008 -0.008275 0.003990 -0.013635 0.040528
#
#
# Mechanical properties :
#
#
# Convention : Reuss Voigt Hill
#
# Bulk Modulus (GPa) = 57.34153 70.56381 63.95267
# Shear Modulus (GPa) = 37.89657 58.35046 48.12351
#
# Velocity S-wave (km/s) = 4.12052 5.11298 4.64334
# Velocity P-wave (km/s) = 6.95189 8.15299 7.57628
#
# Compressibility (1/GPa) = 0.01743937
#
# Stress axis : x y z
#
# Youngs Moduli (GPa) = 135.81129 93.65167 82.34208
#
# Poissons Ratio (x) = 0.37793 -0.13976
# Poissons Ratio (y) = 0.54807 0.33224
# Poissons Ratio (z) = -0.23051 0.37787
#
# Static dielectric constant tensor:
#      x y z
#    x 1.930920 0.013400 0.058910 
#    y 0.013400 1.908650 0.002380 
#    z 0.058910 0.002380 1.989470 
# 
# From -- ./inp_files/363052.got.cif
#   From: 2010.05.17/outbox.cif.g08.bks.cpg/sg2_182_cif.got.tgz:363052.got - 2010.06.03 11:33:40.
