data_PCOD9012577
_publ_section_title
;
Structure prediction by ZEFSAII (Michael W. Deem and Ramdas Pophale) SiO2 
 PCOD9012577
Probable space group: P -1
;
_chemical_formula_sum "Si O2"
_cell_formula_units_Z 16
_cell_length_a 12.594410
_cell_length_b 8.561563
_cell_length_c 14.421100
_cell_angle_alpha 127.059342
_cell_angle_beta 50.041955
_cell_angle_gamma 86.977643
_cell_volume 661.147391
_symmetry_space_group_name_H-M "P -1"
_symmetry_group_IT_number 2
_symmetry_cell_setting 'triclinic'
loop_
_space_group_symop_operation_xyz
x,y,z
-x,-y,-z
loop_
_atom_site_type_symbol
_atom_site_label
_atom_site_fract_x
_atom_site_fract_y
_atom_site_fract_z
Si Si1 0.557865 0.062646 0.794975
Si Si2 0.154250 0.925254 0.465180
Si Si3 0.413979 0.806519 0.778047
Si Si4 0.461957 0.713570 0.928111
Si Si5 0.763216 0.743683 0.233010
Si Si6 0.226423 0.559069 0.044463
Si Si7 0.727711 0.451595 0.274105
Si Si8 0.828490 0.041880 0.202690
O O1 0.709047 0.047979 0.649649
O O2 0.562661 0.832630 0.681001
O O3 0.581288 0.080466 0.896613
O O4 0.334345 0.362604 0.003807
O O5 0.310960 0.605245 0.304089
O O6 0.000000 0.000000 0.500000
O O7 0.008161 0.172693 0.711583
O O8 0.395829 0.850981 0.913515
O O9 0.431252 0.552595 0.668176
O O10 0.235803 0.008886 0.874664
O O11 0.321240 0.673578 0.016458
O O12 0.689731 0.712754 0.357293
O O13 0.731217 0.003704 0.321719
O O14 0.701874 0.655739 0.154825
O O15 0.000000 0.500000 0.000000
O O16 0.773841 0.320264 0.304422
O O17 0.932716 0.199540 0.012902
#
# Coordination Sequence:
#
# PCOD9012577 Si02
#       8
#     2   2   2   2   2   2   2   2
#     4  11  21  34  56  82 107 152 189 227 292 335
#     4  11  21  37  57  77 113 150 191 243 275 339
#     4  10  18  32  51  81 117 140 190 241 272 342
#     4  11  21  34  56  82 107 152 189 227 292 335
#     4  10  17  29  57  91 106 143 196 228 283 348
#     4  11  18  37  59  80 112 145 187 237 285 336
#     4   8  15  28  49  83 113 137 183 231 277 335
#     4   8  15  28  49  83 113 137 183 231 277 335
#
# _framework density 24.200351000000001
#
# number of rings (size 3 to 8) (size 9 to 14) (size 15 to 20)
#    0.750    1.250    5.000    1.125    0.000    0.000 
#    0.000    1.875    0.000    3.000    0.000    7.000 
#    0.000    0.000    0.000    0.000    0.000    0.000 
#
# Total GULP energy -89099.781630 kJ/mol
# GULP energy per Si atom -5568.736352 kJ/mol
# Density = 2.414527 g / cm^3
# Si number density = 24.200351 Si / 1000 Ang^3
#
#
#
# Elastic Constant Matrix: (Units=GPa)
#
#
# Indices 1 2 3 4 5 6 
#
# 1 -2.8143 7.7902 19.3670 38.6208 -40.1898 -14.6635
# 2 7.7902 146.2179 35.2434 -24.0147 -1.6520 19.3314
# 3 19.3670 35.2434 109.6017 3.4907 -2.2278 14.6105
# 4 38.6208 -24.0147 3.4907 1.9968 22.5476 5.3192
# 5 -40.1898 -1.6520 -2.2278 22.5476 9.3490 -13.6984
# 6 -14.6635 19.3314 14.6105 5.3192 -13.6984 46.1182
#
#
#
# Elastic Compliance Matrix: (Units=1/GPa)
#
#
# Indices 1 2 3 4 5 6 
#
# 1 0.007520 0.003088 -0.002648 0.015760 -0.009910 -0.002826
# 2 0.003088 0.008189 -0.003119 0.003761 0.003767 -0.000778
# 3 -0.002648 -0.003119 0.011080 -0.005444 0.000516 -0.002264
# 4 0.015760 0.003761 -0.005444 0.024957 0.018182 0.007681
# 5 -0.009910 0.003767 0.000516 0.018182 0.019574 -0.001176
# 6 -0.002826 -0.000778 -0.002264 0.007681 -0.001176 0.020593
#
#
# Mechanical properties :
#
#
# Convention : Reuss Voigt Hill
#
# Bulk Modulus (GPa) = 46.66096 41.97852 44.31974
# Shear Modulus (GPa) = 47.88576 24.19979 36.04277
#
# Velocity S-wave (km/s) = 4.45311 3.16567 3.86340
# Velocity P-wave (km/s) = 6.76485 5.54490 6.18502
#
# Compressibility (1/GPa) = 0.02143119
#
# Stress axis : x y z
#
# Youngs Moduli (GPa) = 132.98730 122.10879 90.24964
#
# Poissons Ratio (x) = -0.37704 0.23901
# Poissons Ratio (y) = -0.41063 0.28144
# Poissons Ratio (z) = 0.35219 0.38080
#
# Static dielectric constant tensor:
#      x y z
#    x 1.959150 -0.057230 0.022060 
#    y -0.057230 2.029390 0.068910 
#    z 0.022060 0.068910 1.995930 
# 
# From -- ./inp_files/572739.got.cif
#   From: 2010.05.17/outbox.cif.g08.bks.cpg/sg2_287_cif.got.tgz:572739.got - 2010.06.03 11:33:40.
