data_PCOD9012256
_publ_section_title
;
Structure prediction by ZEFSAII (Michael W. Deem and Ramdas Pophale) SiO2 
 PCOD9012256
Probable space group: P -1
;
_chemical_formula_sum "Si O2"
_cell_formula_units_Z 16
_cell_length_a 24.873502
_cell_length_b 9.528105
_cell_length_c 8.448811
_cell_angle_alpha 106.914478
_cell_angle_beta 47.609329
_cell_angle_gamma 144.696286
_cell_volume 678.926432
_symmetry_space_group_name_H-M "P -1"
_symmetry_group_IT_number 2
_symmetry_cell_setting 'triclinic'
loop_
_space_group_symop_operation_xyz
x,y,z
-x,-y,-z
loop_
_atom_site_type_symbol
_atom_site_label
_atom_site_fract_x
_atom_site_fract_y
_atom_site_fract_z
Si Si1 0.025956 0.313951 0.823350
Si Si2 0.563471 0.285233 0.707727
Si Si3 0.764525 0.624031 0.101545
Si Si4 0.976423 0.408658 0.278322
Si Si5 0.641536 0.110139 0.552657
Si Si6 0.430045 0.495218 0.755107
Si Si7 0.664794 0.744167 0.815299
Si Si8 0.258183 0.753773 0.968414
O O1 0.998750 0.379937 0.756273
O O2 0.201713 0.585158 0.570978
O O3 0.993199 0.343685 0.061373
O O4 0.922341 0.987956 0.921385
O O5 0.667975 0.457424 0.400467
O O6 0.546505 0.090929 0.743262
O O7 0.657781 0.559355 0.722434
O O8 0.397341 0.044781 0.901372
O O9 0.667162 0.552257 0.153201
O O10 0.783115 0.486289 0.980474
O O11 0.807884 0.076111 0.563829
O O12 0.105271 0.577474 0.197443
O O13 0.674607 0.135340 0.308702
O O14 0.564988 0.827489 0.675998
O O15 0.500000 0.500000 0.500000
O O16 0.334345 0.244542 0.994424
O O17 0.500000 0.500000 0.000000
#
# Coordination Sequence:
#
# PCOD9012256 Si02
#       8
#     2   2   2   2   2   2   2   2
#     4  10  22  37  70 102 137 179 227 275 329 410
#     4  11  21  43  70 102 137 173 231 283 334 401
#     4  11  21  40  69 104 132 184 231 269 337 405
#     4  10  23  42  63 101 141 178 226 280 342 394
#     4  10  21  40  69 103 134 179 228 277 335 401
#     4  12  26  43  70  98 134 180 235 280 336 415
#     4  12  27  44  67 100 139 180 226 286 346 396
#     4  10  21  40  70 101 137 176 227 276 341 405
#
# _framework density 23.566618999999999
#
# number of rings (size 3 to 8) (size 9 to 14) (size 15 to 20)
#    0.000    1.250    3.750    2.250    7.000    2.000 
#    0.000    4.375    0.000    0.000    0.000    0.000 
#    0.000    0.000    0.000    0.000    0.000    0.000 
#
# Total GULP energy -89582.156895 kJ/mol
# GULP energy per Si atom -5598.884806 kJ/mol
# Density = 2.351298 g / cm^3
# Si number density = 23.566619 Si / 1000 Ang^3
#
#
#
# Elastic Constant Matrix: (Units=GPa)
#
#
# Indices 1 2 3 4 5 6 
#
# 1 127.4959 34.8911 54.1083 -7.4065 -13.1162 -10.6571
# 2 34.8911 120.1273 29.5053 -37.1328 -4.8838 -9.4521
# 3 54.1083 29.5053 89.6386 -26.4266 -6.4004 -0.7691
# 4 -7.4065 -37.1328 -26.4266 40.9988 3.0749 1.2583
# 5 -13.1162 -4.8838 -6.4004 3.0749 36.0521 -9.5702
# 6 -10.6571 -9.4521 -0.7691 1.2583 -9.5702 34.4961
#
#
#
# Elastic Compliance Matrix: (Units=1/GPa)
#
#
# Indices 1 2 3 4 5 6 
#
# 1 0.012536 -0.003048 -0.008020 -0.006127 0.004388 0.004300
# 2 -0.003048 0.012710 0.001121 0.011582 0.000424 0.002261
# 3 -0.008020 0.001121 0.019073 0.012016 -0.001062 -0.002478
# 4 -0.006127 0.011582 0.012016 0.041706 -0.002242 -0.000594
# 5 0.004388 0.000424 -0.001062 -0.002242 0.032169 0.010455
# 6 0.004300 0.002261 -0.002478 -0.000594 0.010455 0.033803
#
#
# Mechanical properties :
#
#
# Convention : Reuss Voigt Hill
#
# Bulk Modulus (GPa) = 40.94263 63.80790 52.37526
# Shear Modulus (GPa) = 27.77261 36.89322 32.33291
#
# Velocity S-wave (km/s) = 3.43661 3.96092 3.70804
# Velocity P-wave (km/s) = 5.75829 6.93201 6.37223
#
# Compressibility (1/GPa) = 0.02442442
#
# Stress axis : x y z
#
# Youngs Moduli (GPa) = 79.77019 78.67878 52.42943
#
# Poissons Ratio (x) = 0.23985 0.42047
# Poissons Ratio (y) = 0.24317 -0.05876
# Poissons Ratio (z) = 0.63973 -0.08818
#
# Static dielectric constant tensor:
#      x y z
#    x 1.898090 0.010920 -0.002670 
#    y 0.010920 1.920960 0.015660 
#    z -0.002670 0.015660 1.888270 
# 
# From -- ./inp_files/352239.got.cif
#   From: 2010.05.17/outbox.cif.g08.bks.cpg/sg2_177_cif.got.tgz:352239.got - 2010.06.03 11:33:40.
