data_PCOD9012545
_publ_section_title
;
Structure prediction by ZEFSAII (Michael W. Deem and Ramdas Pophale) SiO2 
 PCOD9012545
Probable space group: P -1
;
_chemical_formula_sum "Si O2"
_cell_formula_units_Z 14
_cell_length_a 4.992493
_cell_length_b 9.515719
_cell_length_c 18.798415
_cell_angle_alpha 126.091716
_cell_angle_beta 98.023791
_cell_angle_gamma 91.794455
_cell_volume 707.363473
_symmetry_space_group_name_H-M "P -1"
_symmetry_group_IT_number 2
_symmetry_cell_setting 'triclinic'
loop_
_space_group_symop_operation_xyz
x,y,z
-x,-y,-z
loop_
_atom_site_type_symbol
_atom_site_label
_atom_site_fract_x
_atom_site_fract_y
_atom_site_fract_z
Si Si1 0.311955 0.252023 0.477098
Si Si2 0.533834 0.345590 0.901565
Si Si3 0.250552 0.318140 0.742264
Si Si4 0.296890 0.250807 0.315634
Si Si5 0.209696 0.550685 0.674646
Si Si6 0.978982 0.150311 0.811924
Si Si7 0.210167 0.965475 0.560082
O O1 0.402761 0.295672 0.412988
O O2 0.269428 0.406541 0.575349
O O3 0.546314 0.143348 0.482936
O O4 0.006461 0.143803 0.427154
O O5 0.465946 0.398091 0.833653
O O6 0.820213 0.275505 0.890989
O O7 0.295076 0.180613 0.855567
O O8 0.500000 0.500000 0.000000
O O9 0.195522 0.455991 0.722080
O O10 0.997363 0.231455 0.756572
O O11 0.334891 0.149014 0.654489
O O12 0.539605 0.295029 0.281588
O O13 0.068304 0.373961 0.328394
O O14 0.167809 0.046973 0.249265
O O15 0.000000 0.000000 0.500000
#
# Coordination Sequence:
#
# PCOD9012545 Si02
#       7
#     2   2   2   2   2   2   2
#     4  12  23  40  58  84 123 176 219 254 299 360
#     4  10  21  40  71 100 117 149 207 264 308 371
#     4  10  25  38  66  91 123 161 210 256 319 353
#     4  12  24  42  59  90 127 175 208 252 307 371
#     4  12  26  37  61  88 131 164 217 260 305 354
#     4  10  22  40  68  89 123 157 206 246 317 373
#     4  12  23  37  63  87 126 161 217 264 305 356
#
# _framework density 19.791806000000001
#
# number of rings (size 3 to 8) (size 9 to 14) (size 15 to 20)
#    0.857    0.000    2.857    5.143    2.000    0.000 
#    0.000    0.000    0.000    5.143    0.000    0.000 
#    0.000    0.000    0.000    0.000    0.000    0.000 
#
# Total GULP energy -78134.104837 kJ/mol
# GULP energy per Si atom -5581.007488 kJ/mol
# Density = 1.974676 g / cm^3
# Si number density = 19.791806 Si / 1000 Ang^3
#
#
#
# Elastic Constant Matrix: (Units=GPa)
#
#
# Indices 1 2 3 4 5 6 
#
# 1 74.3812 14.1259 -10.5077 -3.2097 -2.8206 -9.2574
# 2 14.1259 79.6541 11.2365 -3.6188 5.9203 4.8264
# 3 -10.5077 11.2365 76.2279 0.5036 -2.0215 -3.0598
# 4 -3.2097 -3.6188 0.5036 12.8085 -2.6994 2.3430
# 5 -2.8206 5.9203 -2.0215 -2.6994 24.2100 9.1916
# 6 -9.2574 4.8264 -3.0598 2.3430 9.1916 38.4040
#
#
#
# Elastic Compliance Matrix: (Units=1/GPa)
#
#
# Indices 1 2 3 4 5 6 
#
# 1 0.015090 -0.003302 0.002744 0.002405 0.001647 0.003730
# 2 -0.003302 0.014009 -0.002707 0.003058 -0.002829 -0.002282
# 3 0.002744 -0.002707 0.014010 -0.000671 0.001383 0.001828
# 4 0.002405 0.003058 -0.000671 0.083457 0.011727 -0.007756
# 5 0.001647 -0.002829 0.001383 0.011727 0.047910 -0.011319
# 6 0.003730 -0.002282 0.001828 -0.007756 -0.011319 0.030553
#
#
# Mechanical properties :
#
#
# Convention : Reuss Voigt Hill
#
# Bulk Modulus (GPa) = 27.33799 28.88585 28.11192
# Shear Modulus (GPa) = 22.34622 29.44506 25.89564
#
# Velocity S-wave (km/s) = 3.36380 3.86131 3.62111
# Velocity P-wave (km/s) = 5.37863 5.87419 5.63186
#
# Compressibility (1/GPa) = 0.03657913
#
# Stress axis : x y z
#
# Youngs Moduli (GPa) = 66.27096 71.38130 71.37574
#
# Poissons Ratio (x) = 0.23572 -0.19588
# Poissons Ratio (y) = 0.21884 0.19322
# Poissons Ratio (z) = -0.18187 0.19324
#
# Static dielectric constant tensor:
#      x y z
#    x 1.735210 0.052330 0.009890 
#    y 0.052330 1.749060 -0.012080 
#    z 0.009890 -0.012080 1.687200 
# 
# From -- ./inp_files/369410.got.cif
#   From: 2010.05.17/outbox.cif.g08.bks.cpg/sg2_185_cif.got.tgz:369410.got - 2010.06.03 11:33:40.
