data_PCOD9012432
_publ_section_title
;
Structure prediction by ZEFSAII (Michael W. Deem and Ramdas Pophale) SiO2 
 PCOD9012432
Probable space group: P -1
;
_chemical_formula_sum "Si O2"
_cell_formula_units_Z 15
_cell_length_a 11.378325
_cell_length_b 11.977623
_cell_length_c 8.784203
_cell_angle_alpha 54.901872
_cell_angle_beta 44.089766
_cell_angle_gamma 46.675209
_cell_volume 597.924538
_symmetry_space_group_name_H-M "P -1"
_symmetry_group_IT_number 2
_symmetry_cell_setting 'triclinic'
loop_
_space_group_symop_operation_xyz
x,y,z
-x,-y,-z
loop_
_atom_site_type_symbol
_atom_site_label
_atom_site_fract_x
_atom_site_fract_y
_atom_site_fract_z
Si Si1 0.873319 0.359032 0.640360
Si Si2 0.700243 0.636925 0.988866
Si Si3 0.578471 0.253616 0.097418
Si Si4 0.093200 0.374711 0.722016
Si Si5 0.174658 0.108362 0.332114
Si Si6 0.705339 0.189120 0.356216
Si Si7 0.860467 0.921628 0.957006
Si Si8 0.500000 0.500000 0.500000
O O1 0.697188 0.344845 0.882770
O O2 0.014742 0.349233 0.652854
O O3 0.807820 0.518199 0.483519
O O4 0.992844 0.220688 0.518495
O O5 0.620647 0.656582 0.875518
O O6 0.565700 0.608447 0.250858
O O7 0.911155 0.488707 0.905887
O O8 0.715142 0.792652 0.879237
O O9 0.702368 0.086419 0.034478
O O10 0.576338 0.223122 0.300261
O O11 0.194011 0.210331 0.838772
O O12 0.116686 0.076368 0.246628
O O13 0.291069 0.948924 0.439249
O O14 0.639359 0.346598 0.386647
O O15 0.925731 0.127919 0.140462
#
# Coordination Sequence:
#
# PCOD9012432 Si02
#       8
#     2   2   2   2   2   2   2   1
#     4  10  21  40  70 102 132 185 219 295 326 419
#     4  11  27  47  66 106 141 188 219 293 344 421
#     4  12  25  44  77 100 140 180 239 274 352 403
#     4  10  22  44  69 102 144 172 239 273 356 399
#     4  11  26  45  71  99 145 176 240 279 352 401
#     4  12  25  46  70 106 135 186 229 292 334 423
#     4  12  23  44  72 104 131 186 233 289 329 416
#     4  12  26  44  70  98 152 170 228 280 362 396
#
# _framework density 25.086776
#
# number of rings (size 3 to 8) (size 9 to 14) (size 15 to 20)
#    0.000    0.800    4.000    2.400    1.867    8.000 
#    0.000    2.667    0.000    0.000    0.000    0.000 
#    0.000    0.000    0.000    0.000    0.000    0.000 
#
# Total GULP energy -83927.799743 kJ/mol
# GULP energy per Si atom -5595.186650 kJ/mol
# Density = 2.502968 g / cm^3
# Si number density = 25.086776 Si / 1000 Ang^3
#
#
#
# Elastic Constant Matrix: (Units=GPa)
#
#
# Indices 1 2 3 4 5 6 
#
# 1 44.4267 15.6323 16.5628 -2.5641 5.9470 -3.9895
# 2 15.6323 136.3267 36.2800 -10.9453 -8.2563 21.6409
# 3 16.5628 36.2800 126.6199 -35.5019 12.6182 0.1241
# 4 -2.5641 -10.9453 -35.5019 47.6996 13.0216 -4.4451
# 5 5.9470 -8.2563 12.6182 13.0216 17.4864 -0.3927
# 6 -3.9895 21.6409 0.1241 -4.4451 -0.3927 18.9160
#
#
#
# Elastic Compliance Matrix: (Units=1/GPa)
#
#
# Indices 1 2 3 4 5 6 
#
# 1 0.029057 -0.007528 0.003628 0.010507 -0.023504 0.016698
# 2 -0.007528 0.014345 -0.009091 -0.012541 0.024774 -0.020372
# 3 0.003628 -0.009091 0.021592 0.026832 -0.040718 0.016483
# 4 0.010507 -0.012541 0.026832 0.061568 -0.074046 0.029318
# 5 -0.023504 0.024774 -0.040718 -0.074046 0.160342 -0.047104
# 6 0.016698 -0.020372 0.016483 0.029318 -0.047104 0.085497
#
#
# Mechanical properties :
#
#
# Convention : Reuss Voigt Hill
#
# Bulk Modulus (GPa) = 25.63191 49.36928 37.50060
# Shear Modulus (GPa) = 12.15397 32.74695 22.45046
#
# Velocity S-wave (km/s) = 2.20347 3.61688 2.99475
# Velocity P-wave (km/s) = 4.08818 6.09627 5.19027
#
# Compressibility (1/GPa) = 0.03901387
#
# Stress axis : x y z
#
# Youngs Moduli (GPa) = 34.41453 69.70916 46.31262
#
# Poissons Ratio (x) = 0.52477 -0.16802
# Poissons Ratio (y) = 0.25907 0.42101
# Poissons Ratio (z) = -0.12486 0.63370
#
# Static dielectric constant tensor:
#      x y z
#    x 2.080950 -0.004780 -0.039090 
#    y -0.004780 1.907660 -0.007100 
#    z -0.039090 -0.007100 1.933310 
# 
# From -- ./inp_files/224070.got.cif
#   From: 2010.05.17/outbox.cif.g08.bks.cpg/sg2_113_cif.got.tgz:224070.got - 2010.06.03 11:33:40.
