data_PCOD9012372
_publ_section_title
;
Structure prediction by ZEFSAII (Michael W. Deem and Ramdas Pophale) SiO2 
 PCOD9012372
Probable space group: P -1
;
_chemical_formula_sum "Si O2"
_cell_formula_units_Z 16
_cell_length_a 7.158496
_cell_length_b 16.398870
_cell_length_c 8.430931
_cell_angle_alpha 63.810259
_cell_angle_beta 85.582260
_cell_angle_gamma 46.082851
_cell_volume 598.215377
_symmetry_space_group_name_H-M "P -1"
_symmetry_group_IT_number 2
_symmetry_cell_setting 'triclinic'
loop_
_space_group_symop_operation_xyz
x,y,z
-x,-y,-z
loop_
_atom_site_type_symbol
_atom_site_label
_atom_site_fract_x
_atom_site_fract_y
_atom_site_fract_z
Si Si1 0.634398 0.857282 0.047304
Si Si2 0.990591 0.621617 0.030215
Si Si3 0.990519 0.301692 0.372942
Si Si4 0.375635 0.794680 0.331139
Si Si5 0.770280 0.551903 0.337166
Si Si6 0.033657 0.944156 0.720284
Si Si7 0.494688 0.014669 0.672609
Si Si8 0.442228 0.687743 0.743716
O O1 0.488647 0.918103 0.833434
O O2 0.529408 0.815541 0.200079
O O3 0.941446 0.719630 0.080707
O O4 0.500000 0.000000 0.000000
O O5 0.299418 0.471451 0.116725
O O6 0.827160 0.597044 0.144205
O O7 0.905838 0.683487 0.806077
O O8 0.823137 0.432280 0.377064
O O9 0.805152 0.286719 0.329059
O O10 0.224100 0.172214 0.578135
O O11 0.467542 0.673470 0.331382
O O12 0.496090 0.737031 0.550132
O O13 0.064976 0.942348 0.248385
O O14 0.000000 0.500000 0.500000
O O15 0.315145 0.786506 0.817645
O O16 0.781676 0.961966 0.742406
O O17 0.000000 0.000000 0.500000
O O18 0.500000 0.000000 0.500000
#
# Coordination Sequence:
#
# PCOD9012372 Si02
#       8
#     2   2   2   2   2   2   2   2
#     4  11  23  40  72 100 132 182 232 282 334 405
#     4  11  24  44  68 104 138 177 236 279 344 420
#     4  12  26  42  71 102 140 181 233 285 340 413
#     4  10  22  42  65  97 133 176 232 275 336 409
#     4  11  23  44  69  98 132 183 226 289 345 400
#     4  10  21  40  69  97 132 178 224 272 344 405
#     4  12  22  42  66 101 133 171 235 282 329 405
#     4  11  23  43  71 101 143 182 223 285 354 407
#
# _framework density 26.746217000000001
#
# number of rings (size 3 to 8) (size 9 to 14) (size 15 to 20)
#    0.000    1.000    5.000    1.500    3.500    0.500 
#    0.000    0.625    0.000    0.000    0.000    0.000 
#    0.000    0.000    0.000    0.000    0.000    0.000 
#
# Total GULP energy -89417.291282 kJ/mol
# GULP energy per Si atom -5588.580705 kJ/mol
# Density = 2.668534 g / cm^3
# Si number density = 26.746217 Si / 1000 Ang^3
#
#
#
# Elastic Constant Matrix: (Units=GPa)
#
#
# Indices 1 2 3 4 5 6 
#
# 1 60.0888 34.6097 32.3931 -11.3704 -0.8083 -6.0507
# 2 34.6097 311.2141 18.7480 -31.9350 1.2138 -3.6834
# 3 32.3931 18.7480 129.0502 -11.4215 -15.5135 -12.4268
# 4 -11.3704 -31.9350 -11.4215 47.5989 -2.8735 -2.8469
# 5 -0.8083 1.2138 -15.5135 -2.8735 25.3586 -6.8945
# 6 -6.0507 -3.6834 -12.4268 -2.8469 -6.8945 40.1191
#
#
#
# Elastic Compliance Matrix: (Units=1/GPa)
#
#
# Indices 1 2 3 4 5 6 
#
# 1 0.020850 -0.001734 -0.004786 0.002665 -0.001488 0.001436
# 2 -0.001734 0.003613 0.000143 0.002072 0.000173 0.000291
# 3 -0.004786 0.000143 0.010405 0.002140 0.007525 0.003959
# 4 0.002665 0.002072 0.002140 0.024084 0.005067 0.003835
# 5 -0.001488 0.000173 0.007525 0.005067 0.047448 0.010636
# 6 0.001436 0.000291 0.003959 0.003835 0.010636 0.028495
#
#
# Mechanical properties :
#
#
# Convention : Reuss Voigt Hill
#
# Bulk Modulus (GPa) = 45.22476 74.65052 59.93764
# Shear Modulus (GPa) = 32.25362 50.25549 41.25455
#
# Velocity S-wave (km/s) = 3.47639 4.33942 3.93166
# Velocity P-wave (km/s) = 5.74972 7.28551 6.56270
#
# Compressibility (1/GPa) = 0.02211178
#
# Stress axis : x y z
#
# Youngs Moduli (GPa) = 47.96168 276.79049 96.10874
#
# Poissons Ratio (x) = 0.47999 0.46002
# Poissons Ratio (y) = 0.08317 -0.01370
# Poissons Ratio (z) = 0.22957 -0.03947
#
# Static dielectric constant tensor:
#      x y z
#    x 2.156640 0.031890 0.019530 
#    y 0.031890 2.252690 -0.001180 
#    z 0.019530 -0.001180 2.270490 
# 
# From -- ./inp_files/217033.got.cif
#   From: 2010.05.17/outbox.cif.g08.bks.cpg/sg2_109_cif.got.tgz:217033.got - 2010.06.03 11:33:40.
