data_PCOD9012864
_publ_section_title
;
Structure prediction by ZEFSAII (Michael W. Deem and Ramdas Pophale) SiO2 
 PCOD9012864
Probable space group: P -1
;
_chemical_formula_sum "Si O2"
_cell_formula_units_Z 12
_cell_length_a 9.923895
_cell_length_b 8.150774
_cell_length_c 15.405991
_cell_angle_alpha 129.135194
_cell_angle_beta 114.634896
_cell_angle_gamma 33.862057
_cell_volume 521.728031
_symmetry_space_group_name_H-M "P -1"
_symmetry_group_IT_number 2
_symmetry_cell_setting 'triclinic'
loop_
_space_group_symop_operation_xyz
x,y,z
-x,-y,-z
loop_
_atom_site_type_symbol
_atom_site_label
_atom_site_fract_x
_atom_site_fract_y
_atom_site_fract_z
Si Si1 0.523274 0.803835 0.519689
Si Si2 0.980247 0.276417 0.598008
Si Si3 0.420892 0.087893 0.908602
Si Si4 0.184612 0.941358 0.719930
Si Si5 0.009974 0.915071 0.104910
Si Si6 0.723210 0.088987 0.940658
O O1 0.634911 0.452082 0.396902
O O2 0.730894 0.626989 0.591923
O O3 0.500000 0.000000 0.500000
O O4 0.238898 0.088387 0.570833
O O5 0.017319 0.235968 0.698434
O O6 0.000000 0.000000 0.500000
O O7 0.631467 0.958458 0.864473
O O8 0.340358 0.955951 0.807134
O O9 0.197915 0.514279 0.992434
O O10 0.500000 0.000000 0.000000
O O11 0.015661 0.040312 0.784963
O O12 0.066775 0.069008 0.121714
O O13 0.768878 0.094788 0.055063
O O14 0.500000 0.500000 0.000000
#
# Coordination Sequence:
#
# PCOD9012864 Si02
#       6
#     2   2   2   2   2   2
#     4  11  25  51  74 103 142 177 237 306 355 418
#     4  10  23  48  74 103 136 177 237 304 350 418
#     4  11  22  38  63  98 137 180 227 274 329 416
#     4  11  23  42  70 101 132 188 229 282 361 408
#     4  10  21  41  61  94 137 177 223 275 331 411
#     4   9  20  41  60  86 143 173 221 282 323 388
#
# _framework density 23.000488000000001
#
# number of rings (size 3 to 8) (size 9 to 14) (size 15 to 20)
#    0.000    1.667    1.667    3.000    0.000    4.000 
#    9.000    0.000    0.000    0.000    0.000    0.000 
#    0.000    0.000    0.000    0.000    0.000    0.000 
#
# Total GULP energy -66897.878251 kJ/mol
# GULP energy per Si atom -5574.823188 kJ/mol
# Density = 2.294814 g / cm^3
# Si number density = 23.000488 Si / 1000 Ang^3
#
#
#
# Elastic Constant Matrix: (Units=GPa)
#
#
# Indices 1 2 3 4 5 6 
#
# 1 145.2336 47.4181 34.6387 -33.0699 -7.1694 10.8156
# 2 47.4181 170.7869 48.1002 -31.3211 2.7832 10.8340
# 3 34.6387 48.1002 95.6996 -24.2814 0.6227 4.8151
# 4 -33.0699 -31.3211 -24.2814 44.9441 5.5946 -2.4330
# 5 -7.1694 2.7832 0.6227 5.5946 32.0052 -6.9911
# 6 10.8156 10.8340 4.8151 -2.4330 -6.9911 33.4194
#
#
#
# Elastic Compliance Matrix: (Units=1/GPa)
#
#
# Indices 1 2 3 4 5 6 
#
# 1 0.008833 -0.001094 -0.001344 0.004806 0.000871 -0.001778
# 2 -0.001094 0.007613 -0.002490 0.003282 -0.001848 -0.001903
# 3 -0.001344 -0.002490 0.013406 0.004646 -0.001293 -0.000622
# 4 0.004806 0.003282 0.004646 0.031116 -0.005200 -0.002111
# 5 0.000871 -0.001848 -0.001293 -0.005200 0.034121 0.007263
# 6 -0.001778 -0.001903 -0.000622 -0.002111 0.007263 0.032570
#
#
# Mechanical properties :
#
#
# Convention : Reuss Voigt Hill
#
# Bulk Modulus (GPa) = 50.00999 74.67045 62.34022
# Shear Modulus (GPa) = 34.67865 40.84462 37.76164
#
# Velocity S-wave (km/s) = 3.88717 4.21861 4.05628
# Velocity P-wave (km/s) = 6.47588 7.50094 7.00718
#
# Compressibility (1/GPa) = 0.01999601
#
# Stress axis : x y z
#
# Youngs Moduli (GPa) = 113.21221 131.35416 74.59490
#
# Poissons Ratio (x) = 0.14368 0.10026
# Poissons Ratio (y) = 0.12384 0.18573
# Poissons Ratio (z) = 0.15217 0.32706
#
# Static dielectric constant tensor:
#      x y z
#    x 1.976560 -0.049920 -0.055580 
#    y -0.049920 1.806690 -0.016700 
#    z -0.055580 -0.016700 1.892630 
# 
# From -- ./inp_files/512402.got.cif
#   From: 2010.05.17/outbox.cif.g08.bks.cpg/sg2_257_cif.got.tgz:512402.got - 2010.06.03 11:33:40.
