data_PCOD9012740
_publ_section_title
;
Structure prediction by ZEFSAII (Michael W. Deem and Ramdas Pophale) SiO2 
 PCOD9012740
Probable space group: P -1
;
_chemical_formula_sum "Si O2"
_cell_formula_units_Z 16
_cell_length_a 15.544874
_cell_length_b 6.041459
_cell_length_c 18.737606
_cell_angle_alpha 105.382433
_cell_angle_beta 155.701992
_cell_angle_gamma 85.572467
_cell_volume 635.262244
_symmetry_space_group_name_H-M "P -1"
_symmetry_group_IT_number 2
_symmetry_cell_setting 'triclinic'
loop_
_space_group_symop_operation_xyz
x,y,z
-x,-y,-z
loop_
_atom_site_type_symbol
_atom_site_label
_atom_site_fract_x
_atom_site_fract_y
_atom_site_fract_z
Si Si1 0.712828 0.606393 0.617976
Si Si2 0.980751 0.075056 0.787560
Si Si3 0.189711 0.700648 0.453442
Si Si4 0.919101 0.707680 0.489940
Si Si5 0.522068 0.767597 0.253427
Si Si6 0.665389 0.796848 0.167928
Si Si7 0.245571 0.751323 0.910747
Si Si8 0.891091 0.443397 0.990912
O O1 0.500000 0.500000 0.500000
O O2 0.764454 0.881462 0.651427
O O3 0.690144 0.438654 0.515861
O O4 0.934619 0.620327 0.832041
O O5 0.900570 0.166055 0.664239
O O6 0.135023 0.930840 0.871175
O O7 0.110989 0.301071 0.958295
O O8 0.348561 0.933477 0.640684
O O9 0.962844 0.491736 0.301063
O O10 0.709697 0.648203 0.384018
O O11 0.796947 0.772391 0.335602
O O12 0.000000 0.500000 0.500000
O O13 0.131786 0.968075 0.698050
O O14 0.339502 0.651232 0.041621
O O15 0.371669 0.748427 0.208958
O O16 0.468357 0.891568 0.044511
O O17 0.500000 0.500000 0.000000
O O18 0.000000 0.500000 0.000000
#
# Coordination Sequence:
#
# PCOD9012740 Si02
#       8
#     2   2   2   2   2   2   2   2
#     4  10  23  41  60  87 123 159 209 265 310 366
#     4  10  21  41  60  85 125 162 206 256 314 368
#     4  10  22  39  60  91 121 164 208 252 312 371
#     4  10  24  41  63  97 131 167 213 263 320 376
#     4  11  22  43  62  89 132 162 206 264 305 376
#     4  10  22  40  66  95 128 167 212 264 316 382
#     4  10  21  42  63  90 128 164 206 259 311 372
#     4  11  25  40  61  92 123 165 211 253 315 367
#
# _framework density 25.186449
#
# number of rings (size 3 to 8) (size 9 to 14) (size 15 to 20)
#    0.000    1.750    3.750    0.750    5.250    4.000 
#    2.250    0.000    0.000    0.000    0.000    0.000 
#    0.000    0.000    0.000    0.000    0.000    0.000 
#
# Total GULP energy -89420.487792 kJ/mol
# GULP energy per Si atom -5588.780487 kJ/mol
# Density = 2.512912 g / cm^3
# Si number density = 25.186449 Si / 1000 Ang^3
#
#
#
# Elastic Constant Matrix: (Units=GPa)
#
#
# Indices 1 2 3 4 5 6 
#
# 1 101.8718 5.2197 40.4039 -1.8836 23.8369 -4.9690
# 2 5.2197 61.1801 31.9478 8.1312 6.8199 -7.7513
# 3 40.4039 31.9478 148.7603 6.6747 23.5731 -10.5333
# 4 -1.8836 8.1312 6.6747 42.4492 -5.7688 -9.1012
# 5 23.8369 6.8199 23.5731 -5.7688 60.1626 -0.2017
# 6 -4.9690 -7.7513 -10.5333 -9.1012 -0.2017 26.6128
#
#
#
# Elastic Compliance Matrix: (Units=1/GPa)
#
#
# Indices 1 2 3 4 5 6 
#
# 1 0.011798 0.000952 -0.002748 0.000616 -0.003641 0.001576
# 2 0.000952 0.019159 -0.003820 -0.002474 -0.001278 0.003391
# 3 -0.002748 -0.003820 0.008743 -0.000693 -0.001965 0.001583
# 4 0.000616 -0.002474 -0.000693 0.026300 0.002857 0.008136
# 5 -0.003641 -0.001278 -0.001965 0.002857 0.019251 -0.000707
# 6 0.001576 0.003391 0.001583 0.008136 -0.000707 0.042261
#
#
# Mechanical properties :
#
#
# Convention : Reuss Voigt Hill
#
# Bulk Modulus (GPa) = 35.12519 51.88387 43.50453
# Shear Modulus (GPa) = 33.73050 41.46098 37.59574
#
# Velocity S-wave (km/s) = 3.66352 4.06169 3.86774
# Velocity P-wave (km/s) = 5.64549 6.53002 6.10380
#
# Compressibility (1/GPa) = 0.02846960
#
# Stress axis : x y z
#
# Youngs Moduli (GPa) = 84.76333 52.19370 114.37125
#
# Poissons Ratio (x) = -0.04969 0.31427
# Poissons Ratio (y) = -0.08069 0.43685
# Poissons Ratio (z) = 0.23291 0.19936
#
# Static dielectric constant tensor:
#      x y z
#    x 2.038240 0.047850 0.051370 
#    y 0.047850 2.047530 0.070240 
#    z 0.051370 0.070240 2.055950 
# 
# From -- ./inp_files/612709.got.cif
#   From: 2010.05.17/outbox.cif.g08.bks.cpg/sg2_307_cif.got.tgz:612709.got - 2010.06.03 11:33:40.
