data_PCOD9012149
_publ_section_title
;
Structure prediction by ZEFSAII (Michael W. Deem and Ramdas Pophale) SiO2 
 PCOD9012149
Probable space group: P -1
;
_chemical_formula_sum "Si O2"
_cell_formula_units_Z 14
_cell_length_a 18.586395
_cell_length_b 6.979378
_cell_length_c 9.033417
_cell_angle_alpha 101.610591
_cell_angle_beta 120.458318
_cell_angle_gamma 43.797488
_cell_volume 671.968478
_symmetry_space_group_name_H-M "P -1"
_symmetry_group_IT_number 2
_symmetry_cell_setting 'triclinic'
loop_
_space_group_symop_operation_xyz
x,y,z
-x,-y,-z
loop_
_atom_site_type_symbol
_atom_site_label
_atom_site_fract_x
_atom_site_fract_y
_atom_site_fract_z
Si Si1 0.754397 0.769686 0.371389
Si Si2 0.694582 0.157708 0.638552
Si Si3 0.898429 0.808957 0.017753
Si Si4 0.503584 0.775810 0.399606
Si Si5 0.980669 0.817621 0.400221
Si Si6 0.420208 0.280976 0.857439
Si Si7 0.729616 0.086140 0.146185
O O1 0.694513 0.658519 0.303713
O O2 0.901157 0.500673 0.468283
O O3 0.730966 0.942398 0.516123
O O4 0.689052 0.986212 0.197270
O O5 0.623428 0.459223 0.537404
O O6 0.604523 0.182959 0.652402
O O7 0.811064 0.036021 0.832552
O O8 0.968983 0.826745 0.209979
O O9 0.000000 0.500000 0.000000
O O10 0.798210 0.888368 0.040454
O O11 0.509858 0.779630 0.229353
O O12 0.500000 0.000000 0.500000
O O13 0.847411 0.975816 0.338032
O O14 0.000000 0.000000 0.500000
O O15 0.366218 0.571878 0.922268
O O16 0.500000 0.000000 0.000000
#
# Coordination Sequence:
#
# PCOD9012149 Si02
#       7
#     2   2   2   2   2   2   2
#     4  12  21  43  68  93 132 180 216 279 340 403
#     4  11  23  42  69  95 137 175 223 276 343 394
#     4  10  22  40  69 102 130 169 223 283 332 406
#     4  11  25  43  64  96 136 182 221 278 336 395
#     4  10  21  40  68  97 134 169 223 278 344 402
#     4  12  27  41  65  99 133 176 234 274 326 401
#     4  10  24  41  65  97 131 173 222 275 337 401
#
# _framework density 20.834309999999999
#
# number of rings (size 3 to 8) (size 9 to 14) (size 15 to 20)
#    0.857    0.286    5.714    0.429    4.000    0.571 
#    0.000    0.000    0.000    6.000    0.000    0.000 
#    0.000    0.000    0.000    0.000    0.000    0.000 
#
# Total GULP energy -78045.928527 kJ/mol
# GULP energy per Si atom -5574.709180 kJ/mol
# Density = 2.078689 g / cm^3
# Si number density = 20.834310 Si / 1000 Ang^3
#
#
#
# Elastic Constant Matrix: (Units=GPa)
#
#
# Indices 1 2 3 4 5 6 
#
# 1 66.1344 41.2754 13.4644 -3.5192 -22.6332 1.3035
# 2 41.2754 141.4924 50.4380 -14.3861 -12.1006 0.2372
# 3 13.4644 50.4380 111.6530 -10.2171 -9.3938 7.0446
# 4 -3.5192 -14.3861 -10.2171 46.2918 -1.3392 -1.5232
# 5 -22.6332 -12.1006 -9.3938 -1.3392 35.7834 2.9796
# 6 1.3035 0.2372 7.0446 -1.5232 2.9796 26.1511
#
#
#
# Elastic Compliance Matrix: (Units=1/GPa)
#
#
# Indices 1 2 3 4 5 6 
#
# 1 0.023260 -0.006053 0.001272 0.000455 0.013260 -0.002931
# 2 -0.006053 0.010316 -0.003978 0.001877 -0.001444 0.001554
# 3 0.001272 -0.003978 0.011152 0.001293 0.002707 -0.003265
# 4 0.000455 0.001877 0.001293 0.022587 0.002049 0.000694
# 5 0.013260 -0.001444 0.002707 0.002049 0.037089 -0.005484
# 6 -0.002931 0.001554 -0.003265 0.000694 -0.005484 0.039916
#
#
# Mechanical properties :
#
#
# Convention : Reuss Voigt Hill
#
# Bulk Modulus (GPa) = 36.75275 58.84836 47.80056
# Shear Modulus (GPa) = 29.25539 35.91874 32.58706
#
# Velocity S-wave (km/s) = 3.75132 4.15663 3.95917
# Velocity P-wave (km/s) = 6.03672 7.16547 6.62518
#
# Compressibility (1/GPa) = 0.02720885
#
# Stress axis : x y z
#
# Youngs Moduli (GPa) = 42.99274 96.93493 89.67035
#
# Poissons Ratio (x) = 0.58679 -0.11404
# Poissons Ratio (y) = 0.26025 0.35670
# Poissons Ratio (z) = -0.05468 0.38560
#
# Static dielectric constant tensor:
#      x y z
#    x 1.776710 -0.046660 0.022470 
#    y -0.046660 1.720760 -0.001100 
#    z 0.022470 -0.001100 1.778210 
# 
# From -- ./inp_files/323902.got.cif
#   From: 2010.05.17/outbox.cif.g08.bks.cpg/sg2_162_cif.got.tgz:323902.got - 2010.06.03 11:33:40.
