data_PCOD9012727
_publ_section_title
;
Structure prediction by ZEFSAII (Michael W. Deem and Ramdas Pophale) SiO2 
 PCOD9012727
Probable space group: P -1
;
_chemical_formula_sum "Si O2"
_cell_formula_units_Z 16
_cell_length_a 9.178468
_cell_length_b 13.732378
_cell_length_c 14.986264
_cell_angle_alpha 40.288135
_cell_angle_beta 38.826393
_cell_angle_gamma 61.576318
_cell_volume 732.475301
_symmetry_space_group_name_H-M "P -1"
_symmetry_group_IT_number 2
_symmetry_cell_setting 'triclinic'
loop_
_space_group_symop_operation_xyz
x,y,z
-x,-y,-z
loop_
_atom_site_type_symbol
_atom_site_label
_atom_site_fract_x
_atom_site_fract_y
_atom_site_fract_z
Si Si1 0.322638 0.212096 0.364863
Si Si2 0.597259 0.289880 0.368636
Si Si3 0.007254 0.141341 0.259594
Si Si4 0.043728 0.719661 0.397497
Si Si5 0.290656 0.058446 0.827211
Si Si6 0.711318 0.932237 0.984290
Si Si7 0.532454 0.776815 0.902493
Si Si8 0.371002 0.543889 0.304489
O O1 0.483019 0.246276 0.354192
O O2 0.468559 0.276540 0.161335
O O3 0.100563 0.284671 0.438866
O O4 0.198437 0.025967 0.537205
O O5 0.863424 0.267952 0.254427
O O6 0.432257 0.169113 0.603291
O O7 0.580253 0.463303 0.280112
O O8 0.191249 0.145524 0.249932
O O9 0.178305 0.159078 0.077704
O O10 0.088208 0.897114 0.218780
O O11 0.282255 0.660712 0.329798
O O12 0.863691 0.606643 0.492883
O O13 0.390486 0.906531 0.887922
O O14 0.348326 0.140549 0.839307
O O15 0.000000 0.000000 0.000000
O O16 0.500000 0.000000 0.000000
O O17 0.424434 0.636302 0.121008
#
# Coordination Sequence:
#
# PCOD9012727 Si02
#       8
#     2   2   2   2   2   2   2   2
#     4  10  22  39  63  94 121 166 210 261 306 370
#     4  11  25  40  63  95 132 163 201 267 322 361
#     4  11  22  40  64  96 128 160 206 271 317 362
#     4   9  19  36  63  83 121 165 206 250 303 368
#     4  12  24  39  62 100 120 163 214 261 310 361
#     4  11  21  40  66  97 121 161 218 262 306 370
#     4  12  24  39  67  92 124 169 214 250 313 383
#     4  10  21  41  59  89 127 171 207 246 314 382
#
# _framework density 21.84374
#
# number of rings (size 3 to 8) (size 9 to 14) (size 15 to 20)
#    0.000    1.250    3.750    3.000    3.500    2.500 
#    0.000    1.250    0.000    5.250    0.000    0.000 
#    0.000    0.000    0.000    0.000    0.000    0.000 
#
# Total GULP energy -89353.661814 kJ/mol
# GULP energy per Si atom -5584.603863 kJ/mol
# Density = 2.179402 g / cm^3
# Si number density = 21.843740 Si / 1000 Ang^3
#
#
#
# Elastic Constant Matrix: (Units=GPa)
#
#
# Indices 1 2 3 4 5 6 
#
# 1 98.7916 38.9187 31.3647 21.6048 15.0241 -10.9294
# 2 38.9187 161.0602 31.4705 28.7679 14.4541 -41.0087
# 3 31.3647 31.4705 80.6101 20.2734 21.7386 -10.4581
# 4 21.6048 28.7679 20.2734 47.7057 7.8179 -3.6016
# 5 15.0241 14.4541 21.7386 7.8179 33.9975 7.5494
# 6 -10.9294 -41.0087 -10.4581 -3.6016 7.5494 45.3452
#
#
#
# Elastic Compliance Matrix: (Units=1/GPa)
#
#
# Indices 1 2 3 4 5 6 
#
# 1 0.012828 -0.001350 -0.002642 -0.003270 -0.002987 0.001500
# 2 -0.001350 0.010018 0.000138 -0.003988 -0.004891 0.009264
# 3 -0.002642 0.000138 0.017971 -0.004427 -0.010480 0.005026
# 4 -0.003270 -0.003988 -0.004427 0.026359 0.000672 -0.003434
# 5 -0.002987 -0.004891 -0.010480 0.000672 0.042602 -0.014600
# 6 0.001500 0.009264 0.005026 -0.003434 -0.014600 0.034110
#
#
# Mechanical properties :
#
#
# Convention : Reuss Voigt Hill
#
# Bulk Modulus (GPa) = 30.20230 60.44107 45.32169
# Shear Modulus (GPa) = 30.74419 41.32355 36.03387
#
# Velocity S-wave (km/s) = 3.75568 4.35418 4.06596
# Velocity P-wave (km/s) = 5.71519 7.28068 6.54491
#
# Compressibility (1/GPa) = 0.03311006
#
# Stress axis : x y z
#
# Youngs Moduli (GPa) = 77.95412 99.82008 55.64459
#
# Poissons Ratio (x) = 0.13471 0.14701
# Poissons Ratio (y) = 0.10520 -0.00767
# Poissons Ratio (z) = 0.20595 -0.01376
#
# Static dielectric constant tensor:
#      x y z
#    x 1.818120 0.001900 -0.049230 
#    y 0.001900 1.832870 0.008350 
#    z -0.049230 0.008350 1.866610 
# 
# From -- ./inp_files/471760.got.cif
#   From: 2010.05.17/outbox.cif.g08.bks.cpg/sg2_236_cif.got.tgz:471760.got - 2010.06.03 11:33:40.
