data_PCOD9012817
_publ_section_title
;
Structure prediction by ZEFSAII (Michael W. Deem and Ramdas Pophale) SiO2 
 PCOD9012817
Probable space group: P -1
;
_chemical_formula_sum "Si O2"
_cell_formula_units_Z 16
_cell_length_a 14.386105
_cell_length_b 6.634956
_cell_length_c 10.096487
_cell_angle_alpha 121.534361
_cell_angle_beta 119.240843
_cell_angle_gamma 63.321546
_cell_volume 692.052441
_symmetry_space_group_name_H-M "P -1"
_symmetry_group_IT_number 2
_symmetry_cell_setting 'triclinic'
loop_
_space_group_symop_operation_xyz
x,y,z
-x,-y,-z
loop_
_atom_site_type_symbol
_atom_site_label
_atom_site_fract_x
_atom_site_fract_y
_atom_site_fract_z
Si Si1 0.894478 0.904734 0.363796
Si Si2 0.951334 0.862395 0.088508
Si Si3 0.546200 0.347771 0.115937
Si Si4 0.802513 0.348056 0.889359
Si Si5 0.879116 0.393353 0.241892
Si Si6 0.245644 0.133602 0.253022
Si Si7 0.373600 0.169370 0.123223
Si Si8 0.745815 0.398813 0.416411
O O1 0.901942 0.838600 0.190244
O O2 0.910328 0.646254 0.356118
O O3 0.787984 0.120823 0.407171
O O4 0.000000 0.000000 0.500000
O O5 0.968823 0.138251 0.193148
O O6 0.928402 0.307785 0.915214
O O7 0.858726 0.852097 0.913323
O O8 0.460507 0.271913 0.131812
O O9 0.621112 0.471645 0.301793
O O10 0.500000 0.500000 0.000000
O O11 0.625520 0.084108 0.036104
O O12 0.727098 0.590873 0.860053
O O13 0.757944 0.109602 0.750560
O O14 0.799223 0.399621 0.062750
O O15 0.818757 0.370390 0.326131
O O16 0.363015 0.088887 0.241221
O O17 0.229120 0.387140 0.405713
#
# Coordination Sequence:
#
# PCOD9012817 Si02
#       8
#     2   2   2   2   2   2   2   2
#     4  11  26  40  65  98 136 178 222 267 319 391
#     4  10  24  40  65  94 137 183 225 255 326 394
#     4  11  24  49  74  97 122 173 221 281 334 391
#     4  11  23  41  68  95 132 181 222 266 321 395
#     4  10  21  41  61  90 134 178 219 264 314 387
#     4  11  24  42  65 102 137 176 214 273 328 393
#     4  11  24  42  74  96 127 164 229 270 333 394
#     4  11  26  42  67 100 137 169 224 272 331 389
#
# _framework density 23.119637000000001
#
# number of rings (size 3 to 8) (size 9 to 14) (size 15 to 20)
#    0.000    1.250    0.000    6.750    7.000    3.500 
#    0.000    2.500    0.000    0.000    0.000    0.000 
#    0.000    0.000    0.000    0.000    0.000    0.000 
#
# Total GULP energy -89313.728650 kJ/mol
# GULP energy per Si atom -5582.108041 kJ/mol
# Density = 2.306702 g / cm^3
# Si number density = 23.119637 Si / 1000 Ang^3
#
#
#
# Elastic Constant Matrix: (Units=GPa)
#
#
# Indices 1 2 3 4 5 6 
#
# 1 91.5314 32.3021 34.3185 15.7713 -2.6756 12.1939
# 2 32.3021 100.3651 27.7341 33.8041 18.0040 -2.5774
# 3 34.3185 27.7341 117.6899 27.3272 6.1940 -6.0073
# 4 15.7713 33.8041 27.3272 38.2198 -1.6569 -3.9209
# 5 -2.6756 18.0040 6.1940 -1.6569 28.3316 -1.4574
# 6 12.1939 -2.5774 -6.0073 -3.9209 -1.4574 27.4145
#
#
#
# Elastic Compliance Matrix: (Units=1/GPa)
#
#
# Indices 1 2 3 4 5 6 
#
# 1 0.015376 -0.005147 -0.004073 0.000541 0.005241 -0.007860
# 2 -0.005147 0.019303 0.001604 -0.016565 -0.014003 0.001342
# 3 -0.004073 0.001604 0.011506 -0.007825 -0.004216 0.003141
# 4 0.000541 -0.016565 -0.007825 0.047265 0.015261 0.004059
# 5 0.005241 -0.014003 -0.004216 0.015261 0.046508 0.000084
# 6 -0.007860 0.001342 0.003141 0.004059 0.000084 0.041372
#
#
# Mechanical properties :
#
#
# Convention : Reuss Voigt Hill
#
# Bulk Modulus (GPa) = 32.30917 55.36621 43.83769
# Shear Modulus (GPa) = 24.16857 33.14196 28.65526
#
# Velocity S-wave (km/s) = 3.23673 3.79026 3.52438
# Velocity P-wave (km/s) = 5.28901 6.56921 5.96356
#
# Compressibility (1/GPa) = 0.03095097
#
# Stress axis : x y z
#
# Youngs Moduli (GPa) = 65.03621 51.80661 86.91244
#
# Poissons Ratio (x) = 0.26667 0.35402
# Poissons Ratio (y) = 0.33477 -0.13941
# Poissons Ratio (z) = 0.26491 -0.08310
#
# Static dielectric constant tensor:
#      x y z
#    x 1.897990 0.037480 0.007990 
#    y 0.037480 2.008000 0.001710 
#    z 0.007990 0.001710 1.860630 
# 
# From -- ./inp_files/459369.got.cif
#   From: 2010.05.17/outbox.cif.g08.bks.cpg/sg2_230_cif.got.tgz:459369.got - 2010.06.03 11:33:40.
