data_PCOD9012907
_publ_section_title
;
Structure prediction by ZEFSAII (Michael W. Deem and Ramdas Pophale) SiO2 
 PCOD9012907
Probable space group: P -1
;
_chemical_formula_sum "Si O2"
_cell_formula_units_Z 16
_cell_length_a 8.913761
_cell_length_b 19.557078
_cell_length_c 9.370316
_cell_angle_alpha 142.920365
_cell_angle_beta 71.844954
_cell_angle_gamma 121.827395
_cell_volume 817.580005
_symmetry_space_group_name_H-M "P -1"
_symmetry_group_IT_number 2
_symmetry_cell_setting 'triclinic'
loop_
_space_group_symop_operation_xyz
x,y,z
-x,-y,-z
loop_
_atom_site_type_symbol
_atom_site_label
_atom_site_fract_x
_atom_site_fract_y
_atom_site_fract_z
Si Si1 0.966444 0.075528 0.508805
Si Si2 0.148731 0.120837 0.240784
Si Si3 0.479259 0.879330 0.897065
Si Si4 0.340648 0.597136 0.464216
Si Si5 0.316963 0.623701 0.856132
Si Si6 0.285890 0.397593 0.687971
Si Si7 0.437490 0.085269 0.747633
Si Si8 0.050734 0.363851 0.985424
O O1 0.115864 0.109480 0.400016
O O2 0.986969 0.212632 0.782338
O O3 0.778139 0.989349 0.336293
O O4 0.000000 0.000000 0.500000
O O5 0.334588 0.123956 0.165043
O O6 0.160735 0.256429 0.418981
O O7 0.000000 0.000000 0.000000
O O8 0.338368 0.731178 0.646616
O O9 0.469969 0.903704 0.107367
O O10 0.500000 0.000000 0.000000
O O11 0.338448 0.599087 0.641109
O O12 0.520813 0.599736 0.349718
O O13 0.173421 0.466782 0.239336
O O14 0.320829 0.514189 0.768803
O O15 0.479633 0.766805 0.081237
O O16 0.130963 0.624805 0.949356
O O17 0.178160 0.400105 0.865916
O O18 0.500000 0.000000 0.500000
#
# Coordination Sequence:
#
# PCOD9012907 Si02
#       8
#     2   2   2   2   2   2   2   2
#     4  11  25  40  64  93 123 166 204 253 314 360
#     4  10  21  41  62  88 127 156 210 257 293 372
#     4  10  23  40  65  92 122 166 202 252 314 359
#     4  10  23  41  60  92 126 157 208 254 299 375
#     4  11  23  40  66  89 123 164 204 252 314 359
#     4  10  23  40  62  91 120 164 203 249 313 359
#     4  11  23  42  61  92 129 155 209 258 299 373
#     4  11  23  42  60  92 128 156 209 255 298 377
#
# _framework density 19.569951
#
# number of rings (size 3 to 8) (size 9 to 14) (size 15 to 20)
#    0.000    1.500    2.500    1.500    3.500    3.000 
#    0.000    0.000    0.000    0.000    0.000    0.000 
#    0.000    0.000    0.000    0.000    0.000    0.000 
#
# Total GULP energy -89208.478110 kJ/mol
# GULP energy per Si atom -5575.529882 kJ/mol
# Density = 1.952541 g / cm^3
# Si number density = 19.569951 Si / 1000 Ang^3
#
#
#
# Elastic Constant Matrix: (Units=GPa)
#
#
# Indices 1 2 3 4 5 6 
#
# 1 17.3826 7.3160 23.8888 0.2491 -7.7060 2.6753
# 2 7.3160 97.0313 44.5644 22.5519 -15.8152 -15.7059
# 3 23.8888 44.5644 155.1215 28.1186 0.1589 -6.9886
# 4 0.2491 22.5519 28.1186 37.6768 10.9950 -16.1547
# 5 -7.7060 -15.8152 0.1589 10.9950 31.3069 5.2944
# 6 2.6753 -15.7059 -6.9886 -16.1547 5.2944 38.4328
#
#
#
# Elastic Compliance Matrix: (Units=1/GPa)
#
#
# Indices 1 2 3 4 5 6 
#
# 1 0.091249 0.003826 -0.014626 -0.006607 0.029197 -0.014248
# 2 0.003826 0.016233 -0.003189 -0.011703 0.013435 -0.000983
# 3 -0.014626 -0.003189 0.010474 -0.004681 -0.003646 0.000154
# 4 -0.006607 -0.011703 -0.004681 0.055760 -0.030907 0.022522
# 5 0.029197 0.013435 -0.003646 -0.030907 0.059908 -0.018449
# 6 -0.014248 -0.000983 0.000154 0.022522 -0.018449 0.038646
#
#
# Mechanical properties :
#
#
# Convention : Reuss Voigt Hill
#
# Bulk Modulus (GPa) = 11.11378 46.78598 28.94988
# Shear Modulus (GPa) = 15.14039 34.40106 24.77073
#
# Velocity S-wave (km/s) = 2.78448 4.19722 3.56160
# Velocity P-wave (km/s) = 4.00364 6.88824 5.63369
#
# Compressibility (1/GPa) = 0.08997839
#
# Stress axis : x y z
#
# Youngs Moduli (GPa) = 10.95897 61.60271 95.47087
#
# Poissons Ratio (x) = -0.23566 1.39632
# Poissons Ratio (y) = -0.04192 0.30448
# Poissons Ratio (z) = 0.16028 0.19647
#
# Static dielectric constant tensor:
#      x y z
#    x 1.672310 0.034450 0.011520 
#    y 0.034450 1.703320 0.018290 
#    z 0.011520 0.018290 1.715180 
# 
# From -- ./inp_files/185068.got.cif
#   From: 2010.05.17/outbox.cif.g08.bks.cpg/sg2_93_cif.got.tgz:185068.got - 2010.06.03 11:33:40.
