data_PCOD9012718
_publ_section_title
;
Structure prediction by ZEFSAII (Michael W. Deem and Ramdas Pophale) SiO2 
 PCOD9012718
Probable space group: P -1
;
_chemical_formula_sum "Si O2"
_cell_formula_units_Z 14
_cell_length_a 21.875692
_cell_length_b 6.685964
_cell_length_c 5.448089
_cell_angle_alpha 66.548848
_cell_angle_beta 111.518893
_cell_angle_gamma 78.486421
_cell_volume 621.819397
_symmetry_space_group_name_H-M "P -1"
_symmetry_group_IT_number 2
_symmetry_cell_setting 'triclinic'
loop_
_space_group_symop_operation_xyz
x,y,z
-x,-y,-z
loop_
_atom_site_type_symbol
_atom_site_label
_atom_site_fract_x
_atom_site_fract_y
_atom_site_fract_z
Si Si1 0.686662 0.210138 0.321339
Si Si2 0.205521 0.300450 0.364183
Si Si3 0.056732 0.342032 0.960271
Si Si4 0.964323 0.185241 0.577798
Si Si5 0.543190 0.264856 0.923108
Si Si6 0.804624 0.413429 0.293001
Si Si7 0.579604 0.216103 0.502817
O O1 0.741881 0.328319 0.306621
O O2 0.660033 0.186816 0.570592
O O3 0.724309 0.942384 0.408877
O O4 0.610305 0.346029 0.007816
O O5 0.194224 0.426729 0.549043
O O6 0.136237 0.242300 0.235330
O O7 0.209736 0.458301 0.058391
O O8 0.057132 0.540031 0.671687
O O9 0.024176 0.167369 0.878200
O O10 0.000000 0.500000 0.000000
O O11 0.884690 0.203771 0.504539
O O12 0.000000 0.000000 0.500000
O O13 0.563093 0.116098 0.777239
O O14 0.470029 0.498716 0.694471
O O15 0.552965 0.129251 0.260656
#
# Coordination Sequence:
#
# PCOD9012718 Si02
#       7
#     2   2   2   2   2   2   2
#     4  10  23  38  69  84 128 165 198 244 329 349
#     4  11  26  41  61  91 127 159 208 256 309 373
#     4  10  21  41  59  80 121 157 202 261 306 356
#     4  10  23  40  62  85 115 160 213 254 310 371
#     4   8  16  32  58  88 118 154 205 236 296 363
#     4  11  26  41  59  97 123 155 211 263 301 373
#     4   8  16  32  58  90 114 158 202 240 289 371
#
# _framework density 22.514576999999999
#
# number of rings (size 3 to 8) (size 9 to 14) (size 15 to 20)
#    0.857    1.429    1.429    0.000    6.000    2.857 
#    0.000    0.000    0.000    6.857    0.000    0.000 
#    0.000    0.000    0.000    0.000    0.000    0.000 
#
# Total GULP energy -77969.295475 kJ/mol
# GULP energy per Si atom -5569.235391 kJ/mol
# Density = 2.246333 g / cm^3
# Si number density = 22.514577 Si / 1000 Ang^3
#
#
#
# Elastic Constant Matrix: (Units=GPa)
#
#
# Indices 1 2 3 4 5 6 
#
# 1 140.1913 49.8863 21.8301 14.2152 8.8842 -20.9811
# 2 49.8863 74.3793 20.3506 17.6226 2.5975 -12.1281
# 3 21.8301 20.3506 70.4183 21.3411 -13.7132 -9.7564
# 4 14.2152 17.6226 21.3411 34.8057 -15.6179 -7.4239
# 5 8.8842 2.5975 -13.7132 -15.6179 47.5885 4.2608
# 6 -20.9811 -12.1281 -9.7564 -7.4239 4.2608 44.2856
#
#
#
# Elastic Compliance Matrix: (Units=1/GPa)
#
#
# Indices 1 2 3 4 5 6 
#
# 1 0.010022 -0.005558 -0.001275 -0.000988 -0.002530 0.003023
# 2 -0.005558 0.019926 -0.002161 -0.007690 -0.003320 0.001378
# 3 -0.001275 -0.002161 0.018413 -0.008118 0.002888 0.001222
# 4 -0.000988 -0.007690 -0.008118 0.044023 0.012551 0.001810
# 5 -0.002530 -0.003320 0.002888 0.012551 0.026792 -0.001945
# 6 0.003023 0.001378 0.001222 0.001810 -0.001945 0.025150
#
#
# Mechanical properties :
#
#
# Convention : Reuss Voigt Hill
#
# Bulk Modulus (GPa) = 32.92335 52.12477 42.52406
# Shear Modulus (GPa) = 28.99586 38.19742 33.59664
#
# Velocity S-wave (km/s) = 3.59258 4.12341 3.86711
# Velocity P-wave (km/s) = 5.64480 6.77287 6.23440
#
# Compressibility (1/GPa) = 0.03037358
#
# Stress axis : x y z
#
# Youngs Moduli (GPa) = 99.77735 50.18600 54.31042
#
# Poissons Ratio (x) = 0.27892 0.06926
# Poissons Ratio (y) = 0.55453 0.11735
# Poissons Ratio (z) = 0.12725 0.10843
#
# Static dielectric constant tensor:
#      x y z
#    x 1.879100 0.037960 -0.081400 
#    y 0.037960 1.863820 -0.035870 
#    z -0.081400 -0.035870 1.992220 
# 
# From -- ./inp_files/121690.got.cif
#   From: 2010.05.17/outbox.cif.g08.bks.cpg/sg2_61_cif.got.tgz:121690.got - 2010.06.03 11:33:40.
