data_PCOD9012551
_publ_section_title
;
Structure prediction by ZEFSAII (Michael W. Deem and Ramdas Pophale) SiO2 
 PCOD9012551
Probable space group: P -1
;
_chemical_formula_sum "Si O2"
_cell_formula_units_Z 16
_cell_length_a 16.163504
_cell_length_b 8.637034
_cell_length_c 9.467128
_cell_angle_alpha 107.414547
_cell_angle_beta 123.633859
_cell_angle_gamma 39.478158
_cell_volume 678.777487
_symmetry_space_group_name_H-M "P -1"
_symmetry_group_IT_number 2
_symmetry_cell_setting 'triclinic'
loop_
_space_group_symop_operation_xyz
x,y,z
-x,-y,-z
loop_
_atom_site_type_symbol
_atom_site_label
_atom_site_fract_x
_atom_site_fract_y
_atom_site_fract_z
Si Si1 0.194329 0.128140 0.928060
Si Si2 0.965890 0.596611 0.654852
Si Si3 0.723855 0.065674 0.729304
Si Si4 0.170745 0.773510 0.306006
Si Si5 0.178599 0.834655 0.642860
Si Si6 0.154894 0.693303 0.844805
Si Si7 0.399919 0.189953 0.084374
Si Si8 0.548535 0.779804 0.567771
O O1 0.035106 0.389614 0.781125
O O2 0.225869 0.938226 0.799673
O O3 0.301129 0.154533 0.025078
O O4 0.210885 0.050759 0.084514
O O5 0.000000 0.500000 0.500000
O O6 0.055658 0.654708 0.755223
O O7 0.800499 0.848168 0.628049
O O8 0.769375 0.186022 0.750536
O O9 0.543502 0.253144 0.599363
O O10 0.219585 0.793929 0.507082
O O11 0.268428 0.486218 0.324523
O O12 0.983588 0.001507 0.181160
O O13 0.229644 0.631234 0.744683
O O14 0.000000 0.000000 0.500000
O O15 0.295068 0.473012 0.016843
O O16 0.497674 0.130729 0.290814
O O17 0.500000 0.000000 0.000000
O O18 0.500000 0.000000 0.500000
#
# Coordination Sequence:
#
# PCOD9012551 Si02
#       8
#     2   2   2   2   2   2   2   2
#     4  11  23  44  68 106 141 181 238 285 352 416
#     4  10  21  40  71 100 138 184 231 287 350 419
#     4  11  24  43  65 102 142 185 231 290 350 418
#     4  10  24  46  71 100 138 182 238 287 358 416
#     4  10  22  43  70 102 134 178 230 294 349 411
#     4   9  22  43  69 101 132 179 237 283 348 400
#     4  11  27  46  70 104 144 190 234 286 349 423
#     4  12  27  46  68  99 145 187 234 289 357 416
#
# _framework density 23.571788999999999
#
# number of rings (size 3 to 8) (size 9 to 14) (size 15 to 20)
#    0.000    1.500    1.250    3.000    8.750    2.500 
#   11.250    1.250    0.000    0.000    0.000    0.000 
#    0.000    0.000    0.000    0.000    0.000    0.000 
#
# Total GULP energy -89202.594926 kJ/mol
# GULP energy per Si atom -5575.162183 kJ/mol
# Density = 2.351814 g / cm^3
# Si number density = 23.571789 Si / 1000 Ang^3
#
#
#
# Elastic Constant Matrix: (Units=GPa)
#
#
# Indices 1 2 3 4 5 6 
#
# 1 69.0468 28.3537 55.0094 -17.0340 -31.8740 9.6223
# 2 28.3537 114.6024 72.1553 -10.2353 -22.1813 -9.9535
# 3 55.0094 72.1553 178.3639 -5.8345 -29.6339 3.6393
# 4 -17.0340 -10.2353 -5.8345 40.0229 9.1453 -7.2761
# 5 -31.8740 -22.1813 -29.6339 9.1453 36.8049 -9.0631
# 6 9.6223 -9.9535 3.6393 -7.2761 -9.0631 21.7032
#
#
#
# Elastic Compliance Matrix: (Units=1/GPa)
#
#
# Indices 1 2 3 4 5 6 
#
# 1 0.029929 0.000648 -0.006019 0.007358 0.019279 -0.001445
# 2 0.000648 0.014365 -0.004939 0.003662 0.007122 0.011331
# 3 -0.006019 -0.004939 0.009324 -0.002758 -0.000569 -0.002322
# 4 0.007358 0.003662 -0.002758 0.030097 0.001214 0.009477
# 5 0.019279 0.007122 -0.000569 0.001214 0.051520 0.016736
# 6 -0.001445 0.011331 -0.002322 0.009477 0.016736 0.062468
#
#
# Mechanical properties :
#
#
# Convention : Reuss Voigt Hill
#
# Bulk Modulus (GPa) = 30.30588 74.78332 52.54460
# Shear Modulus (GPa) = 21.80336 33.47252 27.63794
#
# Velocity S-wave (km/s) = 3.04464 3.77241 3.42789
# Velocity P-wave (km/s) = 5.02440 7.12527 6.16498
#
# Compressibility (1/GPa) = 0.03299690
#
# Stress axis : x y z
#
# Youngs Moduli (GPa) = 33.41270 69.61427 107.25371
#
# Poissons Ratio (x) = -0.04514 0.64560
# Poissons Ratio (y) = -0.02167 0.52975
# Poissons Ratio (z) = 0.20112 0.34384
#
# Static dielectric constant tensor:
#      x y z
#    x 1.882810 -0.006640 0.001410 
#    y -0.006640 2.047720 0.043180 
#    z 0.001410 0.043180 2.175500 
# 
# From -- ./inp_files/329194.got.cif
#   From: 2010.05.17/outbox.cif.g08.bks.cpg/sg2_165_cif.got.tgz:329194.got - 2010.06.03 11:33:40.
