data_PCOD9012700
_publ_section_title
;
Structure prediction by ZEFSAII (Michael W. Deem and Ramdas Pophale) SiO2 
 PCOD9012700
Probable space group: P -1
;
_chemical_formula_sum "Si O2"
_cell_formula_units_Z 12
_cell_length_a 12.465109
_cell_length_b 15.211999
_cell_length_c 8.568935
_cell_angle_alpha 107.615381
_cell_angle_beta 86.498115
_cell_angle_gamma 155.294013
_cell_volume 546.110141
_symmetry_space_group_name_H-M "P -1"
_symmetry_group_IT_number 2
_symmetry_cell_setting 'triclinic'
loop_
_space_group_symop_operation_xyz
x,y,z
-x,-y,-z
loop_
_atom_site_type_symbol
_atom_site_label
_atom_site_fract_x
_atom_site_fract_y
_atom_site_fract_z
Si Si1 0.362226 0.683399 0.175288
Si Si2 0.876118 0.024239 0.148959
Si Si3 0.062451 0.380587 0.334936
Si Si4 0.860635 0.811210 0.127364
Si Si5 0.301538 0.036271 0.385543
Si Si6 0.444492 0.951996 0.294400
O O1 0.513066 0.750671 0.055209
O O2 0.113523 0.437396 0.175504
O O3 0.634664 0.910553 0.405387
O O4 0.293463 0.732279 0.159423
O O5 0.927613 0.974481 0.221984
O O6 0.024551 0.241858 0.292487
O O7 0.997293 0.100739 0.006355
O O8 0.771075 0.205257 0.318382
O O9 0.368630 0.662691 0.541284
O O10 0.036932 0.891249 0.280007
O O11 0.500000 0.500000 0.000000
O O12 0.269300 0.906282 0.256620
O O13 0.500000 0.000000 0.500000
#
# Coordination Sequence:
#
# PCOD9012700 Si02
#       6
#     2   2   2   2   2   2
#     4   8  18  35  59  87 113 140 181 234 279 331
#     4  10  21  41  56  80 113 153 188 232 285 324
#     4   9  18  35  62  84 115 141 181 240 276 331
#     4  11  24  42  55  77 118 154 189 235 275 331
#     4   9  20  36  60  88 110 149 189 225 282 329
#     4   9  16  32  57  93 117 137 178 232 287 332
#
# _framework density 21.973590000000002
#
# number of rings (size 3 to 8) (size 9 to 14) (size 15 to 20)
#    1.000    1.667    0.000    1.500    0.000    1.333 
#   18.000    3.333    0.000    6.000    0.000    0.000 
#    0.000    0.000    0.000    0.000    0.000    0.000 
#
# Total GULP energy -66832.448445 kJ/mol
# GULP energy per Si atom -5569.370704 kJ/mol
# Density = 2.192358 g / cm^3
# Si number density = 21.973590 Si / 1000 Ang^3
#
#
#
# Elastic Constant Matrix: (Units=GPa)
#
#
# Indices 1 2 3 4 5 6 
#
# 1 3121.3126 197.7505 17.2539 -259.2764 1011.6012 -249.3648
# 2 197.7505 157.1582 26.5504 -26.1190 49.6268 -4.3649
# 3 17.2539 26.5504 35.2970 -1.7840 10.8365 13.5436
# 4 -259.2764 -26.1190 -1.7840 40.6786 -78.7810 9.5723
# 5 1011.6012 49.6268 10.8365 -78.7810 386.8708 -76.3920
# 6 -249.3648 -4.3649 13.5436 9.5723 -76.3920 52.4593
#
#
#
# Elastic Compliance Matrix: (Units=1/GPa)
#
#
# Indices 1 2 3 4 5 6 
#
# 1 0.004208 -0.000737 -0.001948 0.010649 -0.007062 0.008215
# 2 -0.000737 0.008570 -0.007109 0.004456 0.002225 0.001472
# 3 -0.001948 -0.007109 0.043129 -0.014927 -0.002594 -0.022040
# 4 0.010649 0.004456 -0.014927 0.074466 -0.006580 0.031674
# 5 -0.007062 0.002225 -0.002594 -0.006580 0.018634 -0.004380
# 6 0.008215 0.001472 -0.022040 0.031674 -0.004380 0.051766
#
#
# Mechanical properties :
#
#
# Convention : Reuss Voigt Hill
#
# Bulk Modulus (GPa) = 27.53352 421.87527 224.70440
# Shear Modulus (GPa) = 21.50829 300.81595 161.16212
#
# Velocity S-wave (km/s) = 3.13201 11.71307 8.57338
# Velocity P-wave (km/s) = 5.06328 19.37361 14.15934
#
# Compressibility (1/GPa) = 0.03631936
#
# Stress axis : x y z
#
# Youngs Moduli (GPa) = 237.66526 116.68195 23.18600
#
# Poissons Ratio (x) = 0.08602 0.04516
# Poissons Ratio (y) = 0.17521 0.16483
# Poissons Ratio (z) = 0.46294 0.82949
#
# Static dielectric constant tensor:
#      x y z
#    x 1.843670 -0.012050 -0.009390 
#    y -0.012050 1.835270 0.027420 
#    z -0.009390 0.027420 1.839250 
# 
# From -- ./inp_files/317261.got.cif
#   From: 2010.05.17/outbox.cif.g08.bks.cpg/sg2_159_cif.got.tgz:317261.got - 2010.06.03 11:33:40.
