data_PCOD9012847
_publ_section_title
;
Structure prediction by ZEFSAII (Michael W. Deem and Ramdas Pophale) SiO2 
 PCOD9012847
Probable space group: P -1
;
_chemical_formula_sum "Si O2"
_cell_formula_units_Z 16
_cell_length_a 9.971898
_cell_length_b 22.728479
_cell_length_c 16.480781
_cell_angle_alpha 19.365990
_cell_angle_beta 40.171990
_cell_angle_gamma 42.636531
_cell_volume 797.110021
_symmetry_space_group_name_H-M "P -1"
_symmetry_group_IT_number 2
_symmetry_cell_setting 'triclinic'
loop_
_space_group_symop_operation_xyz
x,y,z
-x,-y,-z
loop_
_atom_site_type_symbol
_atom_site_label
_atom_site_fract_x
_atom_site_fract_y
_atom_site_fract_z
Si Si1 0.889386 0.756927 0.181088
Si Si2 0.965451 0.114639 0.585847
Si Si3 0.634234 0.360171 0.174072
Si Si4 0.553318 0.333005 0.432256
Si Si5 0.099993 0.616973 0.423245
Si Si6 0.417322 0.376213 0.830071
Si Si7 0.985192 0.413960 0.318153
Si Si8 0.203260 0.026718 0.427352
O O1 0.650491 0.744844 0.334246
O O2 0.942041 0.581450 0.330381
O O3 0.021312 0.741908 0.222722
O O4 0.925906 0.930601 0.887315
O O5 0.753042 0.202726 0.530437
O O6 0.027458 0.253955 0.443924
O O7 0.125750 0.082760 0.479835
O O8 0.540476 0.356039 0.312521
O O9 0.660913 0.159835 0.389962
O O10 0.500000 0.500000 0.000000
O O11 0.863619 0.434053 0.973128
O O12 0.578650 0.522553 0.216864
O O13 0.347292 0.629913 0.302336
O O14 0.989204 0.647756 0.520556
O O15 0.250721 0.500261 0.694652
O O16 0.332398 0.182880 0.128283
O O17 0.000000 0.000000 0.500000
#
# Coordination Sequence:
#
# PCOD9012847 Si02
#       8
#     2   2   2   2   2   2   2   2
#     4  10  22  39  62  90 127 166 207 258 310 370
#     4  11  23  39  65  91 121 166 212 259 310 373
#     4  12  25  40  65  94 127 165 206 263 317 368
#     4  10  21  41  61  93 128 163 209 256 315 367
#     4  10  22  40  61  90 128 167 207 257 314 368
#     4  10  22  39  65  91 123 167 209 258 310 372
#     4  11  22  40  62  93 128 165 210 257 314 369
#     4  12  23  42  65  93 120 163 211 261 307 373
#
# _framework density 20.072512
#
# number of rings (size 3 to 8) (size 9 to 14) (size 15 to 20)
#    0.000    1.250    2.500    3.000    0.000    6.500 
#    0.000    1.875    0.000    0.000    0.000    0.000 
#    0.000    0.000    0.000    0.000    0.000    0.000 
#
# Total GULP energy -89470.692345 kJ/mol
# GULP energy per Si atom -5591.918272 kJ/mol
# Density = 2.002683 g / cm^3
# Si number density = 20.072512 Si / 1000 Ang^3
#
#
#
# Elastic Constant Matrix: (Units=GPa)
#
#
# Indices 1 2 3 4 5 6 
#
# 1 53.6773 24.2620 23.9995 -2.2063 0.7788 21.0890
# 2 24.2620 66.9173 22.1615 -5.2665 9.6944 28.1992
# 3 23.9995 22.1615 109.4420 -13.0414 2.4257 21.8642
# 4 -2.2063 -5.2665 -13.0414 25.2175 -3.9326 10.0206
# 5 0.7788 9.6944 2.4257 -3.9326 29.1341 9.6684
# 6 21.0890 28.1992 21.8642 10.0206 9.6684 28.1756
#
#
#
# Elastic Compliance Matrix: (Units=1/GPa)
#
#
# Indices 1 2 3 4 5 6 
#
# 1 0.038255 0.013100 0.007325 0.041192 0.022762 -0.069888
# 2 0.013100 0.049339 0.014132 0.062428 0.023847 -0.100537
# 3 0.007325 0.014132 0.019540 0.037638 0.016412 -0.053807
# 4 0.041192 0.062428 0.037638 0.167190 0.065399 -0.204421
# 5 0.022762 0.023847 0.016412 0.065399 0.066313 -0.099653
# 6 -0.069888 -0.100537 -0.053807 -0.204421 -0.099653 0.337076
#
#
# Mechanical properties :
#
#
# Convention : Reuss Voigt Hill
#
# Bulk Modulus (GPa) = 5.67385 41.20919 23.44152
# Shear Modulus (GPa) = 7.49233 27.14632 17.31933
#
# Velocity S-wave (km/s) = 1.93410 3.68151 2.94060
# Velocity P-wave (km/s) = 2.79651 6.21659 4.82009
#
# Compressibility (1/GPa) = 0.17624727
#
# Stress axis : x y z
#
# Youngs Moduli (GPa) = 26.14060 20.26778 51.17667
#
# Poissons Ratio (x) = -0.26550 -0.37485
# Poissons Ratio (y) = -0.34244 -0.72324
# Poissons Ratio (z) = -0.19147 -0.28643
#
# Static dielectric constant tensor:
#      x y z
#    x 1.728490 -0.016880 -0.003520 
#    y -0.016880 1.697780 -0.016370 
#    z -0.003520 -0.016370 1.657000 
# 
# From -- ./inp_files/186523.got.cif
#   From: 2010.05.17/outbox.cif.g08.bks.cpg/sg2_94_cif.got.tgz:186523.got - 2010.06.03 11:33:40.
