data_PCOD9012254
_publ_section_title
;
Structure prediction by ZEFSAII (Michael W. Deem and Ramdas Pophale) SiO2 
 PCOD9012254
Probable space group: P -1
;
_chemical_formula_sum "Si O2"
_cell_formula_units_Z 14
_cell_length_a 14.021237
_cell_length_b 7.896069
_cell_length_c 9.662992
_cell_angle_alpha 93.671312
_cell_angle_beta 122.636556
_cell_angle_gamma 47.101641
_cell_volume 574.828340
_symmetry_space_group_name_H-M "P -1"
_symmetry_group_IT_number 2
_symmetry_cell_setting 'triclinic'
loop_
_space_group_symop_operation_xyz
x,y,z
-x,-y,-z
loop_
_atom_site_type_symbol
_atom_site_label
_atom_site_fract_x
_atom_site_fract_y
_atom_site_fract_z
Si Si1 0.380636 0.998419 0.979152
Si Si2 0.629567 0.991410 0.536677
Si Si3 0.630825 0.200556 0.799719
Si Si4 0.918044 0.061252 0.591135
Si Si5 0.428060 0.732508 0.746033
Si Si6 0.958067 0.412042 0.169065
Si Si7 0.970202 0.210097 0.903901
O O1 0.187730 0.302444 0.860413
O O2 0.383385 0.834461 0.870949
O O3 0.500000 0.000000 0.000000
O O4 0.458624 0.835622 0.174180
O O5 0.845585 0.727004 0.695456
O O6 0.500000 0.000000 0.500000
O O7 0.592933 0.202549 0.611757
O O8 0.577965 0.095943 0.345845
O O9 0.602489 0.423630 0.840481
O O10 0.837651 0.929779 0.969959
O O11 0.013783 0.790578 0.726913
O O12 0.720055 0.225657 0.420981
O O13 0.000000 0.000000 0.500000
O O14 0.908452 0.225590 0.703992
O O15 0.884271 0.434516 0.962188
O O16 0.000000 0.000000 0.000000
#
# Coordination Sequence:
#
# PCOD9012254 Si02
#       7
#     2   2   2   2   2   2   2
#     4  12  27  44  67  98 140 185 224 280 337 398
#     4  10  22  46  70 102 134 173 221 289 351 387
#     4  11  24  45  67 100 133 178 231 272 337 416
#     4  10  21  40  69 103 131 175 220 282 345 390
#     4  11  25  44  67 101 138 172 228 280 334 412
#     4   9  23  44  67  97 136 176 232 271 331 416
#     4   9  20  41  70  96 129 173 224 276 336 402
#
# _framework density 24.355097000000001
#
# number of rings (size 3 to 8) (size 9 to 14) (size 15 to 20)
#    0.000    1.714    0.000    3.429    6.000    4.571 
#   10.286    0.000    0.000    0.000    0.000    0.000 
#    0.000    0.000    0.000    0.000    0.000    0.000 
#
# Total GULP energy -78259.648836 kJ/mol
# GULP energy per Si atom -5589.974917 kJ/mol
# Density = 2.429966 g / cm^3
# Si number density = 24.355097 Si / 1000 Ang^3
#
#
#
# Elastic Constant Matrix: (Units=GPa)
#
#
# Indices 1 2 3 4 5 6 
#
# 1 135.3246 3.8263 22.4626 -3.9249 -4.8233 -16.7024
# 2 3.8263 129.3143 24.9346 13.0535 10.7947 -21.9061
# 3 22.4626 24.9346 70.2346 28.5347 -11.5983 -11.7846
# 4 -3.9249 13.0535 28.5347 40.9579 2.1538 -2.9262
# 5 -4.8233 10.7947 -11.5983 2.1538 35.0252 6.6750
# 6 -16.7024 -21.9061 -11.7846 -2.9262 6.6750 30.1907
#
#
#
# Elastic Compliance Matrix: (Units=1/GPa)
#
#
# Indices 1 2 3 4 5 6 
#
# 1 0.008692 0.001106 -0.004222 0.003846 -0.001675 0.004706
# 2 0.001106 0.010198 -0.003736 0.000321 -0.005745 0.007855
# 3 -0.004222 -0.003736 0.025983 -0.017762 0.010047 0.001153
# 4 0.003846 0.000321 -0.017762 0.037530 -0.007914 0.000815
# 5 -0.001675 -0.005745 0.010047 -0.007914 0.035782 -0.009852
# 6 0.004706 0.007855 0.001153 0.000815 -0.009852 0.044133
#
#
# Mechanical properties :
#
#
# Convention : Reuss Voigt Hill
#
# Bulk Modulus (GPa) = 32.08223 48.59114 40.33668
# Shear Modulus (GPa) = 26.82221 40.14477 33.48349
#
# Velocity S-wave (km/s) = 3.32218 4.06434 3.71186
# Velocity P-wave (km/s) = 5.28367 6.48225 5.91341
#
# Compressibility (1/GPa) = 0.03116991
#
# Stress axis : x y z
#
# Youngs Moduli (GPa) = 115.04961 98.05492 38.48603
#
# Poissons Ratio (x) = -0.10842 0.16249
# Poissons Ratio (y) = -0.12722 0.14377
# Poissons Ratio (z) = 0.48575 0.36629
#
# Static dielectric constant tensor:
#      x y z
#    x 2.063250 0.076120 -0.032190 
#    y 0.076120 2.146940 -0.004190 
#    z -0.032190 -0.004190 1.952160 
# 
# From -- ./inp_files/280282.got.cif
#   From: 2010.05.17/outbox.cif.g08.bks.cpg/sg2_141_cif.got.tgz:280282.got - 2010.06.03 11:33:40.
