data_PCOD9012691
_publ_section_title
;
Structure prediction by ZEFSAII (Michael W. Deem and Ramdas Pophale) SiO2 
 PCOD9012691
Probable space group: P -1
;
_chemical_formula_sum "Si O2"
_cell_formula_units_Z 12
_cell_length_a 11.870099
_cell_length_b 16.963034
_cell_length_c 10.893230
_cell_angle_alpha 33.732857
_cell_angle_beta 152.365360
_cell_angle_gamma 151.490701
_cell_volume 471.391686
_symmetry_space_group_name_H-M "P -1"
_symmetry_group_IT_number 2
_symmetry_cell_setting 'triclinic'
loop_
_space_group_symop_operation_xyz
x,y,z
-x,-y,-z
loop_
_atom_site_type_symbol
_atom_site_label
_atom_site_fract_x
_atom_site_fract_y
_atom_site_fract_z
Si Si1 0.453208 0.649458 0.755029
Si Si2 0.203635 0.943987 0.215959
Si Si3 0.401663 0.592906 0.376808
Si Si4 0.771846 0.877875 0.556991
Si Si5 0.995806 0.414930 0.431730
Si Si6 0.567808 0.936199 0.991534
O O1 0.707541 0.814673 0.719562
O O2 0.194389 0.584883 0.485726
O O3 0.334698 0.648818 0.775657
O O4 0.500000 0.500000 0.000000
O O5 0.003412 0.739925 0.306735
O O6 0.500000 0.000000 0.500000
O O7 0.332792 0.019214 0.110169
O O8 0.000000 0.000000 0.000000
O O9 0.500000 0.500000 0.500000
O O10 0.638111 0.709501 0.560595
O O11 0.117430 0.459733 0.354231
O O12 0.377063 0.735219 0.097502
O O13 0.119782 0.990014 0.736622
O O14 0.598133 0.971314 0.255257
#
# Coordination Sequence:
#
# PCOD9012691 Si02
#       6
#     2   2   2   2   2   2
#     4  10  21  40  76 104 137 183 246 315 358 432
#     4  12  26  45  73 107 146 192 242 306 375 444
#     4  11  26  49  72 111 158 201 245 314 383 448
#     4  11  25  47  81 109 146 202 262 305 367 449
#     4  10  23  44  67 107 139 187 242 300 371 438
#     4  12  25  51  77 110 147 202 256 306 369 457
#
# _framework density 25.456537999999998
#
# number of rings (size 3 to 8) (size 9 to 14) (size 15 to 20)
#    0.000    1.000    1.667    4.000    7.000    0.000 
#    3.000    4.167    0.000    0.000    0.000    0.000 
#    0.000    0.000    0.000    0.000    0.000    0.000 
#
# Total GULP energy -67103.379685 kJ/mol
# GULP energy per Si atom -5591.948307 kJ/mol
# Density = 2.539860 g / cm^3
# Si number density = 25.456538 Si / 1000 Ang^3
#
#
#
# Elastic Constant Matrix: (Units=GPa)
#
#
# Indices 1 2 3 4 5 6 
#
# 1 256.8642 59.1764 80.5257 -21.8159 23.9901 32.5777
# 2 59.1764 69.6933 33.6674 -21.1048 -2.4752 12.2213
# 3 80.5257 33.6674 152.4217 -20.2669 21.4213 5.2210
# 4 -21.8159 -21.1048 -20.2669 58.0988 -4.8196 -12.5017
# 5 23.9901 -2.4752 21.4213 -4.8196 59.6778 -4.4628
# 6 32.5777 12.2213 5.2210 -12.5017 -4.4628 55.6674
#
#
#
# Elastic Compliance Matrix: (Units=1/GPa)
#
#
# Indices 1 2 3 4 5 6 
#
# 1 0.005874 -0.003828 -0.001956 -0.000625 -0.002072 -0.002720
# 2 -0.003828 0.020571 -0.002289 0.005416 0.003610 -0.000555
# 3 -0.001956 -0.002289 0.008567 0.001455 -0.002192 0.000995
# 4 -0.000625 0.005416 0.001455 0.020422 0.001885 0.003777
# 5 -0.002072 0.003610 -0.002192 0.001885 0.018870 0.002562
# 6 -0.002720 -0.000555 0.000995 0.003777 0.002562 0.020638
#
#
# Mechanical properties :
#
#
# Convention : Reuss Voigt Hill
#
# Bulk Modulus (GPa) = 53.01042 91.74646 72.37844
# Shear Modulus (GPa) = 42.59789 55.06279 48.83034
#
# Velocity S-wave (km/s) = 4.09511 4.65586 4.38446
# Velocity P-wave (km/s) = 6.57487 8.06359 7.35698
#
# Compressibility (1/GPa) = 0.01886422
#
# Stress axis : x y z
#
# Youngs Moduli (GPa) = 170.25072 48.61280 116.72204
#
# Poissons Ratio (x) = 0.18609 0.22835
# Poissons Ratio (y) = 0.65172 0.26723
# Poissons Ratio (z) = 0.33306 0.11130
#
# Static dielectric constant tensor:
#      x y z
#    x 2.078280 0.022120 -0.097270 
#    y 0.022120 2.088960 0.096060 
#    z -0.097270 0.096060 2.007670 
# 
# From -- ./inp_files/398007.got.cif
#   From: 2010.05.17/outbox.cif.g08.bks.cpg/sg2_200_cif.got.tgz:398007.got - 2010.06.03 11:33:40.
