data_PCOD9012724
_publ_section_title
;
Structure prediction by ZEFSAII (Michael W. Deem and Ramdas Pophale) SiO2 
 PCOD9012724
Probable space group: P -1
;
_chemical_formula_sum "Si O2"
_cell_formula_units_Z 16
_cell_length_a 12.099703
_cell_length_b 12.003927
_cell_length_c 17.690914
_cell_angle_alpha 151.134917
_cell_angle_beta 134.447131
_cell_angle_gamma 33.259508
_cell_volume 675.282774
_symmetry_space_group_name_H-M "P -1"
_symmetry_group_IT_number 2
_symmetry_cell_setting 'triclinic'
loop_
_space_group_symop_operation_xyz
x,y,z
-x,-y,-z
loop_
_atom_site_type_symbol
_atom_site_label
_atom_site_fract_x
_atom_site_fract_y
_atom_site_fract_z
Si Si1 0.793388 0.547116 0.050570
Si Si2 0.926396 0.858971 0.517653
Si Si3 0.604165 0.286856 0.850388
Si Si4 0.666861 0.541368 0.601696
Si Si5 0.557007 0.098215 0.155802
Si Si6 0.969656 0.364751 0.332550
Si Si7 0.597896 0.951576 0.342443
Si Si8 0.138670 0.906038 0.783296
O O1 0.643035 0.468424 0.922824
O O2 0.751204 0.688980 0.198281
O O3 0.018672 0.237424 0.958559
O O4 0.725461 0.807395 0.114643
O O5 0.104990 0.747983 0.479306
O O6 0.933987 0.578519 0.376090
O O7 0.979298 0.948448 0.671665
O O8 0.704801 0.071813 0.501588
O O9 0.480798 0.168282 0.708088
O O10 0.830608 0.977449 0.791525
O O11 0.500000 0.500000 0.000000
O O12 0.500000 0.500000 0.500000
O O13 0.635206 0.685373 0.753404
O O14 0.591702 0.783444 0.642398
O O15 0.666624 0.215233 0.243596
O O16 0.500000 0.000000 0.000000
O O17 0.000000 0.500000 0.500000
O O18 0.813681 0.323725 0.264452
#
# Coordination Sequence:
#
# PCOD9012724 Si02
#       8
#     2   2   2   2   2   2   2   2
#     4   9  21  40  59  86 124 157 201 259 297 365
#     4  11  22  40  66  94 120 161 206 253 312 365
#     4   9  17  37  61  86 124 159 198 259 308 354
#     4  11  23  43  61  89 128 158 204 261 296 366
#     4  11  24  39  60  85 121 167 201 248 310 364
#     4   9  19  37  63  87 126 161 196 262 310 360
#     4  10  22  38  66  93 119 162 205 253 311 365
#     4  10  21  41  59  88 126 158 201 253 306 361
#
# _framework density 23.693778999999999
#
# number of rings (size 3 to 8) (size 9 to 14) (size 15 to 20)
#    0.000    2.000    2.500    0.375    1.750    2.500 
#    0.000   11.250    0.000    0.000    0.000    0.000 
#    0.000    0.000    0.000    0.000    0.000    0.000 
#
# Total GULP energy -89314.936318 kJ/mol
# GULP energy per Si atom -5582.183520 kJ/mol
# Density = 2.363985 g / cm^3
# Si number density = 23.693779 Si / 1000 Ang^3
#
#
#
# Elastic Constant Matrix: (Units=GPa)
#
#
# Indices 1 2 3 4 5 6 
#
# 1 123.4891 26.2789 11.0434 5.1254 18.0155 1.3685
# 2 26.2789 31.4173 15.0985 -4.4402 -3.3613 0.3458
# 3 11.0434 15.0985 56.6428 -1.4958 -1.5350 0.2548
# 4 5.1254 -4.4402 -1.4958 42.0424 -4.9782 5.5720
# 5 18.0155 -3.3613 -1.5350 -4.9782 33.9798 -3.3563
# 6 1.3685 0.3458 0.2548 5.5720 -3.3563 25.1170
#
#
#
# Elastic Compliance Matrix: (Units=1/GPa)
#
#
# Indices 1 2 3 4 5 6 
#
# 1 0.011800 -0.011412 0.000438 -0.003466 -0.007950 -0.000784
# 2 -0.011412 0.048578 -0.010213 0.007529 0.011490 -0.000078
# 3 0.000438 -0.010213 0.020269 -0.000452 -0.000397 -0.000042
# 4 -0.003466 0.007529 -0.000452 0.026347 0.005932 -0.004963
# 5 -0.007950 0.011490 -0.000397 0.005932 0.036005 0.003774
# 6 -0.000784 -0.000078 -0.000042 -0.004963 0.003774 0.041463
#
#
# Mechanical properties :
#
#
# Convention : Reuss Voigt Hill
#
# Bulk Modulus (GPa) = 26.12890 35.15454 30.64172
# Shear Modulus (GPa) = 20.86871 30.83638 25.85254
#
# Velocity S-wave (km/s) = 2.97099 3.61148 3.30678
# Velocity P-wave (km/s) = 4.77711 5.67976 5.24788
#
# Compressibility (1/GPa) = 0.03827180
#
# Stress axis : x y z
#
# Youngs Moduli (GPa) = 84.74872 20.58556 49.33645
#
# Poissons Ratio (x) = 0.23492 -0.02161
# Poissons Ratio (y) = 0.96715 0.50389
# Poissons Ratio (z) = -0.03712 0.21025
#
# Static dielectric constant tensor:
#      x y z
#    x 1.913070 0.002030 0.046610 
#    y 0.002030 1.922660 -0.000420 
#    z 0.046610 -0.000420 1.915680 
# 
# From -- ./inp_files/244653.got.cif
#   From: 2010.05.17/outbox.cif.g08.bks.cpg/sg2_123_cif.got.tgz:244653.got - 2010.06.03 11:33:40.
