data_PCOD9012955
_publ_section_title
;
Structure prediction by ZEFSAII (Michael W. Deem and Ramdas Pophale) SiO2 
 PCOD9012955
Probable space group: P -1
;
_chemical_formula_sum "Si O2"
_cell_formula_units_Z 12
_cell_length_a 9.738603
_cell_length_b 6.095423
_cell_length_c 17.840600
_cell_angle_alpha 61.701577
_cell_angle_beta 41.061630
_cell_angle_gamma 83.382962
_cell_volume 556.212151
_symmetry_space_group_name_H-M "P -1"
_symmetry_group_IT_number 2
_symmetry_cell_setting 'triclinic'
loop_
_space_group_symop_operation_xyz
x,y,z
-x,-y,-z
loop_
_atom_site_type_symbol
_atom_site_label
_atom_site_fract_x
_atom_site_fract_y
_atom_site_fract_z
Si Si1 0.446339 0.106459 0.613698
Si Si2 0.476466 0.653405 0.870816
Si Si3 0.819792 0.687211 0.414099
Si Si4 0.687302 0.912419 0.900592
Si Si5 0.615879 0.644723 0.655970
Si Si6 0.246867 0.052407 0.860025
O O1 0.678587 0.378191 0.492048
O O2 0.329157 0.149604 0.580042
O O3 0.271323 0.094406 0.754136
O O4 0.497543 0.842158 0.645158
O O5 0.609833 0.787162 0.870017
O O6 0.649192 0.691389 0.723725
O O7 0.317264 0.806887 0.890494
O O8 0.318836 0.335843 0.004883
O O9 0.815930 0.688923 0.506147
O O10 0.069551 0.833538 0.251862
O O11 0.500000 0.000000 0.000000
O O12 0.436672 0.330408 0.771661
O O13 0.000000 0.000000 0.000000
#
# Coordination Sequence:
#
# PCOD9012955 Si02
#       6
#     2   2   2   2   2   2
#     4   9  21  38  62  98 124 164 211 254 323 368
#     4  10  24  42  61  95 125 165 219 250 318 372
#     4  10  22  40  63  92 128 167 207 263 310 373
#     4  11  25  43  65  91 129 171 211 259 308 376
#     4  10  21  41  62  91 129 159 212 263 311 374
#     4  10  22  37  65  95 127 165 205 263 314 373
#
# _framework density 21.5745
#
# number of rings (size 3 to 8) (size 9 to 14) (size 15 to 20)
#    0.000    2.000    0.000    1.500    7.000    4.667 
#    0.000   11.667    0.000    0.000    0.000    0.000 
#    0.000    0.000    0.000    0.000    0.000    0.000 
#
# Total GULP energy -67055.320361 kJ/mol
# GULP energy per Si atom -5587.943363 kJ/mol
# Density = 2.152540 g / cm^3
# Si number density = 21.574500 Si / 1000 Ang^3
#
#
#
# Elastic Constant Matrix: (Units=GPa)
#
#
# Indices 1 2 3 4 5 6 
#
# 1 63.6419 25.0338 47.4212 7.2585 31.8815 10.1244
# 2 25.0338 94.1389 66.5516 -3.1405 11.7602 -9.4700
# 3 47.4212 66.5516 188.8976 1.5639 6.9551 0.4335
# 4 7.2585 -3.1405 1.5639 21.4372 1.0436 18.5079
# 5 31.8815 11.7602 6.9551 1.0436 33.1427 7.1441
# 6 10.1244 -9.4700 0.4335 18.5079 7.1441 27.3087
#
#
#
# Elastic Compliance Matrix: (Units=1/GPa)
#
#
# Indices 1 2 3 4 5 6 
#
# 1 0.045043 0.000306 -0.009715 -0.018845 -0.042406 0.007427
# 2 0.000306 0.016503 -0.005571 -0.008554 -0.007619 0.013488
# 3 -0.009715 -0.005571 0.009283 0.005542 0.010259 -0.004917
# 4 -0.018845 -0.008554 0.005542 0.131107 0.036219 -0.094398
# 5 -0.042406 -0.007619 0.010259 0.036219 0.077237 -0.031836
# 6 0.007427 0.013488 -0.004917 -0.094398 -0.031836 0.110925
#
#
# Mechanical properties :
#
#
# Convention : Reuss Voigt Hill
#
# Bulk Modulus (GPa) = 24.46826 69.41019 46.93923
# Shear Modulus (GPa) = 11.52922 30.22251 20.87587
#
# Velocity S-wave (km/s) = 2.31420 3.74685 3.11403
# Velocity P-wave (km/s) = 4.30193 7.13867 5.89352
#
# Compressibility (1/GPa) = 0.04086928
#
# Stress axis : x y z
#
# Youngs Moduli (GPa) = 22.20116 60.59630 107.72332
#
# Poissons Ratio (x) = -0.01855 1.04655
# Poissons Ratio (y) = -0.00680 0.60008
# Poissons Ratio (z) = 0.21569 0.33756
#
# Static dielectric constant tensor:
#      x y z
#    x 1.825580 0.033380 0.035530 
#    y 0.033380 1.771270 0.006230 
#    z 0.035530 0.006230 1.758610 
# 
# From -- ./inp_files/19257.got.cif
#   From: 2010.05.17/outbox.cif.g08.bks.cpg/sg2_10_cif.got.tgz:19257.got - 2010.06.03 11:33:40.
