data_PCOD9012287
_publ_section_title
;
Structure prediction by ZEFSAII (Michael W. Deem and Ramdas Pophale) SiO2 
 PCOD9012287
Probable space group: P -1
;
_chemical_formula_sum "Si O2"
_cell_formula_units_Z 14
_cell_length_a 24.816689
_cell_length_b 9.466349
_cell_length_c 11.514032
_cell_angle_alpha 37.217119
_cell_angle_beta 153.529159
_cell_angle_gamma 145.576526
_cell_volume 663.318354
_symmetry_space_group_name_H-M "P -1"
_symmetry_group_IT_number 2
_symmetry_cell_setting 'triclinic'
loop_
_space_group_symop_operation_xyz
x,y,z
-x,-y,-z
loop_
_atom_site_type_symbol
_atom_site_label
_atom_site_fract_x
_atom_site_fract_y
_atom_site_fract_z
Si Si1 0.095333 0.806552 0.211348
Si Si2 0.014370 0.684161 0.797949
Si Si3 0.166478 0.055367 0.679386
Si Si4 0.545177 0.620396 0.329109
Si Si5 0.168481 0.101270 0.390150
Si Si6 0.623176 0.912428 0.523104
Si Si7 0.407027 0.582466 0.848070
O O1 0.079473 0.521231 0.341639
O O2 0.129603 0.880369 0.362972
O O3 0.218520 0.002744 0.244431
O O4 0.955119 0.817948 0.904217
O O5 0.968293 0.899427 0.611663
O O6 0.147902 0.836761 0.881288
O O7 0.000000 0.500000 0.000000
O O8 0.191821 0.016198 0.619425
O O9 0.272864 0.327375 0.750014
O O10 0.693716 0.675491 0.535130
O O11 0.564527 0.820866 0.339850
O O12 0.459012 0.336178 0.396745
O O13 0.467483 0.647663 0.049936
O O14 0.609401 0.160614 0.386024
O O15 0.500000 0.500000 0.000000
#
# Coordination Sequence:
#
# PCOD9012287 Si02
#       7
#     2   2   2   2   2   2   2
#     4  10  21  40  69  88 126 168 209 262 315 370
#     4  11  23  40  63  88 124 166 203 259 315 375
#     4  11  24  39  60  92 125 160 212 254 312 378
#     4  10  23  43  66  91 131 167 216 262 314 378
#     4  10  21  42  63  97 125 161 217 261 311 378
#     4  10  23  43  66  93 125 175 212 260 317 380
#     4  12  24  39  63  95 128 167 210 262 318 381
#
# _framework density 21.106003999999999
#
# number of rings (size 3 to 8) (size 9 to 14) (size 15 to 20)
#    0.000    1.429    4.286    0.429    2.000    2.286 
#    0.000    0.000    0.000    0.000    0.000    0.000 
#    0.000    0.000    0.000    0.000    0.000    0.000 
#
# Total GULP energy -78038.423321 kJ/mol
# GULP energy per Si atom -5574.173094 kJ/mol
# Density = 2.105797 g / cm^3
# Si number density = 21.106004 Si / 1000 Ang^3
#
#
#
# Elastic Constant Matrix: (Units=GPa)
#
#
# Indices 1 2 3 4 5 6 
#
# 1 106.7543 56.5659 25.5425 -12.2098 18.4312 14.6725
# 2 56.5659 130.3602 20.0923 3.0929 4.7416 11.4746
# 3 25.5425 20.0923 36.8247 0.3714 1.5902 1.6932
# 4 -12.2098 3.0929 0.3714 24.2344 2.0111 -2.6161
# 5 18.4312 4.7416 1.5902 2.0111 14.7824 0.0711
# 6 14.6725 11.4746 1.6932 -2.6161 0.0711 29.6352
#
#
#
# Elastic Compliance Matrix: (Units=1/GPa)
#
#
# Indices 1 2 3 4 5 6 
#
# 1 0.022815 -0.007024 -0.010665 0.014070 -0.026928 -0.006660
# 2 -0.007024 0.010923 -0.001243 -0.005552 0.006149 -0.001186
# 3 -0.010665 -0.001243 0.034681 -0.006298 0.010807 0.003198
# 4 0.014070 -0.005552 -0.006298 0.050996 -0.022023 0.000098
# 5 -0.026928 0.006149 0.010807 -0.022023 0.101045 0.008147
# 6 -0.006660 -0.001186 0.003198 0.000098 0.008147 0.037306
#
#
# Mechanical properties :
#
#
# Convention : Reuss Voigt Hill
#
# Bulk Modulus (GPa) = 32.72811 53.14895 42.93853
# Shear Modulus (GPa) = 16.34976 25.17962 20.76469
#
# Velocity S-wave (km/s) = 2.78627 3.45774 3.14001
# Velocity P-wave (km/s) = 5.08835 6.41700 5.79091
#
# Compressibility (1/GPa) = 0.03055477
#
# Stress axis : x y z
#
# Youngs Moduli (GPa) = 43.83144 91.55082 28.83405
#
# Poissons Ratio (x) = 0.64306 0.30752
# Poissons Ratio (y) = 0.30787 0.03583
# Poissons Ratio (z) = 0.46747 0.11377
#
# Static dielectric constant tensor:
#      x y z
#    x 1.902480 0.019400 0.133540 
#    y 0.019400 1.749540 0.015050 
#    z 0.133540 0.015050 1.958390 
# 
# From -- ./inp_files/278395.got.cif
#   From: 2010.05.17/outbox.cif.g08.bks.cpg/sg2_140_cif.got.tgz:278395.got - 2010.06.03 11:33:40.
