data_PCOD9012039
_publ_section_title
;
Structure prediction by ZEFSAII (Michael W. Deem and Ramdas Pophale) SiO2 
 PCOD9012039
Probable space group: P -1
;
_chemical_formula_sum "Si O2"
_cell_formula_units_Z 16
_cell_length_a 18.703490
_cell_length_b 12.661196
_cell_length_c 11.823800
_cell_angle_alpha 58.606444
_cell_angle_beta 141.815001
_cell_angle_gamma 149.474417
_cell_volume 762.746446
_symmetry_space_group_name_H-M "P -1"
_symmetry_group_IT_number 2
_symmetry_cell_setting 'triclinic'
loop_
_space_group_symop_operation_xyz
x,y,z
-x,-y,-z
loop_
_atom_site_type_symbol
_atom_site_label
_atom_site_fract_x
_atom_site_fract_y
_atom_site_fract_z
Si Si1 0.850169 0.823094 0.307629
Si Si2 0.082579 0.681583 0.850245
Si Si3 0.576336 0.185585 0.262384
Si Si4 0.006913 0.711279 0.489336
Si Si5 0.150176 0.464852 0.124490
Si Si6 0.090589 0.950858 0.103004
Si Si7 0.331684 0.998992 0.540389
Si Si8 0.423291 0.275223 0.148820
O O1 0.628000 0.555047 0.229921
O O2 0.972464 0.827185 0.386948
O O3 0.765008 0.854445 0.103525
O O4 0.000000 0.000000 0.500000
O O5 0.011657 0.665925 0.648945
O O6 0.944230 0.615876 0.819053
O O7 0.064633 0.516724 0.935033
O O8 0.346634 0.955139 0.037446
O O9 0.505046 0.212811 0.257812
O O10 0.781571 0.440646 0.310877
O O11 0.651912 0.119714 0.431724
O O12 0.230507 0.883411 0.603716
O O13 0.419943 0.716891 0.313371
O O14 0.058125 0.265014 0.049670
O O15 0.150210 0.918925 0.299871
O O16 0.322196 0.188408 0.194167
O O17 0.000000 0.000000 0.000000
#
# Coordination Sequence:
#
# PCOD9012039 Si02
#       8
#     2   2   2   2   2   2   2   2
#     4  10  22  38  62  88 122 162 212 260 304 379
#     4  10  21  41  67  97 128 167 218 271 317 378
#     4  10  21  40  68  92 126 166 217 270 317 381
#     4  11  23  39  64  96 129 171 213 264 327 381
#     4  10  24  41  66  98 129 168 219 265 321 385
#     4  12  26  43  65  90 136 174 210 264 325 387
#     4  11  26  41  63 101 130 168 213 268 329 382
#     4  10  22  40  60  92 119 165 217 256 315 375
#
# _framework density 20.976824000000001
#
# number of rings (size 3 to 8) (size 9 to 14) (size 15 to 20)
#    0.000    1.500    1.250    2.625    3.500    5.000 
#    0.000    0.000    0.000    0.000    0.000    0.000 
#    0.000    0.000    0.000    0.000    0.000    0.000 
#
# Total GULP energy -89407.822096 kJ/mol
# GULP energy per Si atom -5587.988881 kJ/mol
# Density = 2.092908 g / cm^3
# Si number density = 20.976824 Si / 1000 Ang^3
#
#
#
# Elastic Constant Matrix: (Units=GPa)
#
#
# Indices 1 2 3 4 5 6 
#
# 1 105.7639 76.4362 53.7428 -6.3435 8.7906 -6.9644
# 2 76.4362 74.2753 34.0746 1.6949 8.5673 -13.6504
# 3 53.7428 34.0746 85.6710 -0.9846 4.9186 -5.1535
# 4 -6.3435 1.6949 -0.9846 36.4822 -0.7895 3.1348
# 5 8.7906 8.5673 4.9186 -0.7895 27.8663 -4.0121
# 6 -6.9644 -13.6504 -5.1535 3.1348 -4.0121 43.3431
#
#
#
# Elastic Compliance Matrix: (Units=1/GPa)
#
#
# Indices 1 2 3 4 5 6 
#
# 1 0.052263 -0.049660 -0.013486 0.011866 0.000102 -0.009695
# 2 -0.049660 0.064984 0.006207 -0.012754 -0.003784 0.013797
# 3 -0.013486 0.006207 0.017791 -0.002339 -0.000570 0.002020
# 4 0.011866 -0.012754 -0.002339 0.030408 0.000802 -0.004513
# 5 0.000102 -0.003784 -0.000570 0.000802 0.037452 0.002166
# 6 -0.009695 0.013797 0.002020 -0.004513 0.002166 0.026626
#
#
# Mechanical properties :
#
#
# Convention : Reuss Voigt Hill
#
# Bulk Modulus (GPa) = 47.26205 66.02415 56.64310
# Shear Modulus (GPa) = 14.26709 28.30208 21.28459
#
# Velocity S-wave (km/s) = 2.61077 3.67714 3.18885
# Velocity P-wave (km/s) = 5.62740 7.04071 6.37335
#
# Compressibility (1/GPa) = 0.02115862
#
# Stress axis : x y z
#
# Youngs Moduli (GPa) = 19.13416 15.38834 56.20743
#
# Poissons Ratio (x) = 0.76419 0.75801
# Poissons Ratio (y) = 0.95021 -0.34886
# Poissons Ratio (z) = 0.25804 -0.09551
#
# Static dielectric constant tensor:
#      x y z
#    x 1.744710 0.009850 -0.015610 
#    y 0.009850 1.779710 -0.015940 
#    z -0.015610 -0.015940 1.792480 
# 
# From -- ./inp_files/464480.got.cif
#   From: 2010.05.17/outbox.cif.g08.bks.cpg/sg2_233_cif.got.tgz:464480.got - 2010.06.03 11:33:40.
