data_PCOD9012607
_publ_section_title
;
Structure prediction by ZEFSAII (Michael W. Deem and Ramdas Pophale) SiO2 
 PCOD9012607
Probable space group: P -1
;
_chemical_formula_sum "Si O2"
_cell_formula_units_Z 16
_cell_length_a 8.814403
_cell_length_b 12.784606
_cell_length_c 9.048407
_cell_angle_alpha 131.281377
_cell_angle_beta 95.974625
_cell_angle_gamma 74.373833
_cell_volume 734.098110
_symmetry_space_group_name_H-M "P -1"
_symmetry_group_IT_number 2
_symmetry_cell_setting 'triclinic'
loop_
_space_group_symop_operation_xyz
x,y,z
-x,-y,-z
loop_
_atom_site_type_symbol
_atom_site_label
_atom_site_fract_x
_atom_site_fract_y
_atom_site_fract_z
Si Si1 0.026745 0.145734 0.079358
Si Si2 0.898557 0.928956 0.313220
Si Si3 0.372427 0.609564 0.187358
Si Si4 0.814949 0.429840 0.297482
Si Si5 0.483127 0.409036 0.268919
Si Si6 0.325910 0.239911 0.295941
Si Si7 0.541374 0.098947 0.461849
Si Si8 0.965889 0.366388 0.948269
O O1 0.198774 0.164023 0.149720
O O2 0.906240 0.289793 0.271031
O O3 0.011563 0.121526 0.879155
O O4 0.000000 0.000000 0.000000
O O5 0.896059 0.770673 0.219196
O O6 0.720808 0.021718 0.357194
O O7 0.000000 0.000000 0.500000
O O8 0.363849 0.518540 0.251123
O O9 0.443151 0.745708 0.338668
O O10 0.198646 0.657533 0.147410
O O11 0.500000 0.500000 0.000000
O O12 0.655874 0.385955 0.193504
O O13 0.763773 0.594457 0.504042
O O14 0.937692 0.413005 0.159923
O O15 0.500000 0.500000 0.500000
O O16 0.433127 0.272193 0.200547
O O17 0.422702 0.143923 0.350811
O O18 0.500000 0.000000 0.500000
O O19 0.000000 0.500000 0.000000
#
# Coordination Sequence:
#
# PCOD9012607 Si02
#       8
#     2   2   2   2   2   2   2   2
#     4  11  28  45  71 104 145 190 229 294 366 429
#     4  11  27  48  66 101 144 187 236 280 365 424
#     4  12  23  44  73 106 137 186 237 292 359 420
#     4  10  22  46  70 104 137 182 237 293 358 417
#     4  10  21  40  72 100 138 172 234 289 348 420
#     4  11  25  48  71 107 138 189 246 297 357 430
#     4  12  28  46  73 104 143 191 238 301 368 422
#     4  11  25  42  70 103 140 184 239 292 346 427
#
# _framework density 21.795452999999998
#
# number of rings (size 3 to 8) (size 9 to 14) (size 15 to 20)
#    0.000    1.000    5.000    0.375   10.500    0.500 
#    0.000    0.000    0.000    0.000    0.000    0.000 
#    0.000    0.000    0.000    0.000    0.000    0.000 
#
# Total GULP energy -89173.609518 kJ/mol
# GULP energy per Si atom -5573.350595 kJ/mol
# Density = 2.174585 g / cm^3
# Si number density = 21.795453 Si / 1000 Ang^3
#
#
#
# Elastic Constant Matrix: (Units=GPa)
#
#
# Indices 1 2 3 4 5 6 
#
# 1 70.9448 28.7672 30.0096 13.3530 16.7864 -4.7419
# 2 28.7672 133.8948 43.6610 15.3859 11.1373 1.6002
# 3 30.0096 43.6610 87.8330 12.2444 0.9021 -8.5578
# 4 13.3530 15.3859 12.2444 30.7221 -4.3066 2.8385
# 5 16.7864 11.1373 0.9021 -4.3066 41.4555 5.7191
# 6 -4.7419 1.6002 -8.5578 2.8385 5.7191 45.9208
#
#
#
# Elastic Compliance Matrix: (Units=1/GPa)
#
#
# Indices 1 2 3 4 5 6 
#
# 1 0.020486 -0.001158 -0.004953 -0.007888 -0.009089 0.002852
# 2 -0.001158 0.009548 -0.003992 -0.002929 -0.002212 -0.000740
# 3 -0.004953 -0.003992 0.015542 -0.001952 0.002210 0.002369
# 4 -0.007888 -0.002929 -0.001952 0.039886 0.008807 -0.004638
# 5 -0.009089 -0.002212 0.002210 0.008807 0.029915 -0.004720
# 6 0.002852 -0.000740 0.002369 -0.004638 -0.004720 0.023413
#
#
# Mechanical properties :
#
#
# Convention : Reuss Voigt Hill
#
# Bulk Modulus (GPa) = 39.41497 55.28312 47.34904
# Shear Modulus (GPa) = 29.85917 36.30199 33.08058
#
# Velocity S-wave (km/s) = 3.70533 4.08558 3.90009
# Velocity P-wave (km/s) = 6.03566 6.90474 6.48478
#
# Compressibility (1/GPa) = 0.02537107
#
# Stress axis : x y z
#
# Youngs Moduli (GPa) = 48.81391 104.72922 64.34184
#
# Poissons Ratio (x) = 0.12128 0.31868
# Poissons Ratio (y) = 0.05653 0.25684
# Poissons Ratio (z) = 0.24177 0.41806
#
# Static dielectric constant tensor:
#      x y z
#    x 1.804060 0.044150 0.053410 
#    y 0.044150 1.973950 -0.040070 
#    z 0.053410 -0.040070 1.978610 
# 
# From -- ./inp_files/190770.got.cif
#   From: 2010.05.17/outbox.cif.g08.bks.cpg/sg2_96_cif.got.tgz:190770.got - 2010.06.03 11:33:40.
