data_PCOD9012904
_publ_section_title
;
Structure prediction by ZEFSAII (Michael W. Deem and Ramdas Pophale) SiO2 
 PCOD9012904
Probable space group: P -1
;
_chemical_formula_sum "Si O2"
_cell_formula_units_Z 16
_cell_length_a 5.059385
_cell_length_b 24.732821
_cell_length_c 22.958133
_cell_angle_alpha 12.979027
_cell_angle_beta 109.339601
_cell_angle_gamma 107.228353
_cell_volume 604.022489
_symmetry_space_group_name_H-M "P -1"
_symmetry_group_IT_number 2
_symmetry_cell_setting 'triclinic'
loop_
_space_group_symop_operation_xyz
x,y,z
-x,-y,-z
loop_
_atom_site_type_symbol
_atom_site_label
_atom_site_fract_x
_atom_site_fract_y
_atom_site_fract_z
Si Si1 0.751409 0.222702 0.753569
Si Si2 0.756320 0.421393 0.431197
Si Si3 0.975838 0.726485 0.927561
Si Si4 0.271467 0.259451 0.488179
Si Si5 0.712047 0.862877 0.506021
Si Si6 0.319568 0.576704 0.850037
Si Si7 0.250621 0.964023 0.934693
Si Si8 0.054419 0.117428 0.106007
O O1 0.772327 0.443093 0.479886
O O2 0.492189 0.106357 0.828406
O O3 0.738183 0.255710 0.787212
O O4 0.000000 0.000000 0.000000
O O5 0.475126 0.329351 0.480106
O O6 0.980156 0.174974 0.695813
O O7 0.807267 0.676215 0.137511
O O8 0.913422 0.804101 0.908012
O O9 0.704098 0.647068 0.959992
O O10 0.136976 0.902718 0.715971
O O11 0.204860 0.498672 0.195230
O O12 0.385050 0.087792 0.621943
O O13 0.977571 0.171929 0.580052
O O14 0.461646 0.783757 0.608850
O O15 0.989964 0.666465 0.743536
O O16 0.500000 0.500000 0.000000
O O17 0.244176 0.861046 0.976696
#
# Coordination Sequence:
#
# PCOD9012904 Si02
#       8
#     2   2   2   2   2   2   2   2
#     4   9  20  41  62  86 124 165 203 274 330 392
#     4  11  22  38  65  89 125 167 211 272 336 394
#     4  10  24  42  66  98 137 173 226 276 332 397
#     4  10  22  41  61  94 132 166 217 274 330 389
#     4  10  24  43  70 102 139 186 226 272 337 397
#     4  11  24  45  72 105 143 182 226 278 329 394
#     4  10  21  41  62  88 126 157 218 270 325 403
#     4  11  22  37  64  93 119 167 212 266 329 392
#
# _framework density 26.489083000000001
#
# number of rings (size 3 to 8) (size 9 to 14) (size 15 to 20)
#    0.000    1.750    1.250    1.875    0.000   10.500 
#    0.000    5.625    0.000    0.000    0.000    0.000 
#    0.000    0.000    0.000    0.000    0.000    0.000 
#
# Total GULP energy -89125.052053 kJ/mol
# GULP energy per Si atom -5570.315753 kJ/mol
# Density = 2.642879 g / cm^3
# Si number density = 26.489083 Si / 1000 Ang^3
#
#
#
# Elastic Constant Matrix: (Units=GPa)
#
#
# Indices 1 2 3 4 5 6 
#
# 1 55.3417 23.6078 9.2839 -2.8053 -16.6689 13.0960
# 2 23.6078 170.1700 39.4368 26.0922 -15.7708 23.1064
# 3 9.2839 39.4368 113.9278 3.6613 -37.9153 7.1108
# 4 -2.8053 26.0922 3.6613 39.4799 1.1815 -7.2832
# 5 -16.6689 -15.7708 -37.9153 1.1815 45.9205 1.0281
# 6 13.0960 23.1064 7.1108 -7.2832 1.0281 34.4830
#
#
#
# Elastic Compliance Matrix: (Units=1/GPa)
#
#
# Indices 1 2 3 4 5 6 
#
# 1 0.023544 -0.001936 0.002647 0.000867 0.010231 -0.008312
# 2 -0.001936 0.008525 -0.001870 -0.006743 0.000990 -0.006045
# 3 0.002647 -0.001870 0.013167 -0.000678 0.011274 -0.002947
# 4 0.000867 -0.006743 -0.000678 0.032088 -0.003638 0.011215
# 5 0.010231 0.000990 0.011274 -0.003638 0.035427 -0.008698
# 6 -0.008312 -0.006045 -0.002947 0.011215 -0.008698 0.039443
#
#
# Mechanical properties :
#
#
# Convention : Reuss Voigt Hill
#
# Bulk Modulus (GPa) = 23.29974 53.78849 38.54411
# Shear Modulus (GPa) = 29.61796 41.78407 35.70102
#
# Velocity S-wave (km/s) = 3.34746 3.97597 3.67517
# Velocity P-wave (km/s) = 4.87398 6.43644 5.70892
#
# Compressibility (1/GPa) = 0.04291893
#
# Stress axis : x y z
#
# Youngs Moduli (GPa) = 42.47399 117.30371 75.95010
#
# Poissons Ratio (x) = 0.22709 -0.20107
# Poissons Ratio (y) = 0.08223 0.14200
# Poissons Ratio (z) = -0.11245 0.21931
#
# Static dielectric constant tensor:
#      x y z
#    x 2.512800 -0.196570 0.147430 
#    y -0.196570 1.674900 -0.138970 
#    z 0.147430 -0.138970 2.266600 
# 
# From -- ./inp_files/603285.got.cif
#   From: 2010.05.17/outbox.cif.g08.bks.cpg/sg2_302_cif.got.tgz:603285.got - 2010.06.03 11:33:40.
