data_PCOD9012844
_publ_section_title
;
Structure prediction by ZEFSAII (Michael W. Deem and Ramdas Pophale) SiO2 
 PCOD9012844
Probable space group: P -1
;
_chemical_formula_sum "Si O2"
_cell_formula_units_Z 14
_cell_length_a 13.580802
_cell_length_b 11.909392
_cell_length_c 23.898200
_cell_angle_alpha 151.589721
_cell_angle_beta 158.938256
_cell_angle_gamma 30.037021
_cell_volume 637.704975
_symmetry_space_group_name_H-M "P -1"
_symmetry_group_IT_number 2
_symmetry_cell_setting 'triclinic'
loop_
_space_group_symop_operation_xyz
x,y,z
-x,-y,-z
loop_
_atom_site_type_symbol
_atom_site_label
_atom_site_fract_x
_atom_site_fract_y
_atom_site_fract_z
Si Si1 0.884148 0.303243 0.716224
Si Si2 0.022739 0.577450 0.649869
Si Si3 0.304675 0.070608 0.627693
Si Si4 0.387889 0.415602 0.087770
Si Si5 0.132678 0.964256 0.155084
Si Si6 0.581995 0.840315 0.778305
Si Si7 0.502561 0.574359 0.725891
O O1 0.819538 0.090721 0.552456
O O2 0.750412 0.563167 0.727542
O O3 0.718939 0.351215 0.709555
O O4 0.207601 0.282007 0.894766
O O5 0.292732 0.619445 0.779154
O O6 0.874773 0.817160 0.710934
O O7 0.790944 0.498978 0.454398
O O8 0.137788 0.351806 0.654718
O O9 0.629953 0.042756 0.768540
O O10 0.335937 0.966262 0.660895
O O11 0.386370 0.356072 0.126171
O O12 0.227259 0.703108 0.121849
O O13 0.819074 0.987706 0.975339
O O14 0.470488 0.788039 0.756957
#
# Coordination Sequence:
#
# PCOD9012844 Si02
#       7
#     2   2   2   2   2   2   2
#     4   9  20  39  66  89 119 160 203 251 305 353
#     4  11  24  39  61  93 125 163 201 248 305 363
#     4  11  21  41  63  91 126 159 204 250 306 360
#     4  10  22  42  65  89 124 159 202 255 304 360
#     4  10  21  41  61  93 124 159 205 248 307 359
#     4   9  21  37  68  88 120 167 198 252 304 359
#     4  10  21  42  62  94 120 159 208 246 307 362
#
# _framework density 21.953724999999999
#
# number of rings (size 3 to 8) (size 9 to 14) (size 15 to 20)
#    0.857    1.143    1.429    1.714    0.000    2.857 
#    2.571    1.429    0.000    0.000    0.000    0.000 
#    0.000    0.000    0.000    0.000    0.000    0.000 
#
# Total GULP energy -78217.968569 kJ/mol
# GULP energy per Si atom -5586.997755 kJ/mol
# Density = 2.190376 g / cm^3
# Si number density = 21.953725 Si / 1000 Ang^3
#
#
#
# Elastic Constant Matrix: (Units=GPa)
#
#
# Indices 1 2 3 4 5 6 
#
# 1 27.0704 58.7747 28.1351 0.1751 -17.4417 34.2900
# 2 58.7747 11.2400 3.5071 3.2587 1.1927 -14.9505
# 3 28.1351 3.5071 109.2418 -3.4210 24.3806 5.4407
# 4 0.1751 3.2587 -3.4210 24.2722 -2.5272 -1.5577
# 5 -17.4417 1.1927 24.3806 -2.5272 26.5479 -4.5555
# 6 34.2900 -14.9505 5.4407 -1.5577 -4.5555 20.6553
#
#
#
# Elastic Compliance Matrix: (Units=1/GPa)
#
#
# Indices 1 2 3 4 5 6 
#
# 1 0.000163 0.012705 -0.001536 -0.001030 0.002532 0.009811
# 2 0.012705 0.007056 -0.005305 -0.001471 0.010642 -0.012351
# 3 -0.001536 -0.005305 0.013326 0.000604 -0.014309 -0.007910
# 4 -0.001030 -0.001471 0.000604 0.042152 0.003613 0.004462
# 5 0.002532 0.010642 -0.014309 0.003613 0.055742 0.019835
# 6 0.009811 -0.012351 -0.007910 0.004462 0.019835 0.029982
#
#
# Mechanical properties :
#
#
# Convention : Reuss Voigt Hill
#
# Bulk Modulus (GPa) = 30.98453 36.48734 33.73594
# Shear Modulus (GPa) = 33.90967 18.10409 26.00688
#
# Velocity S-wave (km/s) = 3.93440 2.87478 3.44557
# Velocity P-wave (km/s) = 5.89776 5.26074 5.58833
#
# Compressibility (1/GPa) = 0.03227417
#
# Stress axis : x y z
#
# Youngs Moduli (GPa) = 6128.46730 141.72222 75.03977
#
# Poissons Ratio (x) = -1.80060 0.11526
# Poissons Ratio (y) = -77.86300 0.39807
# Poissons Ratio (z) = 9.41308 0.75181
#
# Static dielectric constant tensor:
#      x y z
#    x 1.810460 0.008000 0.043380 
#    y 0.008000 1.802350 -0.018320 
#    z 0.043380 -0.018320 1.791030 
# 
# From -- ./inp_files/384729.got.cif
#   From: 2010.05.17/outbox.cif.g08.bks.cpg/sg2_193_cif.got.tgz:384729.got - 2010.06.03 11:33:40.
