data_PCOD9012602
_publ_section_title
;
Structure prediction by ZEFSAII (Michael W. Deem and Ramdas Pophale) SiO2 
 PCOD9012602
Probable space group: P -1
;
_chemical_formula_sum "Si O2"
_cell_formula_units_Z 14
_cell_length_a 9.608592
_cell_length_b 9.001229
_cell_length_c 8.008346
_cell_angle_alpha 120.595101
_cell_angle_beta 68.489668
_cell_angle_gamma 101.674013
_cell_volume 554.578096
_symmetry_space_group_name_H-M "P -1"
_symmetry_group_IT_number 2
_symmetry_cell_setting 'triclinic'
loop_
_space_group_symop_operation_xyz
x,y,z
-x,-y,-z
loop_
_atom_site_type_symbol
_atom_site_label
_atom_site_fract_x
_atom_site_fract_y
_atom_site_fract_z
Si Si1 0.375379 0.191845 0.240312
Si Si2 0.179834 0.876118 0.216508
Si Si3 0.516480 0.523797 0.202098
Si Si4 0.835165 0.519712 0.001872
Si Si5 0.107125 0.977201 0.688742
Si Si6 0.903119 0.657873 0.687254
Si Si7 0.411581 0.870458 0.583159
O O1 0.475206 0.333238 0.177294
O O2 0.224172 0.303262 0.370656
O O3 0.484996 0.150292 0.316467
O O4 0.297546 0.000521 0.137773
O O5 0.217596 0.679040 0.111722
O O6 0.159590 0.947161 0.455758
O O7 0.017935 0.879203 0.196715
O O8 0.405806 0.674962 0.399460
O O9 0.500000 0.500000 0.000000
O O10 0.688459 0.588684 0.203729
O O11 0.844953 0.618360 0.876696
O O12 0.000000 0.500000 0.000000
O O13 0.255750 0.968513 0.728010
O O14 0.010578 0.822358 0.721446
O O15 0.000000 0.500000 0.500000
O O16 0.500000 0.000000 0.500000
#
# Coordination Sequence:
#
# PCOD9012602 Si02
#       7
#     2   2   2   2   2   2   2
#     4  11  25  45  74 102 137 191 240 290 350 423
#     4  10  22  45  69 103 136 183 234 293 351 412
#     4  12  27  49  69 102 153 185 229 297 365 419
#     4  12  28  44  69 105 142 186 233 292 361 422
#     4  10  21  40  71  99 132 174 237 288 336 404
#     4  11  22  42  72  95 136 185 235 281 350 420
#     4  12  26  44  75 108 139 186 246 294 344 425
#
# _framework density 25.244415
#
# number of rings (size 3 to 8) (size 9 to 14) (size 15 to 20)
#    0.000    0.857    4.286    2.143    6.000    0.571 
#    0.000    2.857    0.000    0.000    0.000    0.000 
#    0.000    0.000    0.000    0.000    0.000    0.000 
#
# Total GULP energy -78147.506554 kJ/mol
# GULP energy per Si atom -5581.964754 kJ/mol
# Density = 2.518696 g / cm^3
# Si number density = 25.244415 Si / 1000 Ang^3
#
#
#
# Elastic Constant Matrix: (Units=GPa)
#
#
# Indices 1 2 3 4 5 6 
#
# 1 209.1026 49.2496 27.9844 -21.2828 -0.0998 -26.6092
# 2 49.2496 202.1733 41.5766 -28.9696 -11.6355 -14.8193
# 3 27.9844 41.5766 37.8447 -4.5755 -2.7065 -2.3507
# 4 -21.2828 -28.9696 -4.5755 40.9587 -0.8650 -6.7305
# 5 -0.0998 -11.6355 -2.7065 -0.8650 25.0904 -12.3387
# 6 -26.6092 -14.8193 -2.3507 -6.7305 -12.3387 52.9695
#
#
#
# Elastic Compliance Matrix: (Units=1/GPa)
#
#
# Indices 1 2 3 4 5 6 
#
# 1 0.006107 0.000208 -0.003961 0.003536 0.001680 0.003791
# 2 0.000208 0.007769 -0.007444 0.005494 0.004847 0.003775
# 3 -0.003961 -0.007444 0.036791 -0.003764 -0.001202 -0.003198
# 4 0.003536 0.005494 -0.003764 0.031342 0.007615 0.008903
# 5 0.001680 0.004847 -0.001202 0.007615 0.049438 0.014630
# 6 0.003791 0.003775 -0.003198 0.008903 0.014630 0.026236
#
#
# Mechanical properties :
#
#
# Convention : Reuss Voigt Hill
#
# Bulk Modulus (GPa) = 35.36916 76.30463 55.83690
# Shear Modulus (GPa) = 26.38504 45.82438 36.10471
#
# Velocity S-wave (km/s) = 3.23644 4.26517 3.78591
# Velocity P-wave (km/s) = 5.29218 7.38563 6.42474
#
# Compressibility (1/GPa) = 0.02827322
#
# Stress axis : x y z
#
# Youngs Moduli (GPa) = 163.75948 128.71118 27.18032
#
# Poissons Ratio (x) = -0.02681 0.10767
# Poissons Ratio (y) = -0.03411 0.20233
# Poissons Ratio (z) = 0.64868 0.95814
#
# Static dielectric constant tensor:
#      x y z
#    x 2.119130 -0.016790 -0.048480 
#    y -0.016790 1.970370 0.075890 
#    z -0.048480 0.075890 2.099980 
# 
# From -- ./inp_files/157189.got.cif
#   From: 2010.05.17/outbox.cif.g08.bks.cpg/sg2_79_cif.got.tgz:157189.got - 2010.06.03 11:33:40.
