data_PCOD9012741
_publ_section_title
;
Structure prediction by ZEFSAII (Michael W. Deem and Ramdas Pophale) SiO2 
 PCOD9012741
Probable space group: P -1
;
_chemical_formula_sum "Si O2"
_cell_formula_units_Z 16
_cell_length_a 8.693937
_cell_length_b 21.684567
_cell_length_c 5.554641
_cell_angle_alpha 93.326174
_cell_angle_beta 123.532542
_cell_angle_gamma 122.218178
_cell_volume 639.603901
_symmetry_space_group_name_H-M "P -1"
_symmetry_group_IT_number 2
_symmetry_cell_setting 'triclinic'
loop_
_space_group_symop_operation_xyz
x,y,z
-x,-y,-z
loop_
_atom_site_type_symbol
_atom_site_label
_atom_site_fract_x
_atom_site_fract_y
_atom_site_fract_z
Si Si1 0.546283 0.348022 0.443362
Si Si2 0.303510 0.841768 0.735724
Si Si3 0.951011 0.416390 0.470755
Si Si4 0.210354 0.920884 0.274046
Si Si5 0.220849 0.046259 0.513840
Si Si6 0.984106 0.754358 0.834583
Si Si7 0.225598 0.469316 0.226375
Si Si8 0.542524 0.209623 0.539177
O O1 0.270090 0.311027 0.254080
O O2 0.721712 0.444422 0.701823
O O3 0.549567 0.284272 0.573227
O O4 0.655108 0.350459 0.277713
O O5 0.214772 0.877589 0.500793
O O6 0.454006 0.820576 0.728536
O O7 0.046361 0.756245 0.609935
O O8 0.520391 0.915780 0.118910
O O9 0.062892 0.415489 0.315445
O O10 0.000000 0.500000 0.500000
O O11 0.095216 0.426262 0.843390
O O12 0.500000 0.000000 0.500000
O O13 0.119754 0.969428 0.236230
O O14 0.060836 0.844135 0.943913
O O15 0.321306 0.129439 0.485460
O O16 0.000000 0.000000 0.500000
O O17 0.198857 0.761640 0.139363
O O18 0.500000 0.500000 0.500000
#
# Coordination Sequence:
#
# PCOD9012741 Si02
#       8
#     2   2   2   2   2   2   2   2
#     4  11  25  44  71 101 144 181 223 306 347 436
#     4  10  21  41  60  85 125 175 230 284 348 414
#     4  10  23  50  76 114 150 189 241 295 361 446
#     4  11  20  40  62  84 126 173 235 293 332 419
#     4  11  24  37  61  91 123 178 234 294 344 413
#     4  10  24  43  62  99 129 182 233 277 371 405
#     4  11  25  50  82 116 147 198 246 289 370 450
#     4  10  24  45  58  97 138 171 238 285 357 418
#
# _framework density 25.01548
#
# number of rings (size 3 to 8) (size 9 to 14) (size 15 to 20)
#    0.000    1.500    3.750    2.250    5.250    1.500 
#   24.750    0.000    0.000    0.000    0.000    0.000 
#    0.000    0.000    0.000    0.000    0.000    0.000 
#
# Total GULP energy -89238.681704 kJ/mol
# GULP energy per Si atom -5577.417606 kJ/mol
# Density = 2.495854 g / cm^3
# Si number density = 25.015480 Si / 1000 Ang^3
#
#
#
# Elastic Constant Matrix: (Units=GPa)
#
#
# Indices 1 2 3 4 5 6 
#
# 1 125.5257 68.9305 43.4312 8.4214 14.0218 36.5519
# 2 68.9305 145.9213 30.6062 7.0720 2.9969 15.2908
# 3 43.4312 30.6062 77.1903 -5.7980 8.0630 20.8226
# 4 8.4214 7.0720 -5.7980 35.8025 1.5769 3.9765
# 5 14.0218 2.9969 8.0630 1.5769 43.7991 9.1652
# 6 36.5519 15.2908 20.8226 3.9765 9.1652 75.8395
#
#
#
# Elastic Compliance Matrix: (Units=1/GPa)
#
#
# Indices 1 2 3 4 5 6 
#
# 1 0.013945 -0.005007 -0.004727 -0.002510 -0.002324 -0.004001
# 2 -0.005007 0.009442 -0.001333 -0.001039 0.001072 0.000800
# 3 -0.004727 -0.001333 0.017220 0.004471 -0.001253 -0.002264
# 4 -0.002510 -0.001039 0.004471 0.029625 -0.000749 -0.001271
# 5 -0.002324 0.001072 -0.001253 -0.000749 0.024100 -0.001625
# 6 -0.004001 0.000800 -0.002264 -0.001271 -0.001625 0.015837
#
#
# Mechanical properties :
#
#
# Convention : Reuss Voigt Hill
#
# Bulk Modulus (GPa) = 54.13072 70.50813 62.31942
# Shear Modulus (GPa) = 36.11130 44.79952 40.45541
#
# Velocity S-wave (km/s) = 3.80354 4.23646 4.02582
# Velocity P-wave (km/s) = 6.40118 7.22337 6.82467
#
# Compressibility (1/GPa) = 0.01847380
#
# Stress axis : x y z
#
# Youngs Moduli (GPa) = 71.71227 105.90698 58.07036
#
# Poissons Ratio (x) = 0.53028 0.27451
# Poissons Ratio (y) = 0.35907 0.07738
# Poissons Ratio (z) = 0.33899 0.14113
#
# Static dielectric constant tensor:
#      x y z
#    x 2.147920 0.097240 -0.102430 
#    y 0.097240 1.998830 -0.041020 
#    z -0.102430 -0.041020 2.082140 
# 
# From -- ./inp_files/44392.got.cif
#   From: 2010.05.17/outbox.cif.g08.bks.cpg/sg2_23_cif.got.tgz:44392.got - 2010.06.03 11:33:40.
