data_PCOD9012578
_publ_section_title
;
Structure prediction by ZEFSAII (Michael W. Deem and Ramdas Pophale) SiO2 
 PCOD9012578
Probable space group: P -1
;
_chemical_formula_sum "Si O2"
_cell_formula_units_Z 15
_cell_length_a 10.858409
_cell_length_b 8.918345
_cell_length_c 8.739189
_cell_angle_alpha 97.457231
_cell_angle_beta 126.063622
_cell_angle_gamma 82.850214
_cell_volume 677.107222
_symmetry_space_group_name_H-M "P -1"
_symmetry_group_IT_number 2
_symmetry_cell_setting 'triclinic'
loop_
_space_group_symop_operation_xyz
x,y,z
-x,-y,-z
loop_
_atom_site_type_symbol
_atom_site_label
_atom_site_fract_x
_atom_site_fract_y
_atom_site_fract_z
Si Si1 0.068213 0.906744 0.815413
Si Si2 0.215451 0.337649 0.929540
Si Si3 0.345518 0.323151 0.461730
Si Si4 0.934511 0.212588 0.862841
Si Si5 0.500000 0.000000 0.500000
Si Si6 0.919696 0.663530 0.493660
Si Si7 0.597611 0.964339 0.914299
Si Si8 0.338309 0.575129 0.227410
O O1 0.031280 0.793275 0.638730
O O2 0.034116 0.832259 0.944635
O O3 0.961310 0.062405 0.759752
O O4 0.243400 0.950503 0.952926
O O5 0.174928 0.296637 0.722356
O O6 0.060560 0.322381 0.911552
O O7 0.344889 0.212999 0.061021
O O8 0.265133 0.507772 0.013536
O O9 0.377809 0.147840 0.423330
O O10 0.194487 0.348792 0.451151
O O11 0.339675 0.435330 0.327662
O O12 0.494206 0.372397 0.668624
O O13 0.764368 0.288722 0.751605
O O14 0.490688 0.990843 0.300543
O O15 0.000000 0.500000 0.500000
O O16 0.500000 0.000000 0.000000
#
# Coordination Sequence:
#
# PCOD9012578 Si02
#       8
#     2   2   2   2   1   2   2   2
#     4  10  24  43  67 104 135 187 241 282 367 421
#     4  11  23  42  65 100 142 179 237 288 360 429
#     4  11  26  41  70 100 137 185 245 286 360 434
#     4  10  21  40  71  94 137 181 231 298 340 432
#     4  12  24  48  74 102 144 192 238 298 368 424
#     4  12  26  44  66 102 145 190 229 296 365 430
#     4  11  25  46  69 105 143 188 237 306 354 434
#     4  11  22  43  66 103 131 185 235 299 356 420
#
# _framework density 22.153064000000001
#
# number of rings (size 3 to 8) (size 9 to 14) (size 15 to 20)
#    0.000    1.067    1.333    4.400    5.600    3.733 
#    4.800    0.000    0.000    0.000    0.000    0.000 
#    0.000    0.000    0.000    0.000    0.000    0.000 
#
# Total GULP energy -83664.531807 kJ/mol
# GULP energy per Si atom -5577.635454 kJ/mol
# Density = 2.210264 g / cm^3
# Si number density = 22.153064 Si / 1000 Ang^3
#
#
#
# Elastic Constant Matrix: (Units=GPa)
#
#
# Indices 1 2 3 4 5 6 
#
# 1 89.4048 23.6469 17.2361 18.1291 -4.6779 -9.6222
# 2 23.6469 86.5777 30.3705 -3.0488 -3.2907 -33.3480
# 3 17.2361 30.3705 87.5197 4.8201 -20.3781 -10.3101
# 4 18.1291 -3.0488 4.8201 40.6929 -1.3362 1.1396
# 5 -4.6779 -3.2907 -20.3781 -1.3362 29.6418 -1.9042
# 6 -9.6222 -33.3480 -10.3101 1.1396 -1.9042 29.4584
#
#
#
# Elastic Compliance Matrix: (Units=1/GPa)
#
#
# Indices 1 2 3 4 5 6 
#
# 1 0.013615 -0.003336 -0.000888 -0.006198 0.000931 0.000660
# 2 -0.003336 0.023327 -0.004725 0.003149 0.000471 0.023573
# 3 -0.000888 -0.004725 0.015752 -0.001508 0.010135 0.000588
# 4 -0.006198 0.003149 -0.001508 0.027739 -0.000421 -0.000088
# 5 0.000931 0.000471 0.010135 -0.000421 0.041338 0.007073
# 6 0.000660 0.023573 0.000588 -0.000088 0.007073 0.061514
#
#
# Mechanical properties :
#
#
# Convention : Reuss Voigt Hill
#
# Bulk Modulus (GPa) = 28.73708 45.11213 36.92461
# Shear Modulus (GPa) = 23.49821 32.77520 28.13670
#
# Velocity S-wave (km/s) = 3.26040 3.85058 3.56772
# Velocity P-wave (km/s) = 5.21286 6.33856 5.80307
#
# Compressibility (1/GPa) = 0.03479825
#
# Stress axis : x y z
#
# Youngs Moduli (GPa) = 73.44728 42.86795 63.48213
#
# Poissons Ratio (x) = 0.14300 0.05636
# Poissons Ratio (y) = 0.24501 0.29993
# Poissons Ratio (z) = 0.06521 0.20254
#
# Static dielectric constant tensor:
#      x y z
#    x 1.777620 0.027700 0.052400 
#    y 0.027700 1.845420 0.024440 
#    z 0.052400 0.024440 2.021790 
# 
# From -- ./inp_files/244777.got.cif
#   From: 2010.05.17/outbox.cif.g08.bks.cpg/sg2_123_cif.got.tgz:244777.got - 2010.06.03 11:33:40.
