data_PCOD9012885
_publ_section_title
;
Structure prediction by ZEFSAII (Michael W. Deem and Ramdas Pophale) SiO2 
 PCOD9012885
Probable space group: P -1
;
_chemical_formula_sum "Si O2"
_cell_formula_units_Z 16
_cell_length_a 14.930594
_cell_length_b 10.242669
_cell_length_c 18.056557
_cell_angle_alpha 142.993085
_cell_angle_beta 29.582863
_cell_angle_gamma 121.815206
_cell_volume 678.175190
_symmetry_space_group_name_H-M "P -1"
_symmetry_group_IT_number 2
_symmetry_cell_setting 'triclinic'
loop_
_space_group_symop_operation_xyz
x,y,z
-x,-y,-z
loop_
_atom_site_type_symbol
_atom_site_label
_atom_site_fract_x
_atom_site_fract_y
_atom_site_fract_z
Si Si1 0.830875 0.121308 0.768053
Si Si2 0.435947 0.809583 0.549535
Si Si3 0.933882 0.229602 0.211950
Si Si4 0.854743 0.689657 0.107183
Si Si5 0.949144 0.874431 0.261308
Si Si6 0.380526 0.011218 0.836679
Si Si7 0.813649 0.787933 0.516999
Si Si8 0.505277 0.611072 0.126864
O O1 0.855405 0.126634 0.840716
O O2 0.045378 0.114606 0.580936
O O3 0.822099 0.883385 0.636773
O O4 0.627945 0.381169 0.994271
O O5 0.309952 0.684273 0.552956
O O6 0.664325 0.700435 0.296714
O O7 0.277013 0.114448 0.775938
O O8 0.459566 0.801618 0.617573
O O9 0.910253 0.482717 0.308696
O O10 0.130614 0.107069 0.074592
O O11 0.000000 0.000000 0.000000
O O12 0.948761 0.816094 0.148849
O O13 0.032058 0.381103 0.830883
O O14 0.726816 0.150010 0.566383
O O15 0.361903 0.260512 0.926233
O O16 0.567909 0.922318 0.722492
O O17 0.500000 0.500000 0.000000
#
# Coordination Sequence:
#
# PCOD9012885 Si02
#       8
#     2   2   2   2   2   2   2   2
#     4  11  21  34  61  90 125 158 199 252 298 368
#     4  10  21  41  62  86 121 163 206 256 301 361
#     4  10  24  37  58  89 128 163 196 251 314 372
#     4  10  22  41  64  88 119 167 211 256 300 351
#     4  11  23  37  61  94 122 158 208 259 303 361
#     4  11  20  37  58  91 128 158 194 247 311 376
#     4  11  21  36  58  91 126 163 193 241 318 372
#     4  12  20  34  59  95 127 154 196 254 313 360
#
# _framework density 23.592724
#
# number of rings (size 3 to 8) (size 9 to 14) (size 15 to 20)
#    0.000    1.250    5.000    1.500    3.500    2.000 
#    4.500    0.000    0.000    1.500    0.000    0.000 
#    0.000    0.000    0.000    0.000    0.000    0.000 
#
# Total GULP energy -89288.519638 kJ/mol
# GULP energy per Si atom -5580.532477 kJ/mol
# Density = 2.353903 g / cm^3
# Si number density = 23.592724 Si / 1000 Ang^3
#
#
#
# Elastic Constant Matrix: (Units=GPa)
#
#
# Indices 1 2 3 4 5 6 
#
# 1 153.9887 19.1741 31.3440 0.0544 -10.1434 53.5486
# 2 19.1741 79.7912 25.2580 -0.9193 -10.7936 26.8083
# 3 31.3440 25.2580 84.3776 18.5532 -11.6011 19.9191
# 4 0.0544 -0.9193 18.5532 34.6039 11.0438 -0.0747
# 5 -10.1434 -10.7936 -11.6011 11.0438 36.7641 0.3441
# 6 53.5486 26.8083 19.9191 -0.0747 0.3441 32.4930
#
#
#
# Elastic Compliance Matrix: (Units=1/GPa)
#
#
# Indices 1 2 3 4 5 6 
#
# 1 0.021425 0.011134 0.002237 -0.004788 0.011755 -0.046001
# 2 0.011134 0.024337 -0.000075 -0.003077 0.011478 -0.038510
# 3 0.002237 -0.000075 0.019294 -0.013896 0.011004 -0.015601
# 4 -0.004788 -0.003077 -0.013896 0.042564 -0.019576 0.019253
# 5 0.011755 0.011478 0.011004 -0.019576 0.043504 -0.036093
# 6 -0.046001 -0.038510 -0.015601 0.019253 -0.036093 0.148349
#
#
# Mechanical properties :
#
#
# Convention : Reuss Voigt Hill
#
# Bulk Modulus (GPa) = 10.91142 52.18997 31.55069
# Shear Modulus (GPa) = 16.47823 36.93096 26.70459
#
# Velocity S-wave (km/s) = 2.64568 3.96075 3.36802
# Velocity P-wave (km/s) = 3.73735 6.56399 5.34105
#
# Compressibility (1/GPa) = 0.09164710
#
# Stress axis : x y z
#
# Youngs Moduli (GPa) = 46.67473 41.08971 51.82872
#
# Poissons Ratio (x) = -0.45749 -0.11593
# Poissons Ratio (y) = -0.51967 0.00390
# Poissons Ratio (z) = -0.10440 0.00309
#
# Static dielectric constant tensor:
#      x y z
#    x 1.981840 -0.006930 0.038430 
#    y -0.006930 1.909750 -0.033870 
#    z 0.038430 -0.033870 1.996750 
# 
# From -- ./inp_files/598027.got.cif
#   From: 2010.05.17/outbox.cif.g08.bks.cpg/sg2_300_cif.got.tgz:598027.got - 2010.06.03 11:33:40.
