data_PCOD9012755
_publ_section_title
;
Structure prediction by ZEFSAII (Michael W. Deem and Ramdas Pophale) SiO2 
 PCOD9012755
Probable space group: P -1
;
_chemical_formula_sum "Si O2"
_cell_formula_units_Z 16
_cell_length_a 7.944050
_cell_length_b 17.291527
_cell_length_c 13.513911
_cell_angle_alpha 133.914870
_cell_angle_beta 76.815147
_cell_angle_gamma 65.204374
_cell_volume 738.650418
_symmetry_space_group_name_H-M "P -1"
_symmetry_group_IT_number 2
_symmetry_cell_setting 'triclinic'
loop_
_space_group_symop_operation_xyz
x,y,z
-x,-y,-z
loop_
_atom_site_type_symbol
_atom_site_label
_atom_site_fract_x
_atom_site_fract_y
_atom_site_fract_z
Si Si1 0.113039 0.868843 0.668967
Si Si2 0.784711 0.411451 0.656804
Si Si3 0.821315 0.691167 0.644697
Si Si4 0.876386 0.897773 0.919127
Si Si5 0.582236 0.704180 0.316089
Si Si6 0.858623 0.414567 0.864833
Si Si7 0.794924 0.922090 0.369298
Si Si8 0.135345 0.781785 0.000445
O O1 0.063214 0.783684 0.541353
O O2 0.433486 0.749880 0.480744
O O3 0.091195 0.850822 0.771134
O O4 0.872483 0.084815 0.867343
O O5 0.699153 0.490446 0.848356
O O6 0.021666 0.369717 0.536466
O O7 0.477360 0.565176 0.770397
O O8 0.869235 0.777905 0.776402
O O9 0.000000 0.500000 0.500000
O O10 0.455736 0.876530 0.846482
O O11 0.988708 0.839725 0.964604
O O12 0.857526 0.647639 0.241066
O O13 0.325131 0.895903 0.455690
O O14 0.685351 0.550012 0.102555
O O15 0.970103 0.239307 0.724444
O O16 0.935221 0.833977 0.162555
O O17 0.500000 0.000000 0.500000
#
# Coordination Sequence:
#
# PCOD9012755 Si02
#       8
#     2   2   2   2   2   2   2   2
#     4  10  22  40  64  91 126 164 209 257 314 370
#     4  11  25  40  63  95 130 163 209 262 318 366
#     4  10  23  44  64  95 128 166 209 259 316 370
#     4  10  23  42  66  94 128 165 212 258 310 380
#     4   9  20  39  63  91 118 166 214 254 314 370
#     4  10  21  41  60  89 128 163 211 260 305 376
#     4   9  20  37  59  88 122 160 208 252 308 361
#     4  11  23  40  63  96 126 168 211 257 313 376
#
# _framework density 21.661124999999998
#
# number of rings (size 3 to 8) (size 9 to 14) (size 15 to 20)
#    0.000    2.000    0.000    1.875    5.250    6.000 
#    6.750    2.500    0.000    0.000    0.000    0.000 
#    0.000    0.000    0.000    0.000    0.000    0.000 
#
# Total GULP energy -89332.824443 kJ/mol
# GULP energy per Si atom -5583.301528 kJ/mol
# Density = 2.161182 g / cm^3
# Si number density = 21.661125 Si / 1000 Ang^3
#
#
#
# Elastic Constant Matrix: (Units=GPa)
#
#
# Indices 1 2 3 4 5 6 
#
# 1 52.2441 43.8254 28.5872 1.2490 -1.9682 9.7087
# 2 43.8254 128.9354 55.8667 -4.1698 -7.0623 3.4039
# 3 28.5872 55.8667 100.3923 -1.2377 -15.1744 7.2884
# 4 1.2490 -4.1698 -1.2377 39.1365 17.0519 -2.7116
# 5 -1.9682 -7.0623 -15.1744 17.0519 25.8539 -3.3057
# 6 9.7087 3.4039 7.2884 -2.7116 -3.3057 30.7043
#
#
#
# Elastic Compliance Matrix: (Units=1/GPa)
#
#
# Indices 1 2 3 4 5 6 
#
# 1 0.029623 -0.008534 -0.003436 -0.001627 -0.002038 -0.007968
# 2 -0.008534 0.012767 -0.005016 0.002182 -0.001221 0.002535
# 3 -0.003436 -0.005016 0.015297 -0.004434 0.010106 -0.001292
# 4 -0.001627 0.002182 -0.004434 0.037394 -0.026567 0.001767
# 5 -0.002038 -0.001221 0.010106 -0.026567 0.061990 0.002709
# 6 -0.007968 0.002535 -0.001292 0.001767 0.002709 0.035562
#
#
# Mechanical properties :
#
#
# Convention : Reuss Voigt Hill
#
# Bulk Modulus (GPa) = 42.16769 59.79226 50.97997
# Shear Modulus (GPa) = 21.32116 29.35844 25.33980
#
# Velocity S-wave (km/s) = 3.14077 3.68550 3.42399
# Velocity P-wave (km/s) = 5.71505 6.76565 6.26242
#
# Compressibility (1/GPa) = 0.02371484
#
# Stress axis : x y z
#
# Youngs Moduli (GPa) = 33.75802 78.32867 65.37106
#
# Poissons Ratio (x) = 0.66845 0.22460
# Poissons Ratio (y) = 0.28809 0.32791
# Poissons Ratio (z) = 0.11599 0.39291
#
# Static dielectric constant tensor:
#      x y z
#    x 1.792480 0.022780 -0.018170 
#    y 0.022780 1.764410 0.007650 
#    z -0.018170 0.007650 1.800950 
# 
# From -- ./inp_files/399421.got.cif
#   From: 2010.05.17/outbox.cif.g08.bks.cpg/sg2_200_cif.got.tgz:399421.got - 2010.06.03 11:33:40.
