data_PCOD9012119
_publ_section_title
;
Structure prediction by ZEFSAII (Michael W. Deem and Ramdas Pophale) SiO2 
 PCOD9012119
Probable space group: P -1
;
_chemical_formula_sum "Si O2"
_cell_formula_units_Z 15
_cell_length_a 8.550802
_cell_length_b 5.165212
_cell_length_c 20.191646
_cell_angle_alpha 99.314515
_cell_angle_beta 124.897614
_cell_angle_gamma 56.667726
_cell_volume 595.780719
_symmetry_space_group_name_H-M "P -1"
_symmetry_group_IT_number 2
_symmetry_cell_setting 'triclinic'
loop_
_space_group_symop_operation_xyz
x,y,z
-x,-y,-z
loop_
_atom_site_type_symbol
_atom_site_label
_atom_site_fract_x
_atom_site_fract_y
_atom_site_fract_z
Si Si1 0.873420 0.874687 0.921683
Si Si2 0.968642 0.303869 0.538989
Si Si3 0.707363 0.343296 0.175792
Si Si4 0.339719 0.294063 0.020215
Si Si5 0.336943 0.329612 0.329269
Si Si6 0.229441 0.856701 0.231547
Si Si7 0.818356 0.814732 0.276701
Si Si8 0.500000 0.500000 0.500000
O O1 0.729826 0.803076 0.933264
O O2 0.749888 0.100917 0.839097
O O3 0.094811 0.535977 0.935690
O O4 0.000000 0.000000 0.000000
O O5 0.717011 0.502412 0.520743
O O6 0.000000 0.500000 0.500000
O O7 0.156491 0.197338 0.638853
O O8 0.000000 0.000000 0.500000
O O9 0.492603 0.428856 0.081608
O O10 0.711814 0.637072 0.212478
O O11 0.952996 0.084798 0.189304
O O12 0.707665 0.156849 0.232367
O O13 0.500000 0.000000 0.000000
O O14 0.340443 0.017887 0.303777
O O15 0.499523 0.311979 0.425222
O O16 0.081120 0.599003 0.305216
O O17 0.340710 0.503293 0.270884
#
# Coordination Sequence:
#
# PCOD9012119 Si02
#       8
#     2   2   2   2   2   2   2   1
#     4  11  27  46  68 102 144 185 234 303 347 426
#     4  11  24  44  70 104 142 187 236 296 354 432
#     4  10  21  40  68  96 131 185 225 283 354 416
#     4  11  27  45  72 101 135 189 238 289 360 425
#     4   9  21  40  69 100 134 189 222 296 346 430
#     4  10  22  41  68  99 142 175 237 286 354 404
#     4   9  20  40  64  97 140 174 227 290 349 410
#     4  10  24  48  74 102 148 188 244 284 384 420
#
# _framework density 25.177052
#
# number of rings (size 3 to 8) (size 9 to 14) (size 15 to 20)
#    0.000    1.867    0.000    1.600   11.200    6.400 
#    7.200    0.000    0.000    0.000    0.000    0.000 
#    0.000    0.000    0.000    0.000    0.000    0.000 
#
# Total GULP energy -83819.094066 kJ/mol
# GULP energy per Si atom -5587.939604 kJ/mol
# Density = 2.511975 g / cm^3
# Si number density = 25.177052 Si / 1000 Ang^3
#
#
#
# Elastic Constant Matrix: (Units=GPa)
#
#
# Indices 1 2 3 4 5 6 
#
# 1 149.0868 30.7180 21.7400 -15.8536 -2.3354 -7.3756
# 2 30.7180 59.0805 -16.8151 -9.2042 -1.8207 4.0413
# 3 21.7400 -16.8151 80.0611 8.8390 2.4382 0.0350
# 4 -15.8536 -9.2042 8.8390 29.1729 4.6316 -1.7700
# 5 -2.3354 -1.8207 2.4382 4.6316 48.1063 -0.6048
# 6 -7.3756 4.0413 0.0350 -1.7700 -0.6048 47.7868
#
#
#
# Elastic Compliance Matrix: (Units=1/GPa)
#
#
# Indices 1 2 3 4 5 6 
#
# 1 0.008958 -0.005232 -0.004036 0.004557 0.000028 0.001997
# 2 -0.005232 0.021795 0.005764 0.002124 0.000042 -0.002576
# 3 -0.004036 0.005764 0.015365 -0.005065 -0.000285 -0.001313
# 4 0.004557 0.002124 -0.005065 0.039591 -0.003229 0.001953
# 5 0.000028 0.000042 -0.000285 -0.003229 0.021117 0.000149
# 6 0.001997 -0.002576 -0.001313 0.001953 0.000149 0.021528
#
#
# Mechanical properties :
#
#
# Convention : Reuss Voigt Hill
#
# Bulk Modulus (GPa) = 25.56929 39.94602 32.75765
# Shear Modulus (GPa) = 33.69282 41.85225 37.77253
#
# Velocity S-wave (km/s) = 3.66216 4.08158 3.87754
# Velocity P-wave (km/s) = 5.29714 6.17356 5.75207
#
# Compressibility (1/GPa) = 0.03910942
#
# Stress axis : x y z
#
# Youngs Moduli (GPa) = 111.63335 45.88171 65.08116
#
# Poissons Ratio (x) = 0.24006 0.26268
# Poissons Ratio (y) = 0.58407 -0.37511
# Poissons Ratio (z) = 0.45057 -0.26445
#
# Static dielectric constant tensor:
#      x y z
#    x 2.016690 -0.045840 0.038700 
#    y -0.045840 1.967110 -0.065240 
#    z 0.038700 -0.065240 1.949220 
# 
# From -- ./inp_files/585799.got.cif
#   From: 2010.05.17/outbox.cif.g08.bks.cpg/sg2_293_cif.got.tgz:585799.got - 2010.06.03 11:33:40.
