data_PCOD9012730
_publ_section_title
;
Structure prediction by ZEFSAII (Michael W. Deem and Ramdas Pophale) SiO2 
 PCOD9012730
Probable space group: P -1
;
_chemical_formula_sum "Si O2"
_cell_formula_units_Z 14
_cell_length_a 8.815768
_cell_length_b 22.719577
_cell_length_c 8.268689
_cell_angle_alpha 144.578154
_cell_angle_beta 127.985475
_cell_angle_gamma 42.619208
_cell_volume 649.433500
_symmetry_space_group_name_H-M "P -1"
_symmetry_group_IT_number 2
_symmetry_cell_setting 'triclinic'
loop_
_space_group_symop_operation_xyz
x,y,z
-x,-y,-z
loop_
_atom_site_type_symbol
_atom_site_label
_atom_site_fract_x
_atom_site_fract_y
_atom_site_fract_z
Si Si1 0.049035 0.637549 0.731678
Si Si2 0.568524 0.321290 0.892058
Si Si3 0.291215 0.134948 0.796342
Si Si4 0.069897 0.933077 0.567810
Si Si5 0.847006 0.492036 0.143554
Si Si6 0.325051 0.041972 0.128220
Si Si7 0.227044 0.272063 0.738376
O O1 0.128104 0.566011 0.794112
O O2 0.965735 0.570093 0.412112
O O3 0.256676 0.650686 0.843927
O O4 0.841414 0.766443 0.930722
O O5 0.719355 0.198139 0.619907
O O6 0.405366 0.423766 0.891216
O O7 0.404704 0.305945 0.869671
O O8 0.308030 0.203653 0.808804
O O9 0.130245 0.083152 0.537252
O O10 0.523783 0.033052 0.789589
O O11 0.000000 0.000000 0.500000
O O12 0.142544 0.006251 0.890679
O O13 0.988189 0.386956 0.875125
O O14 0.222394 0.179616 0.404570
O O15 0.500000 0.000000 0.000000
#
# Coordination Sequence:
#
# PCOD9012730 Si02
#       7
#     2   2   2   2   2   2   2
#     4   9  21  38  66  87 118 163 204 246 301 360
#     4  11  21  38  62  88 120 163 200 246 300 364
#     4  10  22  42  61  93 126 154 204 257 302 357
#     4  11  22  39  65  93 116 160 212 250 296 367
#     4  10  21  41  59  90 124 159 202 252 300 355
#     4  12  22  40  67  89 118 167 202 248 312 360
#     4  11  24  39  60  93 131 157 198 260 302 359
#
# _framework density 21.557248999999999
#
# number of rings (size 3 to 8) (size 9 to 14) (size 15 to 20)
#    0.000    1.429    2.857    2.143    0.000    1.143 
#    0.000    4.286    0.000    0.000    0.000    0.000 
#    0.000    0.000    0.000    0.000    0.000    0.000 
#
# Total GULP energy -78364.755752 kJ/mol
# GULP energy per Si atom -5597.482554 kJ/mol
# Density = 2.150818 g / cm^3
# Si number density = 21.557249 Si / 1000 Ang^3
#
#
#
# Elastic Constant Matrix: (Units=GPa)
#
#
# Indices 1 2 3 4 5 6 
#
# 1 60.3755 21.0921 10.7818 2.6269 6.5619 5.8782
# 2 21.0921 87.0665 35.6262 17.0239 -6.4477 -19.0619
# 3 10.7818 35.6262 121.0554 16.6248 2.0779 -23.6065
# 4 2.6269 17.0239 16.6248 28.5317 -5.1482 0.8085
# 5 6.5619 -6.4477 2.0779 -5.1482 35.5016 2.2241
# 6 5.8782 -19.0619 -23.6065 0.8085 2.2241 21.3343
#
#
#
# Elastic Compliance Matrix: (Units=1/GPa)
#
#
# Indices 1 2 3 4 5 6 
#
# 1 0.022355 -0.009280 -0.003457 0.005337 -0.003708 -0.018092
# 2 -0.009280 0.020871 0.000630 -0.012175 0.002317 0.022122
# 3 -0.003457 0.000630 0.012707 -0.008317 -0.002206 0.016121
# 4 0.005337 -0.012175 -0.008317 0.048396 0.005810 -0.023991
# 5 -0.003708 0.002317 -0.002206 0.005810 0.030417 -0.002740
# 6 -0.018092 0.022122 0.016121 -0.023991 -0.002740 0.090656
#
#
# Mechanical properties :
#
#
# Convention : Reuss Voigt Hill
#
# Bulk Modulus (GPa) = 31.52707 44.83307 38.18007
# Shear Modulus (GPa) = 19.21686 30.47334 24.84510
#
# Velocity S-wave (km/s) = 2.98893 3.76387 3.39856
# Velocity P-wave (km/s) = 5.15443 6.30328 5.75758
#
# Compressibility (1/GPa) = 0.03171878
#
# Stress axis : x y z
#
# Youngs Moduli (GPa) = 44.73372 47.91338 78.69788
#
# Poissons Ratio (x) = 0.44463 0.27208
# Poissons Ratio (y) = 0.41512 -0.04961
# Poissons Ratio (z) = 0.15466 -0.03020
#
# Static dielectric constant tensor:
#      x y z
#    x 1.783320 0.024740 -0.017570 
#    y 0.024740 1.764180 0.016900 
#    z -0.017570 0.016900 1.786140 
# 
# From -- ./inp_files/89962.got.cif
#   From: 2010.05.17/outbox.cif.g08.bks.cpg/sg2_45_cif.got.tgz:89962.got - 2010.06.03 11:33:40.
