data_PCOD9012354
_publ_section_title
;
Structure prediction by ZEFSAII (Michael W. Deem and Ramdas Pophale) SiO2 
 PCOD9012354
Probable space group: P -1
;
_chemical_formula_sum "Si O2"
_cell_formula_units_Z 15
_cell_length_a 9.157263
_cell_length_b 25.139582
_cell_length_c 8.714561
_cell_angle_alpha 142.411746
_cell_angle_beta 74.253656
_cell_angle_gamma 134.589765
_cell_volume 657.848621
_symmetry_space_group_name_H-M "P -1"
_symmetry_group_IT_number 2
_symmetry_cell_setting 'triclinic'
loop_
_space_group_symop_operation_xyz
x,y,z
-x,-y,-z
loop_
_atom_site_type_symbol
_atom_site_label
_atom_site_fract_x
_atom_site_fract_y
_atom_site_fract_z
Si Si1 0.679435 0.872434 0.120307
Si Si2 0.215071 0.949164 0.259687
Si Si3 0.172631 0.622645 0.367201
Si Si4 0.886768 0.754992 0.596798
Si Si5 0.128617 0.717228 0.870814
Si Si6 0.335376 0.842056 0.613145
Si Si7 0.641336 0.434387 0.578161
Si Si8 0.000000 0.000000 0.000000
O O1 0.841135 0.996357 0.492368
O O2 0.423397 0.814788 0.031964
O O3 0.531158 0.709219 0.818518
O O4 0.855680 0.945735 0.084928
O O5 0.524911 0.108376 0.474707
O O6 0.171972 0.839354 0.111015
O O7 0.038571 0.853794 0.938575
O O8 0.029494 0.621290 0.522739
O O9 0.382348 0.783161 0.579588
O O10 0.285289 0.597838 0.379851
O O11 0.000000 0.500000 0.000000
O O12 0.569546 0.595989 0.365641
O O13 0.030472 0.734445 0.450576
O O14 0.936054 0.861507 0.716728
O O15 0.911087 0.594833 0.784775
O O16 0.500000 0.000000 0.000000
#
# Coordination Sequence:
#
# PCOD9012354 Si02
#       8
#     2   2   2   2   2   2   2   1
#     4  10  22  41  67 100 126 172 224 270 335 384
#     4  11  23  39  71 100 126 178 223 274 328 399
#     4  11  23  42  66  96 128 182 228 266 325 402
#     4  10  22  42  64  96 136 178 210 277 343 377
#     4  11  22  44  64  95 135 173 224 273 326 396
#     4  10  21  40  69  96 130 169 229 274 323 387
#     4  10  25  42  65  94 136 177 217 274 334 390
#     4  10  22  38  64  92 140 162 208 280 332 382
#
# _framework density 22.801600000000001
#
# number of rings (size 3 to 8) (size 9 to 14) (size 15 to 20)
#    0.000    1.600    2.667    2.800   13.067    2.667 
#    0.000    4.667    0.000    0.000    0.000    0.000 
#    0.000    0.000    0.000    0.000    0.000    0.000 
#
# Total GULP energy -83536.626852 kJ/mol
# GULP energy per Si atom -5569.108457 kJ/mol
# Density = 2.274970 g / cm^3
# Si number density = 22.801600 Si / 1000 Ang^3
#
#
#
# Elastic Constant Matrix: (Units=GPa)
#
#
# Indices 1 2 3 4 5 6 
#
# 1 103.8953 65.7127 14.4141 9.8480 -13.2617 14.9182
# 2 65.7127 170.8993 39.5013 13.9071 -16.3596 14.7653
# 3 14.4141 39.5013 51.2556 -13.2570 -1.7234 6.2673
# 4 9.8480 13.9071 -13.2570 33.4660 -1.9749 -9.5212
# 5 -13.2617 -16.3596 -1.7234 -1.9749 12.5336 6.8894
# 6 14.9182 14.7653 6.2673 -9.5212 6.8894 33.6773
#
#
#
# Elastic Compliance Matrix: (Units=1/GPa)
#
#
# Indices 1 2 3 4 5 6 
#
# 1 0.016158 -0.002201 -0.002607 -0.007048 0.019139 -0.011615
# 2 -0.002201 0.011720 -0.009355 -0.009358 0.014639 -0.008063
# 3 -0.002607 -0.009355 0.030907 0.018213 -0.011726 0.007053
# 4 -0.007048 -0.009358 0.018213 0.047993 -0.021601 0.021823
# 5 0.019139 0.014639 -0.011726 -0.021601 0.140243 -0.047511
# 6 -0.011615 -0.008063 0.007053 0.021823 -0.047511 0.052950
#
#
# Mechanical properties :
#
#
# Convention : Reuss Voigt Hill
#
# Bulk Modulus (GPa) = 32.83213 62.81184 47.82198
# Shear Modulus (GPa) = 14.77324 29.69685 22.23504
#
# Velocity S-wave (km/s) = 2.54816 3.61280 3.12613
# Velocity P-wave (km/s) = 4.80497 6.70895 5.83514
#
# Compressibility (1/GPa) = 0.03045797
#
# Stress axis : x y z
#
# Youngs Moduli (GPa) = 61.88981 85.32634 32.35510
#
# Poissons Ratio (x) = 0.18783 0.08433
# Poissons Ratio (y) = 0.13624 0.30270
# Poissons Ratio (z) = 0.16132 0.79827
#
# Static dielectric constant tensor:
#      x y z
#    x 1.874930 0.063730 0.064820 
#    y 0.063730 1.805000 0.008080 
#    z 0.064820 0.008080 1.942760 
# 
# From -- ./inp_files/226637.got.cif
#   From: 2010.05.17/outbox.cif.g08.bks.cpg/sg2_114_cif.got.tgz:226637.got - 2010.06.03 11:33:40.
