data_PCOD9012410
_publ_section_title
;
Structure prediction by ZEFSAII (Michael W. Deem and Ramdas Pophale) SiO2 
 PCOD9012410
Probable space group: P -1
;
_chemical_formula_sum "Si O2"
_cell_formula_units_Z 14
_cell_length_a 8.199317
_cell_length_b 11.489596
_cell_length_c 9.281545
_cell_angle_alpha 127.167816
_cell_angle_beta 62.870100
_cell_angle_gamma 103.814608
_cell_volume 619.276779
_symmetry_space_group_name_H-M "P -1"
_symmetry_group_IT_number 2
_symmetry_cell_setting 'triclinic'
loop_
_space_group_symop_operation_xyz
x,y,z
-x,-y,-z
loop_
_atom_site_type_symbol
_atom_site_label
_atom_site_fract_x
_atom_site_fract_y
_atom_site_fract_z
Si Si1 0.992452 0.088612 0.358919
Si Si2 0.859454 0.371602 0.452582
Si Si3 0.584660 0.785455 0.029108
Si Si4 0.485833 0.534477 0.699858
Si Si5 0.310478 0.326521 0.803970
Si Si6 0.690833 0.952729 0.585323
Si Si7 0.979349 0.792990 0.980129
O O1 0.920595 0.238773 0.430635
O O2 0.181142 0.106105 0.380390
O O3 0.831304 0.038389 0.492446
O O4 0.023742 0.952157 0.135362
O O5 0.663652 0.443750 0.624270
O O6 0.000000 0.500000 0.500000
O O7 0.866330 0.301054 0.236888
O O8 0.575029 0.682459 0.099395
O O9 0.471756 0.936091 0.216056
O O10 0.509728 0.700920 0.860048
O O11 0.802083 0.808419 0.956134
O O12 0.500000 0.500000 0.500000
O O13 0.321886 0.465634 0.802058
O O14 0.376949 0.183346 0.578846
O O15 0.105330 0.293996 0.916677
#
# Coordination Sequence:
#
# PCOD9012410 Si02
#       7
#     2   2   2   2   2   2   2
#     4  10  23  40  66 100 128 170 212 275 328 375
#     4  12  24  44  63  91 138 175 209 270 325 391
#     4  10  21  41  67  93 127 171 217 258 325 386
#     4  12  27  42  65  97 134 172 222 265 326 380
#     4   9  21  42  69  92 129 173 216 264 320 396
#     4  10  21  40  70 100 128 161 229 272 314 385
#     4   9  22  41  66  92 124 174 218 249 335 383
#
# _framework density 22.607013999999999
#
# number of rings (size 3 to 8) (size 9 to 14) (size 15 to 20)
#    0.857    0.857    1.429    2.143    6.000    1.143 
#    0.000    2.143    0.000    0.000    0.000    0.000 
#    0.000    0.000    0.000    0.000    0.000    0.000 
#
# Total GULP energy -78236.222751 kJ/mol
# GULP energy per Si atom -5588.301625 kJ/mol
# Density = 2.255556 g / cm^3
# Si number density = 22.607014 Si / 1000 Ang^3
#
#
#
# Elastic Constant Matrix: (Units=GPa)
#
#
# Indices 1 2 3 4 5 6 
#
# 1 30.3901 5.6097 11.6580 1.5409 10.4959 2.0548
# 2 5.6097 61.7467 -6.7835 -6.1813 10.5133 3.5556
# 3 11.6580 -6.7835 107.3936 19.3938 12.5922 -1.4422
# 4 1.5409 -6.1813 19.3938 21.1544 -4.2403 1.7027
# 5 10.4959 10.5133 12.5922 -4.2403 44.2941 0.7826
# 6 2.0548 3.5556 -1.4422 1.7027 0.7826 17.4435
#
#
#
# Elastic Compliance Matrix: (Units=1/GPa)
#
#
# Indices 1 2 3 4 5 6 
#
# 1 0.037472 -0.002430 -0.003048 -0.001864 -0.007550 -0.003650
# 2 -0.002430 0.017721 0.001021 0.004002 -0.003476 -0.003476
# 3 -0.003048 0.001021 0.012381 -0.011880 -0.004222 0.002524
# 4 -0.001864 0.004002 -0.011880 0.061904 0.008937 -0.008022
# 5 -0.007550 -0.003476 -0.004222 0.008937 0.027261 -0.000847
# 6 -0.003650 -0.003476 0.002524 -0.008022 -0.000847 0.059496
#
#
# Mechanical properties :
#
#
# Convention : Reuss Voigt Hill
#
# Bulk Modulus (GPa) = 17.04743 24.49990 20.77367
# Shear Modulus (GPa) = 20.43288 29.18148 24.80718
#
# Velocity S-wave (km/s) = 3.00964 3.59669 3.31618
# Velocity P-wave (km/s) = 4.43107 5.30180 4.88587
#
# Compressibility (1/GPa) = 0.05865986
#
# Stress axis : x y z
#
# Youngs Moduli (GPa) = 26.68641 56.43080 80.76796
#
# Poissons Ratio (x) = 0.13714 0.24621
# Poissons Ratio (y) = 0.06485 -0.08250
# Poissons Ratio (z) = 0.08135 -0.05764
#
# Static dielectric constant tensor:
#      x y z
#    x 1.826060 0.010580 0.020010 
#    y 0.010580 1.876080 -0.066750 
#    z 0.020010 -0.066750 1.830900 
# 
# From -- ./inp_files/183027.got.cif
#   From: 2010.05.17/outbox.cif.g08.bks.cpg/sg2_92_cif.got.tgz:183027.got - 2010.06.03 11:33:40.
