data_PCOD9012757
_publ_section_title
;
Structure prediction by ZEFSAII (Michael W. Deem and Ramdas Pophale) SiO2 
 PCOD9012757
Probable space group: P -1
;
_chemical_formula_sum "Si O2"
_cell_formula_units_Z 12
_cell_length_a 9.818891
_cell_length_b 10.885252
_cell_length_c 5.107746
_cell_angle_alpha 108.881563
_cell_angle_beta 104.209715
_cell_angle_gamma 65.781036
_cell_volume 467.044896
_symmetry_space_group_name_H-M "P -1"
_symmetry_group_IT_number 2
_symmetry_cell_setting 'triclinic'
loop_
_space_group_symop_operation_xyz
x,y,z
-x,-y,-z
loop_
_atom_site_type_symbol
_atom_site_label
_atom_site_fract_x
_atom_site_fract_y
_atom_site_fract_z
Si Si1 0.548262 0.397681 0.202294
Si Si2 0.089031 0.376569 0.768474
Si Si3 0.101307 0.764602 0.660190
Si Si4 0.597020 0.767492 0.302679
Si Si5 0.391232 0.962370 0.720007
Si Si6 0.922643 0.883223 0.159923
O O1 0.500000 0.500000 0.500000
O O2 0.725322 0.312171 0.251050
O O3 0.500000 0.500000 0.000000
O O4 0.472657 0.283228 0.016229
O O5 0.243588 0.358456 0.680184
O O6 0.972720 0.353147 0.494638
O O7 0.134066 0.245840 0.903681
O O8 0.000000 0.500000 0.000000
O O9 0.046695 0.851257 0.426195
O O10 0.008660 0.860419 0.914787
O O11 0.639530 0.907449 0.407501
O O12 0.467906 0.819123 0.498798
O O13 0.231795 0.985691 0.796367
O O14 0.500000 0.000000 0.000000
#
# Coordination Sequence:
#
# PCOD9012757 Si02
#       6
#     2   2   2   2   2   2
#     4  12  27  45  66  96 140 178 215 265 332 405
#     4   9  19  36  61  91 123 164 216 266 318 377
#     4  10  21  41  60  89 130 165 214 262 325 388
#     4  10  23  41  65 101 127 177 219 275 327 386
#     4  10  21  41  70  95 132 167 231 277 324 382
#     4   9  21  38  62  89 124 168 209 270 318 380
#
# _framework density 25.693463000000001
#
# number of rings (size 3 to 8) (size 9 to 14) (size 15 to 20)
#    1.000    1.000    0.000    3.000    7.000    0.667 
#    0.000    1.667    0.000    0.000    0.000    0.000 
#    0.000    0.000    0.000    0.000    0.000    0.000 
#
# Total GULP energy -67026.240159 kJ/mol
# GULP energy per Si atom -5585.520013 kJ/mol
# Density = 2.563498 g / cm^3
# Si number density = 25.693463 Si / 1000 Ang^3
#
#
#
# Elastic Constant Matrix: (Units=GPa)
#
#
# Indices 1 2 3 4 5 6 
#
# 1 -92.9897 -79.0266 82.9954 159.8369 122.4063 -22.0308
# 2 -79.0266 36.0766 82.8512 116.1188 60.9956 -19.7857
# 3 82.9954 82.8512 200.4164 18.0842 -19.7088 -30.4721
# 4 159.8369 116.1188 18.0842 -31.0425 -82.0341 -32.5832
# 5 122.4063 60.9956 -19.7088 -82.0341 -5.7625 -21.9302
# 6 -22.0308 -19.7857 -30.4721 -32.5832 -21.9302 53.0282
#
#
#
# Elastic Compliance Matrix: (Units=1/GPa)
#
#
# Indices 1 2 3 4 5 6 
#
# 1 0.008674 -0.005066 -0.000626 0.007080 0.003992 0.007355
# 2 -0.005066 0.012277 -0.001913 0.000605 0.005294 0.003938
# 3 -0.000626 -0.001913 0.006252 -0.003748 -0.001079 -0.000130
# 4 0.007080 0.000605 -0.003748 0.010727 -0.004676 0.005671
# 5 0.003992 0.005294 -0.001079 -0.004676 0.014384 0.006089
# 6 0.007355 0.003938 -0.000130 0.005671 0.006089 0.029311
#
#
# Mechanical properties :
#
#
# Convention : Reuss Voigt Hill
#
# Bulk Modulus (GPa) = 83.37255 35.23815 59.30535
# Shear Modulus (GPa) = 49.58728 7.02354 28.30541
#
# Velocity S-wave (km/s) = 4.39789 1.65515 3.32272
# Velocity P-wave (km/s) = 7.63597 4.17101 6.15245
#
# Compressibility (1/GPa) = 0.01199436
#
# Stress axis : x y z
#
# Youngs Moduli (GPa) = 115.28818 81.45049 159.95278
#
# Poissons Ratio (x) = 0.41259 0.10012
# Poissons Ratio (y) = 0.58399 0.30598
# Poissons Ratio (z) = 0.07217 0.15581
#
# Static dielectric constant tensor:
#      x y z
#    x 2.148280 0.159120 -0.008470 
#    y 0.159120 2.233100 0.105010 
#    z -0.008470 0.105010 2.201360 
# 
# From -- ./inp_files/33877.got.cif
#   From: 2010.05.17/outbox.cif.g08.bks.cpg/sg2_17_cif.got.tgz:33877.got - 2010.06.03 11:33:40.
