data_PCOD9012009
_publ_section_title
;
Structure prediction by ZEFSAII (Michael W. Deem and Ramdas Pophale) SiO2 
 PCOD9012009
Probable space group: P -1
;
_chemical_formula_sum "Si O2"
_cell_formula_units_Z 16
_cell_length_a 8.520495
_cell_length_b 12.736707
_cell_length_c 13.518981
_cell_angle_alpha 131.902676
_cell_angle_beta 44.384602
_cell_angle_gamma 140.955297
_cell_volume 624.885212
_symmetry_space_group_name_H-M "P -1"
_symmetry_group_IT_number 2
_symmetry_cell_setting 'triclinic'
loop_
_space_group_symop_operation_xyz
x,y,z
-x,-y,-z
loop_
_atom_site_type_symbol
_atom_site_label
_atom_site_fract_x
_atom_site_fract_y
_atom_site_fract_z
Si Si1 0.653526 0.218405 0.812665
Si Si2 0.618673 0.387408 0.497743
Si Si3 0.424666 0.407541 0.083915
Si Si4 0.146661 0.380562 0.801332
Si Si5 0.363686 0.074688 0.669597
Si Si6 0.445969 0.869728 0.792322
Si Si7 0.114947 0.899926 0.114821
Si Si8 0.011165 0.698963 0.636629
O O1 0.950654 0.387150 0.815121
O O2 0.611226 0.213683 0.712619
O O3 0.591288 0.032607 0.752930
O O4 0.412823 0.234704 0.968135
O O5 0.317613 0.332903 0.627205
O O6 0.611989 0.297190 0.342386
O O7 0.824429 0.591685 0.558520
O O8 0.732577 0.314231 0.479504
O O9 0.640426 0.493014 0.132557
O O10 0.162664 0.384575 0.237181
O O11 0.500000 0.500000 0.000000
O O12 0.898342 0.238630 0.893950
O O13 0.117507 0.895894 0.718543
O O14 0.500000 0.000000 0.500000
O O15 0.184507 0.142458 0.760138
O O16 0.649875 0.921135 0.826914
O O17 0.194968 0.867127 0.952113
#
# Coordination Sequence:
#
# PCOD9012009 Si02
#       8
#     2   2   2   2   2   2   2   2
#     4  11  24  40  67  93 131 176 220 267 338 382
#     4  10  21  40  68  86 129 177 216 256 337 383
#     4  11  24  42  70 100 130 171 220 278 329 392
#     4  10  23  42  65  96 132 176 217 270 323 403
#     4  12  25  41  65  98 134 169 224 277 324 395
#     4  10  22  41  66  95 128 180 211 278 328 389
#     4  10  23  39  64  98 132 162 230 272 323 388
#     4  10  23  42  66  94 130 174 219 271 329 396
#
# _framework density 25.604704999999999
#
# number of rings (size 3 to 8) (size 9 to 14) (size 15 to 20)
#    0.000    1.500    1.250    2.625    5.250    4.000 
#    0.000    0.625    0.000    0.000    0.000    0.000 
#    0.000    0.000    0.000    0.000    0.000    0.000 
#
# Total GULP energy -89168.074880 kJ/mol
# GULP energy per Si atom -5573.004680 kJ/mol
# Density = 2.554643 g / cm^3
# Si number density = 25.604705 Si / 1000 Ang^3
#
#
#
# Elastic Constant Matrix: (Units=GPa)
#
#
# Indices 1 2 3 4 5 6 
#
# 1 89.9871 12.0813 51.0347 2.2837 4.8146 29.3828
# 2 12.0813 40.3878 16.0654 1.2208 11.7242 -2.8025
# 3 51.0347 16.0654 182.3997 -8.0197 11.3332 22.1650
# 4 2.2837 1.2208 -8.0197 39.0260 15.6733 -1.5337
# 5 4.8146 11.7242 11.3332 15.6733 42.9627 6.8925
# 6 29.3828 -2.8025 22.1650 -1.5337 6.8925 26.3619
#
#
#
# Elastic Compliance Matrix: (Units=1/GPa)
#
#
# Indices 1 2 3 4 5 6 
#
# 1 0.021894 -0.008875 -0.002964 -0.005269 0.006668 -0.024904
# 2 -0.008875 0.032718 -0.001647 0.004755 -0.012155 0.018210
# 3 -0.002964 -0.001647 0.006907 0.002153 -0.001478 -0.002167
# 4 -0.005269 0.004755 0.002153 0.032584 -0.014821 0.010339
# 5 0.006668 -0.012155 -0.001478 -0.014821 0.034425 -0.017344
# 6 -0.024904 0.018210 -0.002167 0.010339 -0.017344 0.074586
#
#
# Mechanical properties :
#
#
# Convention : Reuss Voigt Hill
#
# Bulk Modulus (GPa) = 28.94560 52.34861 40.64711
# Shear Modulus (GPa) = 20.69528 37.24299 28.96914
#
# Velocity S-wave (km/s) = 2.84608 3.81798 3.36728
# Velocity P-wave (km/s) = 4.70421 6.31864 5.57022
#
# Compressibility (1/GPa) = 0.03454757
#
# Stress axis : x y z
#
# Youngs Moduli (GPa) = 45.67526 30.56387 144.78874
#
# Poissons Ratio (x) = 0.27124 0.42912
# Poissons Ratio (y) = 0.40535 0.23849
# Poissons Ratio (z) = 0.13537 0.05034
#
# Static dielectric constant tensor:
#      x y z
#    x 2.172460 0.036150 -0.023980 
#    y 0.036150 2.143130 0.037440 
#    z -0.023980 0.037440 2.098100 
# 
# From -- ./inp_files/227708.got.cif
#   From: 2010.05.17/outbox.cif.g08.bks.cpg/sg2_114_cif.got.tgz:227708.got - 2010.06.03 11:33:40.
