data_PCOD9012483
_publ_section_title
;
Structure prediction by ZEFSAII (Michael W. Deem and Ramdas Pophale) SiO2 
 PCOD9012483
Probable space group: P -1
;
_chemical_formula_sum "Si O2"
_cell_formula_units_Z 16
_cell_length_a 8.440108
_cell_length_b 13.589981
_cell_length_c 17.549307
_cell_angle_alpha 146.842846
_cell_angle_beta 69.757932
_cell_angle_gamma 85.826104
_cell_volume 731.253078
_symmetry_space_group_name_H-M "P -1"
_symmetry_group_IT_number 2
_symmetry_cell_setting 'triclinic'
loop_
_space_group_symop_operation_xyz
x,y,z
-x,-y,-z
loop_
_atom_site_type_symbol
_atom_site_label
_atom_site_fract_x
_atom_site_fract_y
_atom_site_fract_z
Si Si1 0.812271 0.638853 0.011152
Si Si2 0.794991 0.650251 0.852215
Si Si3 0.506978 0.206484 0.383767
Si Si4 0.115143 0.320855 0.437616
Si Si5 0.085838 0.774315 0.892282
Si Si6 0.456625 0.613557 0.845740
Si Si7 0.796847 0.419885 0.016899
Si Si8 0.868729 0.144088 0.365332
O O1 0.069609 0.529523 0.920743
O O2 0.614463 0.948969 0.242174
O O3 0.834478 0.540813 0.859329
O O4 0.741593 0.551336 0.030986
O O5 0.544640 0.751235 0.934141
O O6 0.970611 0.467284 0.635242
O O7 0.861636 0.808292 0.959932
O O8 0.371918 0.218399 0.342389
O O9 0.295559 0.487318 0.637885
O O10 0.728511 0.178690 0.335900
O O11 0.000000 0.500000 0.500000
O O12 0.065960 0.147510 0.321658
O O13 0.212078 0.765201 0.938892
O O14 0.000000 0.000000 0.000000
O O15 0.664769 0.375421 0.604069
O O16 0.418822 0.518803 0.865239
O O17 0.001172 0.114856 0.780501
#
# Coordination Sequence:
#
# PCOD9012483 Si02
#       8
#     2   2   2   2   2   2   2   2
#     4  10  21  43  63  96 128 167 211 261 330 383
#     4  10  22  42  61  91 131 158 211 268 314 385
#     4   9  21  42  61  85 129 160 200 270 312 374
#     4  10  22  42  63  90 124 169 213 263 319 372
#     4  10  21  42  64  89 123 169 216 262 318 372
#     4  10  21  41  64  94 130 167 211 265 317 376
#     4  10  21  40  70  94 128 171 214 264 318 384
#     4   9  21  42  62  95 127 163 217 261 310 383
#
# _framework density 21.880253
#
# number of rings (size 3 to 8) (size 9 to 14) (size 15 to 20)
#    0.000    2.250    1.250    0.000    1.750    3.500 
#   11.250    3.750    0.000    0.000    0.000    0.000 
#    0.000    0.000    0.000    0.000    0.000    0.000 
#
# Total GULP energy -89141.494109 kJ/mol
# GULP energy per Si atom -5571.343382 kJ/mol
# Density = 2.183045 g / cm^3
# Si number density = 21.880253 Si / 1000 Ang^3
#
#
#
# Elastic Constant Matrix: (Units=GPa)
#
#
# Indices 1 2 3 4 5 6 
#
# 1 185.8603 54.8215 44.6156 -9.6599 -8.2449 -10.1570
# 2 54.8215 165.0370 34.1940 -2.7014 -17.4626 -13.3605
# 3 44.6156 34.1940 84.5320 -13.2646 -13.3245 -7.5102
# 4 -9.6599 -2.7014 -13.2646 36.0297 7.7044 -0.6302
# 5 -8.2449 -17.4626 -13.3245 7.7044 49.0074 -8.5862
# 6 -10.1570 -13.3605 -7.5102 -0.6302 -8.5862 25.8962
#
#
#
# Elastic Compliance Matrix: (Units=1/GPa)
#
#
# Indices 1 2 3 4 5 6 
#
# 1 0.006560 -0.001549 -0.002655 0.000706 -0.000109 0.000985
# 2 -0.001549 0.007480 -0.001597 -0.000970 0.002768 0.003683
# 3 -0.002655 -0.001597 0.015368 0.004217 0.003155 0.003741
# 4 0.000706 -0.000970 0.004217 0.030234 -0.003747 0.000493
# 5 -0.000109 0.002768 0.003155 -0.003747 0.024639 0.010379
# 6 0.000985 0.003683 0.003741 0.000493 0.010379 0.045440
#
#
# Mechanical properties :
#
#
# Convention : Reuss Voigt Hill
#
# Bulk Modulus (GPa) = 56.15674 78.07681 67.11677
# Shear Modulus (GPa) = 33.95403 42.30654 38.13028
#
# Velocity S-wave (km/s) = 3.94358 4.40198 4.17907
# Velocity P-wave (km/s) = 6.81593 7.84842 7.35033
#
# Compressibility (1/GPa) = 0.01780730
#
# Stress axis : x y z
#
# Youngs Moduli (GPa) = 152.43145 133.69234 65.06917
#
# Poissons Ratio (x) = 0.20714 0.17273
# Poissons Ratio (y) = 0.23617 0.10389
# Poissons Ratio (z) = 0.40465 0.21345
#
# Static dielectric constant tensor:
#      x y z
#    x 1.880130 -0.021340 0.046880 
#    y -0.021340 1.785220 -0.069520 
#    z 0.046880 -0.069520 1.903700 
# 
# From -- ./inp_files/559279.got.cif
#   From: 2010.05.17/outbox.cif.g08.bks.cpg/sg2_280_cif.got.tgz:559279.got - 2010.06.03 11:33:40.
