data_PCOD9012393
_publ_section_title
;
Structure prediction by ZEFSAII (Michael W. Deem and Ramdas Pophale) SiO2 
 PCOD9012393
Probable space group: P -1
;
_chemical_formula_sum "Si O2"
_cell_formula_units_Z 15
_cell_length_a 7.988295
_cell_length_b 8.135351
_cell_length_c 15.125352
_cell_angle_alpha 45.308276
_cell_angle_beta 75.838593
_cell_angle_gamma 102.915369
_cell_volume 554.872750
_symmetry_space_group_name_H-M "P -1"
_symmetry_group_IT_number 2
_symmetry_cell_setting 'triclinic'
loop_
_space_group_symop_operation_xyz
x,y,z
-x,-y,-z
loop_
_atom_site_type_symbol
_atom_site_label
_atom_site_fract_x
_atom_site_fract_y
_atom_site_fract_z
Si Si1 0.000000 0.500000 0.500000
Si Si2 0.782721 0.783943 0.775165
Si Si3 0.416987 0.817210 0.882551
Si Si4 0.121758 0.568168 0.658741
Si Si5 0.734590 0.703601 0.452051
Si Si6 0.612841 0.789108 0.622987
Si Si7 0.772562 0.890941 0.193950
Si Si8 0.163982 0.504968 0.865173
O O1 0.015589 0.487818 0.389558
O O2 0.780813 0.469824 0.527199
O O3 0.641928 0.893164 0.789993
O O4 0.772168 0.786741 0.669993
O O5 0.675849 0.471536 0.942439
O O6 0.017655 0.020778 0.684357
O O7 0.383405 0.033471 0.856485
O O8 0.252633 0.709040 0.861500
O O9 0.064009 0.566711 0.771426
O O10 0.322901 0.892423 0.501207
O O11 0.164949 0.327251 0.749512
O O12 0.633903 0.711935 0.551525
O O13 0.654828 0.757974 0.352935
O O14 0.384190 0.570483 0.776309
O O15 0.999103 0.188557 0.038330
#
# Coordination Sequence:
#
# PCOD9012393 Si02
#       8
#     1   2   2   2   2   2   2   2
#     4  10  24  42  64 100 142 176 228 282 350 408
#     4  10  21  40  69  98 135 176 233 287 326 404
#     4  10  22  41  69 101 134 179 237 284 335 408
#     4  11  24  43  68 100 143 177 227 288 343 413
#     4  11  22  44  69 100 136 187 229 282 346 410
#     4  11  24  42  71 105 137 181 233 282 344 410
#     4  11  24  43  71 100 138 183 228 283 352 403
#     4  11  23  43  66 103 138 176 233 285 332 415
#
# _framework density 27.033223
#
# number of rings (size 3 to 8) (size 9 to 14) (size 15 to 20)
#    0.000    1.333    2.667    2.400    1.867    1.067 
#    2.400    4.000    0.000    4.000    0.000    0.000 
#    0.000    0.000    0.000    0.000    0.000    0.000 
#
# Total GULP energy -83613.527341 kJ/mol
# GULP energy per Si atom -5574.235156 kJ/mol
# Density = 2.697169 g / cm^3
# Si number density = 27.033223 Si / 1000 Ang^3
#
#
#
# Elastic Constant Matrix: (Units=GPa)
#
#
# Indices 1 2 3 4 5 6 
#
# 1 79.6337 9.6956 11.4383 -1.7933 9.1456 -19.8701
# 2 9.6956 80.1733 30.0015 8.8083 15.9203 -12.1680
# 3 11.4383 30.0015 136.5858 6.5677 9.4200 -18.9653
# 4 -1.7933 8.8083 6.5677 31.3753 -6.8748 12.5212
# 5 9.1456 15.9203 9.4200 -6.8748 43.0246 17.2238
# 6 -19.8701 -12.1680 -18.9653 12.5212 17.2238 55.5254
#
#
#
# Elastic Compliance Matrix: (Units=1/GPa)
#
#
# Indices 1 2 3 4 5 6 
#
# 1 0.015833 0.002021 0.000664 -0.006144 -0.009512 0.010672
# 2 0.002021 0.018396 -0.001115 -0.012294 -0.013493 0.011332
# 3 0.000664 -0.001115 0.008817 -0.004697 -0.004609 0.005494
# 4 -0.006144 -0.012294 -0.004697 0.052041 0.025688 -0.026201
# 5 -0.009512 -0.013493 -0.004609 0.025688 0.046661 -0.028202
# 6 0.010672 0.011332 0.005494 -0.026201 -0.028202 0.040845
#
#
# Mechanical properties :
#
#
# Convention : Reuss Voigt Hill
#
# Bulk Modulus (GPa) = 21.65219 44.29597 32.97408
# Shear Modulus (GPa) = 25.66093 42.33555 33.99824
#
# Velocity S-wave (km/s) = 3.08431 3.96164 3.55018
# Velocity P-wave (km/s) = 4.55092 6.11125 5.38787
#
# Compressibility (1/GPa) = 0.04618470
#
# Stress axis : x y z
#
# Youngs Moduli (GPa) = 63.15894 54.36071 113.41461
#
# Poissons Ratio (x) = -0.10984 -0.07525
# Poissons Ratio (y) = -0.12762 0.12643
# Poissons Ratio (z) = -0.04191 0.06060
#
# Static dielectric constant tensor:
#      x y z
#    x 1.958810 0.299210 -0.155900 
#    y 0.299210 1.984670 0.150420 
#    z -0.155900 0.150420 2.046560 
# 
# From -- ./inp_files/554880.got.cif
#   From: 2010.05.17/outbox.cif.g08.bks.cpg/sg2_278_cif.got.tgz:554880.got - 2010.06.03 11:33:40.
