data_PCOD9012650
_publ_section_title
;
Structure prediction by ZEFSAII (Michael W. Deem and Ramdas Pophale) SiO2 
 PCOD9012650
Probable space group: P -1
;
_chemical_formula_sum "Si O2"
_cell_formula_units_Z 16
_cell_length_a 8.921183
_cell_length_b 27.355186
_cell_length_c 11.806632
_cell_angle_alpha 31.076388
_cell_angle_beta 39.194782
_cell_angle_gamma 29.925020
_cell_volume 735.938642
_symmetry_space_group_name_H-M "P -1"
_symmetry_group_IT_number 2
_symmetry_cell_setting 'triclinic'
loop_
_space_group_symop_operation_xyz
x,y,z
-x,-y,-z
loop_
_atom_site_type_symbol
_atom_site_label
_atom_site_fract_x
_atom_site_fract_y
_atom_site_fract_z
Si Si1 0.747454 0.518836 0.784460
Si Si2 0.910230 0.721808 0.058397
Si Si3 0.034464 0.221930 0.639582
Si Si4 0.794364 0.128644 0.805222
Si Si5 0.753530 0.274241 0.931465
Si Si6 0.336486 0.875414 0.558402
Si Si7 0.886419 0.481988 0.218683
Si Si8 0.246611 0.781732 0.576812
O O1 0.527839 0.657702 0.599251
O O2 0.972989 0.411278 0.780472
O O3 0.935204 0.512200 0.794415
O O4 0.500000 0.500000 0.000000
O O5 0.553811 0.816018 0.095449
O O6 0.077397 0.711996 0.094709
O O7 0.024862 0.763534 0.807313
O O8 0.386301 0.121876 0.599276
O O9 0.835094 0.215367 0.679510
O O10 0.969083 0.200711 0.845593
O O11 0.956320 0.353123 0.427517
O O12 0.896719 0.121086 0.631057
O O13 0.000000 0.000000 0.000000
O O14 0.468673 0.404911 0.793410
O O15 0.644916 0.204498 0.192446
O O16 0.382134 0.810130 0.542373
O O17 0.000000 0.000000 0.500000
O O18 0.000000 0.500000 0.000000
#
# Coordination Sequence:
#
# PCOD9012650 Si02
#       8
#     2   2   2   2   2   2   2   2
#     4  10  21  40  73 104 139 179 225 288 351 416
#     4  10  24  45  71 102 139 188 229 284 355 413
#     4  12  27  45  70 106 140 185 233 297 354 408
#     4  12  30  46  68 103 144 187 237 289 343 417
#     4  11  25  45  74 104 145 185 235 292 348 422
#     4  11  25  46  74 100 133 194 238 289 350 417
#     4  12  22  43  70 108 146 176 237 286 357 424
#     4  10  23  47  70 100 137 182 233 286 353 412
#
# _framework density 21.740942
#
# number of rings (size 3 to 8) (size 9 to 14) (size 15 to 20)
#    0.000    1.000    2.500    3.375   10.500    2.500 
#    0.000    0.000    0.000    0.000    0.000    0.000 
#    0.000    0.000    0.000    0.000    0.000    0.000 
#
# Total GULP energy -89511.372609 kJ/mol
# GULP energy per Si atom -5594.460788 kJ/mol
# Density = 2.169146 g / cm^3
# Si number density = 21.740942 Si / 1000 Ang^3
#
#
#
# Elastic Constant Matrix: (Units=GPa)
#
#
# Indices 1 2 3 4 5 6 
#
# 1 106.0288 29.1225 52.4669 21.5390 -1.8396 -19.2472
# 2 29.1225 84.2784 14.4111 5.0804 1.0316 -29.5582
# 3 52.4669 14.4111 76.7451 9.0699 21.0801 -4.3644
# 4 21.5390 5.0804 9.0699 29.2826 2.7811 8.7039
# 5 -1.8396 1.0316 21.0801 2.7811 34.7819 2.3304
# 6 -19.2472 -29.5582 -4.3644 8.7039 2.3304 38.0894
#
#
#
# Elastic Compliance Matrix: (Units=1/GPa)
#
#
# Indices 1 2 3 4 5 6 
#
# 1 0.024002 0.000348 -0.016890 -0.017718 0.011989 0.013779
# 2 0.000348 0.017991 -0.001899 -0.007447 0.000185 0.015610
# 3 -0.016890 -0.001899 0.028618 0.007827 -0.018311 -0.007398
# 4 -0.017718 -0.007447 0.007827 0.054484 -0.008088 -0.025791
# 5 0.011989 0.000185 -0.018311 -0.008088 0.040893 0.003450
# 6 0.013779 0.015610 -0.007398 -0.025791 0.003450 0.050165
#
#
# Mechanical properties :
#
#
# Convention : Reuss Voigt Hill
#
# Bulk Modulus (GPa) = 29.64881 51.00588 40.32735
# Shear Modulus (GPa) = 18.91938 31.83423 25.37681
#
# Velocity S-wave (km/s) = 2.95315 3.83071 3.42019
# Velocity P-wave (km/s) = 5.02942 6.56334 5.84690
#
# Compressibility (1/GPa) = 0.03372816
#
# Stress axis : x y z
#
# Youngs Moduli (GPa) = 41.66289 55.58194 34.94341
#
# Poissons Ratio (x) = -0.01934 0.59020
# Poissons Ratio (y) = -0.01449 0.06637
# Poissons Ratio (z) = 0.70369 0.10557
#
# Static dielectric constant tensor:
#      x y z
#    x 1.717640 0.003260 -0.007390 
#    y 0.003260 1.818290 -0.016620 
#    z -0.007390 -0.016620 1.796450 
# 
# From -- ./inp_files/279917.got.cif
#   From: 2010.05.17/outbox.cif.g08.bks.cpg/sg2_140_cif.got.tgz:279917.got - 2010.06.03 11:33:40.
