data_PCOD9012034
_publ_section_title
;
Structure prediction by ZEFSAII (Michael W. Deem and Ramdas Pophale) SiO2 
 PCOD9012034
Probable space group: P -1
;
_chemical_formula_sum "Si O2"
_cell_formula_units_Z 14
_cell_length_a 11.803712
_cell_length_b 8.796514
_cell_length_c 17.860222
_cell_angle_alpha 139.599758
_cell_angle_beta 29.628371
_cell_angle_gamma 127.815538
_cell_volume 587.248867
_symmetry_space_group_name_H-M "P -1"
_symmetry_group_IT_number 2
_symmetry_cell_setting 'triclinic'
loop_
_space_group_symop_operation_xyz
x,y,z
-x,-y,-z
loop_
_atom_site_type_symbol
_atom_site_label
_atom_site_fract_x
_atom_site_fract_y
_atom_site_fract_z
Si Si1 0.070244 0.795726 0.946265
Si Si2 0.748031 0.479750 0.390021
Si Si3 0.349657 0.262112 0.174536
Si Si4 0.646582 0.011176 0.345449
Si Si5 0.591760 0.890140 0.070104
Si Si6 0.418583 0.741927 0.258843
Si Si7 0.124753 0.194053 0.429897
O O1 0.096781 0.569001 0.792451
O O2 0.299626 0.874320 0.881239
O O3 0.874028 0.814107 0.128844
O O4 0.000000 0.000000 0.000000
O O5 0.500000 0.500000 0.500000
O O6 0.817663 0.676311 0.478405
O O7 0.739734 0.255867 0.366580
O O8 0.465971 0.498253 0.186988
O O9 0.186924 0.305624 0.356423
O O10 0.260296 0.235029 0.130553
O O11 0.500000 0.000000 0.000000
O O12 0.482089 0.957209 0.352005
O O13 0.500000 0.000000 0.500000
O O14 0.580877 0.727466 0.087370
O O15 0.320960 0.960416 0.230627
O O16 0.148124 0.805218 0.417455
#
# Coordination Sequence:
#
# PCOD9012034 Si02
#       7
#     2   2   2   2   2   2   2
#     4  10  21  40  68  91 135 179 220 261 341 386
#     4  11  21  43  68  94 133 180 219 266 329 406
#     4  10  25  42  64  93 138 173 216 277 341 389
#     4  11  25  42  67  99 136 170 227 275 330 400
#     4  11  22  43  66  99 134 174 226 273 323 406
#     4  12  23  41  67 102 127 177 227 274 329 396
#     4  11  24  41  67 100 135 176 218 274 342 388
#
# _framework density 23.839977000000001
#
# number of rings (size 3 to 8) (size 9 to 14) (size 15 to 20)
#    0.000    1.143    4.286    2.143    6.000    1.143 
#    0.000    2.143    0.000    0.000    0.000    0.000 
#    0.000    0.000    0.000    0.000    0.000    0.000 
#
# Total GULP energy -78082.425323 kJ/mol
# GULP energy per Si atom -5577.316094 kJ/mol
# Density = 2.378572 g / cm^3
# Si number density = 23.839977 Si / 1000 Ang^3
#
#
#
# Elastic Constant Matrix: (Units=GPa)
#
#
# Indices 1 2 3 4 5 6 
#
# 1 62.0245 20.3994 33.3324 -22.4172 9.0687 4.8077
# 2 20.3994 80.4830 26.9063 -19.8420 11.7669 -6.6199
# 3 33.3324 26.9063 107.7976 -30.8994 20.7404 -4.3718
# 4 -22.4172 -19.8420 -30.8994 39.5419 -9.3437 9.8069
# 5 9.0687 11.7669 20.7404 -9.3437 65.1109 -15.0286
# 6 4.8077 -6.6199 -4.3718 9.8069 -15.0286 43.5108
#
#
#
# Elastic Compliance Matrix: (Units=1/GPa)
#
#
# Indices 1 2 3 4 5 6 
#
# 1 0.023299 -0.002433 -0.003571 0.010353 -0.001612 -0.006194
# 2 -0.002433 0.014854 -0.001443 0.004452 -0.001009 0.001032
# 3 -0.003571 -0.001443 0.013298 0.007271 -0.002677 -0.001052
# 4 0.010353 0.004452 0.007271 0.041192 -0.000797 -0.009296
# 5 -0.001612 -0.001009 -0.002677 -0.000797 0.017917 0.006124
# 6 -0.006194 0.001032 -0.001052 -0.009296 0.006124 0.027929
#
#
# Mechanical properties :
#
#
# Convention : Reuss Voigt Hill
#
# Bulk Modulus (GPa) = 27.35420 45.73125 36.54272
# Shear Modulus (GPa) = 30.19896 40.94386 35.57141
#
# Velocity S-wave (km/s) = 3.56299 4.14870 3.86695
# Velocity P-wave (km/s) = 5.33156 6.49409 5.94133
#
# Compressibility (1/GPa) = 0.03655746
#
# Stress axis : x y z
#
# Youngs Moduli (GPa) = 42.91957 67.32118 75.20186
#
# Poissons Ratio (x) = 0.16381 0.26851
# Poissons Ratio (y) = 0.10443 0.10852
# Poissons Ratio (z) = 0.15325 0.09715
#
# Static dielectric constant tensor:
#      x y z
#    x 1.958740 -0.036100 -0.029730 
#    y -0.036100 1.960070 0.047720 
#    z -0.029730 0.047720 2.022850 
# 
# From -- ./inp_files/379650.got.cif
#   From: 2010.05.17/outbox.cif.g08.bks.cpg/sg2_190_cif.got.tgz:379650.got - 2010.06.03 11:33:40.
