data_PCOD9012377
_publ_section_title
;
Structure prediction by ZEFSAII (Michael W. Deem and Ramdas Pophale) SiO2 
 PCOD9012377
Probable space group: P -1
;
_chemical_formula_sum "Si O2"
_cell_formula_units_Z 15
_cell_length_a 8.459441
_cell_length_b 19.653715
_cell_length_c 12.169553
_cell_angle_alpha 145.418160
_cell_angle_beta 129.559548
_cell_angle_gamma 73.824182
_cell_volume 732.534057
_symmetry_space_group_name_H-M "P -1"
_symmetry_group_IT_number 2
_symmetry_cell_setting 'triclinic'
loop_
_space_group_symop_operation_xyz
x,y,z
-x,-y,-z
loop_
_atom_site_type_symbol
_atom_site_label
_atom_site_fract_x
_atom_site_fract_y
_atom_site_fract_z
Si Si1 0.422150 0.387360 0.074220
Si Si2 0.570503 0.690311 0.475634
Si Si3 0.150158 0.921617 0.054760
Si Si4 0.798296 0.217134 0.905937
Si Si5 0.637957 0.772170 0.375732
Si Si6 0.018606 0.863265 0.327423
Si Si7 0.000000 0.500000 0.500000
Si Si8 0.469514 0.932303 0.776578
O O1 0.446268 0.538210 0.278199
O O2 0.697195 0.422455 0.249904
O O3 0.302982 0.298017 0.789035
O O4 0.242878 0.280594 0.946509
O O5 0.539202 0.671694 0.305396
O O6 0.474362 0.789388 0.599157
O O7 0.868086 0.785124 0.747189
O O8 0.154193 0.063827 0.277352
O O9 0.302092 0.958700 0.058745
O O10 0.278798 0.882305 0.152269
O O11 0.981865 0.380921 0.246635
O O12 0.574317 0.208748 0.735090
O O13 0.911246 0.162779 0.795922
O O14 0.225372 0.891719 0.546699
O O15 0.000000 0.000000 0.500000
O O16 0.500000 0.000000 0.000000
#
# Coordination Sequence:
#
# PCOD9012377 Si02
#       8
#     2   2   2   2   2   2   1   2
#     4  11  25  43  70 103 138 183 232 283 360 405
#     4  11  23  45  67 100 135 191 227 282 346 414
#     4  11  22  42  75  95 133 189 228 287 333 421
#     4  11  22  45  67 100 137 180 241 276 353 403
#     4  10  21  40  69  97 135 173 241 279 330 422
#     4  12  28  44  72 104 142 186 229 298 348 417
#     4  10  24  44  66 100 134 180 232 294 332 414
#     4  11  27  46  65 109 142 181 232 286 353 408
#
# _framework density 20.476863000000002
#
# number of rings (size 3 to 8) (size 9 to 14) (size 15 to 20)
#    0.000    1.067    4.000    3.200    9.333    1.067 
#    2.400    0.000    0.000    0.000    0.000    0.000 
#    0.000    0.000    0.000    0.000    0.000    0.000 
#
# Total GULP energy -83557.094590 kJ/mol
# GULP energy per Si atom -5570.472973 kJ/mol
# Density = 2.043026 g / cm^3
# Si number density = 20.476863 Si / 1000 Ang^3
#
#
#
# Elastic Constant Matrix: (Units=GPa)
#
#
# Indices 1 2 3 4 5 6 
#
# 1 115.8403 46.5326 53.4755 8.9325 -23.3532 2.2090
# 2 46.5326 105.1344 44.5494 14.1110 16.2753 -0.9733
# 3 53.4755 44.5494 93.5506 9.5081 -8.7144 8.8362
# 4 8.9325 14.1110 9.5081 39.2102 -1.4153 0.3326
# 5 -23.3532 16.2753 -8.7144 -1.4153 31.4652 -10.7087
# 6 2.2090 -0.9733 8.8362 0.3326 -10.7087 30.9493
#
#
#
# Elastic Compliance Matrix: (Units=1/GPa)
#
#
# Indices 1 2 3 4 5 6 
#
# 1 0.018155 -0.008858 -0.005100 0.000915 0.018863 0.006399
# 2 -0.008858 0.019108 -0.005028 -0.004306 -0.019405 -0.003999
# 3 -0.005100 -0.005028 0.016651 -0.000959 0.002085 -0.003816
# 4 0.000915 -0.004306 -0.000959 0.027221 0.004297 0.001267
# 5 0.018863 -0.019405 0.002085 0.004297 0.063140 0.019249
# 6 0.006399 -0.003999 -0.003816 0.001267 0.019249 0.039465
#
#
# Mechanical properties :
#
#
# Convention : Reuss Voigt Hill
#
# Bulk Modulus (GPa) = 62.72710 67.07114 64.89912
# Shear Modulus (GPa) = 22.02385 31.65613 26.83999
#
# Velocity S-wave (km/s) = 3.28311 3.93612 3.62435
# Velocity P-wave (km/s) = 6.71353 7.31321 7.01978
#
# Compressibility (1/GPa) = 0.01594207
#
# Stress axis : x y z
#
# Youngs Moduli (GPa) = 55.08034 52.33486 60.05611
#
# Poissons Ratio (x) = 0.46359 0.30628
# Poissons Ratio (y) = 0.48791 0.30196
# Poissons Ratio (z) = 0.28090 0.26314
#
# Static dielectric constant tensor:
#      x y z
#    x 1.701010 -0.012050 -0.008390 
#    y -0.012050 1.746270 -0.022580 
#    z -0.008390 -0.022580 1.771990 
# 
# From -- ./inp_files/402396.got.cif
#   From: 2010.05.17/outbox.cif.g08.bks.cpg/sg2_202_cif.got.tgz:402396.got - 2010.06.03 11:33:40.
