data_PCOD9012514
_publ_section_title
;
Structure prediction by ZEFSAII (Michael W. Deem and Ramdas Pophale) SiO2 
 PCOD9012514
Probable space group: P -1
;
_chemical_formula_sum "Si O2"
_cell_formula_units_Z 16
_cell_length_a 5.561173
_cell_length_b 9.142035
_cell_length_c 18.688045
_cell_angle_alpha 53.711180
_cell_angle_beta 104.394001
_cell_angle_gamma 84.680589
_cell_volume 705.921992
_symmetry_space_group_name_H-M "P -1"
_symmetry_group_IT_number 2
_symmetry_cell_setting 'triclinic'
loop_
_space_group_symop_operation_xyz
x,y,z
-x,-y,-z
loop_
_atom_site_type_symbol
_atom_site_label
_atom_site_fract_x
_atom_site_fract_y
_atom_site_fract_z
Si Si1 0.272330 0.034417 0.533661
Si Si2 0.551070 0.373269 0.711130
Si Si3 0.507318 0.972710 0.827634
Si Si4 0.707701 0.883410 0.710527
Si Si5 0.225274 0.111438 0.984344
Si Si6 0.955789 0.166469 0.680232
Si Si7 0.956277 0.499271 0.770429
Si Si8 0.030910 0.547847 0.591202
O O1 0.183497 0.252306 0.492222
O O2 0.500000 0.000000 0.500000
O O3 0.429905 0.906639 0.646594
O O4 0.000000 0.000000 0.500000
O O5 0.771450 0.261297 0.704819
O O6 0.672124 0.468939 0.752682
O O7 0.331365 0.533676 0.606529
O O8 0.467977 0.193710 0.782774
O O9 0.660735 0.902056 0.786182
O O10 0.681795 0.857517 0.937772
O O11 0.205850 0.001114 0.777214
O O12 0.917293 0.692565 0.754309
O O13 0.806620 0.064470 0.646437
O O14 0.122655 0.309688 0.876962
O O15 0.500000 0.000000 0.000000
O O16 0.000000 0.000000 0.000000
O O17 0.013565 0.358799 0.603505
O O18 0.029855 0.521923 0.686506
#
# Coordination Sequence:
#
# PCOD9012514 Si02
#       8
#     2   2   2   2   2   2   2   2
#     4  12  27  47  71 107 141 182 241 293 347 421
#     4   9  17  37  64  93 126 175 233 280 336 406
#     4  10  22  42  65  97 140 182 226 292 347 411
#     4  11  25  43  68 100 146 185 224 294 361 412
#     4  12  25  44  74 108 136 183 243 292 339 419
#     4   9  21  40  65  94 137 181 228 279 353 409
#     4  11  22  39  67 102 134 186 230 287 354 409
#     4  10  21  40  70  97 135 185 236 289 341 419
#
# _framework density 22.665393999999999
#
# number of rings (size 3 to 8) (size 9 to 14) (size 15 to 20)
#    0.000    1.500    2.500    3.000    5.250    2.000 
#    0.000    6.250    0.000    0.000    0.000    0.000 
#    0.000    0.000    0.000    0.000    0.000    0.000 
#
# Total GULP energy -89194.442348 kJ/mol
# GULP energy per Si atom -5574.652647 kJ/mol
# Density = 2.261381 g / cm^3
# Si number density = 22.665394 Si / 1000 Ang^3
#
#
#
# Elastic Constant Matrix: (Units=GPa)
#
#
# Indices 1 2 3 4 5 6 
#
# 1 89.9414 44.1077 20.3183 0.6752 20.4519 -0.8804
# 2 44.1077 146.2004 38.0395 -11.9185 3.1213 -7.8690
# 3 20.3183 38.0395 87.2656 -9.2504 7.6562 -3.9258
# 4 0.6752 -11.9185 -9.2504 42.5262 -8.5248 4.0124
# 5 20.4519 3.1213 7.6562 -8.5248 31.1280 7.5635
# 6 -0.8804 -7.8690 -3.9258 4.0124 7.5635 32.3938
#
#
#
# Elastic Compliance Matrix: (Units=1/GPa)
#
#
# Indices 1 2 3 4 5 6 
#
# 1 0.016390 -0.004627 -0.001115 -0.004410 -0.011845 0.002498
# 2 -0.004627 0.009169 -0.002911 0.002633 0.003405 0.000628
# 3 -0.001115 -0.002911 0.013395 0.001577 -0.002126 0.001187
# 4 -0.004410 0.002633 0.001577 0.027370 0.011017 -0.005251
# 5 -0.011845 0.003405 -0.002126 0.011017 0.045987 -0.011854
# 6 0.002498 0.000628 0.001187 -0.005251 -0.011854 0.034653
#
#
# Mechanical properties :
#
#
# Convention : Reuss Voigt Hill
#
# Bulk Modulus (GPa) = 46.19260 58.70427 52.44843
# Shear Modulus (GPa) = 29.15686 35.93905 32.54796
#
# Velocity S-wave (km/s) = 3.59054 3.98632 3.79360
# Velocity P-wave (km/s) = 6.13301 6.86617 6.50992
#
# Compressibility (1/GPa) = 0.02164849
#
# Stress axis : x y z
#
# Youngs Moduli (GPa) = 61.01133 109.06379 74.65497
#
# Poissons Ratio (x) = 0.50462 0.08325
# Poissons Ratio (y) = 0.28229 0.21731
# Poissons Ratio (z) = 0.06804 0.31747
#
# Static dielectric constant tensor:
#      x y z
#    x 2.082100 0.066550 -0.033440 
#    y 0.066550 1.874110 -0.006040 
#    z -0.033440 -0.006040 1.930210 
# 
# From -- ./inp_files/141400.got.cif
#   From: 2010.05.17/outbox.cif.g08.bks.cpg/sg2_71_cif.got.tgz:141400.got - 2010.06.03 11:33:40.
