data_PCOD9012076
_publ_section_title
;
Structure prediction by ZEFSAII (Michael W. Deem and Ramdas Pophale) SiO2 
 PCOD9012076
Probable space group: P -1
;
_chemical_formula_sum "Si O2"
_cell_formula_units_Z 16
_cell_length_a 15.849096
_cell_length_b 11.588809
_cell_length_c 16.534371
_cell_angle_alpha 53.227572
_cell_angle_beta 26.382480
_cell_angle_gamma 36.655339
_cell_volume 718.431254
_symmetry_space_group_name_H-M "P -1"
_symmetry_group_IT_number 2
_symmetry_cell_setting 'triclinic'
loop_
_space_group_symop_operation_xyz
x,y,z
-x,-y,-z
loop_
_atom_site_type_symbol
_atom_site_label
_atom_site_fract_x
_atom_site_fract_y
_atom_site_fract_z
Si Si1 0.548791 0.868818 0.435851
Si Si2 0.020880 0.940326 0.613355
Si Si3 0.994816 0.625852 0.707383
Si Si4 0.492669 0.276313 0.822119
Si Si5 0.904335 0.444400 0.535020
Si Si6 0.057759 0.753212 0.996488
Si Si7 0.011663 0.877044 0.292084
Si Si8 0.743611 0.214856 0.035268
O O1 0.717311 0.628298 0.415953
O O2 0.500000 0.000000 0.500000
O O3 0.260393 0.006277 0.577763
O O4 0.770601 0.825775 0.205824
O O5 0.029230 0.772718 0.642228
O O6 0.287317 0.879992 0.373812
O O7 0.025271 0.952515 0.700315
O O8 0.721300 0.173748 0.740009
O O9 0.946295 0.634748 0.648325
O O10 0.738551 0.702537 0.949990
O O11 0.318108 0.513448 0.841065
O O12 0.000000 0.500000 0.500000
O O13 0.946940 0.266508 0.615383
O O14 0.564925 0.658437 0.721888
O O15 0.142757 0.723517 0.030528
O O16 0.979449 0.954795 0.948548
O O17 0.270304 0.736682 0.066178
#
# Coordination Sequence:
#
# PCOD9012076 Si02
#       8
#     2   2   2   2   2   2   2   2
#     4  11  22  44  67 100 135 176 222 277 344 406
#     4  11  24  45  68  97 140 176 236 277 331 410
#     4  11  25  45  74  96 135 187 225 275 343 406
#     4  10  23  44  71  96 129 184 229 281 335 401
#     4  12  26  42  69 105 138 170 224 284 344 407
#     4  10  21  40  68  94 132 176 230 271 338 416
#     4  12  26  41  67 101 139 176 222 285 338 397
#     4  11  23  39  66 101 136 177 217 278 349 400
#
# _framework density 22.270747
#
# number of rings (size 3 to 8) (size 9 to 14) (size 15 to 20)
#    0.000    1.000    1.250    6.000    7.000    0.500 
#    2.250    1.250    0.000    0.000    0.000    0.000 
#    0.000    0.000    0.000    0.000    0.000    0.000 
#
# Total GULP energy -89360.043407 kJ/mol
# GULP energy per Si atom -5585.002713 kJ/mol
# Density = 2.222006 g / cm^3
# Si number density = 22.270747 Si / 1000 Ang^3
#
#
#
# Elastic Constant Matrix: (Units=GPa)
#
#
# Indices 1 2 3 4 5 6 
#
# 1 77.2293 3.5277 8.0572 5.2667 8.3131 14.6015
# 2 3.5277 93.8080 13.9713 13.0155 -3.1718 -1.7908
# 3 8.0572 13.9713 112.5421 10.4295 0.7188 -0.0855
# 4 5.2667 13.0155 10.4295 30.0152 -10.2025 -3.1711
# 5 8.3131 -3.1718 0.7188 -10.2025 21.2533 -5.2502
# 6 14.6015 -1.7908 -0.0855 -3.1711 -5.2502 25.1424
#
#
#
# Elastic Compliance Matrix: (Units=1/GPa)
#
#
# Indices 1 2 3 4 5 6 
#
# 1 0.018199 -0.000076 -0.000281 -0.009974 -0.015638 -0.015099
# 2 -0.000076 0.011455 -0.000972 -0.004761 -0.000475 0.000157
# 3 -0.000281 -0.000972 0.009380 -0.003661 -0.002312 -0.000819
# 4 -0.009974 -0.004761 -0.003661 0.051487 0.032663 0.018755
# 5 -0.015638 -0.000475 -0.002312 0.032663 0.076028 0.029036
# 6 -0.015099 0.000157 -0.000819 0.018755 0.029036 0.056980
#
#
# Mechanical properties :
#
#
# Convention : Reuss Voigt Hill
#
# Bulk Modulus (GPa) = 27.49017 37.18799 32.33908
# Shear Modulus (GPa) = 20.98087 32.48373 26.73230
#
# Velocity S-wave (km/s) = 3.07267 3.82328 3.46834
# Velocity P-wave (km/s) = 4.99588 6.01867 5.53097
#
# Compressibility (1/GPa) = 0.03637664
#
# Stress axis : x y z
#
# Youngs Moduli (GPa) = 54.94676 87.29623 106.61248
#
# Poissons Ratio (x) = 0.00661 0.02994
# Poissons Ratio (y) = 0.00416 0.10366
# Poissons Ratio (z) = 0.01543 0.08488
#
# Static dielectric constant tensor:
#      x y z
#    x 1.815230 0.012520 0.027600 
#    y 0.012520 1.867650 -0.015350 
#    z 0.027600 -0.015350 1.826720 
# 
# From -- ./inp_files/532446.got.cif
#   From: 2010.05.17/outbox.cif.g08.bks.cpg/sg2_267_cif.got.tgz:532446.got - 2010.06.03 11:33:40.
