data_PCOD9012439
_publ_section_title
;
Structure prediction by ZEFSAII (Michael W. Deem and Ramdas Pophale) SiO2 
 PCOD9012439
Probable space group: P -1
;
_chemical_formula_sum "Si O2"
_cell_formula_units_Z 16
_cell_length_a 9.317513
_cell_length_b 18.279330
_cell_length_c 5.425100
_cell_angle_alpha 74.021288
_cell_angle_beta 128.562758
_cell_angle_gamma 116.173204
_cell_volume 648.411850
_symmetry_space_group_name_H-M "P -1"
_symmetry_group_IT_number 2
_symmetry_cell_setting 'triclinic'
loop_
_space_group_symop_operation_xyz
x,y,z
-x,-y,-z
loop_
_atom_site_type_symbol
_atom_site_label
_atom_site_fract_x
_atom_site_fract_y
_atom_site_fract_z
Si Si1 0.054139 0.573557 0.685126
Si Si2 0.396414 0.215468 0.889176
Si Si3 0.683965 0.180490 0.932165
Si Si4 0.671775 0.470287 0.629211
Si Si5 0.039084 0.877321 0.420912
Si Si6 0.042584 0.723840 0.243456
Si Si7 0.394826 0.313025 0.290469
Si Si8 0.409550 0.022144 0.627942
O O1 0.000000 0.500000 0.500000
O O2 0.861064 0.545032 0.676466
O O3 0.080899 0.660951 0.527188
O O4 0.244038 0.572708 0.032274
O O5 0.584201 0.190432 0.070757
O O6 0.396585 0.267000 0.593080
O O7 0.187919 0.140349 0.750173
O O8 0.408700 0.264668 0.105638
O O9 0.800048 0.258285 0.823704
O O10 0.496947 0.119604 0.641207
O O11 0.852259 0.143895 0.206938
O O12 0.500000 0.500000 0.500000
O O13 0.569138 0.399966 0.387700
O O14 0.178282 0.969198 0.420835
O O15 0.047907 0.809218 0.293860
O O16 0.819856 0.680269 0.952849
O O17 0.500000 0.000000 0.500000
O O18 0.500000 0.000000 0.000000
#
# Coordination Sequence:
#
# PCOD9012439 Si02
#       8
#     2   2   2   2   2   2   2   2
#     4  11  28  47  73 109 144 192 245 303 367 443
#     4  11  27  43  71 108 142 192 246 302 364 433
#     4  11  24  42  71 104 143 191 247 300 368 436
#     4  11  28  50  73 103 146 195 244 306 373 440
#     4  10  23  44  68 100 149 188 244 303 364 433
#     4  11  24  45  74 101 148 193 245 303 373 436
#     4  11  27  48  72 105 150 190 243 308 367 435
#     4  10  21  40  70 103 142 195 242 298 367 430
#
# _framework density 24.675675999999999
#
# number of rings (size 3 to 8) (size 9 to 14) (size 15 to 20)
#    0.000    1.250    2.500    0.750   10.500    2.500 
#    0.000    0.000    0.000    5.250    0.000    0.000 
#    0.000    0.000    0.000    0.000    0.000    0.000 
#
# Total GULP energy -89607.446916 kJ/mol
# GULP energy per Si atom -5600.465432 kJ/mol
# Density = 2.461951 g / cm^3
# Si number density = 24.675676 Si / 1000 Ang^3
#
#
#
# Elastic Constant Matrix: (Units=GPa)
#
#
# Indices 1 2 3 4 5 6 
#
# 1 116.4328 28.8582 49.8624 1.3857 0.2906 12.3971
# 2 28.8582 76.7484 45.6500 19.9886 4.2730 17.9871
# 3 49.8624 45.6500 107.5699 18.8551 12.0703 12.3741
# 4 1.3857 19.9886 18.8551 43.5100 1.8748 -4.1262
# 5 0.2906 4.2730 12.0703 1.8748 48.8110 5.4038
# 6 12.3971 17.9871 12.3741 -4.1262 5.4038 35.5832
#
#
#
# Elastic Compliance Matrix: (Units=1/GPa)
#
#
# Indices 1 2 3 4 5 6 
#
# 1 0.011209 -0.001695 -0.004895 0.002364 0.001343 -0.001276
# 2 -0.001695 0.021430 -0.005920 -0.008145 0.000937 -0.009270
# 3 -0.004895 -0.005920 0.015102 -0.003589 -0.002992 -0.000516
# 4 0.002364 -0.008145 -0.003589 0.028978 -0.000408 0.007964
# 5 0.001343 0.000937 -0.002992 -0.000408 0.021509 -0.003215
# 6 -0.001276 -0.009270 -0.000516 0.007964 -0.003215 0.034825
#
#
# Mechanical properties :
#
#
# Convention : Reuss Voigt Hill
#
# Bulk Modulus (GPa) = 44.01046 61.05471 52.53259
# Shear Modulus (GPa) = 30.18513 37.33955 33.76234
#
# Velocity S-wave (km/s) = 3.50133 3.89422 3.70299
# Velocity P-wave (km/s) = 5.84979 6.70944 6.29431
#
# Compressibility (1/GPa) = 0.02272187
#
# Stress axis : x y z
#
# Youngs Moduli (GPa) = 89.21149 46.66435 66.21826
#
# Poissons Ratio (x) = 0.07908 0.32414
# Poissons Ratio (y) = 0.15118 0.39200
# Poissons Ratio (z) = 0.43669 0.27624
#
# Static dielectric constant tensor:
#      x y z
#    x 1.977530 -0.015790 -0.037160 
#    y -0.015790 1.997150 0.007580 
#    z -0.037160 0.007580 1.966430 
# 
# From -- ./inp_files/53010.got.cif
#   From: 2010.05.17/outbox.cif.g08.bks.cpg/sg2_27_cif.got.tgz:53010.got - 2010.06.03 11:33:40.
