data_PCOD9012729
_publ_section_title
;
Structure prediction by ZEFSAII (Michael W. Deem and Ramdas Pophale) SiO2 
 PCOD9012729
Probable space group: P -1
;
_chemical_formula_sum "Si O2"
_cell_formula_units_Z 16
_cell_length_a 5.229790
_cell_length_b 11.603234
_cell_length_c 14.243368
_cell_angle_alpha 119.020420
_cell_angle_beta 100.287543
_cell_angle_gamma 80.798644
_cell_volume 740.952770
_symmetry_space_group_name_H-M "P -1"
_symmetry_group_IT_number 2
_symmetry_cell_setting 'triclinic'
loop_
_space_group_symop_operation_xyz
x,y,z
-x,-y,-z
loop_
_atom_site_type_symbol
_atom_site_label
_atom_site_fract_x
_atom_site_fract_y
_atom_site_fract_z
Si Si1 0.426835 0.691336 0.828133
Si Si2 0.355309 0.482700 0.387095
Si Si3 0.307189 0.986346 0.276784
Si Si4 0.091404 0.653132 0.292973
Si Si5 0.216585 0.533763 0.914002
Si Si6 0.864458 0.776228 0.776755
Si Si7 0.357599 0.695506 0.137637
Si Si8 0.862886 0.940274 0.378179
O O1 0.450382 0.573307 0.705427
O O2 0.395020 0.623831 0.898979
O O3 0.683404 0.765229 0.852739
O O4 0.163854 0.782258 0.825076
O O5 0.500000 0.500000 0.500000
O O6 0.208102 0.615208 0.386974
O O7 0.168442 0.362907 0.333960
O O8 0.364917 0.846900 0.171620
O O9 0.565587 0.995612 0.361267
O O10 0.047424 0.972694 0.315778
O O11 0.253833 0.106923 0.250464
O O12 0.296496 0.690205 0.242187
O O13 0.993498 0.517469 0.191091
O O14 0.884749 0.780866 0.330861
O O15 0.383594 0.399127 0.900115
O O16 0.143692 0.623181 0.034913
O O17 0.000000 0.000000 0.500000
#
# Coordination Sequence:
#
# PCOD9012729 Si02
#       8
#     2   2   2   2   2   2   2   2
#     4  10  21  41  59  90 121 164 205 263 301 370
#     4  10  23  38  61  90 122 166 209 254 313 361
#     4  11  23  44  60  93 127 165 216 254 313 381
#     4  11  21  41  63  93 130 158 215 262 311 384
#     4  11  19  40  64  91 125 158 212 264 328 363
#     4  10  22  40  62  80 130 161 203 254 304 361
#     4  10  22  37  65  93 120 168 200 271 321 372
#     4  11  25  41  63  93 125 171 207 264 313 372
#
# _framework density 21.593820999999998
#
# number of rings (size 3 to 8) (size 9 to 14) (size 15 to 20)
#    0.750    0.750    3.750    1.500    1.750    0.500 
#    2.250    1.250    0.000    0.000    0.000    0.000 
#    0.000    0.000    0.000    0.000    0.000    0.000 
#
# Total GULP energy -89278.881443 kJ/mol
# GULP energy per Si atom -5579.930090 kJ/mol
# Density = 2.154467 g / cm^3
# Si number density = 21.593821 Si / 1000 Ang^3
#
#
#
# Elastic Constant Matrix: (Units=GPa)
#
#
# Indices 1 2 3 4 5 6 
#
# 1 57.7355 12.6122 -14.1054 -7.0705 6.6351 -5.8332
# 2 12.6122 138.0137 9.7913 -17.0288 -3.9604 -3.9626
# 3 -14.1054 9.7913 56.2046 -7.6918 9.2544 1.7965
# 4 -7.0705 -17.0288 -7.6918 27.8794 1.7747 5.4277
# 5 6.6351 -3.9604 9.2544 1.7747 21.9445 -3.1410
# 6 -5.8332 -3.9626 1.7965 5.4277 -3.1410 27.7167
#
#
#
# Elastic Compliance Matrix: (Units=1/GPa)
#
#
# Indices 1 2 3 4 5 6 
#
# 1 0.022188 -0.002037 0.008726 0.007285 -0.011185 0.001119
# 2 -0.002037 0.008105 -0.001868 0.003667 0.002632 0.000431
# 3 0.008726 -0.001868 0.024054 0.009292 -0.014363 -0.003437
# 4 0.007285 0.003667 0.009292 0.044828 -0.010300 -0.008491
# 5 -0.011185 0.002632 -0.014363 -0.010300 0.057386 0.007474
# 6 0.001119 0.000431 -0.003437 -0.008491 0.007474 0.039109
#
#
# Mechanical properties :
#
#
# Convention : Reuss Voigt Hill
#
# Bulk Modulus (GPa) = 15.62780 29.83888 22.73334
# Shear Modulus (GPa) = 24.11296 31.75182 27.93239
#
# Velocity S-wave (km/s) = 3.34527 3.83876 3.60048
# Velocity P-wave (km/s) = 4.70893 5.78760 5.27590
#
# Compressibility (1/GPa) = 0.06398855
#
# Stress axis : x y z
#
# Youngs Moduli (GPa) = 45.06995 123.38574 41.57313
#
# Poissons Ratio (x) = 0.25130 -0.36277
# Poissons Ratio (y) = 0.09179 0.07767
# Poissons Ratio (z) = -0.39328 0.23052
#
# Static dielectric constant tensor:
#      x y z
#    x 1.854890 0.004840 0.035170 
#    y 0.004840 1.775130 0.003010 
#    z 0.035170 0.003010 1.828170 
# 
# From -- ./inp_files/371592.got.cif
#   From: 2010.05.17/outbox.cif.g08.bks.cpg/sg2_186_cif.got.tgz:371592.got - 2010.06.03 11:33:40.
