data_PCOD9012854
_publ_section_title
;
Structure prediction by ZEFSAII (Michael W. Deem and Ramdas Pophale) SiO2 
 PCOD9012854
Probable space group: P -1
;
_chemical_formula_sum "Si O2"
_cell_formula_units_Z 14
_cell_length_a 19.109314
_cell_length_b 8.233099
_cell_length_c 7.629647
_cell_angle_alpha 99.217392
_cell_angle_beta 61.148066
_cell_angle_gamma 50.433952
_cell_volume 584.730903
_symmetry_space_group_name_H-M "P -1"
_symmetry_group_IT_number 2
_symmetry_cell_setting 'triclinic'
loop_
_space_group_symop_operation_xyz
x,y,z
-x,-y,-z
loop_
_atom_site_type_symbol
_atom_site_label
_atom_site_fract_x
_atom_site_fract_y
_atom_site_fract_z
Si Si1 0.299220 0.857923 0.720372
Si Si2 0.313706 0.209198 0.302965
Si Si3 0.548913 0.097588 0.580507
Si Si4 0.979936 0.138641 0.774086
Si Si5 0.990474 0.274965 0.157260
Si Si6 0.756529 0.404581 0.826962
Si Si7 0.522881 0.234473 0.266927
O O1 0.355745 0.898420 0.523934
O O2 0.364135 0.573550 0.531547
O O3 0.377527 0.783573 0.790349
O O4 0.132383 0.135300 0.990325
O O5 0.292850 0.406996 0.247617
O O6 0.156777 0.401233 0.541033
O O7 0.376793 0.140505 0.404881
O O8 0.423247 0.914489 0.009791
O O9 0.552005 0.056261 0.361033
O O10 0.386996 0.412881 0.880220
O O11 0.843958 0.369748 0.852309
O O12 0.988540 0.937912 0.808619
O O13 0.121598 0.924216 0.449867
O O14 0.973354 0.267968 0.970078
#
# Coordination Sequence:
#
# PCOD9012854 Si02
#       7
#     2   2   2   2   2   2   2
#     4   9  21  43  64  89 124 163 208 251 306 361
#     4  11  24  38  62  95 126 164 202 250 319 355
#     4  10  22  41  62  91 128 158 205 254 307 365
#     4   9  21  38  65  90 122 167 208 249 307 361
#     4  10  21  41  63  92 126 159 210 256 297 377
#     4  10  21  41  61  94 124 162 208 253 308 366
#     4   9  22  42  61  95 120 161 209 247 311 363
#
# _framework density 23.942640000000001
#
# number of rings (size 3 to 8) (size 9 to 14) (size 15 to 20)
#    0.857    1.429    0.000    1.286    4.000    2.286 
#    5.143    0.000    0.000    0.000    0.000    0.000 
#    0.000    0.000    0.000    0.000    0.000    0.000 
#
# Total GULP energy -78235.607598 kJ/mol
# GULP energy per Si atom -5588.257686 kJ/mol
# Density = 2.388815 g / cm^3
# Si number density = 23.942640 Si / 1000 Ang^3
#
#
#
# Elastic Constant Matrix: (Units=GPa)
#
#
# Indices 1 2 3 4 5 6 
#
# 1 59.7072 24.4107 40.7153 -2.5907 -12.4868 -21.3177
# 2 24.4107 77.7818 8.1583 -0.4892 1.6107 -28.8121
# 3 40.7153 8.1583 152.6133 2.7979 -38.6379 -11.8290
# 4 -2.5907 -0.4892 2.7979 25.2931 -6.7261 -0.9200
# 5 -12.4868 1.6107 -38.6379 -6.7261 43.3644 -1.3793
# 6 -21.3177 -28.8121 -11.8290 -0.9200 -1.3793 24.5134
#
#
#
# Elastic Compliance Matrix: (Units=1/GPa)
#
#
# Indices 1 2 3 4 5 6 
#
# 1 0.030375 0.000055 -0.004701 0.006212 0.006308 0.024799
# 2 0.000055 0.022994 0.001239 0.001701 0.001414 0.027816
# 3 -0.004701 0.001239 0.009835 0.000550 0.007530 0.002558
# 4 0.006212 0.001701 0.000550 0.042944 0.009188 0.009795
# 5 0.006308 0.001414 0.007530 0.009188 0.033372 0.013004
# 6 0.024799 0.027816 0.002558 0.009795 0.013004 0.097387
#
#
# Mechanical properties :
#
#
# Convention : Reuss Voigt Hill
#
# Bulk Modulus (GPa) = 17.73387 48.51897 33.12642
# Shear Modulus (GPa) = 19.04628 33.08873 26.06750
#
# Velocity S-wave (km/s) = 2.82351 3.72156 3.30320
# Velocity P-wave (km/s) = 4.24883 6.22698 5.33047
#
# Compressibility (1/GPa) = 0.05638927
#
# Stress axis : x y z
#
# Youngs Moduli (GPa) = 32.92233 43.48920 101.67615
#
# Poissons Ratio (x) = -0.00239 0.47800
# Poissons Ratio (y) = -0.00181 -0.12598
# Poissons Ratio (z) = 0.15478 -0.05388
#
# Static dielectric constant tensor:
#      x y z
#    x 1.935980 0.055320 -0.012290 
#    y 0.055320 1.971480 -0.018820 
#    z -0.012290 -0.018820 1.906900 
# 
# From -- ./inp_files/343634.got.cif
#   From: 2010.05.17/outbox.cif.g08.bks.cpg/sg2_172_cif.got.tgz:343634.got - 2010.06.03 11:33:40.
