data_PCOD9012520
_publ_section_title
;
Structure prediction by ZEFSAII (Michael W. Deem and Ramdas Pophale) SiO2 
 PCOD9012520
Probable space group: P -1
;
_chemical_formula_sum "Si O2"
_cell_formula_units_Z 14
_cell_length_a 7.760626
_cell_length_b 15.633269
_cell_length_c 6.849455
_cell_angle_alpha 134.349144
_cell_angle_beta 89.066482
_cell_angle_gamma 90.187901
_cell_volume 594.127664
_symmetry_space_group_name_H-M "P -1"
_symmetry_group_IT_number 2
_symmetry_cell_setting 'triclinic'
loop_
_space_group_symop_operation_xyz
x,y,z
-x,-y,-z
loop_
_atom_site_type_symbol
_atom_site_label
_atom_site_fract_x
_atom_site_fract_y
_atom_site_fract_z
Si Si1 0.129615 0.355416 0.909524
Si Si2 0.674050 0.811114 0.087237
Si Si3 0.831047 0.997592 0.639293
Si Si4 0.247037 0.606628 0.197772
Si Si5 0.829846 0.812303 0.685422
Si Si6 0.192028 0.748908 0.771363
Si Si7 0.594856 0.397241 0.211192
O O1 0.170951 0.273859 0.964294
O O2 0.229319 0.292496 0.625248
O O3 0.930946 0.354975 0.847364
O O4 0.195604 0.489508 0.134390
O O5 0.687052 0.927544 0.407541
O O6 0.702734 0.843378 0.913124
O O7 0.515271 0.723565 0.971310
O O8 0.869624 0.920641 0.710916
O O9 0.000000 0.000000 0.500000
O O10 0.774995 0.127608 0.920913
O O11 0.299894 0.709788 0.512966
O O12 0.375227 0.574088 0.969147
O O13 0.001731 0.766026 0.715805
O O14 0.227468 0.640769 0.746977
O O15 0.500000 0.500000 0.500000
#
# Coordination Sequence:
#
# PCOD9012520 Si02
#       7
#     2   2   2   2   2   2   2
#     4   9  20  39  66  99 121 171 220 279 318 384
#     4  11  23  40  65  96 135 170 218 263 328 391
#     4  11  24  42  73 100 126 163 224 281 329 380
#     4  10  22  41  66  93 134 168 225 271 326 373
#     4  10  21  40  70  98 125 165 219 278 331 376
#     4  11  24  40  68  97 127 174 216 269 326 384
#     4  12  27  43  64  96 140 182 214 260 325 398
#
# _framework density 23.563958
#
# number of rings (size 3 to 8) (size 9 to 14) (size 15 to 20)
#    0.000    1.429    1.429    3.000    4.000    5.143 
#    0.000    7.143    0.000    0.000    0.000    0.000 
#    0.000    0.000    0.000    0.000    0.000    0.000 
#
# Total GULP energy -78247.385037 kJ/mol
# GULP energy per Si atom -5589.098931 kJ/mol
# Density = 2.351033 g / cm^3
# Si number density = 23.563958 Si / 1000 Ang^3
#
#
#
# Elastic Constant Matrix: (Units=GPa)
#
#
# Indices 1 2 3 4 5 6 
#
# 1 35.1609 23.1094 35.0203 1.7868 0.9809 -2.0295
# 2 23.1094 117.8583 60.0406 -19.3157 -9.3061 -5.6914
# 3 35.0203 60.0406 206.6494 -4.2882 -12.7773 15.4420
# 4 1.7868 -19.3157 -4.2882 40.5052 3.8401 -9.8911
# 5 0.9809 -9.3061 -12.7773 3.8401 25.8982 0.6129
# 6 -2.0295 -5.6914 15.4420 -9.8911 0.6129 33.8201
#
#
#
# Elastic Compliance Matrix: (Units=1/GPa)
#
#
# Indices 1 2 3 4 5 6 
#
# 1 0.038075 -0.005594 -0.005468 -0.003689 -0.005671 0.002864
# 2 -0.005594 0.012569 -0.002801 0.006971 0.002193 0.005057
# 3 -0.005468 -0.002801 0.007076 -0.001759 0.003061 -0.004601
# 4 -0.003689 0.006971 -0.001759 0.030931 -0.003067 0.010857
# 5 -0.005671 0.002193 0.003061 -0.003067 0.041652 -0.003021
# 6 0.002864 0.005057 -0.004601 0.010857 -0.003021 0.035922
#
#
# Mechanical properties :
#
#
# Convention : Reuss Voigt Hill
#
# Bulk Modulus (GPa) = 33.34193 66.22325 49.78259
# Shear Modulus (GPa) = 24.51595 36.14460 30.33028
#
# Velocity S-wave (km/s) = 3.22902 3.92074 3.59158
# Velocity P-wave (km/s) = 5.29928 6.97574 6.19449
#
# Compressibility (1/GPa) = 0.02999227
#
# Stress axis : x y z
#
# Youngs Moduli (GPa) = 26.26409 79.56372 141.31649
#
# Poissons Ratio (x) = 0.44507 0.77277
# Poissons Ratio (y) = 0.14692 0.39589
# Poissons Ratio (z) = 0.14362 0.22289
#
# Static dielectric constant tensor:
#      x y z
#    x 1.949810 -0.021800 0.007310 
#    y -0.021800 1.870030 -0.014340 
#    z 0.007310 -0.014340 1.921350 
# 
# From -- ./inp_files/40430.got.cif
#   From: 2010.05.17/outbox.cif.g08.bks.cpg/sg2_21_cif.got.tgz:40430.got - 2010.06.03 11:33:40.
