data_PCOD9012751
_publ_section_title
;
Structure prediction by ZEFSAII (Michael W. Deem and Ramdas Pophale) SiO2 
 PCOD9012751
Probable space group: P -1
;
_chemical_formula_sum "Si O2"
_cell_formula_units_Z 16
_cell_length_a 24.564943
_cell_length_b 8.929490
_cell_length_c 8.020691
_cell_angle_alpha 144.044698
_cell_angle_beta 44.539559
_cell_angle_gamma 135.877440
_cell_volume 680.841493
_symmetry_space_group_name_H-M "P -1"
_symmetry_group_IT_number 2
_symmetry_cell_setting 'triclinic'
loop_
_space_group_symop_operation_xyz
x,y,z
-x,-y,-z
loop_
_atom_site_type_symbol
_atom_site_label
_atom_site_fract_x
_atom_site_fract_y
_atom_site_fract_z
Si Si1 0.050455 0.817821 0.149196
Si Si2 0.908445 0.030032 0.183753
Si Si3 0.490235 0.689687 0.943461
Si Si4 0.775158 0.150807 0.045304
Si Si5 0.689343 0.549129 0.751554
Si Si6 0.126008 0.538423 0.195633
Si Si7 0.248746 0.383622 0.949422
Si Si8 0.423264 0.700177 0.719307
O O1 0.141526 0.871770 0.074226
O O2 0.064417 0.889300 0.989273
O O3 0.000000 0.000000 0.500000
O O4 0.000000 0.500000 0.000000
O O5 0.925155 0.268209 0.492359
O O6 0.072806 0.224456 0.009036
O O7 0.806807 0.894299 0.266957
O O8 0.409280 0.589093 0.143916
O O9 0.458625 0.704868 0.835291
O O10 0.536900 0.474459 0.637366
O O11 0.550177 0.992641 0.124854
O O12 0.810559 0.339428 0.978896
O O13 0.728622 0.322988 0.404831
O O14 0.718749 0.837790 0.851624
O O15 0.720211 0.639204 0.955028
O O16 0.179829 0.529695 0.234471
O O17 0.326348 0.548398 0.817385
#
# Coordination Sequence:
#
# PCOD9012751 Si02
#       8
#     2   2   2   2   2   2   2   2
#     4  12  25  43  66  94 122 148 188 240 297 353
#     4  10  21  41  60  89 117 157 196 237 284 355
#     4   9  18  30  47  85 116 149 188 251 295 336
#     4  12  23  41  62  91 116 157 198 241 290 349
#     4  11  21  36  64  86 120 154 204 247 293 341
#     4  10  22  38  62  87 120 152 209 237 280 345
#     4   9  21  34  64  85 116 157 202 248 286 346
#     4   9  17  29  50  80 118 146 194 243 300 331
#
# _framework density 23.500330999999999
#
# number of rings (size 3 to 8) (size 9 to 14) (size 15 to 20)
#    0.750    1.000    1.250    3.750    1.750    2.000 
#    0.000    3.750    0.000    4.500    0.000    0.000 
#    0.000    0.000    0.000    0.000    0.000    0.000 
#
# Total GULP energy -89396.168561 kJ/mol
# GULP energy per Si atom -5587.260535 kJ/mol
# Density = 2.344684 g / cm^3
# Si number density = 23.500331 Si / 1000 Ang^3
#
#
#
# Elastic Constant Matrix: (Units=GPa)
#
#
# Indices 1 2 3 4 5 6 
#
# 1 48.4590 19.5116 6.9118 -0.6844 -3.5329 -4.9119
# 2 19.5116 179.9085 69.8484 15.9607 -14.4195 1.2060
# 3 6.9118 69.8484 163.2812 17.9079 -40.8889 5.6178
# 4 -0.6844 15.9607 17.9079 42.4000 -3.3282 -7.3121
# 5 -3.5329 -14.4195 -40.8889 -3.3282 25.6926 -2.9207
# 6 -4.9119 1.2060 5.6178 -7.3121 -2.9207 31.3438
#
#
#
# Elastic Compliance Matrix: (Units=1/GPa)
#
#
# Indices 1 2 3 4 5 6 
#
# 1 0.022305 -0.002611 0.000646 0.002074 0.003384 0.004279
# 2 -0.002611 0.007072 -0.003128 -0.001626 -0.001653 -0.000654
# 3 0.000646 -0.003128 0.012028 -0.002727 0.017010 -0.000985
# 4 0.002074 -0.001626 -0.002727 0.026531 -0.000735 0.006997
# 5 0.003384 -0.001653 0.017010 -0.000735 0.065834 0.003508
# 6 0.004279 -0.000654 -0.000985 0.006997 0.003508 0.034736
#
#
# Mechanical properties :
#
#
# Convention : Reuss Voigt Hill
#
# Bulk Modulus (GPa) = 32.03283 64.91027 48.47155
# Shear Modulus (GPa) = 26.44130 39.57908 33.01019
#
# Velocity S-wave (km/s) = 3.35796 4.10834 3.75196
# Velocity P-wave (km/s) = 5.35676 7.08418 6.28015
#
# Compressibility (1/GPa) = 0.03121797
#
# Stress axis : x y z
#
# Youngs Moduli (GPa) = 44.83293 141.40115 83.14169
#
# Poissons Ratio (x) = 0.36922 -0.05367
# Poissons Ratio (y) = 0.11706 0.26005
# Poissons Ratio (z) = -0.02894 0.44228
#
# Static dielectric constant tensor:
#      x y z
#    x 1.952640 0.025880 -0.034380 
#    y 0.025880 1.894200 0.028250 
#    z -0.034380 0.028250 1.877770 
# 
# From -- ./inp_files/343921.got.cif
#   From: 2010.05.17/outbox.cif.g08.bks.cpg/sg2_172_cif.got.tgz:343921.got - 2010.06.03 11:33:40.
