data_PCOD9012816
_publ_section_title
;
Structure prediction by ZEFSAII (Michael W. Deem and Ramdas Pophale) SiO2 
 PCOD9012816
Probable space group: P -1
;
_chemical_formula_sum "Si O2"
_cell_formula_units_Z 14
_cell_length_a 14.328050
_cell_length_b 8.756882
_cell_length_c 7.161770
_cell_angle_alpha 124.703785
_cell_angle_beta 66.915844
_cell_angle_gamma 72.745607
_cell_volume 493.586162
_symmetry_space_group_name_H-M "P -1"
_symmetry_group_IT_number 2
_symmetry_cell_setting 'triclinic'
loop_
_space_group_symop_operation_xyz
x,y,z
-x,-y,-z
loop_
_atom_site_type_symbol
_atom_site_label
_atom_site_fract_x
_atom_site_fract_y
_atom_site_fract_z
Si Si1 0.674993 0.928298 0.800714
Si Si2 0.748132 0.492641 0.962406
Si Si3 0.452335 0.552505 0.788749
Si Si4 0.047970 0.248347 0.688665
Si Si5 0.791397 0.421963 0.450426
Si Si6 0.893631 0.910714 0.067221
Si Si7 0.641234 0.990188 0.298771
O O1 0.824350 0.848533 0.610544
O O2 0.710360 0.667640 0.552840
O O3 0.614285 0.992301 0.102539
O O4 0.574016 0.199862 0.963346
O O5 0.730866 0.490620 0.752524
O O6 0.908999 0.331228 0.772612
O O7 0.687813 0.391246 0.043031
O O8 0.645976 0.801055 0.290091
O O9 0.500000 0.500000 0.500000
O O10 0.561987 0.279585 0.617226
O O11 0.100198 0.061137 0.694485
O O12 0.000000 0.500000 0.000000
O O13 0.819729 0.173828 0.201220
O O14 0.947718 0.305533 0.268618
O O15 0.804609 0.840459 0.063844
#
# Coordination Sequence:
#
# PCOD9012816 Si02
#       7
#     2   2   2   2   2   2   2
#     4  10  21  41  61  90 129 163 206 249 305 373
#     4  11  22  41  67  90 123 167 207 252 314 368
#     4  10  23  41  65  91 120 166 217 253 293 368
#     4  12  22  38  64  98 127 154 200 264 315 361
#     4  10  22  38  62  94 126 164 201 253 317 374
#     4  11  22  38  61  97 132 156 201 258 315 364
#     4  10  21  41  66  88 126 166 208 250 301 371
#
# _framework density 28.363841000000001
#
# number of rings (size 3 to 8) (size 9 to 14) (size 15 to 20)
#    0.000    1.429    2.857    2.143    0.000    9.143 
#    0.000    3.571    3.143    0.000    0.000    0.000 
#    0.000    0.000    0.000    0.000    0.000    0.000 
#
# Total GULP energy -78390.254796 kJ/mol
# GULP energy per Si atom -5599.303914 kJ/mol
# Density = 2.829928 g / cm^3
# Si number density = 28.363841 Si / 1000 Ang^3
#
#
#
# Elastic Constant Matrix: (Units=GPa)
#
#
# Indices 1 2 3 4 5 6 
#
# 1 55.7219 34.4732 19.3002 -7.3961 -19.3724 4.1976
# 2 34.4732 245.5522 72.1607 26.8092 16.4648 10.8699
# 3 19.3002 72.1607 112.5696 1.6473 -2.8581 5.4702
# 4 -7.3961 26.8092 1.6473 62.2717 23.6200 10.8163
# 5 -19.3724 16.4648 -2.8581 23.6200 29.0264 -2.2449
# 6 4.1976 10.8699 5.4702 10.8163 -2.2449 44.9530
#
#
#
# Elastic Compliance Matrix: (Units=1/GPa)
#
#
# Indices 1 2 3 4 5 6 
#
# 1 0.030219 -0.005270 -0.001108 -0.004419 0.026721 0.000985
# 2 -0.005270 0.006346 -0.003298 -0.000381 -0.007202 -0.000909
# 3 -0.001108 -0.003298 0.011253 0.000337 0.001930 -0.000453
# 4 -0.004419 -0.000381 0.000337 0.026255 -0.024612 -0.007083
# 5 0.026721 -0.007202 0.001930 -0.024612 0.077268 0.008792
# 6 0.000985 -0.000909 -0.000453 -0.007083 0.008792 0.024572
#
#
# Mechanical properties :
#
#
# Convention : Reuss Voigt Hill
#
# Bulk Modulus (GPa) = 35.12682 73.96798 54.54740
# Shear Modulus (GPa) = 24.41965 46.44419 35.43192
#
# Velocity S-wave (km/s) = 2.93737 4.05092 3.53823
# Velocity P-wave (km/s) = 4.89034 6.92928 5.99709
#
# Compressibility (1/GPa) = 0.02846827
#
# Stress axis : x y z
#
# Youngs Moduli (GPa) = 33.09147 157.57686 88.86270
#
# Poissons Ratio (x) = 0.83039 0.09844
# Poissons Ratio (y) = 0.17438 0.29304
# Poissons Ratio (z) = 0.03666 0.51963
#
# Static dielectric constant tensor:
#      x y z
#    x 2.151740 0.010420 0.007030 
#    y 0.010420 2.185910 0.063910 
#    z 0.007030 0.063910 2.255290 
# 
# From -- ./inp_files/186492.got.cif
#   From: 2010.05.17/outbox.cif.g08.bks.cpg/sg2_94_cif.got.tgz:186492.got - 2010.06.03 11:33:40.
