data_PCOD9012127
_publ_section_title
;
Structure prediction by ZEFSAII (Michael W. Deem and Ramdas Pophale) SiO2 
 PCOD9012127
Probable space group: P -1
;
_chemical_formula_sum "Si O2"
_cell_formula_units_Z 14
_cell_length_a 8.874029
_cell_length_b 19.187409
_cell_length_c 9.496424
_cell_angle_alpha 126.589060
_cell_angle_beta 147.952124
_cell_angle_gamma 56.073911
_cell_volume 683.586166
_symmetry_space_group_name_H-M "P -1"
_symmetry_group_IT_number 2
_symmetry_cell_setting 'triclinic'
loop_
_space_group_symop_operation_xyz
x,y,z
-x,-y,-z
loop_
_atom_site_type_symbol
_atom_site_label
_atom_site_fract_x
_atom_site_fract_y
_atom_site_fract_z
Si Si1 0.170405 0.003074 0.284532
Si Si2 0.935070 0.829167 0.400131
Si Si3 0.325357 0.455750 0.690314
Si Si4 0.512176 0.279792 0.194031
Si Si5 0.665513 0.528834 0.797808
Si Si6 0.192766 0.837015 0.302161
Si Si7 0.741394 0.728088 0.703455
O O1 0.079698 0.089926 0.409015
O O2 0.500000 0.000000 0.500000
O O3 0.138938 0.921369 0.263384
O O4 0.000000 0.000000 0.000000
O O5 0.156019 0.750792 0.547457
O O6 0.051642 0.850398 0.362239
O O7 0.630018 0.796881 0.088602
O O8 0.522462 0.478319 0.744666
O O9 0.285004 0.353938 0.516897
O O10 0.000000 0.500000 0.500000
O O11 0.500000 0.500000 0.000000
O O12 0.422585 0.366966 0.138554
O O13 0.370384 0.293038 0.253546
O O14 0.500000 0.500000 0.500000
O O15 0.000000 0.500000 0.000000
O O16 0.524969 0.806959 0.561909
O O17 0.047467 0.759975 0.015565
#
# Coordination Sequence:
#
# PCOD9012127 Si02
#       7
#     2   2   2   2   2   2   2
#     4  12  25  44  64  96 135 164 203 264 337 394
#     4  10  22  42  67  93 125 163 218 264 310 393
#     4  12  26  44  62  99 139 178 219 271 334 396
#     4  10  21  40  68  97 120 165 225 274 309 367
#     4  12  24  42  71  95 132 177 226 272 328 387
#     4  10  22  42  69  93 117 174 216 262 316 385
#     4  10  21  41  68  91 128 166 222 267 316 383
#
# _framework density 20.480228
#
# number of rings (size 3 to 8) (size 9 to 14) (size 15 to 20)
#    0.000    1.143    1.429    4.714    4.000    0.000 
#   15.429    5.714    0.000    0.000    0.000    0.000 
#    0.000    0.000    0.000    0.000    0.000    0.000 
#
# Total GULP energy -78141.517730 kJ/mol
# GULP energy per Si atom -5581.536981 kJ/mol
# Density = 2.043361 g / cm^3
# Si number density = 20.480228 Si / 1000 Ang^3
#
#
#
# Elastic Constant Matrix: (Units=GPa)
#
#
# Indices 1 2 3 4 5 6 
#
# 1 59.0191 20.0362 42.4548 2.2673 -1.0806 -8.6753
# 2 20.0362 84.8471 18.6053 9.5253 -7.7965 -5.4770
# 3 42.4548 18.6053 163.2986 1.4283 -7.7674 -11.9895
# 4 2.2673 9.5253 1.4283 36.4299 -14.3222 -4.8586
# 5 -1.0806 -7.7965 -7.7674 -14.3222 40.9223 3.1531
# 6 -8.6753 -5.4770 -11.9895 -4.8586 3.1531 22.7554
#
#
#
# Elastic Compliance Matrix: (Units=1/GPa)
#
#
# Indices 1 2 3 4 5 6 
#
# 1 0.022758 -0.004046 -0.005149 -0.000084 -0.001577 0.005190
# 2 -0.004046 0.013275 -0.000317 -0.002552 0.001411 0.000745
# 3 -0.005149 -0.000317 0.007707 0.000936 0.001438 0.002022
# 4 -0.000084 -0.002552 0.000936 0.033071 0.010847 0.005405
# 5 -0.001577 0.001411 0.001438 0.010847 0.028824 -0.001181
# 6 0.005190 0.000745 0.002022 0.005405 -0.001181 0.048487
#
#
# Mechanical properties :
#
#
# Convention : Reuss Voigt Hill
#
# Bulk Modulus (GPa) = 40.45580 52.15083 46.30332
# Shear Modulus (GPa) = 27.56574 35.09275 31.32924
#
# Velocity S-wave (km/s) = 3.67272 4.14393 3.91542
# Velocity P-wave (km/s) = 6.14668 6.95812 6.56495
#
# Compressibility (1/GPa) = 0.02471834
#
# Stress axis : x y z
#
# Youngs Moduli (GPa) = 43.94008 75.32945 129.74927
#
# Poissons Ratio (x) = 0.30475 0.66808
# Poissons Ratio (y) = 0.17776 0.04107
# Poissons Ratio (z) = 0.22625 0.02384
#
# Static dielectric constant tensor:
#      x y z
#    x 1.737520 -0.012110 -0.102990 
#    y -0.012110 1.768980 0.036830 
#    z -0.102990 0.036830 1.903100 
# 
# From -- ./inp_files/40357.got.cif
#   From: 2010.05.17/outbox.cif.g08.bks.cpg/sg2_21_cif.got.tgz:40357.got - 2010.06.03 11:33:40.
