data_PCOD9012770
_publ_section_title
;
Structure prediction by ZEFSAII (Michael W. Deem and Ramdas Pophale) SiO2 
 PCOD9012770
Probable space group: P -1
;
_chemical_formula_sum "Si O2"
_cell_formula_units_Z 14
_cell_length_a 9.341907
_cell_length_b 6.327768
_cell_length_c 15.772417
_cell_angle_alpha 119.092408
_cell_angle_beta 62.458930
_cell_angle_gamma 131.910957
_cell_volume 592.581175
_symmetry_space_group_name_H-M "P -1"
_symmetry_group_IT_number 2
_symmetry_cell_setting 'triclinic'
loop_
_space_group_symop_operation_xyz
x,y,z
-x,-y,-z
loop_
_atom_site_type_symbol
_atom_site_label
_atom_site_fract_x
_atom_site_fract_y
_atom_site_fract_z
Si Si1 0.320265 0.873218 0.291825
Si Si2 0.047336 0.760932 0.918006
Si Si3 0.361924 0.214585 0.807215
Si Si4 0.021418 0.097604 0.612363
Si Si5 0.293918 0.699677 0.984114
Si Si6 0.801396 0.462579 0.572862
Si Si7 0.552847 0.571628 0.365471
O O1 0.442274 0.746759 0.201338
O O2 0.096551 0.756644 0.309127
O O3 0.298288 0.792746 0.381350
O O4 0.455059 0.224991 0.312131
O O5 0.181752 0.754337 0.952763
O O6 0.177168 0.893216 0.823874
O O7 0.845050 0.439481 0.921929
O O8 0.000000 0.000000 0.000000
O O9 0.331995 0.458115 0.897506
O O10 0.383431 0.266241 0.711144
O O11 0.249290 0.283585 0.607748
O O12 0.897115 0.796871 0.643329
O O13 0.000000 0.000000 0.500000
O O14 0.500000 0.000000 0.000000
O O15 0.623813 0.402613 0.549404
O O16 0.000000 0.500000 0.500000
#
# Coordination Sequence:
#
# PCOD9012770 Si02
#       7
#     2   2   2   2   2   2   2
#     4  10  22  42  62  90 127 171 218 270 335 388
#     4   9  20  40  65  94 131 165 211 262 319 394
#     4  10  21  43  62  90 137 171 214 268 328 399
#     4  11  23  43  63  94 127 166 232 282 324 394
#     4  10  21  41  69 102 128 168 217 263 323 390
#     4  10  21  41  60  93 124 161 222 273 330 401
#     4  10  24  41  64  90 129 179 216 275 340 377
#
# _framework density 23.625456
#
# number of rings (size 3 to 8) (size 9 to 14) (size 15 to 20)
#    0.000    2.000    1.429    0.857    0.000    7.429 
#    0.000   34.286    0.000    0.000    0.000    0.000 
#    0.000    0.000    0.000    0.000    0.000    0.000 
#
# Total GULP energy -78110.831597 kJ/mol
# GULP energy per Si atom -5579.345114 kJ/mol
# Density = 2.357168 g / cm^3
# Si number density = 23.625456 Si / 1000 Ang^3
#
#
#
# Elastic Constant Matrix: (Units=GPa)
#
#
# Indices 1 2 3 4 5 6 
#
# 1 212.4180 69.0869 58.9342 2.0753 -48.5839 13.9105
# 2 69.0869 164.5720 33.8307 -38.5808 4.2524 3.5470
# 3 58.9342 33.8307 74.2312 -20.5111 -22.3029 -2.0254
# 4 2.0753 -38.5808 -20.5111 41.6886 -8.2700 -3.8234
# 5 -48.5839 4.2524 -22.3029 -8.2700 40.0283 1.4044
# 6 13.9105 3.5470 -2.0254 -3.8234 1.4044 51.1715
#
#
#
# Elastic Compliance Matrix: (Units=1/GPa)
#
#
# Indices 1 2 3 4 5 6 
#
# 1 0.009746 -0.004603 -0.004676 -0.005618 0.008664 -0.003173
# 2 -0.004603 0.010164 0.000024 0.008802 -0.004881 0.001339
# 3 -0.004676 0.000024 0.024681 0.014868 0.011038 0.003054
# 4 -0.005618 0.008802 0.014868 0.041923 0.009038 0.004390
# 5 0.008664 -0.004881 0.011038 0.009038 0.044108 -0.002115
# 6 -0.003173 0.001339 0.003054 0.004390 -0.002115 0.020819
#
#
# Mechanical properties :
#
#
# Convention : Reuss Voigt Hill
#
# Bulk Modulus (GPa) = 38.34067 86.10276 62.22172
# Shear Modulus (GPa) = 27.98839 45.86895 36.92867
#
# Velocity S-wave (km/s) = 3.44564 4.41103 3.95788
# Velocity P-wave (km/s) = 5.66513 7.90360 6.87607
#
# Compressibility (1/GPa) = 0.02608196
#
# Stress axis : x y z
#
# Youngs Moduli (GPa) = 102.60449 98.38295 40.51703
#
# Poissons Ratio (x) = 0.45282 0.18945
# Poissons Ratio (y) = 0.47225 -0.00096
# Poissons Ratio (z) = 0.47977 -0.00234
#
# Static dielectric constant tensor:
#      x y z
#    x 1.924820 0.000010 -0.029430 
#    y 0.000010 1.902310 -0.017070 
#    z -0.029430 -0.017070 1.970770 
# 
# From -- ./inp_files/553827.got.cif
#   From: 2010.05.17/outbox.cif.g08.bks.cpg/sg2_277_cif.got.tgz:553827.got - 2010.06.03 11:33:40.
