data_PCOD9012058
_publ_section_title
;
Structure prediction by ZEFSAII (Michael W. Deem and Ramdas Pophale) SiO2 
 PCOD9012058
Probable space group: P -1
;
_chemical_formula_sum "Si O2"
_cell_formula_units_Z 16
_cell_length_a 15.597494
_cell_length_b 23.194769
_cell_length_c 17.314449
_cell_angle_alpha 158.590874
_cell_angle_beta 31.917619
_cell_angle_gamma 160.367090
_cell_volume 747.872035
_symmetry_space_group_name_H-M "P -1"
_symmetry_group_IT_number 2
_symmetry_cell_setting 'triclinic'
loop_
_space_group_symop_operation_xyz
x,y,z
-x,-y,-z
loop_
_atom_site_type_symbol
_atom_site_label
_atom_site_fract_x
_atom_site_fract_y
_atom_site_fract_z
Si Si1 0.133022 0.490953 0.792175
Si Si2 0.513693 0.301081 0.659019
Si Si3 0.504855 0.816348 0.775764
Si Si4 0.310978 0.239894 0.574906
Si Si5 0.697029 0.823308 0.014633
Si Si6 0.216484 0.215661 0.379183
Si Si7 0.784102 0.819300 0.108821
Si Si8 0.435183 0.875857 0.179673
O O1 0.247796 0.578547 0.727002
O O2 0.091916 0.279408 0.590090
O O3 0.846236 0.346444 0.837709
O O4 0.345586 0.742561 0.997645
O O5 0.348529 0.229529 0.622529
O O6 0.373149 0.241313 0.771551
O O7 0.543014 0.136749 0.423452
O O8 0.754451 0.608805 0.856147
O O9 0.540935 0.771477 0.607515
O O10 0.741686 0.908754 0.757047
O O11 0.500000 0.000000 0.000000
O O12 0.473797 0.524888 0.790626
O O13 0.000000 0.000000 0.500000
O O14 0.673342 0.827087 0.129817
O O15 0.638854 0.924703 0.130799
O O16 0.000000 0.000000 0.000000
O O17 0.500000 0.500000 0.500000
O O18 0.078890 0.076798 0.230193
#
# Coordination Sequence:
#
# PCOD9012058 Si02
#       8
#     2   2   2   2   2   2   2   2
#     4  10  23  40  71 104 136 179 231 292 353 403
#     4  10  22  43  67  96 132 179 219 284 342 412
#     4  11  24  40  67 107 137 173 232 295 344 403
#     4  11  25  45  72 101 142 183 235 286 353 416
#     4  11  28  44  69 102 139 186 231 291 351 421
#     4  10  21  40  68  93 132 179 223 279 342 410
#     4  10  22  45  64  93 135 180 227 266 356 415
#     4  11  23  43  70 103 139 177 239 290 346 418
#
# _framework density 21.394034999999999
#
# number of rings (size 3 to 8) (size 9 to 14) (size 15 to 20)
#    0.000    1.500    1.250    2.250   12.250    0.500 
#    2.250    1.250    0.000    0.000    0.000    0.000 
#    0.000    0.000    0.000    0.000    0.000    0.000 
#
# Total GULP energy -89239.744461 kJ/mol
# GULP energy per Si atom -5577.484029 kJ/mol
# Density = 2.134534 g / cm^3
# Si number density = 21.394035 Si / 1000 Ang^3
#
#
#
# Elastic Constant Matrix: (Units=GPa)
#
#
# Indices 1 2 3 4 5 6 
#
# 1 74.2531 21.1945 46.7704 2.9338 -4.5348 12.5345
# 2 21.1945 83.7804 18.8887 6.8769 6.8503 7.5170
# 3 46.7704 18.8887 139.9074 20.4477 -7.5179 20.7570
# 4 2.9338 6.8769 20.4477 39.1559 -0.4297 9.7843
# 5 -4.5348 6.8503 -7.5179 -0.4297 48.1125 -6.5353
# 6 12.5345 7.5170 20.7570 9.7843 -6.5353 39.9658
#
#
#
# Elastic Compliance Matrix: (Units=1/GPa)
#
#
# Indices 1 2 3 4 5 6 
#
# 1 0.018424 -0.003459 -0.005653 0.002873 0.001000 -0.002731
# 2 -0.003459 0.013337 -0.000356 -0.001613 -0.002464 -0.001247
# 3 -0.005653 -0.000356 0.010073 -0.004206 0.000750 -0.002239
# 4 0.002873 -0.001613 -0.004206 0.029214 -0.000667 -0.005674
# 5 0.001000 -0.002464 0.000750 -0.000667 0.021815 0.003491
# 6 -0.002731 -0.001247 -0.002239 -0.005674 0.003491 0.029235
#
#
# Mechanical properties :
#
#
# Convention : Reuss Voigt Hill
#
# Bulk Modulus (GPa) = 43.67191 52.40535 48.03863
# Shear Modulus (GPa) = 33.63224 39.51932 36.57578
#
# Velocity S-wave (km/s) = 3.96919 4.30258 4.13925
# Velocity P-wave (km/s) = 6.43921 7.01651 6.73405
#
# Compressibility (1/GPa) = 0.02289801
#
# Stress axis : x y z
#
# Youngs Moduli (GPa) = 54.27670 74.97928 99.27861
#
# Poissons Ratio (x) = 0.25935 0.56122
# Poissons Ratio (y) = 0.18774 0.03535
# Poissons Ratio (z) = 0.30682 0.02670
#
# Static dielectric constant tensor:
#      x y z
#    x 1.778650 -0.012050 -0.011200 
#    y -0.012050 1.986700 -0.016310 
#    z -0.011200 -0.016310 1.831200 
# 
# From -- ./inp_files/574421.got.cif
#   From: 2010.05.17/outbox.cif.g08.bks.cpg/sg2_288_cif.got.tgz:574421.got - 2010.06.03 11:33:40.
