data_PCOD9012722
_publ_section_title
;
Structure prediction by ZEFSAII (Michael W. Deem and Ramdas Pophale) SiO2 
 PCOD9012722
Probable space group: P -1
;
_chemical_formula_sum "Si O2"
_cell_formula_units_Z 16
_cell_length_a 11.800103
_cell_length_b 10.610083
_cell_length_c 17.788551
_cell_angle_alpha 133.476278
_cell_angle_beta 145.499248
_cell_angle_gamma 70.108003
_cell_volume 763.448385
_symmetry_space_group_name_H-M "P -1"
_symmetry_group_IT_number 2
_symmetry_cell_setting 'triclinic'
loop_
_space_group_symop_operation_xyz
x,y,z
-x,-y,-z
loop_
_atom_site_type_symbol
_atom_site_label
_atom_site_fract_x
_atom_site_fract_y
_atom_site_fract_z
Si Si1 0.198120 0.440091 0.359701
Si Si2 0.753625 0.470173 0.153860
Si Si3 0.677549 0.542903 0.727718
Si Si4 0.261544 0.231732 0.840897
Si Si5 0.843517 0.796818 0.463533
Si Si6 0.004942 0.992234 0.872607
Si Si7 0.270115 0.007384 0.887051
Si Si8 0.441612 0.173077 0.550750
O O1 0.431398 0.536169 0.579741
O O2 0.287683 0.536328 0.365599
O O3 0.983662 0.458398 0.277616
O O4 0.089714 0.192664 0.195718
O O5 0.755416 0.582600 0.124042
O O6 0.763738 0.612095 0.286542
O O7 0.491228 0.259518 0.934758
O O8 0.643129 0.393438 0.715425
O O9 0.898727 0.777353 0.954774
O O10 0.300933 0.205183 0.939823
O O11 0.009336 0.015549 0.600297
O O12 0.638137 0.797683 0.398625
O O13 0.036563 0.816016 0.638301
O O14 0.214879 0.008902 0.944046
O O15 0.789988 0.911408 0.663235
O O16 0.500000 0.000000 0.000000
O O17 0.500000 0.000000 0.500000
#
# Coordination Sequence:
#
# PCOD9012722 Si02
#       8
#     2   2   2   2   2   2   2   2
#     4  10  23  39  61  92 122 157 211 252 299 368
#     4  11  21  39  63  89 124 160 201 251 314 357
#     4  10  23  41  63  88 123 162 205 255 300 364
#     4   9  22  38  56  89 126 154 203 254 291 377
#     4   9  22  38  61  89 123 159 202 247 306 363
#     4  10  21  41  59  88 123 157 206 255 298 363
#     4   9  19  35  58  85 120 155 197 244 297 356
#     4  10  23  42  61  93 121 159 208 252 299 369
#
# _framework density 20.957540999999999
#
# number of rings (size 3 to 8) (size 9 to 14) (size 15 to 20)
#    0.750    1.500    0.000    1.500    5.250    0.500 
#    4.500    2.500    0.000    0.000    0.000    0.000 
#    0.000    0.000    0.000    0.000    0.000    0.000 
#
# Total GULP energy -89152.135304 kJ/mol
# GULP energy per Si atom -5572.008457 kJ/mol
# Density = 2.090984 g / cm^3
# Si number density = 20.957541 Si / 1000 Ang^3
#
#
#
# Elastic Constant Matrix: (Units=GPa)
#
#
# Indices 1 2 3 4 5 6 
#
# 1 83.7117 34.5837 16.8961 5.3383 18.8861 3.8937
# 2 34.5837 56.0063 13.4345 5.3437 7.4948 -2.6819
# 3 16.8961 13.4345 43.8021 19.4650 4.5285 3.7022
# 4 5.3383 5.3437 19.4650 23.6497 1.0642 11.7264
# 5 18.8861 7.4948 4.5285 1.0642 27.2581 1.1124
# 6 3.8937 -2.6819 3.7022 11.7264 1.1124 31.7518
#
#
#
# Elastic Compliance Matrix: (Units=1/GPa)
#
#
# Indices 1 2 3 4 5 6 
#
# 1 0.019144 -0.009936 -0.004935 0.004345 -0.009723 -0.003875
# 2 -0.009936 0.025188 -0.002689 -0.003745 0.000347 0.005030
# 3 -0.004935 -0.002689 0.041274 -0.036731 -0.001639 0.009188
# 4 0.004345 -0.003745 -0.036731 0.086458 0.001912 -0.028563
# 5 -0.009723 0.000347 -0.001639 0.001912 0.043559 -0.000819
# 6 -0.003875 0.005030 0.009188 -0.028563 -0.000819 0.041901
#
#
# Mechanical properties :
#
#
# Convention : Reuss Voigt Hill
#
# Bulk Modulus (GPa) = 19.80808 34.81652 27.31230
# Shear Modulus (GPa) = 16.15653 24.43898 20.29776
#
# Velocity S-wave (km/s) = 2.77955 3.41855 3.11548
# Velocity P-wave (km/s) = 4.44671 5.67723 5.09923
#
# Compressibility (1/GPa) = 0.05048446
#
# Stress axis : x y z
#
# Youngs Moduli (GPa) = 52.23669 39.70194 24.22827
#
# Poissons Ratio (x) = 0.39449 0.11956
# Poissons Ratio (y) = 0.51904 0.06516
# Poissons Ratio (z) = 0.25777 0.10678
#
# Static dielectric constant tensor:
#      x y z
#    x 1.785270 0.022550 0.010330 
#    y 0.022550 1.761250 0.022700 
#    z 0.010330 0.022700 1.795650 
# 
# From -- ./inp_files/594986.got.cif
#   From: 2010.05.17/outbox.cif.g08.bks.cpg/sg2_298_cif.got.tgz:594986.got - 2010.06.03 11:33:40.
