data_PCOD9012184
_publ_section_title
;
Structure prediction by ZEFSAII (Michael W. Deem and Ramdas Pophale) SiO2 
 PCOD9012184
Probable space group: P -1
;
_chemical_formula_sum "Si O2"
_cell_formula_units_Z 16
_cell_length_a 13.452237
_cell_length_b 16.979983
_cell_length_c 13.601942
_cell_angle_alpha 51.373663
_cell_angle_beta 44.875950
_cell_angle_gamma 18.301066
_cell_volume 671.632067
_symmetry_space_group_name_H-M "P -1"
_symmetry_group_IT_number 2
_symmetry_cell_setting 'triclinic'
loop_
_space_group_symop_operation_xyz
x,y,z
-x,-y,-z
loop_
_atom_site_type_symbol
_atom_site_label
_atom_site_fract_x
_atom_site_fract_y
_atom_site_fract_z
Si Si1 0.483092 0.624430 0.378337
Si Si2 0.933410 0.434852 0.050616
Si Si3 0.594020 0.124571 0.071964
Si Si4 0.599009 0.906293 0.192369
Si Si5 0.411746 0.583595 0.854100
Si Si6 0.675833 0.518051 0.544109
Si Si7 0.637603 0.575227 0.867755
Si Si8 0.226652 0.991473 0.501587
O O1 0.500000 0.500000 0.500000
O O2 0.785656 0.459733 0.218794
O O3 0.556792 0.624508 0.433042
O O4 0.094399 0.877100 0.400242
O O5 0.616540 0.662535 0.017711
O O6 0.000000 0.500000 0.000000
O O7 0.254567 0.186618 0.948827
O O8 0.567862 0.186221 0.151363
O O9 0.997671 0.855506 0.962709
O O10 0.421724 0.128291 0.174723
O O11 0.952840 0.670992 0.197337
O O12 0.365133 0.962768 0.332452
O O13 0.448841 0.584652 0.713310
O O14 0.607549 0.543060 0.809008
O O15 0.533758 0.396955 0.960202
O O16 0.047535 0.205820 0.519927
O O17 0.560540 0.702356 0.530669
#
# Coordination Sequence:
#
# PCOD9012184 Si02
#       8
#     2   2   2   2   2   2   2   2
#     4  10  24  41  65  96 139 183 227 278 339 412
#     4  11  24  42  65  96 135 178 232 280 332 401
#     4  10  22  37  68  93 132 168 227 281 343 394
#     4  10  24  41  67  95 132 177 225 285 336 407
#     4  10  21  40  68  99 124 175 222 290 336 414
#     4  11  25  42  67  94 134 178 225 274 341 405
#     4   9  21  41  67  97 131 162 232 282 348 393
#     4  11  25  44  67  96 142 180 226 275 342 413
#
# _framework density 23.822565999999998
#
# number of rings (size 3 to 8) (size 9 to 14) (size 15 to 20)
#    0.000    1.750    0.000    2.250   19.250    1.500 
#    2.250    1.250    0.000    0.000    0.000    0.000 
#    0.000    0.000    0.000    0.000    0.000    0.000 
#
# Total GULP energy -89127.314613 kJ/mol
# GULP energy per Si atom -5570.457163 kJ/mol
# Density = 2.376835 g / cm^3
# Si number density = 23.822566 Si / 1000 Ang^3
#
#
#
# Elastic Constant Matrix: (Units=GPa)
#
#
# Indices 1 2 3 4 5 6 
#
# 1 101.1309 20.5663 17.3161 2.0938 -7.7247 17.9238
# 2 20.5663 90.6296 19.4250 -6.3048 -0.9959 32.3452
# 3 17.3161 19.4250 121.6446 -6.0869 -10.8268 9.4806
# 4 2.0938 -6.3048 -6.0869 28.0683 0.1003 -2.3828
# 5 -7.7247 -0.9959 -10.8268 0.1003 13.5377 1.7440
# 6 17.9238 32.3452 9.4806 -2.3828 1.7440 42.1009
#
#
#
# Elastic Compliance Matrix: (Units=1/GPa)
#
#
# Indices 1 2 3 4 5 6 
#
# 1 0.011502 -0.000946 -0.000641 -0.001606 0.006558 -0.004388
# 2 -0.000946 0.015735 -0.001287 0.002362 0.001027 -0.011305
# 3 -0.000641 -0.001287 0.009314 0.001665 0.007110 -0.001036
# 4 -0.001606 0.002362 0.001665 0.036686 0.000246 0.000560
# 5 0.006558 0.001027 0.007110 0.000246 0.084487 -0.008668
# 6 -0.004388 -0.011305 -0.001036 0.000560 -0.008668 0.034930
#
#
# Mechanical properties :
#
#
# Convention : Reuss Voigt Hill
#
# Bulk Modulus (GPa) = 32.46497 47.55778 40.01138
# Shear Modulus (GPa) = 23.96128 33.81455 28.88791
#
# Velocity S-wave (km/s) = 3.17491 3.77162 3.48606
# Velocity P-wave (km/s) = 5.20552 6.24288 5.74765
#
# Compressibility (1/GPa) = 0.03080243
#
# Stress axis : x y z
#
# Youngs Moduli (GPa) = 86.93944 63.55331 107.36163
#
# Poissons Ratio (x) = 0.06014 0.06880
# Poissons Ratio (y) = 0.08228 0.13820
# Poissons Ratio (z) = 0.05572 0.08181
#
# Static dielectric constant tensor:
#      x y z
#    x 2.097410 0.035350 0.038910 
#    y 0.035350 2.051710 0.009610 
#    z 0.038910 0.009610 1.875130 
# 
# From -- ./inp_files/535008.got.cif
#   From: 2010.05.17/outbox.cif.g08.bks.cpg/sg2_268_cif.got.tgz:535008.got - 2010.06.03 11:33:40.
