data_PCOD9012030
_publ_section_title
;
Structure prediction by ZEFSAII (Michael W. Deem and Ramdas Pophale) SiO2 
 PCOD9012030
Probable space group: P -1
;
_chemical_formula_sum "Si O2"
_cell_formula_units_Z 16
_cell_length_a 8.198491
_cell_length_b 14.006594
_cell_length_c 15.799978
_cell_angle_alpha 151.411918
_cell_angle_beta 108.789309
_cell_angle_gamma 86.423460
_cell_volume 718.045715
_symmetry_space_group_name_H-M "P -1"
_symmetry_group_IT_number 2
_symmetry_cell_setting 'triclinic'
loop_
_space_group_symop_operation_xyz
x,y,z
-x,-y,-z
loop_
_atom_site_type_symbol
_atom_site_label
_atom_site_fract_x
_atom_site_fract_y
_atom_site_fract_z
Si Si1 0.584580 0.507056 0.915511
Si Si2 0.288923 0.898221 0.928936
Si Si3 0.924380 0.713565 0.001062
Si Si4 0.997881 0.186045 0.325061
Si Si5 0.236833 0.127481 0.629053
Si Si6 0.270236 0.330049 0.332927
Si Si7 0.984924 0.463804 0.282899
Si Si8 0.195412 0.743515 0.207890
O O1 0.348665 0.344960 0.751797
O O2 0.645857 0.338048 0.844783
O O3 0.715225 0.567377 0.899659
O O4 0.672357 0.743501 0.166202
O O5 0.142899 0.771776 0.728869
O O6 0.227986 0.724567 0.862166
O O7 0.500000 0.000000 0.000000
O O8 0.242155 0.093326 0.106392
O O9 0.112459 0.833978 0.189499
O O10 0.917798 0.918706 0.111793
O O11 0.976194 0.565399 0.830190
O O12 0.994545 0.297389 0.499586
O O13 0.200175 0.294532 0.391050
O O14 0.263386 0.920807 0.434225
O O15 0.000000 0.000000 0.500000
O O16 0.500000 0.500000 0.500000
O O17 0.143159 0.414762 0.322421
O O18 0.000000 0.500000 0.000000
#
# Coordination Sequence:
#
# PCOD9012030 Si02
#       8
#     2   2   2   2   2   2   2   2
#     4  10  24  41  69  97 126 174 220 261 329 393
#     4  11  20  39  64  89 119 166 217 256 307 390
#     4  11  22  41  59  94 133 160 212 275 328 377
#     4  11  22  40  62  88 125 168 208 264 319 371
#     4  11  20  42  71  94 122 166 223 265 314 393
#     4  11  20  39  65  88 124 169 216 258 313 388
#     4  11  22  40  62  90 125 166 211 266 322 373
#     4  10  21  40  68  91 128 172 214 260 327 392
#
# _framework density 22.282702
#
# number of rings (size 3 to 8) (size 9 to 14) (size 15 to 20)
#    0.000    1.250    5.000    4.125    0.000    3.000 
#    2.250    2.500    0.000    0.000    0.000    0.000 
#    0.000    0.000    0.000    0.000    0.000    0.000 
#
# Total GULP energy -89228.891619 kJ/mol
# GULP energy per Si atom -5576.805726 kJ/mol
# Density = 2.223199 g / cm^3
# Si number density = 22.282702 Si / 1000 Ang^3
#
#
#
# Elastic Constant Matrix: (Units=GPa)
#
#
# Indices 1 2 3 4 5 6 
#
# 1 108.6616 23.6296 42.8411 0.3074 -1.2055 45.8509
# 2 23.6296 55.0515 14.4985 1.6988 6.1198 33.4596
# 3 42.8411 14.4985 139.2272 0.6242 -19.1592 25.0125
# 4 0.3074 1.6988 0.6242 21.7560 16.3892 -0.2006
# 5 -1.2055 6.1198 -19.1592 16.3892 54.0884 5.2797
# 6 45.8509 33.4596 25.0125 -0.2006 5.2797 44.1766
#
#
#
# Elastic Compliance Matrix: (Units=1/GPa)
#
#
# Indices 1 2 3 4 5 6 
#
# 1 0.018326 0.006575 -0.001870 -0.002444 0.002007 -0.023192
# 2 0.006575 0.036386 0.000572 -0.003879 0.000807 -0.034821
# 3 -0.001870 0.000572 0.009126 -0.003869 0.004712 -0.004240
# 4 -0.002444 -0.003879 -0.003869 0.062223 -0.020859 0.010441
# 5 0.002007 0.000807 0.004712 -0.020859 0.027282 -0.008717
# 6 -0.023192 -0.034821 -0.004240 0.010441 -0.008717 0.076571
#
#
# Mechanical properties :
#
#
# Convention : Reuss Voigt Hill
#
# Bulk Modulus (GPa) = 13.44251 51.65319 32.54785
# Shear Modulus (GPa) = 20.47862 38.80227 29.64044
#
# Velocity S-wave (km/s) = 3.03485 4.17749 3.65115
# Velocity P-wave (km/s) = 4.28091 6.81907 5.69324
#
# Compressibility (1/GPa) = 0.07439089
#
# Stress axis : x y z
#
# Youngs Moduli (GPa) = 54.56786 27.48335 109.57783
#
# Poissons Ratio (x) = -0.18070 0.20491
# Poissons Ratio (y) = -0.35878 -0.06266
# Poissons Ratio (z) = 0.10204 -0.01571
#
# Static dielectric constant tensor:
#      x y z
#    x 1.924190 -0.015780 -0.016590 
#    y -0.015780 1.970070 -0.010910 
#    z -0.016590 -0.010910 1.973040 
# 
# From -- ./inp_files/505870.got.cif
#   From: 2010.05.17/outbox.cif.g08.bks.cpg/sg2_253_cif.got.tgz:505870.got - 2010.06.03 11:33:40.
