data_PCOD9012775
_publ_section_title
;
Structure prediction by ZEFSAII (Michael W. Deem and Ramdas Pophale) SiO2 
 PCOD9012775
Probable space group: P -1
;
_chemical_formula_sum "Si O2"
_cell_formula_units_Z 13
_cell_length_a 7.134898
_cell_length_b 8.527490
_cell_length_c 10.228222
_cell_angle_alpha 118.229640
_cell_angle_beta 88.626263
_cell_angle_gamma 109.005877
_cell_volume 512.046381
_symmetry_space_group_name_H-M "P -1"
_symmetry_group_IT_number 2
_symmetry_cell_setting 'triclinic'
loop_
_space_group_symop_operation_xyz
x,y,z
-x,-y,-z
loop_
_atom_site_type_symbol
_atom_site_label
_atom_site_fract_x
_atom_site_fract_y
_atom_site_fract_z
Si Si1 0.300912 0.090305 0.314715
Si Si2 0.545404 0.831683 0.215642
Si Si3 0.890677 0.496873 0.868807
Si Si4 0.000000 0.000000 0.500000
Si Si5 0.092426 0.645297 0.440460
Si Si6 0.530378 0.622389 0.372333
Si Si7 0.688997 0.770114 0.905303
O O1 0.355557 0.300258 0.463526
O O2 0.259265 0.087139 0.160903
O O3 0.123786 0.959517 0.356053
O O4 0.484451 0.015685 0.304393
O O5 0.335385 0.651202 0.155363
O O6 0.652354 0.782021 0.323796
O O7 0.633040 0.832816 0.070670
O O8 0.010665 0.445317 0.729558
O O9 0.864837 0.691580 0.903037
O O10 0.000000 0.500000 0.000000
O O11 0.933718 0.154576 0.470334
O O12 0.316338 0.645303 0.410896
O O13 0.000000 0.500000 0.500000
O O14 0.486994 0.415875 0.229411
#
# Coordination Sequence:
#
# PCOD9012775 Si02
#       7
#     2   2   2   1   2   2   2
#     4  12  23  40  64  96 130 163 215 269 323 380
#     4  10  21  41  60  94 126 162 211 263 317 388
#     4  10  21  41  61  87 125 165 209 255 323 386
#     4  12  22  38  64  90 134 168 208 266 332 366
#     4  10  22  41  63  94 130 163 217 269 314 389
#     4  10  21  41  64  92 123 170 218 255 325 388
#     4  10  22  41  65  93 123 166 215 262 317 394
#
# _framework density 25.388324000000001
#
# number of rings (size 3 to 8) (size 9 to 14) (size 15 to 20)
#    0.000    1.846    3.077    5.077    0.000    3.692 
#    0.000    0.769    0.000    0.000    0.000    0.000 
#    0.000    0.000    0.000    0.000    0.000    0.000 
#
# Total GULP energy -72440.569404 kJ/mol
# GULP energy per Si atom -5572.351493 kJ/mol
# Density = 2.533054 g / cm^3
# Si number density = 25.388324 Si / 1000 Ang^3
#
#
#
# Elastic Constant Matrix: (Units=GPa)
#
#
# Indices 1 2 3 4 5 6 
#
# 1 39.6174 12.8206 8.8182 0.0067 -15.3953 -5.7881
# 2 12.8206 110.5401 41.0573 -26.9201 -12.2136 -5.8163
# 3 8.8182 41.0573 175.2617 -41.7246 -25.6311 5.3509
# 4 0.0067 -26.9201 -41.7246 54.6563 -10.9615 -1.8637
# 5 -15.3953 -12.2136 -25.6311 -10.9615 29.1204 -3.1820
# 6 -5.7881 -5.8163 5.3509 -1.8637 -3.1820 29.0424
#
#
#
# Elastic Compliance Matrix: (Units=1/GPa)
#
#
# Indices 1 2 3 4 5 6 
#
# 1 0.036344 -0.000027 0.003896 0.008716 0.027010 0.010039
# 2 -0.000027 0.012071 0.000227 0.007989 0.008674 0.003833
# 3 0.003896 0.000227 0.010376 0.011219 0.015658 0.001346
# 4 0.008716 0.007989 0.011219 0.037618 0.032788 0.007276
# 5 0.027010 0.008674 0.015658 0.032788 0.080032 0.015108
# 6 0.010039 0.003833 0.001346 0.007276 0.015108 0.039075
#
#
# Mechanical properties :
#
#
# Convention : Reuss Voigt Hill
#
# Bulk Modulus (GPa) = 14.92904 50.09016 32.50960
# Shear Modulus (GPa) = 21.77199 40.07870 30.92535
#
# Velocity S-wave (km/s) = 2.93159 3.97750 3.49391
# Velocity P-wave (km/s) = 4.16557 6.39269 5.39530
#
# Compressibility (1/GPa) = 0.06698354
#
# Stress axis : x y z
#
# Youngs Moduli (GPa) = 27.51470 82.84277 96.37503
#
# Poissons Ratio (x) = 0.00226 -0.37550
# Poissons Ratio (y) = 0.00075 -0.02189
# Poissons Ratio (z) = -0.10721 -0.01881
#
# Static dielectric constant tensor:
#      x y z
#    x 1.934070 0.065190 0.046630 
#    y 0.065190 2.082270 0.047180 
#    z 0.046630 0.047180 2.011280 
# 
# From -- ./inp_files/144935.got.cif
#   From: 2010.05.17/outbox.cif.g08.bks.cpg/sg2_73_cif.got.tgz:144935.got - 2010.06.03 11:33:40.
