data_PCOD9012072
_publ_section_title
;
Structure prediction by ZEFSAII (Michael W. Deem and Ramdas Pophale) SiO2 
 PCOD9012072
Probable space group: P -1
;
_chemical_formula_sum "Si O2"
_cell_formula_units_Z 14
_cell_length_a 7.729948
_cell_length_b 8.833263
_cell_length_c 11.626808
_cell_angle_alpha 128.997377
_cell_angle_beta 105.764396
_cell_angle_gamma 69.287286
_cell_volume 575.790876
_symmetry_space_group_name_H-M "P -1"
_symmetry_group_IT_number 2
_symmetry_cell_setting 'triclinic'
loop_
_space_group_symop_operation_xyz
x,y,z
-x,-y,-z
loop_
_atom_site_type_symbol
_atom_site_label
_atom_site_fract_x
_atom_site_fract_y
_atom_site_fract_z
Si Si1 0.054613 0.109480 0.171888
Si Si2 0.486286 0.587607 0.668577
Si Si3 0.325163 0.408790 0.074759
Si Si4 0.884883 0.527115 0.375487
Si Si5 0.246947 0.000692 0.781682
Si Si6 0.656802 0.883108 0.384403
Si Si7 0.368109 0.758510 0.116284
O O1 0.007340 0.341063 0.238572
O O2 0.922855 0.077945 0.237664
O O3 0.255629 0.986697 0.188986
O O4 0.000000 0.000000 0.000000
O O5 0.500000 0.500000 0.500000
O O6 0.657479 0.532455 0.761548
O O7 0.316173 0.510493 0.653202
O O8 0.425890 0.830177 0.772506
O O9 0.255139 0.610093 0.081504
O O10 0.238953 0.221172 0.938862
O O11 0.537580 0.324086 0.025984
O O12 0.832514 0.743867 0.412992
O O13 0.000000 0.500000 0.500000
O O14 0.266655 0.999600 0.646833
O O15 0.541413 0.754811 0.228821
O O16 0.500000 0.000000 0.500000
#
# Coordination Sequence:
#
# PCOD9012072 Si02
#       7
#     2   2   2   2   2   2   2
#     4  11  25  43  65  95 138 172 213 271 338 386
#     4  11  22  41  63  96 129 168 215 271 325 390
#     4  10  21  40  68  94 128 168 227 268 318 393
#     4  11  24  44  63  93 130 172 215 268 331 391
#     4  10  24  39  65  99 129 168 222 271 326 392
#     4  11  22  43  71  95 131 175 224 271 326 391
#     4  10  21  40  69  93 126 175 220 268 326 387
#
# _framework density 24.314382999999999
#
# number of rings (size 3 to 8) (size 9 to 14) (size 15 to 20)
#    0.000    1.429    1.429    3.857    4.000    4.000 
#    2.571    2.143    0.000    0.000    0.000    0.000 
#    0.000    0.000    0.000    0.000    0.000    0.000 
#
# Total GULP energy -78209.663942 kJ/mol
# GULP energy per Si atom -5586.404567 kJ/mol
# Density = 2.425904 g / cm^3
# Si number density = 24.314383 Si / 1000 Ang^3
#
#
#
# Elastic Constant Matrix: (Units=GPa)
#
#
# Indices 1 2 3 4 5 6 
#
# 1 70.1369 24.2212 5.5872 -7.1662 -7.3594 13.4105
# 2 24.2212 121.0489 3.1899 -12.5817 -14.0970 -6.0535
# 3 5.5872 3.1899 106.6817 -17.9323 -13.8999 -2.0670
# 4 -7.1662 -12.5817 -17.9323 39.0341 1.0360 -4.0994
# 5 -7.3594 -14.0970 -13.8999 1.0360 31.0358 -0.1902
# 6 13.4105 -6.0535 -2.0670 -4.0994 -0.1902 36.7167
#
#
#
# Elastic Compliance Matrix: (Units=1/GPa)
#
#
# Indices 1 2 3 4 5 6 
#
# 1 0.017081 -0.003367 -0.000449 0.001083 0.002243 -0.006686
# 2 -0.003367 0.009887 0.001025 0.003279 0.004062 0.003305
# 3 -0.000449 0.001025 0.010954 0.005310 0.005097 0.001569
# 4 0.001083 0.003279 0.005310 0.029625 0.003158 0.003768
# 5 0.002243 0.004062 0.005097 0.003158 0.036780 0.000681
# 6 -0.006686 0.003305 0.001569 0.003768 0.000681 0.030735
#
#
# Mechanical properties :
#
#
# Convention : Reuss Voigt Hill
#
# Bulk Modulus (GPa) = 30.92161 40.42934 35.67547
# Shear Modulus (GPa) = 33.02020 39.01526 36.01773
#
# Velocity S-wave (km/s) = 3.68917 4.01011 3.85299
# Velocity P-wave (km/s) = 5.55803 6.17294 5.87354
#
# Compressibility (1/GPa) = 0.03233984
#
# Stress axis : x y z
#
# Youngs Moduli (GPa) = 58.54575 101.14389 91.29431
#
# Poissons Ratio (x) = 0.34051 0.04101
# Poissons Ratio (y) = 0.19710 -0.09359
# Poissons Ratio (z) = 0.02630 -0.10369
#
# Static dielectric constant tensor:
#      x y z
#    x 1.947220 0.029930 -0.016320 
#    y 0.029930 2.096680 0.006760 
#    z -0.016320 0.006760 1.977170 
# 
# From -- ./inp_files/158061.got.cif
#   From: 2010.05.17/outbox.cif.g08.bks.cpg/sg2_80_cif.got.tgz:158061.got - 2010.06.03 11:33:40.
