data_PCOD9012511
_publ_section_title
;
Structure prediction by ZEFSAII (Michael W. Deem and Ramdas Pophale) SiO2 
 PCOD9012511
Probable space group: P -1
;
_chemical_formula_sum "Si O2"
_cell_formula_units_Z 16
_cell_length_a 5.341162
_cell_length_b 27.568535
_cell_length_c 7.490818
_cell_angle_alpha 133.883569
_cell_angle_beta 115.229878
_cell_angle_gamma 85.885296
_cell_volume 675.491934
_symmetry_space_group_name_H-M "P -1"
_symmetry_group_IT_number 2
_symmetry_cell_setting 'triclinic'
loop_
_space_group_symop_operation_xyz
x,y,z
-x,-y,-z
loop_
_atom_site_type_symbol
_atom_site_label
_atom_site_fract_x
_atom_site_fract_y
_atom_site_fract_z
Si Si1 0.578126 0.286257 0.598295
Si Si2 0.307099 0.823923 0.867194
Si Si3 0.779432 0.425735 0.422339
Si Si4 0.469741 0.288843 0.200541
Si Si5 0.315585 0.062835 0.238435
Si Si6 0.877827 0.580137 0.846086
Si Si7 0.670071 0.973383 0.258263
Si Si8 0.257121 0.213433 0.620346
O O1 0.581843 0.207711 0.354056
O O2 0.385167 0.298148 0.403577
O O3 0.498819 0.280117 0.765207
O O4 0.892993 0.347410 0.820246
O O5 0.359083 0.769036 0.884444
O O6 0.978433 0.809897 0.670788
O O7 0.477222 0.907366 0.152504
O O8 0.686001 0.362981 0.378567
O O9 0.904707 0.506811 0.743274
O O10 0.457239 0.422824 0.240715
O O11 0.009934 0.419758 0.326189
O O12 0.206399 0.249295 0.881758
O O13 0.311645 0.139882 0.490228
O O14 0.546771 0.037790 0.355840
O O15 0.372256 0.060397 0.038934
O O16 0.000000 0.000000 0.000000
O O17 0.000000 0.000000 0.500000
#
# Coordination Sequence:
#
# PCOD9012511 Si02
#       8
#     2   2   2   2   2   2   2   2
#     4  10  23  42  63  99 132 173 218 284 334 404
#     4  10  24  43  62  98 129 168 225 280 332 409
#     4  10  21  41  66 103 133 190 225 277 353 416
#     4  10  24  40  67 102 124 182 223 268 353 409
#     4  11  24  41  67  92 122 181 216 270 356 403
#     4  10  21  40  70  96 144 177 229 288 341 408
#     4  11  25  44  62  93 134 165 224 284 334 415
#     4  12  22  46  67  91 137 168 227 287 334 410
#
# _framework density 23.686440999999999
#
# number of rings (size 3 to 8) (size 9 to 14) (size 15 to 20)
#    0.750    0.750    3.750    0.750    1.750    3.000 
#    4.500    0.000    0.000    5.250    0.000    0.000 
#    0.000    0.000    0.000    0.000    0.000    0.000 
#
# Total GULP energy -89158.648780 kJ/mol
# GULP energy per Si atom -5572.415549 kJ/mol
# Density = 2.363253 g / cm^3
# Si number density = 23.686441 Si / 1000 Ang^3
#
#
#
# Elastic Constant Matrix: (Units=GPa)
#
#
# Indices 1 2 3 4 5 6 
#
# 1 50.0659 8.8015 0.6923 -5.3187 1.1971 -1.0221
# 2 8.8015 148.2442 50.2514 27.8811 2.3604 -6.8426
# 3 0.6923 50.2514 72.2985 -1.7754 13.2870 -4.9480
# 4 -5.3187 27.8811 -1.7754 29.4666 2.0443 7.1023
# 5 1.1971 2.3604 13.2870 2.0443 38.8211 -5.2194
# 6 -1.0221 -6.8426 -4.9480 7.1023 -5.2194 26.5372
#
#
#
# Elastic Compliance Matrix: (Units=1/GPa)
#
#
# Indices 1 2 3 4 5 6 
#
# 1 0.021549 -0.003991 0.003026 0.008574 -0.002227 -0.002368
# 2 -0.003991 0.013799 -0.010336 -0.016347 0.004591 0.006755
# 3 0.003026 -0.010336 0.022606 0.013108 -0.008361 -0.003486
# 4 0.008574 -0.016347 0.013108 0.056833 -0.009232 -0.018467
# 5 -0.002227 0.004591 -0.008361 -0.009232 0.029959 0.007902
# 6 -0.002368 0.006755 -0.003486 -0.018467 0.007902 0.045180
#
#
# Mechanical properties :
#
#
# Convention : Reuss Voigt Hill
#
# Bulk Modulus (GPa) = 28.28695 43.34433 35.81564
# Shear Modulus (GPa) = 22.29018 33.02255 27.65637
#
# Velocity S-wave (km/s) = 3.07099 3.73789 3.42073
# Velocity P-wave (km/s) = 4.95407 6.08013 5.54576
#
# Compressibility (1/GPa) = 0.03535199
#
# Stress axis : x y z
#
# Youngs Moduli (GPa) = 46.40529 72.46740 44.23519
#
# Poissons Ratio (x) = 0.28925 -0.13384
# Poissons Ratio (y) = 0.18522 0.45721
# Poissons Ratio (z) = -0.14041 0.74901
#
# Static dielectric constant tensor:
#      x y z
#    x 2.095100 0.038240 -0.018450 
#    y 0.038240 2.022040 -0.101250 
#    z -0.018450 -0.101250 1.895120 
# 
# From -- ./inp_files/143220.got.cif
#   From: 2010.05.17/outbox.cif.g08.bks.cpg/sg2_72_cif.got.tgz:143220.got - 2010.06.03 11:33:40.
