data_PCOD9012341
_publ_section_title
;
Structure prediction by ZEFSAII (Michael W. Deem and Ramdas Pophale) SiO2 
 PCOD9012341
Probable space group: P -1
;
_chemical_formula_sum "Si O2"
_cell_formula_units_Z 13
_cell_length_a 12.787473
_cell_length_b 6.387203
_cell_length_c 8.884553
_cell_angle_alpha 79.325536
_cell_angle_beta 112.390364
_cell_angle_gamma 115.877275
_cell_volume 603.516664
_symmetry_space_group_name_H-M "P -1"
_symmetry_group_IT_number 2
_symmetry_cell_setting 'triclinic'
loop_
_space_group_symop_operation_xyz
x,y,z
-x,-y,-z
loop_
_atom_site_type_symbol
_atom_site_label
_atom_site_fract_x
_atom_site_fract_y
_atom_site_fract_z
Si Si1 0.605405 0.448422 0.977685
Si Si2 0.298182 0.455030 0.417470
Si Si3 0.280165 0.681205 0.663118
Si Si4 0.078966 0.604836 0.179968
Si Si5 0.478190 0.882771 0.303595
Si Si6 0.000000 0.500000 0.500000
Si Si7 0.279442 0.103213 0.217942
O O1 0.683370 0.367084 0.146218
O O2 0.500000 0.500000 0.000000
O O3 0.541222 0.243318 0.850748
O O4 0.693365 0.681586 0.908758
O O5 0.281571 0.473097 0.583243
O O6 0.189013 0.513112 0.273269
O O7 0.427514 0.664978 0.417964
O O8 0.288779 0.218388 0.371272
O O9 0.145174 0.672552 0.571255
O O10 0.385829 0.921244 0.634083
O O11 0.007956 0.542491 0.309237
O O12 0.150413 0.883202 0.161577
O O13 0.000000 0.500000 0.000000
O O14 0.386102 0.012046 0.256490
#
# Coordination Sequence:
#
# PCOD9012341 Si02
#       7
#     2   2   2   2   2   1   2
#     4  11  23  40  65 107 132 170 226 278 345 403
#     4   9  22  42  62 101 127 171 228 273 353 392
#     4  11  22  43  65  95 141 171 224 284 326 409
#     4  10  23  45  69  92 136 186 227 282 332 405
#     4  10  21  40  69  95 130 177 218 279 347 393
#     4  10  26  44  66  98 130 186 232 264 340 406
#     4  10  22  42  66  99 130 169 225 274 345 401
#
# _framework density 21.540417000000001
#
# number of rings (size 3 to 8) (size 9 to 14) (size 15 to 20)
#    0.000    1.846    1.538    0.923    6.462    1.231 
#   11.077    1.538    0.000    0.000    0.000    0.000 
#    0.000    0.000    0.000    0.000    0.000    0.000 
#
# Total GULP energy -72404.356532 kJ/mol
# GULP energy per Si atom -5569.565887 kJ/mol
# Density = 2.149139 g / cm^3
# Si number density = 21.540417 Si / 1000 Ang^3
#
#
#
# Elastic Constant Matrix: (Units=GPa)
#
#
# Indices 1 2 3 4 5 6 
#
# 1 61.0148 50.2802 27.5752 19.5663 -8.6842 23.9033
# 2 50.2802 134.1057 42.0827 27.1796 -10.3586 16.3646
# 3 27.5752 42.0827 115.1758 18.2646 -13.1909 11.3178
# 4 19.5663 27.1796 18.2646 39.0799 -1.9274 3.1064
# 5 -8.6842 -10.3586 -13.1909 -1.9274 36.6023 5.5488
# 6 23.9033 16.3646 11.3178 3.1064 5.5488 46.2318
#
#
#
# Elastic Compliance Matrix: (Units=1/GPa)
#
#
# Indices 1 2 3 4 5 6 
#
# 1 0.032768 -0.007808 -0.001441 -0.008856 0.006707 -0.014036
# 2 -0.007808 0.011609 -0.001840 -0.003322 0.000513 0.000540
# 3 -0.001441 -0.001840 0.010610 -0.002699 0.003029 -0.001384
# 4 -0.008856 -0.003322 -0.002699 0.033087 -0.002961 0.004548
# 5 0.006707 0.000513 0.003029 -0.002961 0.031196 -0.007936
# 6 -0.014036 0.000540 -0.001384 0.004548 -0.007936 0.029682
#
#
# Mechanical properties :
#
#
# Convention : Reuss Voigt Hill
#
# Bulk Modulus (GPa) = 30.47807 61.13028 45.80418
# Shear Modulus (GPa) = 27.46278 37.07335 32.26806
#
# Velocity S-wave (km/s) = 3.57451 4.15312 3.87463
# Velocity P-wave (km/s) = 5.58714 7.17209 6.42864
#
# Compressibility (1/GPa) = 0.03281047
#
# Stress axis : x y z
#
# Youngs Moduli (GPa) = 30.51754 86.14323 94.24801
#
# Poissons Ratio (x) = 0.67260 0.13578
# Poissons Ratio (y) = 0.23828 0.17338
# Poissons Ratio (z) = 0.04397 0.15847
#
# Static dielectric constant tensor:
#      x y z
#    x 1.787980 -0.029510 -0.014450 
#    y -0.029510 1.753520 -0.017880 
#    z -0.014450 -0.017880 1.818430 
# 
# From -- ./inp_files/59710.got.cif
#   From: 2010.05.17/outbox.cif.g08.bks.cpg/sg2_30_cif.got.tgz:59710.got - 2010.06.03 11:33:40.
