data_PCOD9012360
_publ_section_title
;
Structure prediction by ZEFSAII (Michael W. Deem and Ramdas Pophale) SiO2 
 PCOD9012360
Probable space group: P -1
;
_chemical_formula_sum "Si O2"
_cell_formula_units_Z 16
_cell_length_a 9.340079
_cell_length_b 18.827083
_cell_length_c 9.329535
_cell_angle_alpha 58.315906
_cell_angle_beta 82.466596
_cell_angle_gamma 39.170192
_cell_volume 756.552281
_symmetry_space_group_name_H-M "P -1"
_symmetry_group_IT_number 2
_symmetry_cell_setting 'triclinic'
loop_
_space_group_symop_operation_xyz
x,y,z
-x,-y,-z
loop_
_atom_site_type_symbol
_atom_site_label
_atom_site_fract_x
_atom_site_fract_y
_atom_site_fract_z
Si Si1 0.727500 0.451989 0.479413
Si Si2 0.264438 0.951038 0.646391
Si Si3 0.760191 0.090899 0.640278
Si Si4 0.319830 0.347033 0.642917
Si Si5 0.113477 0.297252 0.856617
Si Si6 0.604475 0.994356 0.846751
Si Si7 0.133414 0.354602 0.071137
Si Si8 0.859358 0.795498 0.540158
O O1 0.500000 0.500000 0.500000
O O2 0.632468 0.594310 0.329370
O O3 0.928752 0.359239 0.685866
O O4 0.873710 0.343854 0.437882
O O5 0.275578 0.916714 0.514378
O O6 0.551230 0.788934 0.843009
O O7 0.208470 0.077765 0.534080
O O8 0.023294 0.019616 0.682783
O O9 0.509347 0.256668 0.575134
O O10 0.774088 0.996404 0.824193
O O11 0.346329 0.243097 0.820583
O O12 0.000000 0.500000 0.500000
O O13 0.214177 0.167451 0.062964
O O14 0.987344 0.411276 0.879218
O O15 0.365624 0.122768 0.631550
O O16 0.500000 0.000000 0.000000
O O17 0.120705 0.281969 0.255670
O O18 0.000000 0.500000 0.000000
#
# Coordination Sequence:
#
# PCOD9012360 Si02
#       8
#     2   2   2   2   2   2   2   2
#     4  11  24  42  67 100 139 181 228 295 363 409
#     4  11  25  42  70 101 142 187 227 289 366 408
#     4  11  23  42  67 102 142 180 228 296 354 417
#     4  10  21  40  69  96 134 181 234 282 347 413
#     4  11  23  41  67  99 129 181 241 282 341 420
#     4  12  20  41  70 100 127 177 238 284 332 415
#     4  12  26  44  70 103 140 187 247 287 346 437
#     4  12  23  47  71  98 139 189 236 290 343 434
#
# _framework density 21.148571
#
# number of rings (size 3 to 8) (size 9 to 14) (size 15 to 20)
#    0.000    0.750    5.000    3.375    3.500    0.000 
#    4.500    1.875    0.000    0.000    0.000    0.000 
#    0.000    0.000    0.000    0.000    0.000    0.000 
#
# Total GULP energy -89256.766303 kJ/mol
# GULP energy per Si atom -5578.547894 kJ/mol
# Density = 2.110044 g / cm^3
# Si number density = 21.148571 Si / 1000 Ang^3
#
#
#
# Elastic Constant Matrix: (Units=GPa)
#
#
# Indices 1 2 3 4 5 6 
#
# 1 123.6179 50.8672 33.5875 -11.2862 -21.6175 -14.4528
# 2 50.8672 155.7053 32.8036 -2.1238 -2.5916 -2.4133
# 3 33.5875 32.8036 81.9250 7.7798 -14.6501 -9.0294
# 4 -11.2862 -2.1238 7.7798 33.3460 12.5908 -7.5542
# 5 -21.6175 -2.5916 -14.6501 12.5908 28.2859 1.7111
# 6 -14.4528 -2.4133 -9.0294 -7.5542 1.7111 40.2199
#
#
#
# Elastic Compliance Matrix: (Units=1/GPa)
#
#
# Indices 1 2 3 4 5 6 
#
# 1 0.011786 -0.003153 -0.002367 0.002961 0.005944 0.003818
# 2 -0.003153 0.007978 -0.002764 0.001249 -0.003613 -0.000887
# 3 -0.002367 -0.002764 0.017115 -0.008849 0.010698 0.000709
# 4 0.002961 0.001249 -0.008849 0.043294 -0.021974 0.008219
# 5 0.005944 -0.003613 0.010698 -0.021974 0.055017 -0.002147
# 6 0.003818 -0.000887 0.000709 0.008219 -0.002147 0.027976
#
#
# Mechanical properties :
#
#
# Convention : Reuss Voigt Hill
#
# Bulk Modulus (GPa) = 49.23573 66.19609 57.71591
# Shear Modulus (GPa) = 26.80892 36.63636 31.72264
#
# Velocity S-wave (km/s) = 3.56427 4.16665 3.87717
# Velocity P-wave (km/s) = 6.34587 7.38352 6.88427
#
# Compressibility (1/GPa) = 0.02031045
#
# Stress axis : x y z
#
# Youngs Moduli (GPa) = 84.84466 125.34436 58.42813
#
# Poissons Ratio (x) = 0.39524 0.13830
# Poissons Ratio (y) = 0.26754 0.16150
# Poissons Ratio (z) = 0.20083 0.34647
#
# Static dielectric constant tensor:
#      x y z
#    x 1.774640 0.053510 -0.036410 
#    y 0.053510 1.888460 -0.032540 
#    z -0.036410 -0.032540 1.825580 
# 
# From -- ./inp_files/217013.got.cif
#   From: 2010.05.17/outbox.cif.g08.bks.cpg/sg2_109_cif.got.tgz:217013.got - 2010.06.03 11:33:40.
