data_PCOD9012987
_publ_section_title
;
Structure prediction by ZEFSAII (Michael W. Deem and Ramdas Pophale) SiO2 
 PCOD9012987
Probable space group: P -1
;
_chemical_formula_sum "Si O2"
_cell_formula_units_Z 16
_cell_length_a 17.751278
_cell_length_b 9.612134
_cell_length_c 11.762858
_cell_angle_alpha 58.783842
_cell_angle_beta 31.228696
_cell_angle_gamma 44.205273
_cell_volume 700.176586
_symmetry_space_group_name_H-M "P -1"
_symmetry_group_IT_number 2
_symmetry_cell_setting 'triclinic'
loop_
_space_group_symop_operation_xyz
x,y,z
-x,-y,-z
loop_
_atom_site_type_symbol
_atom_site_label
_atom_site_fract_x
_atom_site_fract_y
_atom_site_fract_z
Si Si1 0.957615 0.291480 0.933494
Si Si2 0.910011 0.220585 0.465408
Si Si3 0.597014 0.714802 0.304849
Si Si4 0.282545 0.007103 0.965853
Si Si5 0.452647 0.669120 0.080679
Si Si6 0.987739 0.466958 0.397522
Si Si7 0.739034 0.155082 0.163479
Si Si8 0.404486 0.215892 0.970223
O O1 0.796631 0.487598 0.133633
O O2 0.841716 0.252506 0.016508
O O3 0.066636 0.344905 0.691295
O O4 0.109307 0.084767 0.892879
O O5 0.713872 0.292827 0.645994
O O6 0.884838 0.377512 0.526640
O O7 0.000000 0.000000 0.500000
O O8 0.062311 0.177028 0.199214
O O9 0.447239 0.733731 0.569915
O O10 0.513476 0.781049 0.256076
O O11 0.632379 0.877997 0.225471
O O12 0.307759 0.854010 0.901588
O O13 0.377247 0.870371 0.015287
O O14 0.598163 0.639934 0.993770
O O15 0.500000 0.500000 0.000000
O O16 0.000000 0.500000 0.500000
O O17 0.202475 0.295890 0.162441
O O18 0.500000 0.000000 0.000000
#
# Coordination Sequence:
#
# PCOD9012987 Si02
#       8
#     2   2   2   2   2   2   2   2
#     4  10  25  46  65 102 131 176 242 276 345 410
#     4  10  21  41  62  93 133 172 212 276 341 398
#     4  11  23  46  69  95 135 181 233 282 345 402
#     4  11  23  45  63  96 138 176 230 279 340 414
#     4  11  24  38  64 104 134 170 224 274 347 411
#     4  11  23  39  69  94 133 174 217 284 341 405
#     4  11  26  44  71  96 137 184 232 287 332 415
#     4  11  21  40  64  96 133 169 218 281 339 411
#
# _framework density 22.851378
#
# number of rings (size 3 to 8) (size 9 to 14) (size 15 to 20)
#    0.000    1.250    3.750    2.250    8.750    3.500 
#    2.250    0.000    0.000    0.000    0.000    0.000 
#    0.000    0.000    0.000    0.000    0.000    0.000 
#
# Total GULP energy -89415.782882 kJ/mol
# GULP energy per Si atom -5588.486430 kJ/mol
# Density = 2.279937 g / cm^3
# Si number density = 22.851378 Si / 1000 Ang^3
#
#
#
# Elastic Constant Matrix: (Units=GPa)
#
#
# Indices 1 2 3 4 5 6 
#
# 1 78.3721 7.3947 21.6052 -7.6519 3.7494 13.8947
# 2 7.3947 77.6972 8.1119 -9.3305 -7.2756 13.2096
# 3 21.6052 8.1119 64.1628 -0.2793 3.3575 10.2164
# 4 -7.6519 -9.3305 -0.2793 29.3763 11.4395 -6.5576
# 5 3.7494 -7.2756 3.3575 11.4395 34.2362 2.0078
# 6 13.8947 13.2096 10.2164 -6.5576 2.0078 41.4189
#
#
#
# Elastic Compliance Matrix: (Units=1/GPa)
#
#
# Indices 1 2 3 4 5 6 
#
# 1 0.015062 -0.000178 -0.004403 0.004069 -0.002430 -0.003148
# 2 -0.000178 0.014226 -0.001241 0.002614 0.002519 -0.003880
# 3 -0.004403 -0.001241 0.017692 -0.001668 -0.000800 -0.002716
# 4 0.004069 0.002614 -0.001668 0.042772 -0.014351 0.005680
# 5 -0.002430 0.002519 -0.000800 -0.014351 0.035105 -0.003765
# 6 -0.003148 -0.003880 -0.002716 0.005680 -0.003765 0.028189
#
#
# Mechanical properties :
#
#
# Convention : Reuss Voigt Hill
#
# Bulk Modulus (GPa) = 28.29980 32.71730 30.50855
# Shear Modulus (GPa) = 28.33371 33.21432 30.77401
#
# Velocity S-wave (km/s) = 3.52506 3.81661 3.67373
# Velocity P-wave (km/s) = 5.38324 5.81124 5.60133
#
# Compressibility (1/GPa) = 0.03533594
#
# Stress axis : x y z
#
# Youngs Moduli (GPa) = 66.39284 70.29231 56.52258
#
# Poissons Ratio (x) = 0.01248 0.24888
# Poissons Ratio (y) = 0.01179 0.07017
# Poissons Ratio (z) = 0.29234 0.08727
#
# Static dielectric constant tensor:
#      x y z
#    x 1.824310 -0.004340 0.059090 
#    y -0.004340 1.901990 0.031440 
#    z 0.059090 0.031440 1.750780 
# 
# From -- ./inp_files/217519.got.cif
#   From: 2010.05.17/outbox.cif.g08.bks.cpg/sg2_109_cif.got.tgz:217519.got - 2010.06.03 11:33:40.
