data_PCOD9012376
_publ_section_title
;
Structure prediction by ZEFSAII (Michael W. Deem and Ramdas Pophale) SiO2 
 PCOD9012376
Probable space group: P -1
;
_chemical_formula_sum "Si O2"
_cell_formula_units_Z 16
_cell_length_a 9.069396
_cell_length_b 7.941049
_cell_length_c 19.765378
_cell_angle_alpha 49.492337
_cell_angle_beta 52.168342
_cell_angle_gamma 90.189153
_cell_volume 635.424969
_symmetry_space_group_name_H-M "P -1"
_symmetry_group_IT_number 2
_symmetry_cell_setting 'triclinic'
loop_
_space_group_symop_operation_xyz
x,y,z
-x,-y,-z
loop_
_atom_site_type_symbol
_atom_site_label
_atom_site_fract_x
_atom_site_fract_y
_atom_site_fract_z
Si Si1 0.035407 0.186324 0.038400
Si Si2 0.032045 0.828489 0.439977
Si Si3 0.956039 0.531988 0.897564
Si Si4 0.889828 0.214266 0.415974
Si Si5 0.432521 0.115425 0.570568
Si Si6 0.412105 0.178964 0.122309
Si Si7 0.519133 0.362304 0.632893
Si Si8 0.773521 0.113087 0.885839
O O1 0.080458 0.357187 0.051294
O O2 0.171307 0.058160 0.039219
O O3 0.737423 0.908602 0.187509
O O4 0.099908 0.417336 0.903143
O O5 0.067590 0.750651 0.523966
O O6 0.783156 0.531837 0.551601
O O7 0.978604 0.045778 0.411469
O O8 0.275230 0.022109 0.272396
O O9 0.678030 0.264810 0.019113
O O10 0.138821 0.828151 0.724950
O O11 0.034652 0.533251 0.257820
O O12 0.601237 0.037543 0.528246
O O13 0.497665 0.227519 0.601286
O O14 0.496010 0.387971 0.442201
O O15 0.218993 0.968113 0.172453
O O16 0.500000 0.500000 0.000000
O O17 0.500000 0.000000 0.000000
#
# Coordination Sequence:
#
# PCOD9012376 Si02
#       8
#     2   2   2   2   2   2   2   2
#     4  10  22  42  65  99 139 174 231 280 347 408
#     4  11  27  43  69  98 140 182 235 289 342 416
#     4  10  23  39  68 104 135 184 227 287 339 412
#     4  11  26  46  65 101 138 183 229 296 352 398
#     4  10  21  40  69  97 135 172 230 285 345 407
#     4  12  24  44  71 102 138 184 239 277 344 427
#     4  10  21  41  66  98 127 178 230 281 339 416
#     4  12  26  46  71 101 143 183 227 292 354 415
#
# _framework density 25.179998000000001
#
# number of rings (size 3 to 8) (size 9 to 14) (size 15 to 20)
#    0.000    1.250    2.500    2.250    8.750    2.500 
#    2.250    0.625    0.000    0.000    0.000    0.000 
#    0.000    0.000    0.000    0.000    0.000    0.000 
#
# Total GULP energy -89667.255255 kJ/mol
# GULP energy per Si atom -5604.203453 kJ/mol
# Density = 2.512269 g / cm^3
# Si number density = 25.179998 Si / 1000 Ang^3
#
#
#
# Elastic Constant Matrix: (Units=GPa)
#
#
# Indices 1 2 3 4 5 6 
#
# 1 124.5106 32.4539 24.9269 -9.4585 -3.8208 -14.3515
# 2 32.4539 97.9726 22.8224 -17.9879 4.0823 -6.8152
# 3 24.9269 22.8224 92.7283 -7.3404 -7.6174 -1.8824
# 4 -9.4585 -17.9879 -7.3404 31.8181 -5.1025 -3.6670
# 5 -3.8208 4.0823 -7.6174 -5.1025 44.7165 -14.3664
# 6 -14.3515 -6.8152 -1.8824 -3.6670 -14.3664 58.6267
#
#
#
# Elastic Compliance Matrix: (Units=1/GPa)
#
#
# Indices 1 2 3 4 5 6 
#
# 1 0.009439 -0.002335 -0.001636 0.001678 0.001742 0.002518
# 2 -0.002335 0.012660 -0.002048 0.006001 -0.000685 0.001042
# 3 -0.001636 -0.002048 0.012061 0.001578 0.002424 0.000441
# 4 0.001678 0.006001 0.001578 0.037155 0.005669 0.004872
# 5 0.001742 -0.000685 0.002424 0.005669 0.025926 0.007132
# 6 0.002518 0.001042 0.000441 0.004872 0.007132 0.019861
#
#
# Mechanical properties :
#
#
# Convention : Reuss Voigt Hill
#
# Bulk Modulus (GPa) = 45.20335 52.84642 49.02488
# Shear Modulus (GPa) = 36.62644 42.69949 39.66297
#
# Velocity S-wave (km/s) = 3.81804 4.12244 3.97316
# Velocity P-wave (km/s) = 6.11781 6.61002 6.36867
#
# Compressibility (1/GPa) = 0.02212225
#
# Stress axis : x y z
#
# Youngs Moduli (GPa) = 105.94723 78.98682 82.91215
#
# Poissons Ratio (x) = 0.18443 0.13561
# Poissons Ratio (y) = 0.24738 0.16983
# Poissons Ratio (z) = 0.17328 0.16179
#
# Static dielectric constant tensor:
#      x y z
#    x 1.998180 0.049210 -0.018170 
#    y 0.049210 2.026550 0.028570 
#    z -0.018170 0.028570 1.933960 
# 
# From -- ./inp_files/606619.got.cif
#   From: 2010.05.17/outbox.cif.g08.bks.cpg/sg2_304_cif.got.tgz:606619.got - 2010.06.03 11:33:40.
