data_PCOD9012978
_publ_section_title
;
Structure prediction by ZEFSAII (Michael W. Deem and Ramdas Pophale) SiO2 
 PCOD9012978
Probable space group: P -1
;
_chemical_formula_sum "Si O2"
_cell_formula_units_Z 14
_cell_length_a 7.414509
_cell_length_b 18.268011
_cell_length_c 11.813796
_cell_angle_alpha 148.958266
_cell_angle_beta 121.213722
_cell_angle_gamma 40.948724
_cell_volume 499.904030
_symmetry_space_group_name_H-M "P -1"
_symmetry_group_IT_number 2
_symmetry_cell_setting 'triclinic'
loop_
_space_group_symop_operation_xyz
x,y,z
-x,-y,-z
loop_
_atom_site_type_symbol
_atom_site_label
_atom_site_fract_x
_atom_site_fract_y
_atom_site_fract_z
Si Si1 0.601960 0.997679 0.906279
Si Si2 0.363664 0.523401 0.732974
Si Si3 0.171095 0.700948 0.576541
Si Si4 0.216376 0.499228 0.998192
Si Si5 0.113049 0.935113 0.207033
Si Si6 0.276124 0.326678 0.069682
Si Si7 0.428598 0.801920 0.477678
O O1 0.500005 0.931536 0.691994
O O2 0.957500 0.836346 0.791563
O O3 0.500000 0.000000 0.000000
O O4 0.436695 0.213959 0.090278
O O5 0.479372 0.459184 0.556315
O O6 0.352051 0.375672 0.590388
O O7 0.624026 0.463941 0.822049
O O8 0.113634 0.762136 0.974797
O O9 0.129926 0.553227 0.334454
O O10 0.052205 0.882206 0.693386
O O11 0.474141 0.299561 0.746799
O O12 0.981766 0.657540 0.034940
O O13 0.000000 0.500000 0.000000
O O14 0.915055 0.060708 0.419461
O O15 0.457373 0.800798 0.106591
#
# Coordination Sequence:
#
# PCOD9012978 Si02
#       7
#     2   2   2   2   2   2   2
#     4  11  24  43  67  93 121 167 220 269 321 371
#     4  10  21  41  62  92 138 170 202 256 318 374
#     4   9  18  41  62  91 123 164 210 257 303 380
#     4  12  21  41  65  94 133 179 206 247 312 386
#     4   9  20  38  64  90 131 168 205 258 310 366
#     4  10  21  42  64  90 132 165 217 261 300 384
#     4  11  24  40  61  97 130 160 219 267 306 378
#
# _framework density 28.005378
#
# number of rings (size 3 to 8) (size 9 to 14) (size 15 to 20)
#    0.000    1.714    4.286    0.429    2.000    1.143 
#    5.143   11.429    0.000    8.571    0.000    0.000 
#    0.000    0.000    0.000    0.000    0.000    0.000 
#
# Total GULP energy -78156.470725 kJ/mol
# GULP energy per Si atom -5582.605052 kJ/mol
# Density = 2.794164 g / cm^3
# Si number density = 28.005378 Si / 1000 Ang^3
#
#
#
# Elastic Constant Matrix: (Units=GPa)
#
#
# Indices 1 2 3 4 5 6 
#
# 1 94.1955 32.8719 63.6081 -3.2795 -32.4688 17.6881
# 2 32.8719 115.3865 66.4322 17.7200 -17.4366 2.2007
# 3 63.6081 66.4322 213.0418 8.0952 -33.3024 13.6219
# 4 -3.2795 17.7200 8.0952 65.5485 5.8089 -6.6530
# 5 -32.4688 -17.4366 -33.3024 5.8089 70.5175 -8.6098
# 6 17.6881 2.2007 13.6219 -6.6530 -8.6098 53.6730
#
#
#
# Elastic Compliance Matrix: (Units=1/GPa)
#
#
# Indices 1 2 3 4 5 6 
#
# 1 0.015777 -0.002045 -0.003143 0.000959 0.004776 -0.003433
# 2 -0.002045 0.011384 -0.002734 -0.002852 0.000902 0.000692
# 3 -0.003143 -0.002734 0.006685 -0.000377 0.001012 -0.000433
# 4 0.000959 -0.002852 -0.000377 0.016433 -0.001591 0.001679
# 5 0.004776 0.000902 0.001012 -0.001591 0.017298 0.000710
# 6 -0.003433 0.000692 -0.000433 0.001679 0.000710 0.020166
#
#
# Mechanical properties :
#
#
# Convention : Reuss Voigt Hill
#
# Bulk Modulus (GPa) = 55.55144 83.16093 69.35618
# Shear Modulus (GPa) = 45.62511 55.26190 50.44351
#
# Velocity S-wave (km/s) = 4.04066 4.44696 4.24867
# Velocity P-wave (km/s) = 6.45355 7.49175 6.99195
#
# Compressibility (1/GPa) = 0.01800133
#
# Stress axis : x y z
#
# Youngs Moduli (GPa) = 63.38512 87.83986 149.58320
#
# Poissons Ratio (x) = 0.17963 0.47016
# Poissons Ratio (y) = 0.12962 0.40901
# Poissons Ratio (z) = 0.19923 0.24019
#
# Static dielectric constant tensor:
#      x y z
#    x 2.228390 0.039880 -0.014470 
#    y 0.039880 2.336100 0.012970 
#    z -0.014470 0.012970 2.103900 
# 
# From -- ./inp_files/402344.got.cif
#   From: 2010.05.17/outbox.cif.g08.bks.cpg/sg2_202_cif.got.tgz:402344.got - 2010.06.03 11:33:40.
