data_PCOD9012333
_publ_section_title
;
Structure prediction by ZEFSAII (Michael W. Deem and Ramdas Pophale) SiO2 
 PCOD9012333
Probable space group: P -1
;
_chemical_formula_sum "Si O2"
_cell_formula_units_Z 16
_cell_length_a 13.017061
_cell_length_b 8.179804
_cell_length_c 9.344546
_cell_angle_alpha 127.539715
_cell_angle_beta 70.283897
_cell_angle_gamma 106.045266
_cell_volume 739.346402
_symmetry_space_group_name_H-M "P -1"
_symmetry_group_IT_number 2
_symmetry_cell_setting 'triclinic'
loop_
_space_group_symop_operation_xyz
x,y,z
-x,-y,-z
loop_
_atom_site_type_symbol
_atom_site_label
_atom_site_fract_x
_atom_site_fract_y
_atom_site_fract_z
Si Si1 0.561420 0.341379 0.291331
Si Si2 0.550738 0.951264 0.601973
Si Si3 0.483867 0.284696 0.976057
Si Si4 0.118553 0.263224 0.297939
Si Si5 0.128726 0.045307 0.460062
Si Si6 0.854225 0.247089 0.449415
Si Si7 0.736690 0.646944 0.278178
Si Si8 0.242550 0.136340 0.903319
O O1 0.500000 0.500000 0.500000
O O2 0.543468 0.155397 0.308668
O O3 0.683989 0.427889 0.239961
O O4 0.502296 0.303781 0.146852
O O5 0.646263 0.804681 0.452371
O O6 0.500000 0.000000 0.500000
O O7 0.576722 0.157258 0.791234
O O8 0.360756 0.186632 0.948781
O O9 0.500000 0.500000 0.000000
O O10 0.163269 0.112917 0.319040
O O11 0.165179 0.508418 0.421081
O O12 0.985935 0.248209 0.364250
O O13 0.152879 0.175706 0.083973
O O14 0.155307 0.261736 0.646308
O O15 0.170294 0.861009 0.440004
O O16 0.000000 0.000000 0.500000
O O17 0.788818 0.083728 0.282236
O O18 0.754166 0.685225 0.124495
#
# Coordination Sequence:
#
# PCOD9012333 Si02
#       8
#     2   2   2   2   2   2   2   2
#     4  10  22  40  60  86 120 163 211 263 310 381
#     4  11  22  41  62  86 124 170 208 264 313 375
#     4  12  23  40  58  89 126 165 216 254 317 381
#     4  10  21  40  69  94 125 168 215 266 322 385
#     4   9  20  40  65  91 126 162 209 267 316 381
#     4   9  21  43  64  95 128 167 213 262 329 388
#     4  10  21  42  60  88 124 162 208 255 323 372
#     4  11  22  38  64  93 127 165 211 265 322 381
#
# _framework density 21.640734999999999
#
# number of rings (size 3 to 8) (size 9 to 14) (size 15 to 20)
#    0.000    1.750    2.500    1.500    3.500    3.000 
#    2.250    2.500    0.000   12.750    0.000    0.000 
#    0.000    0.000    0.000    0.000    0.000    0.000 
#
# Total GULP energy -89137.779090 kJ/mol
# GULP energy per Si atom -5571.111193 kJ/mol
# Density = 2.159148 g / cm^3
# Si number density = 21.640735 Si / 1000 Ang^3
#
#
#
# Elastic Constant Matrix: (Units=GPa)
#
#
# Indices 1 2 3 4 5 6 
#
# 1 67.7521 33.1061 24.6493 -2.7170 26.5602 18.1975
# 2 33.1061 171.7980 54.5033 -23.0556 12.2459 6.8907
# 3 24.6493 54.5033 116.5825 -28.7323 19.4245 -14.5707
# 4 -2.7170 -23.0556 -28.7323 42.7777 -1.9159 6.2360
# 5 26.5602 12.2459 19.4245 -1.9159 34.9167 8.5718
# 6 18.1975 6.8907 -14.5707 6.2360 8.5718 25.1219
#
#
#
# Elastic Compliance Matrix: (Units=1/GPa)
#
#
# Indices 1 2 3 4 5 6 
#
# 1 0.027436 -0.002178 -0.004994 -0.000819 -0.013074 -0.017509
# 2 -0.002178 0.007612 -0.003268 0.002378 0.001824 -0.003618
# 3 -0.004994 -0.003268 0.015600 0.005982 -0.006952 0.014449
# 4 -0.000819 0.002378 0.005982 0.029075 -0.001101 -0.003431
# 5 -0.013074 0.001824 -0.006952 -0.001101 0.044173 -0.009861
# 6 -0.017509 -0.003618 0.014449 -0.003431 -0.009861 0.066078
#
#
# Mechanical properties :
#
#
# Convention : Reuss Voigt Hill
#
# Bulk Modulus (GPa) = 33.59466 64.51668 49.05567
# Shear Modulus (GPa) = 22.64732 36.82153 29.73443
#
# Velocity S-wave (km/s) = 3.23850 4.12939 3.71078
# Velocity P-wave (km/s) = 5.43519 7.25349 6.40915
#
# Compressibility (1/GPa) = 0.02976664
#
# Stress axis : x y z
#
# Youngs Moduli (GPa) = 36.44792 131.37922 64.10367
#
# Poissons Ratio (x) = 0.28619 0.32015
# Poissons Ratio (y) = 0.07940 0.20948
# Poissons Ratio (z) = 0.18203 0.42933
#
# Static dielectric constant tensor:
#      x y z
#    x 1.806030 -0.016340 0.006550 
#    y -0.016340 1.846690 0.011240 
#    z 0.006550 0.011240 1.747640 
# 
# From -- ./inp_files/299646.got.cif
#   From: 2010.05.17/outbox.cif.g08.bks.cpg/sg2_150_cif.got.tgz:299646.got - 2010.06.03 11:33:40.
