data_PCOD9012342
_publ_section_title
;
Structure prediction by ZEFSAII (Michael W. Deem and Ramdas Pophale) SiO2 
 PCOD9012342
Probable space group: P -1
;
_chemical_formula_sum "Si O2"
_cell_formula_units_Z 16
_cell_length_a 11.253086
_cell_length_b 14.282385
_cell_length_c 9.107917
_cell_angle_alpha 57.267001
_cell_angle_beta 67.928599
_cell_angle_gamma 115.085915
_cell_volume 677.760871
_symmetry_space_group_name_H-M "P -1"
_symmetry_group_IT_number 2
_symmetry_cell_setting 'triclinic'
loop_
_space_group_symop_operation_xyz
x,y,z
-x,-y,-z
loop_
_atom_site_type_symbol
_atom_site_label
_atom_site_fract_x
_atom_site_fract_y
_atom_site_fract_z
Si Si1 0.281808 0.171361 0.498794
Si Si2 0.345279 0.971139 0.694705
Si Si3 0.669932 0.572547 0.549071
Si Si4 0.187402 0.248463 0.981308
Si Si5 0.362761 0.838862 0.081279
Si Si6 0.023266 0.334679 0.096196
Si Si7 0.044720 0.565591 0.707281
Si Si8 0.617470 0.345837 0.959283
O O1 0.311566 0.299542 0.477870
O O2 0.377268 0.125625 0.571746
O O3 0.432383 0.277746 0.194481
O O4 0.027676 0.977534 0.737168
O O5 0.143401 0.831308 0.799832
O O6 0.500000 0.000000 0.500000
O O7 0.304449 0.883710 0.941659
O O8 0.424396 0.363159 0.800637
O O9 0.788883 0.675188 0.253349
O O10 0.752071 0.530613 0.649049
O O11 0.178180 0.338107 0.035752
O O12 0.164952 0.651320 0.425588
O O13 0.474103 0.812568 0.971161
O O14 0.500000 0.000000 0.000000
O O15 0.908918 0.296003 0.328866
O O16 0.107409 0.503253 0.829985
O O17 0.788745 0.400079 0.937523
#
# Coordination Sequence:
#
# PCOD9012342 Si02
#       8
#     2   2   2   2   2   2   2   2
#     4  11  24  43  71  99 132 184 236 277 349 410
#     4  11  21  41  67  95 140 175 221 285 342 410
#     4  11  25  46  68 100 136 185 233 286 341 415
#     4  10  24  43  70  95 135 181 239 280 340 411
#     4  12  26  40  64 106 140 178 228 284 349 412
#     4  10  21  40  69  95 132 184 220 283 342 415
#     4  11  23  40  69 101 136 179 229 279 353 408
#     4  12  25  44  68  99 142 180 225 290 347 409
#
# _framework density 23.607147999999999
#
# number of rings (size 3 to 8) (size 9 to 14) (size 15 to 20)
#    0.000    1.000    2.500    3.375    5.250    5.500 
#    2.250    0.000    0.000    0.000    0.000    0.000 
#    0.000    0.000    0.000    0.000    0.000    0.000 
#
# Total GULP energy -89355.121368 kJ/mol
# GULP energy per Si atom -5584.695086 kJ/mol
# Density = 2.355342 g / cm^3
# Si number density = 23.607148 Si / 1000 Ang^3
#
#
#
# Elastic Constant Matrix: (Units=GPa)
#
#
# Indices 1 2 3 4 5 6 
#
# 1 43.0527 12.8309 1.0726 -8.0341 5.6660 -10.1980
# 2 12.8309 102.3533 13.1722 -4.0833 1.4143 -19.3696
# 3 1.0726 13.1722 74.4624 5.5381 -4.6512 6.5004
# 4 -8.0341 -4.0833 5.5381 37.3809 6.7331 1.2672
# 5 5.6660 1.4143 -4.6512 6.7331 43.6868 -3.0867
# 6 -10.1980 -19.3696 6.5004 1.2672 -3.0867 34.8978
#
#
#
# Elastic Compliance Matrix: (Units=1/GPa)
#
#
# Indices 1 2 3 4 5 6 
#
# 1 0.027059 -0.001638 -0.001412 0.006361 -0.004116 0.006666
# 2 -0.001638 0.011576 -0.002676 0.001123 -0.000169 0.006389
# 3 -0.001412 -0.002676 0.014647 -0.002975 0.001981 -0.004343
# 4 0.006361 0.001123 -0.002975 0.029650 -0.005645 0.001460
# 5 -0.004116 -0.000169 0.001981 -0.005645 0.024561 0.000712
# 6 0.006666 0.006389 -0.004343 0.001460 0.000712 0.034968
#
#
# Mechanical properties :
#
#
# Convention : Reuss Voigt Hill
#
# Bulk Modulus (GPa) = 23.90657 30.44663 27.17660
# Shear Modulus (GPa) = 29.78742 36.04593 32.91668
#
# Velocity S-wave (km/s) = 3.55603 3.91181 3.73815
# Velocity P-wave (km/s) = 5.19705 5.77306 5.49261
#
# Compressibility (1/GPa) = 0.04182951
#
# Stress axis : x y z
#
# Youngs Moduli (GPa) = 36.95696 86.38532 68.27115
#
# Poissons Ratio (x) = 0.14151 0.09641
# Poissons Ratio (y) = 0.06054 0.18269
# Poissons Ratio (z) = 0.05219 0.23116
#
# Static dielectric constant tensor:
#      x y z
#    x 2.021050 -0.026530 -0.006930 
#    y -0.026530 1.891630 -0.049610 
#    z -0.006930 -0.049610 1.938500 
# 
# From -- ./inp_files/272138.got.cif
#   From: 2010.05.17/outbox.cif.g08.bks.cpg/sg2_137_cif.got.tgz:272138.got - 2010.06.03 11:33:40.
