data_PCOD9012160
_publ_section_title
;
Structure prediction by ZEFSAII (Michael W. Deem and Ramdas Pophale) SiO2 
 PCOD9012160
Probable space group: P -1
;
_chemical_formula_sum "Si O2"
_cell_formula_units_Z 12
_cell_length_a 6.849380
_cell_length_b 14.042530
_cell_length_c 5.164143
_cell_angle_alpha 97.819987
_cell_angle_beta 69.395488
_cell_angle_gamma 100.124082
_cell_volume 456.202227
_symmetry_space_group_name_H-M "P -1"
_symmetry_group_IT_number 2
_symmetry_cell_setting 'triclinic'
loop_
_space_group_symop_operation_xyz
x,y,z
-x,-y,-z
loop_
_atom_site_type_symbol
_atom_site_label
_atom_site_fract_x
_atom_site_fract_y
_atom_site_fract_z
Si Si1 0.539328 0.878550 0.688667
Si Si2 0.852284 0.267621 0.349728
Si Si3 0.414967 0.410598 0.321115
Si Si4 0.757589 0.950573 0.113871
Si Si5 0.791444 0.435041 0.779366
Si Si6 0.921284 0.701695 0.250284
O O1 0.358048 0.791513 0.680884
O O2 0.708186 0.894947 0.384996
O O3 0.397259 0.966862 0.788329
O O4 0.669920 0.881782 0.892753
O O5 0.929719 0.235622 0.583857
O O6 0.799749 0.374342 0.487207
O O7 0.029679 0.262670 0.047352
O O8 0.500000 0.500000 0.500000
O O9 0.246047 0.457237 0.235597
O O10 0.302165 0.324408 0.518468
O O11 0.593907 0.390447 0.030389
O O12 0.000000 0.000000 0.000000
O O13 0.993241 0.404328 0.817767
#
# Coordination Sequence:
#
# PCOD9012160 Si02
#       6
#     2   2   2   2   2   2
#     4  10  21  41  66  91 134 159 205 258 301 376
#     4  10  22  42  60  89 123 166 193 257 318 353
#     4  11  22  38  61  86 118 161 213 261 302 365
#     4  10  21  40  68  98 122 167 207 244 308 374
#     4   9  23  38  59  86 118 160 208 250 316 354
#     4  10  23  40  60  83 122 159 208 250 310 369
#
# _framework density 26.304124999999999
#
# number of rings (size 3 to 8) (size 9 to 14) (size 15 to 20)
#    1.000    1.000    0.000    3.000    4.667    1.333 
#    3.000    0.000    0.000    0.000    0.000    0.000 
#    0.000    0.000    0.000    0.000    0.000    0.000 
#
# Total GULP energy -67157.148684 kJ/mol
# GULP energy per Si atom -5596.429057 kJ/mol
# Density = 2.624426 g / cm^3
# Si number density = 26.304125 Si / 1000 Ang^3
#
#
#
# Elastic Constant Matrix: (Units=GPa)
#
#
# Indices 1 2 3 4 5 6 
#
# 1 103.8265 38.2150 64.2229 7.0884 0.9560 23.2893
# 2 38.2150 53.5240 43.7489 -2.0454 -5.6535 27.2553
# 3 64.2229 43.7489 233.3837 -1.7096 -14.8712 27.6418
# 4 7.0884 -2.0454 -1.7096 33.1959 11.7393 -1.2597
# 5 0.9560 -5.6535 -14.8712 11.7393 52.5674 -3.5252
# 6 23.2893 27.2553 27.6418 -1.2597 -3.5252 54.2837
#
#
#
# Elastic Compliance Matrix: (Units=1/GPa)
#
#
# Indices 1 2 3 4 5 6 
#
# 1 0.014640 -0.008123 -0.002475 -0.003386 -0.001157 -0.001096
# 2 -0.008123 0.032547 -0.002384 0.002608 0.001622 -0.011476
# 3 -0.002475 -0.002384 0.005553 0.000195 0.001284 -0.000481
# 4 -0.003386 0.002608 0.000195 0.033531 -0.007066 0.000363
# 5 -0.001157 0.001622 0.001284 -0.007066 0.021176 0.000240
# 6 -0.001096 -0.011476 -0.000481 0.000363 0.000240 0.024923
#
#
# Mechanical properties :
#
#
# Convention : Reuss Voigt Hill
#
# Bulk Modulus (GPa) = 37.34781 75.90088 56.62435
# Shear Modulus (GPa) = 29.89397 44.31256 37.10327
#
# Velocity S-wave (km/s) = 3.37482 4.10887 3.75980
# Velocity P-wave (km/s) = 5.42358 7.17134 6.35780
#
# Compressibility (1/GPa) = 0.02677533
#
# Stress axis : x y z
#
# Youngs Moduli (GPa) = 68.30726 30.72515 180.08871
#
# Poissons Ratio (x) = 0.24959 0.44564
# Poissons Ratio (y) = 0.55489 0.42932
# Poissons Ratio (z) = 0.16903 0.07325
#
# Static dielectric constant tensor:
#      x y z
#    x 2.106650 -0.054640 0.011690 
#    y -0.054640 2.101090 0.009100 
#    z 0.011690 0.009100 2.007160 
# 
# From -- ./inp_files/6682.got.cif
#   From: 2010.05.17/outbox.cif.g08.bks.cpg/sg2_4_cif.got.tgz:6682.got - 2010.06.03 11:33:40.
