data_PCOD9012809
_publ_section_title
;
Structure prediction by ZEFSAII (Michael W. Deem and Ramdas Pophale) SiO2 
 PCOD9012809
Probable space group: P -1
;
_chemical_formula_sum "Si O2"
_cell_formula_units_Z 14
_cell_length_a 16.809028
_cell_length_b 9.001319
_cell_length_c 17.333861
_cell_angle_alpha 51.480991
_cell_angle_beta 19.679092
_cell_angle_gamma 61.353392
_cell_volume 631.467032
_symmetry_space_group_name_H-M "P -1"
_symmetry_group_IT_number 2
_symmetry_cell_setting 'triclinic'
loop_
_space_group_symop_operation_xyz
x,y,z
-x,-y,-z
loop_
_atom_site_type_symbol
_atom_site_label
_atom_site_fract_x
_atom_site_fract_y
_atom_site_fract_z
Si Si1 0.707618 0.903834 0.043429
Si Si2 0.059044 0.257535 0.231763
Si Si3 0.005857 0.327055 0.866372
Si Si4 0.357211 0.434049 0.366914
Si Si5 0.677471 0.169830 0.724194
Si Si6 0.505305 0.094097 0.299764
Si Si7 0.014402 0.280524 0.047220
O O1 0.482884 0.861948 0.199656
O O2 0.661333 0.057765 0.096594
O O3 0.945323 0.923459 0.762803
O O4 0.746012 0.734422 0.119863
O O5 0.957813 0.430534 0.238308
O O6 0.936453 0.165720 0.454983
O O7 0.355993 0.407799 0.924220
O O8 0.201725 0.325963 0.620861
O O9 0.719063 0.189306 0.141219
O O10 0.048335 0.250134 0.935448
O O11 0.242009 0.596900 0.391922
O O12 0.388585 0.266097 0.337565
O O13 0.500000 0.000000 0.000000
O O14 0.261468 0.890731 0.616104
O O15 0.000000 0.500000 0.000000
#
# Coordination Sequence:
#
# PCOD9012809 Si02
#       7
#     2   2   2   2   2   2   2
#     4  11  23  38  62  94 130 165 214 267 317 374
#     4   9  19  39  63  91 125 161 213 266 315 378
#     4  10  21  41  61  89 129 179 217 258 318 374
#     4   9  21  40  66  90 129 170 215 265 318 383
#     4  10  22  43  71  97 124 165 215 269 329 389
#     4  11  24  40  61  94 138 173 214 263 322 379
#     4  12  25  39  63  96 133 176 223 265 309 377
#
# _framework density 22.170596
#
# number of rings (size 3 to 8) (size 9 to 14) (size 15 to 20)
#    0.000    1.714    1.429    2.143    4.000    7.429 
#    0.000    0.714    0.000   12.857    0.000    0.000 
#    0.000    0.000    0.000    0.000    0.000    0.000 
#
# Total GULP energy -77967.730716 kJ/mol
# GULP energy per Si atom -5569.123623 kJ/mol
# Density = 2.212013 g / cm^3
# Si number density = 22.170596 Si / 1000 Ang^3
#
#
#
# Elastic Constant Matrix: (Units=GPa)
#
#
# Indices 1 2 3 4 5 6 
#
# 1 55.0391 25.5285 39.3285 -12.9562 -7.2190 2.1313
# 2 25.5285 144.8118 22.8287 14.1165 25.7034 29.3698
# 3 39.3285 22.8287 116.8767 -3.6441 17.1706 4.7786
# 4 -12.9562 14.1165 -3.6441 34.5655 7.4921 2.8304
# 5 -7.2190 25.7034 17.1706 7.4921 25.6565 5.9460
# 6 2.1313 29.3698 4.7786 2.8304 5.9460 22.4869
#
#
#
# Elastic Compliance Matrix: (Units=1/GPa)
#
#
# Indices 1 2 3 4 5 6 
#
# 1 0.042182 -0.012826 -0.016035 0.012241 0.030346 0.006596
# 2 -0.012826 0.014791 0.004221 -0.005717 -0.016347 -0.013957
# 3 -0.016035 0.004221 0.015843 -0.001920 -0.018251 -0.002292
# 4 0.012241 -0.005717 -0.001920 0.035561 -0.000476 0.002364
# 5 0.030346 -0.016347 -0.018251 -0.000476 0.075690 0.002399
# 6 0.006596 -0.013957 -0.002292 0.002364 0.002399 0.061629
#
#
# Mechanical properties :
#
#
# Convention : Reuss Voigt Hill
#
# Bulk Modulus (GPa) = 42.48953 54.67766 48.58359
# Shear Modulus (GPa) = 16.51145 31.81124 24.16135
#
# Velocity S-wave (km/s) = 2.73196 3.79204 3.30478
# Velocity P-wave (km/s) = 5.39981 6.62484 6.04344
#
# Compressibility (1/GPa) = 0.02353521
#
# Stress axis : x y z
#
# Youngs Moduli (GPa) = 23.70669 67.61018 63.12130
#
# Poissons Ratio (x) = 0.86715 1.01217
# Poissons Ratio (y) = 0.30405 -0.26643
# Poissons Ratio (z) = 0.38014 -0.28537
#
# Static dielectric constant tensor:
#      x y z
#    x 1.856740 -0.020800 -0.050390 
#    y -0.020800 1.981850 0.076000 
#    z -0.050390 0.076000 1.884540 
# 
# From -- ./inp_files/43581.got.cif
#   From: 2010.05.17/outbox.cif.g08.bks.cpg/sg2_22_cif.got.tgz:43581.got - 2010.06.03 11:33:40.
