data_PCOD9012709
_publ_section_title
;
Structure prediction by ZEFSAII (Michael W. Deem and Ramdas Pophale) SiO2 
 PCOD9012709
Probable space group: P -1
;
_chemical_formula_sum "Si O2"
_cell_formula_units_Z 14
_cell_length_a 7.215483
_cell_length_b 6.571939
_cell_length_c 14.935788
_cell_angle_alpha 109.464146
_cell_angle_beta 91.534029
_cell_angle_gamma 98.032703
_cell_volume 659.179474
_symmetry_space_group_name_H-M "P -1"
_symmetry_group_IT_number 2
_symmetry_cell_setting 'triclinic'
loop_
_space_group_symop_operation_xyz
x,y,z
-x,-y,-z
loop_
_atom_site_type_symbol
_atom_site_label
_atom_site_fract_x
_atom_site_fract_y
_atom_site_fract_z
Si Si1 0.182400 0.955545 0.716760
Si Si2 0.314109 0.199405 0.581431
Si Si3 0.562253 0.774771 0.934038
Si Si4 0.278266 0.869758 0.372874
Si Si5 0.407448 0.003158 0.209526
Si Si6 0.032984 0.499915 0.606813
Si Si7 0.338277 0.325370 0.893185
O O1 0.388943 0.893019 0.732333
O O2 0.036911 0.735726 0.685584
O O3 0.192594 0.041793 0.628314
O O4 0.883318 0.317079 0.624055
O O5 0.292526 0.079299 0.468412
O O6 0.233715 0.422146 0.609878
O O7 0.525327 0.219760 0.622319
O O8 0.645021 0.842365 0.847381
O O9 0.387741 0.574604 0.898370
O O10 0.690153 0.700786 0.004451
O O11 0.500000 0.000000 0.000000
O O12 0.268539 0.941770 0.280764
O O13 0.817750 0.836457 0.187505
O O14 0.470106 0.778994 0.138911
O O15 0.000000 0.500000 0.500000
#
# Coordination Sequence:
#
# PCOD9012709 Si02
#       7
#     2   2   2   2   2   2   2
#     4   9  20  35  53  85 118 154 204 235 298 351
#     4  10  22  41  57  81 125 156 203 262 284 349
#     4   9  15  30  56  87 114 146 193 243 299 358
#     4  10  21  41  58  86 121 158 206 248 301 340
#     4   8  18  33  53  85 116 148 197 240 296 357
#     4  12  24  39  59  86 120 170 206 240 295 353
#     4   8  17  31  53  85 118 147 191 248 289 359
#
# _framework density 21.238526
#
# number of rings (size 3 to 8) (size 9 to 14) (size 15 to 20)
#    0.857    1.714    1.429    0.429    2.000    0.571 
#    2.571    0.000    0.000    0.857    0.000    6.000 
#    0.000    0.000    0.000    0.000    0.000    0.000 
#
# Total GULP energy -78011.067010 kJ/mol
# GULP energy per Si atom -5572.219072 kJ/mol
# Density = 2.119019 g / cm^3
# Si number density = 21.238526 Si / 1000 Ang^3
#
#
#
# Elastic Constant Matrix: (Units=GPa)
#
#
# Indices 1 2 3 4 5 6 
#
# 1 50.2396 45.0259 25.8164 6.2053 6.9811 15.0057
# 2 45.0259 119.9218 71.4317 0.6974 1.6228 19.5856
# 3 25.8164 71.4317 110.3966 -30.6628 4.1631 23.3585
# 4 6.2053 0.6974 -30.6628 44.2964 15.0617 -2.3601
# 5 6.9811 1.6228 4.1631 15.0617 13.2117 3.5065
# 6 15.0057 19.5856 23.3585 -2.3601 3.5065 29.2451
#
#
#
# Elastic Compliance Matrix: (Units=1/GPa)
#
#
# Indices 1 2 3 4 5 6 
#
# 1 0.036135 -0.016464 0.008092 0.009906 -0.028317 -0.009784
# 2 -0.016464 0.031023 -0.028896 -0.037228 0.056166 0.001012
# 3 0.008092 -0.028896 0.046813 0.058562 -0.080155 -0.007854
# 4 0.009906 -0.037228 0.058562 0.112316 -0.147098 -0.000224
# 5 -0.028317 0.056166 -0.080155 -0.147098 0.277835 -0.004247
# 6 -0.009784 0.001012 -0.007854 -0.000224 -0.004247 0.045300
#
#
# Mechanical properties :
#
#
# Convention : Reuss Voigt Hill
#
# Bulk Modulus (GPa) = 25.35736 62.78957 44.07346
# Shear Modulus (GPa) = 7.84802 26.56956 17.20879
#
# Velocity S-wave (km/s) = 1.92437 3.54080 2.84960
# Velocity P-wave (km/s) = 4.11131 6.80768 5.62349
#
# Compressibility (1/GPa) = 0.03943628
#
# Stress axis : x y z
#
# Youngs Moduli (GPa) = 27.67372 32.23393 21.36160
#
# Poissons Ratio (x) = 0.53070 -0.17285
# Poissons Ratio (y) = 0.45562 0.61726
# Poissons Ratio (z) = -0.22393 0.93142
#
# Static dielectric constant tensor:
#      x y z
#    x 1.797700 -0.034530 -0.007970 
#    y -0.034530 1.776200 -0.003220 
#    z -0.007970 -0.003220 1.813860 
# 
# From -- ./inp_files/509486.got.cif
#   From: 2010.05.17/outbox.cif.g08.bks.cpg/sg2_255_cif.got.tgz:509486.got - 2010.06.03 11:33:40.
