data_PCOD9012186
_publ_section_title
;
Structure prediction by ZEFSAII (Michael W. Deem and Ramdas Pophale) SiO2 
 PCOD9012186
Probable space group: P -1
;
_chemical_formula_sum "Si O2"
_cell_formula_units_Z 16
_cell_length_a 9.190974
_cell_length_b 12.324411
_cell_length_c 14.779994
_cell_angle_alpha 39.051111
_cell_angle_beta 102.235445
_cell_angle_gamma 125.827686
_cell_volume 752.531246
_symmetry_space_group_name_H-M "P -1"
_symmetry_group_IT_number 2
_symmetry_cell_setting 'triclinic'
loop_
_space_group_symop_operation_xyz
x,y,z
-x,-y,-z
loop_
_atom_site_type_symbol
_atom_site_label
_atom_site_fract_x
_atom_site_fract_y
_atom_site_fract_z
Si Si1 0.963863 0.974074 0.633949
Si Si2 0.350554 0.225680 0.130710
Si Si3 0.196412 0.042424 0.026436
Si Si4 0.000971 0.313242 0.285801
Si Si5 0.553226 0.700765 0.285975
Si Si6 0.553634 0.057984 0.362697
Si Si7 0.410647 0.223517 0.571647
Si Si8 0.721923 0.250383 0.837589
O O1 0.864645 0.916231 0.755235
O O2 0.886681 0.732092 0.737251
O O3 0.922074 0.113858 0.480743
O O4 0.206274 0.137611 0.556764
O O5 0.453577 0.140063 0.246114
O O6 0.500000 0.500000 0.000000
O O7 0.297717 0.165381 0.056747
O O8 0.352337 0.202664 0.862158
O O9 0.164828 0.810446 0.163036
O O10 0.000000 0.000000 0.000000
O O11 0.799997 0.246477 0.263979
O O12 0.146622 0.573786 0.176302
O O13 0.558553 0.500445 0.427507
O O14 0.656293 0.879637 0.268394
O O15 0.332994 0.619530 0.308576
O O16 0.500000 0.000000 0.500000
O O17 0.492157 0.841072 0.437359
O O18 0.500000 0.000000 0.000000
#
# Coordination Sequence:
#
# PCOD9012186 Si02
#       8
#     2   2   2   2   2   2   2   2
#     4  10  21  41  66  98 131 169 230 276 337 403
#     4  12  28  43  67 100 143 181 227 279 351 419
#     4  11  26  44  65  94 142 182 224 277 351 408
#     4  10  21  40  71  95 129 179 226 283 333 403
#     4  10  21  40  69  93 128 179 224 284 333 405
#     4  11  24  42  67 102 140 176 227 283 348 409
#     4  10  21  40  68  99 127 168 238 280 335 403
#     4  10  22  39  66  92 130 174 231 267 345 399
#
# _framework density 21.261576000000002
#
# number of rings (size 3 to 8) (size 9 to 14) (size 15 to 20)
#    0.000    1.500    2.500    1.500    7.000    0.000 
#    0.000    1.875    0.000    0.000    0.000    0.000 
#    0.000    0.000    0.000    0.000    0.000    0.000 
#
# Total GULP energy -89138.423099 kJ/mol
# GULP energy per Si atom -5571.151444 kJ/mol
# Density = 2.121318 g / cm^3
# Si number density = 21.261576 Si / 1000 Ang^3
#
#
#
# Elastic Constant Matrix: (Units=GPa)
#
#
# Indices 1 2 3 4 5 6 
#
# 1 129.3073 51.4875 38.8038 7.5568 29.3240 -18.8694
# 2 51.4875 152.4337 44.6903 15.4013 14.6538 -32.7976
# 3 38.8038 44.6903 58.1052 16.1091 13.6255 -22.7658
# 4 7.5568 15.4013 16.1091 40.1384 -5.7076 1.4368
# 5 29.3240 14.6538 13.6255 -5.7076 29.9559 3.0107
# 6 -18.8694 -32.7976 -22.7658 1.4368 3.0107 44.1029
#
#
#
# Elastic Compliance Matrix: (Units=1/GPa)
#
#
# Indices 1 2 3 4 5 6 
#
# 1 0.012180 -0.001259 -0.002267 -0.002631 -0.011174 0.003953
# 2 -0.001259 0.009606 -0.002784 -0.003001 -0.003324 0.005493
# 3 -0.002267 -0.002784 0.036432 -0.016292 -0.017854 0.017515
# 4 -0.002631 -0.003001 -0.016292 0.036432 0.019833 -0.014308
# 5 -0.011174 -0.003324 -0.017854 0.019833 0.059979 -0.021210
# 6 0.003953 0.005493 0.017515 -0.014308 -0.021210 0.039406
#
#
# Mechanical properties :
#
#
# Convention : Reuss Voigt Hill
#
# Bulk Modulus (GPa) = 21.93104 67.75659 44.84381
# Shear Modulus (GPa) = 22.53744 36.49707 29.51726
#
# Velocity S-wave (km/s) = 3.25931 4.14765 3.73002
# Velocity P-wave (km/s) = 4.94989 7.40774 6.29984
#
# Compressibility (1/GPa) = 0.04559748
#
# Stress axis : x y z
#
# Youngs Moduli (GPa) = 82.10308 104.09881 27.44871
#
# Poissons Ratio (x) = 0.13103 0.06223
# Poissons Ratio (y) = 0.10334 0.07642
# Poissons Ratio (z) = 0.18614 0.28983
#
# Static dielectric constant tensor:
#      x y z
#    x 1.787300 0.031400 0.073190 
#    y 0.031400 1.851610 0.001330 
#    z 0.073190 0.001330 1.916290 
# 
# From -- ./inp_files/498771.got.cif
#   From: 2010.05.17/outbox.cif.g08.bks.cpg/sg2_250_cif.got.tgz:498771.got - 2010.06.03 11:33:40.
