data_PCOD9012011
_publ_section_title
;
Structure prediction by ZEFSAII (Michael W. Deem and Ramdas Pophale) SiO2 
 PCOD9012011
Probable space group: P -1
;
_chemical_formula_sum "Si O2"
_cell_formula_units_Z 14
_cell_length_a 7.652356
_cell_length_b 14.167685
_cell_length_c 8.862411
_cell_angle_alpha 40.364144
_cell_angle_beta 98.076706
_cell_angle_gamma 84.453446
_cell_volume 584.185078
_symmetry_space_group_name_H-M "P -1"
_symmetry_group_IT_number 2
_symmetry_cell_setting 'triclinic'
loop_
_space_group_symop_operation_xyz
x,y,z
-x,-y,-z
loop_
_atom_site_type_symbol
_atom_site_label
_atom_site_fract_x
_atom_site_fract_y
_atom_site_fract_z
Si Si1 0.386786 0.913756 0.293154
Si Si2 0.601172 0.568018 0.801438
Si Si3 0.848292 0.602182 0.030762
Si Si4 0.963435 0.859700 0.890719
Si Si5 0.317829 0.929650 0.918883
Si Si6 0.096058 0.611765 0.452894
Si Si7 0.470248 0.386294 0.796589
O O1 0.455929 0.731493 0.541725
O O2 0.300342 0.957730 0.061724
O O3 0.231971 0.006391 0.279672
O O4 0.572416 0.962510 0.266001
O O5 0.625229 0.447118 0.816984
O O6 0.500000 0.500000 0.000000
O O7 0.786443 0.587558 0.871096
O O8 0.924827 0.429984 0.324182
O O9 0.652326 0.664340 0.026965
O O10 0.949312 0.726470 0.935748
O O11 0.130979 0.930955 0.808211
O O12 0.010965 0.772831 0.166148
O O13 0.457465 0.757141 0.126326
O O14 0.313550 0.536549 0.532016
O O15 0.000000 0.500000 0.500000
#
# Coordination Sequence:
#
# PCOD9012011 Si02
#       7
#     2   2   2   2   2   2   2
#     4  11  24  41  62  94 127 161 203 256 312 366
#     4  10  21  40  68  88 118 172 214 242 304 374
#     4   8  18  37  62  91 120 161 208 250 298 364
#     4  11  20  38  63  95 123 164 202 251 320 361
#     4  11  23  39  64  95 128 156 203 261 312 362
#     4   8  15  30  58  89 120 146 204 249 294 353
#     4   9  18  38  61  91 119 164 206 247 308 356
#
# _framework density 23.965005999999999
#
# number of rings (size 3 to 8) (size 9 to 14) (size 15 to 20)
#    0.857    1.429    1.429    1.286    0.000    2.857 
#    0.000    2.857    0.000    0.000    0.000    0.000 
#    0.000    0.000    0.000    0.000    0.000    0.000 
#
# Total GULP energy -78119.735000 kJ/mol
# GULP energy per Si atom -5579.981071 kJ/mol
# Density = 2.391046 g / cm^3
# Si number density = 23.965006 Si / 1000 Ang^3
#
#
#
# Elastic Constant Matrix: (Units=GPa)
#
#
# Indices 1 2 3 4 5 6 
#
# 1 65.3702 41.6607 28.8512 -8.9735 -5.6846 26.3344
# 2 41.6607 126.1757 5.6764 -10.3334 -4.1244 32.3967
# 3 28.8512 5.6764 20.0650 -18.7676 7.2193 -7.6711
# 4 -8.9735 -10.3334 -18.7676 36.4034 5.2566 -1.0343
# 5 -5.6846 -4.1244 7.2193 5.2566 24.2979 -2.1408
# 6 26.3344 32.3967 -7.6711 -1.0343 -2.1408 38.0904
#
#
#
# Elastic Compliance Matrix: (Units=1/GPa)
#
#
# Indices 1 2 3 4 5 6 
#
# 1 -0.005868 -0.002301 0.041920 0.022488 -0.017845 0.014064
# 2 -0.002301 0.011025 -0.002705 0.000754 0.001248 -0.008240
# 3 0.041920 -0.002705 -0.059093 -0.026194 0.029256 -0.037650
# 4 0.022488 0.000754 -0.026194 0.018063 0.007453 -0.020555
# 5 -0.017845 0.001248 0.029256 0.007453 0.028560 0.018975
# 6 0.014064 -0.008240 -0.037650 -0.020555 0.018975 0.016464
#
#
# Mechanical properties :
#
#
# Convention : Reuss Voigt Hill
#
# Bulk Modulus (GPa) = 50.27003 40.44306 45.35654
# Shear Modulus (GPa) = -86.13683 28.78653 -28.67515
#
# Velocity S-wave (km/s) = -6.00173 3.46958 -3.46286
# Velocity P-wave (km/s) = 5.19670 5.74135 1.72589
#
# Compressibility (1/GPa) = 0.01989257
#
# Stress axis : x y z
#
# Youngs Moduli (GPa) = -170.41316 90.70120 -16.92234
#
# Poissons Ratio (x) = 0.20871 0.70939
# Poissons Ratio (y) = -0.39213 -0.04577
# Poissons Ratio (z) = 7.14377 0.24532
#
# Static dielectric constant tensor:
#      x y z
#    x 2.001130 0.089070 -0.039180 
#    y 0.089070 1.953250 0.050760 
#    z -0.039180 0.050760 1.944810 
# 
# From -- ./inp_files/415450.got.cif
#   From: 2010.05.17/outbox.cif.g08.bks.cpg/sg2_208_cif.got.tgz:415450.got - 2010.06.03 11:33:40.
