data_PCOD9012211
_publ_section_title
;
Structure prediction by ZEFSAII (Michael W. Deem and Ramdas Pophale) SiO2 
 PCOD9012211
Probable space group: P -1
;
_chemical_formula_sum "Si O2"
_cell_formula_units_Z 16
_cell_length_a 5.859783
_cell_length_b 16.423778
_cell_length_c 11.960611
_cell_angle_alpha 145.503230
_cell_angle_beta 103.937710
_cell_angle_gamma 63.694454
_cell_volume 566.613211
_symmetry_space_group_name_H-M "P -1"
_symmetry_group_IT_number 2
_symmetry_cell_setting 'triclinic'
loop_
_space_group_symop_operation_xyz
x,y,z
-x,-y,-z
loop_
_atom_site_type_symbol
_atom_site_label
_atom_site_fract_x
_atom_site_fract_y
_atom_site_fract_z
Si Si1 0.599114 0.332538 0.250470
Si Si2 0.932694 0.376759 0.917270
Si Si3 0.828604 0.882750 0.684364
Si Si4 0.616901 0.150482 0.324192
Si Si5 0.749594 0.144497 0.585113
Si Si6 0.790598 0.558780 0.305771
Si Si7 0.112367 0.327267 0.258906
Si Si8 0.499110 0.800347 0.138579
O O1 0.500000 0.500000 0.500000
O O2 0.917825 0.256762 0.201661
O O3 0.426777 0.253211 0.200526
O O4 0.538441 0.315872 0.091573
O O5 0.194825 0.247664 0.863324
O O6 0.833581 0.281375 0.718581
O O7 0.000000 0.500000 0.000000
O O8 0.723380 0.490427 0.110646
O O9 0.683507 0.022151 0.732355
O O10 0.612425 0.907677 0.785639
O O11 0.887956 0.697192 0.450650
O O12 0.104633 0.890560 0.744852
O O13 0.670539 0.102281 0.408833
O O14 0.452358 0.343686 0.531917
O O15 0.575963 0.202831 0.743222
O O16 0.000000 0.000000 0.500000
O O17 0.004521 0.399961 0.207445
O O18 0.000000 0.500000 0.500000
#
# Coordination Sequence:
#
# PCOD9012211 Si02
#       8
#     2   2   2   2   2   2   2   2
#     4  10  23  42  68 101 129 166 226 293 347 404
#     4  12  26  41  66 102 138 186 239 284 344 414
#     4  10  24  41  66  95 137 189 228 282 340 415
#     4  10  23  41  62  93 141 187 227 272 342 396
#     4  12  25  40  64  94 146 187 236 281 336 416
#     4  10  23  41  66  97 139 176 229 287 343 410
#     4  10  21  40  69 100 126 170 218 288 352 405
#     4  12  25  41  71  97 137 187 236 280 355 415
#
# _framework density 28.237960000000001
#
# number of rings (size 3 to 8) (size 9 to 14) (size 15 to 20)
#    0.750    0.500    2.500    3.000    3.500    5.000 
#    0.000    0.000    0.000    6.000    0.000    0.000 
#    0.000    0.000    0.000    0.000    0.000    0.000 
#
# Total GULP energy -89158.581085 kJ/mol
# GULP energy per Si atom -5572.411318 kJ/mol
# Density = 2.817369 g / cm^3
# Si number density = 28.237960 Si / 1000 Ang^3
#
#
#
# Elastic Constant Matrix: (Units=GPa)
#
#
# Indices 1 2 3 4 5 6 
#
# 1 260.4527 63.0974 37.1502 23.2608 -4.2512 -8.1498
# 2 63.0974 96.9909 3.6012 2.0178 -12.1977 0.3782
# 3 37.1502 3.6012 92.6468 5.3046 -1.8532 6.7150
# 4 23.2608 2.0178 5.3046 31.9186 6.0050 -1.7881
# 5 -4.2512 -12.1977 -1.8532 6.0050 23.5809 -8.4131
# 6 -8.1498 0.3782 6.7150 -1.7881 -8.4131 62.1721
#
#
#
# Elastic Compliance Matrix: (Units=1/GPa)
#
#
# Indices 1 2 3 4 5 6 
#
# 1 0.005205 -0.003219 -0.001829 -0.003288 0.000267 0.000841
# 2 -0.003219 0.013165 0.000876 0.000189 0.006345 0.000267
# 3 -0.001829 0.000876 0.011662 -0.000883 0.000755 -0.001428
# 4 -0.003288 0.000189 -0.000883 0.035684 -0.009882 -0.000648
# 5 0.000267 0.006345 0.000755 -0.009882 0.050626 0.006481
# 6 0.000841 0.000267 -0.001428 -0.000648 0.006481 0.017206
#
#
# Mechanical properties :
#
#
# Convention : Reuss Voigt Hill
#
# Bulk Modulus (GPa) = 46.11118 73.08758 59.59938
# Shear Modulus (GPa) = 33.52974 46.61710 40.07342
#
# Velocity S-wave (km/s) = 3.44960 4.06749 3.77122
# Velocity P-wave (km/s) = 5.67726 6.92808 6.33362
#
# Compressibility (1/GPa) = 0.02168671
#
# Stress axis : x y z
#
# Youngs Moduli (GPa) = 192.13615 75.95863 85.74677
#
# Poissons Ratio (x) = 0.24453 0.15685
# Poissons Ratio (y) = 0.61854 -0.07510
# Poissons Ratio (z) = 0.35145 -0.06653
#
# Static dielectric constant tensor:
#      x y z
#    x 2.269300 0.129050 -0.080520 
#    y 0.129050 3.860340 -0.908180 
#    z -0.080520 -0.908180 2.758230 
# 
# From -- ./inp_files/485658.got.cif
#   From: 2010.05.17/outbox.cif.g08.bks.cpg/sg2_243_cif.got.tgz:485658.got - 2010.06.03 11:33:40.
