data_PCOD9012688
_publ_section_title
;
Structure prediction by ZEFSAII (Michael W. Deem and Ramdas Pophale) SiO2 
 PCOD9012688
Probable space group: P -1
;
_chemical_formula_sum "Si O2"
_cell_formula_units_Z 12
_cell_length_a 8.283972
_cell_length_b 14.866134
_cell_length_c 9.784658
_cell_angle_alpha 30.501800
_cell_angle_beta 75.858500
_cell_angle_gamma 64.083790
_cell_volume 526.512251
_symmetry_space_group_name_H-M "P -1"
_symmetry_group_IT_number 2
_symmetry_cell_setting 'triclinic'
loop_
_space_group_symop_operation_xyz
x,y,z
-x,-y,-z
loop_
_atom_site_type_symbol
_atom_site_label
_atom_site_fract_x
_atom_site_fract_y
_atom_site_fract_z
Si Si1 0.420727 0.810483 0.128565
Si Si2 0.871155 0.438663 0.199534
Si Si3 0.198346 0.877649 0.546042
Si Si4 0.083367 0.758923 0.281287
Si Si5 0.525795 0.183298 0.198648
Si Si6 0.232570 0.152525 0.948973
O O1 0.307034 0.684733 0.340277
O O2 0.642856 0.732783 0.207557
O O3 0.381462 0.869490 0.900461
O O4 0.328748 0.997085 0.007564
O O5 0.822079 0.281054 0.338876
O O6 0.968500 0.337321 0.453839
O O7 0.676836 0.631286 0.015503
O O8 0.000000 0.500000 0.000000
O O9 0.350129 0.778512 0.763661
O O10 0.000000 0.000000 0.500000
O O11 0.245842 0.024075 0.249451
O O12 0.984149 0.729720 0.205597
O O13 0.000000 0.000000 0.000000
O O14 0.500000 0.000000 0.500000
#
# Coordination Sequence:
#
# PCOD9012688 Si02
#       6
#     2   2   2   2   2   2
#     4  10  21  41  70 103 136 193 238 292 364 434
#     4  12  28  46  70 111 148 191 245 302 366 438
#     4  12  24  46  75 108 144 193 243 299 372 439
#     4  10  21  43  71  98 141 190 236 296 360 425
#     4  12  26  44  74 104 151 190 243 301 368 429
#     4  10  21  40  76 100 138 192 239 290 373 425
#
# _framework density 22.791492000000002
#
# number of rings (size 3 to 8) (size 9 to 14) (size 15 to 20)
#    0.000    1.000    5.000    2.500    7.000    0.667 
#    3.000    0.833    0.000    0.000    0.000    0.000 
#    0.000    0.000    0.000    0.000    0.000    0.000 
#
# Total GULP energy -67097.007500 kJ/mol
# GULP energy per Si atom -5591.417292 kJ/mol
# Density = 2.273962 g / cm^3
# Si number density = 22.791492 Si / 1000 Ang^3
#
#
#
# Elastic Constant Matrix: (Units=GPa)
#
#
# Indices 1 2 3 4 5 6 
#
# 1 158.9915 4.6010 25.6873 9.9818 -3.6127 9.5232
# 2 4.6010 96.8569 31.8918 15.5425 3.7414 -4.0251
# 3 25.6873 31.8918 111.7941 21.9264 -0.2128 -8.3449
# 4 9.9818 15.5425 21.9264 49.7964 2.5979 2.4083
# 5 -3.6127 3.7414 -0.2128 2.5979 43.5845 6.5924
# 6 9.5232 -4.0251 -8.3449 2.4083 6.5924 38.3290
#
#
#
# Elastic Compliance Matrix: (Units=1/GPa)
#
#
# Indices 1 2 3 4 5 6 
#
# 1 0.006736 0.000198 -0.001636 -0.000635 0.000892 -0.002122
# 2 0.000198 0.011718 -0.002847 -0.002435 -0.000992 0.000885
# 3 -0.001636 -0.002847 0.011084 -0.003796 -0.000029 0.002764
# 4 -0.000635 -0.002435 -0.003796 0.022794 -0.000887 -0.002204
# 5 0.000892 -0.000992 -0.000029 -0.000887 0.023817 -0.004373
# 6 -0.002122 0.000885 0.002764 -0.002204 -0.004373 0.028203
#
#
# Mechanical properties :
#
#
# Convention : Reuss Voigt Hill
#
# Bulk Modulus (GPa) = 47.69172 54.66697 51.17934
# Shear Modulus (GPa) = 41.69789 46.70614 44.20201
#
# Velocity S-wave (km/s) = 4.28195 4.53181 4.40865
# Velocity P-wave (km/s) = 6.73925 7.17083 6.95839
#
# Compressibility (1/GPa) = 0.02096800
#
# Stress axis : x y z
#
# Youngs Moduli (GPa) = 148.46551 85.33704 90.22094
#
# Poissons Ratio (x) = -0.01691 0.14763
# Poissons Ratio (y) = -0.02941 0.25683
# Poissons Ratio (z) = 0.24293 0.24293
#
# Static dielectric constant tensor:
#      x y z
#    x 1.932510 -0.050260 0.031180 
#    y -0.050260 1.859180 -0.022760 
#    z 0.031180 -0.022760 1.822820 
# 
# From -- ./inp_files/155137.got.cif
#   From: 2010.05.17/outbox.cif.g08.bks.cpg/sg2_78_cif.got.tgz:155137.got - 2010.06.03 11:33:40.
