data_PCOD9012981
_publ_section_title
;
Structure prediction by ZEFSAII (Michael W. Deem and Ramdas Pophale) SiO2 
 PCOD9012981
Probable space group: P -1
;
_chemical_formula_sum "Si O2"
_cell_formula_units_Z 14
_cell_length_a 7.539419
_cell_length_b 13.930721
_cell_length_c 13.505497
_cell_angle_alpha 146.366041
_cell_angle_beta 108.003060
_cell_angle_gamma 93.297556
_cell_volume 599.049531
_symmetry_space_group_name_H-M "P -1"
_symmetry_group_IT_number 2
_symmetry_cell_setting 'triclinic'
loop_
_space_group_symop_operation_xyz
x,y,z
-x,-y,-z
loop_
_atom_site_type_symbol
_atom_site_label
_atom_site_fract_x
_atom_site_fract_y
_atom_site_fract_z
Si Si1 0.308954 0.757277 0.847217
Si Si2 0.070787 0.931370 0.548935
Si Si3 0.058411 0.508457 0.781870
Si Si4 0.728516 0.802847 0.012453
Si Si5 0.470138 0.656429 0.428183
Si Si6 0.559095 0.046502 0.665820
Si Si7 0.639699 0.820211 0.807637
O O1 0.142541 0.573994 0.739049
O O2 0.378828 0.701598 0.708962
O O3 0.568073 0.885980 0.050773
O O4 0.257838 0.929694 0.971584
O O5 0.333511 0.015996 0.645540
O O6 0.930464 0.679795 0.335043
O O7 0.075523 0.054414 0.752578
O O8 0.000000 0.000000 0.500000
O O9 0.793398 0.425009 0.668729
O O10 0.218257 0.720163 0.060127
O O11 0.565604 0.553717 0.802958
O O12 0.781239 0.803891 0.905812
O O13 0.576031 0.863538 0.556449
O O14 0.609878 0.720543 0.610403
O O15 0.500000 0.000000 0.500000
#
# Coordination Sequence:
#
# PCOD9012981 Si02
#       7
#     2   2   2   2   2   2   2
#     4   9  18  38  67  85 124 166 206 242 315 368
#     4  11  26  43  66  92 127 161 215 264 304 373
#     4  11  23  43  64  94 121 167 212 251 319 375
#     4  10  21  41  62  93 128 164 202 263 311 359
#     4  11  23  39  66  93 131 160 210 260 310 375
#     4  11  25  44  65  89 127 167 208 262 316 369
#     4   9  18  40  67  87 130 171 201 255 314 369
#
# _framework density 23.370356000000001
#
# number of rings (size 3 to 8) (size 9 to 14) (size 15 to 20)
#    0.857    0.857    2.857    1.286    4.000    3.429 
#    0.000    0.714    0.000    0.000    0.000    0.000 
#    0.000    0.000    0.000    0.000    0.000    0.000 
#
# Total GULP energy -78162.924984 kJ/mol
# GULP energy per Si atom -5583.066070 kJ/mol
# Density = 2.331716 g / cm^3
# Si number density = 23.370356 Si / 1000 Ang^3
#
#
#
# Elastic Constant Matrix: (Units=GPa)
#
#
# Indices 1 2 3 4 5 6 
#
# 1 53.9889 14.4623 8.9343 2.7873 10.3696 7.3705
# 2 14.4623 181.7142 103.0461 4.8449 -4.4339 -5.9823
# 3 8.9343 103.0461 143.6840 7.5001 -11.5665 -5.5124
# 4 2.7873 4.8449 7.5001 41.1001 -4.1301 -4.5177
# 5 10.3696 -4.4339 -11.5665 -4.1301 23.4379 7.4518
# 6 7.3705 -5.9823 -5.5124 -4.5177 7.4518 30.5051
#
#
#
# Elastic Compliance Matrix: (Units=1/GPa)
#
#
# Indices 1 2 3 4 5 6 
#
# 1 0.021556 -0.001348 -0.001162 -0.002464 -0.009624 -0.003696
# 2 -0.001348 0.009450 -0.006762 0.000222 -0.001332 0.001315
# 3 -0.001162 -0.006762 0.012340 -0.000874 0.005242 -0.000225
# 4 -0.002464 0.000222 -0.000874 0.025403 0.004151 0.003229
# 5 -0.009624 -0.001332 0.005242 0.004151 0.052950 -0.009308
# 6 -0.003696 0.001315 -0.000225 0.003229 -0.009308 0.036644
#
#
# Mechanical properties :
#
#
# Convention : Reuss Voigt Hill
#
# Bulk Modulus (GPa) = 40.31641 70.25251 55.28446
# Shear Modulus (GPa) = 27.00472 35.87158 31.43815
#
# Velocity S-wave (km/s) = 3.40297 3.92205 3.67170
# Velocity P-wave (km/s) = 5.72091 7.11588 6.45618
#
# Compressibility (1/GPa) = 0.02480379
#
# Stress axis : x y z
#
# Youngs Moduli (GPa) = 46.39079 105.82459 81.03640
#
# Poissons Ratio (x) = 0.14261 0.09415
# Poissons Ratio (y) = 0.06251 0.54793
# Poissons Ratio (z) = 0.05390 0.71554
#
# Static dielectric constant tensor:
#      x y z
#    x 1.976970 0.050460 -0.032510 
#    y 0.050460 1.904000 -0.024370 
#    z -0.032510 -0.024370 1.885060 
# 
# From -- ./inp_files/505914.got.cif
#   From: 2010.05.17/outbox.cif.g08.bks.cpg/sg2_253_cif.got.tgz:505914.got - 2010.06.03 11:33:40.
