data_PCOD9012949
_publ_section_title
;
Structure prediction by ZEFSAII (Michael W. Deem and Ramdas Pophale) SiO2 
 PCOD9012949
Probable space group: P -1
;
_chemical_formula_sum "Si O2"
_cell_formula_units_Z 16
_cell_length_a 9.152329
_cell_length_b 15.451541
_cell_length_c 9.351667
_cell_angle_alpha 118.711083
_cell_angle_beta 145.685743
_cell_angle_gamma 69.226727
_cell_volume 651.492766
_symmetry_space_group_name_H-M "P -1"
_symmetry_group_IT_number 2
_symmetry_cell_setting 'triclinic'
loop_
_space_group_symop_operation_xyz
x,y,z
-x,-y,-z
loop_
_atom_site_type_symbol
_atom_site_label
_atom_site_fract_x
_atom_site_fract_y
_atom_site_fract_z
Si Si1 0.463889 0.312124 0.589321
Si Si2 0.448158 0.660926 0.975837
Si Si3 0.122723 0.229861 0.793933
Si Si4 0.183181 0.586598 0.290544
Si Si5 0.790348 0.518829 0.467314
Si Si6 0.146014 0.835724 0.887904
Si Si7 0.254452 0.073802 0.573302
Si Si8 0.149688 0.846526 0.232265
O O1 0.615108 0.384415 0.651375
O O2 0.195682 0.364101 0.399322
O O3 0.586423 0.209334 0.578453
O O4 0.503205 0.324400 0.803518
O O5 0.452346 0.545281 0.853597
O O6 0.643289 0.713577 0.058907
O O7 0.197469 0.723746 0.796971
O O8 0.119037 0.120881 0.637276
O O9 0.904837 0.305370 0.654951
O O10 0.091245 0.210446 0.922006
O O11 0.218327 0.537373 0.433504
O O12 0.000000 0.500000 0.000000
O O13 0.000000 0.500000 0.500000
O O14 0.433786 0.895340 0.146840
O O15 0.088350 0.846108 0.016002
O O16 0.904522 0.875080 0.640352
O O17 0.205016 0.957407 0.420980
#
# Coordination Sequence:
#
# PCOD9012949 Si02
#       8
#     2   2   2   2   2   2   2   2
#     4  10  22  39  60  89 124 164 214 267 330 397
#     4  10  21  41  62  91 126 169 219 276 333 403
#     4  10  22  41  66  93 130 173 223 279 338 402
#     4  11  22  39  59  88 125 164 212 272 330 396
#     4  12  23  38  64  93 126 174 218 272 336 403
#     4  10  23  42  70  99 134 177 226 279 339 401
#     4  11  22  45  69  99 135 180 228 280 335 401
#     4  10  22  41  65  96 131 173 222 281 338 397
#
# _framework density 24.558983999999999
#
# number of rings (size 3 to 8) (size 9 to 14) (size 15 to 20)
#    0.000    1.500    0.000    4.875    0.000    2.000 
#    0.000   20.625    0.000    0.000    0.000    0.000 
#    0.000    0.000    0.000    0.000    0.000    0.000 
#
# Total GULP energy -89084.448637 kJ/mol
# GULP energy per Si atom -5567.778040 kJ/mol
# Density = 2.450309 g / cm^3
# Si number density = 24.558984 Si / 1000 Ang^3
#
#
#
# Elastic Constant Matrix: (Units=GPa)
#
#
# Indices 1 2 3 4 5 6 
#
# 1 171.2886 46.1495 33.4540 5.0419 -12.2112 2.5657
# 2 46.1495 112.1604 12.1384 1.4897 -4.5205 -30.1571
# 3 33.4540 12.1384 41.1895 -0.0395 -9.1184 1.5373
# 4 5.0419 1.4897 -0.0395 30.6215 1.9431 -8.1147
# 5 -12.2112 -4.5205 -9.1184 1.9431 35.5411 4.6574
# 6 2.5657 -30.1571 1.5373 -8.1147 4.6574 42.0478
#
#
#
# Elastic Compliance Matrix: (Units=1/GPa)
#
#
# Indices 1 2 3 4 5 6 
#
# 1 0.008008 -0.003602 -0.004961 -0.002175 0.001596 -0.003488
# 2 -0.003602 0.013324 -0.001730 0.002837 -0.001525 0.010556
# 3 -0.004961 -0.001730 0.030297 -0.000189 0.006222 -0.002771
# 4 -0.002175 0.002837 -0.000189 0.035610 -0.003620 0.009447
# 5 0.001596 -0.001525 0.006222 -0.003620 0.031013 -0.005552
# 6 -0.003488 0.010556 -0.002771 0.009447 -0.005552 0.034105
#
#
# Mechanical properties :
#
#
# Convention : Reuss Voigt Hill
#
# Bulk Modulus (GPa) = 32.21236 56.45801 44.33519
# Shear Modulus (GPa) = 27.27903 37.16853 32.22378
#
# Velocity S-wave (km/s) = 3.33642 3.89452 3.62622
# Velocity P-wave (km/s) = 5.29028 6.57736 5.96861
#
# Compressibility (1/GPa) = 0.03104398
#
# Stress axis : x y z
#
# Youngs Moduli (GPa) = 124.88130 75.05106 33.00605
#
# Poissons Ratio (x) = 0.27037 0.16373
# Poissons Ratio (y) = 0.44988 0.05709
# Poissons Ratio (z) = 0.61950 0.12981
#
# Static dielectric constant tensor:
#      x y z
#    x 2.306780 -0.535040 -0.422030 
#    y -0.535040 2.935780 0.877150 
#    z -0.422030 0.877150 2.896250 
# 
# From -- ./inp_files/208573.got.cif
#   From: 2010.05.17/outbox.cif.g08.bks.cpg/sg2_105_cif.got.tgz:208573.got - 2010.06.03 11:33:40.
