data_PCOD9012930
_publ_section_title
;
Structure prediction by ZEFSAII (Michael W. Deem and Ramdas Pophale) SiO2 
 PCOD9012930
Probable space group: P -1
;
_chemical_formula_sum "Si O2"
_cell_formula_units_Z 12
_cell_length_a 16.191199
_cell_length_b 13.409362
_cell_length_c 5.199116
_cell_angle_alpha 99.480627
_cell_angle_beta 80.993307
_cell_angle_gamma 30.764292
_cell_volume 459.473348
_symmetry_space_group_name_H-M "P -1"
_symmetry_group_IT_number 2
_symmetry_cell_setting 'triclinic'
loop_
_space_group_symop_operation_xyz
x,y,z
-x,-y,-z
loop_
_atom_site_type_symbol
_atom_site_label
_atom_site_fract_x
_atom_site_fract_y
_atom_site_fract_z
Si Si1 0.104522 0.068795 0.162487
Si Si2 0.677834 0.444033 0.496764
Si Si3 0.690619 0.861248 0.342253
Si Si4 0.483053 0.864520 0.952412
Si Si5 0.895412 0.514101 0.453078
Si Si6 0.365733 0.733999 0.393162
O O1 0.914622 0.202357 0.291022
O O2 0.010525 0.283492 0.320775
O O3 0.245992 0.893039 0.262597
O O4 0.228056 0.921064 0.778562
O O5 0.577874 0.651139 0.766486
O O6 0.582935 0.538667 0.294864
O O7 0.624358 0.398486 0.644318
O O8 0.856444 0.594120 0.212917
O O9 0.500000 0.000000 0.500000
O O10 0.667802 0.946803 0.128758
O O11 0.640853 0.988870 0.662171
O O12 0.675457 0.729981 0.777128
O O13 0.000000 0.500000 0.500000
#
# Coordination Sequence:
#
# PCOD9012930 Si02
#       6
#     2   2   2   2   2   2
#     4  11  26  46  67 103 138 176 228 283 335 404
#     4  10  25  45  73 101 137 178 226 281 344 402
#     4  10  21  41  62  90 126 171 213 259 325 391
#     4  10  23  41  65  92 128 169 215 270 328 393
#     4  10  23  39  62  94 127 168 214 267 327 387
#     4  11  26  45  72 102 134 180 227 279 344 406
#
# _framework density 26.116852999999999
#
# number of rings (size 3 to 8) (size 9 to 14) (size 15 to 20)
#    0.000    1.667    0.000    3.000    4.667   14.667 
#    0.000    8.333    0.000    0.000    0.000    0.000 
#    0.000    0.000    0.000    0.000    0.000    0.000 
#
# Total GULP energy -67208.144046 kJ/mol
# GULP energy per Si atom -5600.678670 kJ/mol
# Density = 2.605741 g / cm^3
# Si number density = 26.116853 Si / 1000 Ang^3
#
#
#
# Elastic Constant Matrix: (Units=GPa)
#
#
# Indices 1 2 3 4 5 6 
#
# 1 172.6476 62.3364 41.8084 10.6000 -12.2108 -7.1290
# 2 62.3364 206.8961 70.0879 15.3062 12.3903 -25.7388
# 3 41.8084 70.0879 101.6816 -7.9619 12.2102 -7.5893
# 4 10.6000 15.3062 -7.9619 42.6735 -1.5166 10.9081
# 5 -12.2108 12.3903 12.2102 -1.5166 61.5460 11.5897
# 6 -7.1290 -25.7388 -7.5893 10.9081 11.5897 52.4407
#
#
#
# Elastic Compliance Matrix: (Units=1/GPa)
#
#
# Indices 1 2 3 4 5 6 
#
# 1 0.007104 -0.001373 -0.002373 -0.001588 0.002155 -0.000197
# 2 -0.001373 0.007787 -0.004610 -0.004479 -0.001847 0.004308
# 3 -0.002373 -0.004610 0.014563 0.005163 -0.002100 -0.001088
# 4 -0.001588 -0.004479 0.005163 0.028502 0.001768 -0.007986
# 5 0.002155 -0.001847 -0.002100 0.001768 0.018520 -0.005378
# 6 -0.000197 0.004308 -0.001088 -0.007986 -0.005378 0.023849
#
#
# Mechanical properties :
#
#
# Convention : Reuss Voigt Hill
#
# Bulk Modulus (GPa) = 78.47527 92.18786 85.33156
# Shear Modulus (GPa) = 41.22564 51.79824 46.51194
#
# Velocity S-wave (km/s) = 3.97735 4.45829 4.22467
# Velocity P-wave (km/s) = 7.15580 7.86617 7.51938
#
# Compressibility (1/GPa) = 0.01274287
#
# Stress axis : x y z
#
# Youngs Moduli (GPa) = 140.76451 128.42714 68.66672
#
# Poissons Ratio (x) = 0.17630 0.16291
# Poissons Ratio (y) = 0.19324 0.31656
# Poissons Ratio (z) = 0.33396 0.59206
#
# Static dielectric constant tensor:
#      x y z
#    x 2.080210 -0.047540 -0.001520 
#    y -0.047540 2.146730 0.018910 
#    z -0.001520 0.018910 2.130490 
# 
# From -- ./inp_files/179531.got.cif
#   From: 2010.05.17/outbox.cif.g08.bks.cpg/sg2_90_cif.got.tgz:179531.got - 2010.06.03 11:33:40.
