data_PCOD9012437
_publ_section_title
;
Structure prediction by ZEFSAII (Michael W. Deem and Ramdas Pophale) SiO2 
 PCOD9012437
Probable space group: P -1
;
_chemical_formula_sum "Si O2"
_cell_formula_units_Z 16
_cell_length_a 14.425266
_cell_length_b 8.336714
_cell_length_c 8.229256
_cell_angle_alpha 126.145510
_cell_angle_beta 109.953307
_cell_angle_gamma 103.355594
_cell_volume 617.468094
_symmetry_space_group_name_H-M "P -1"
_symmetry_group_IT_number 2
_symmetry_cell_setting 'triclinic'
loop_
_space_group_symop_operation_xyz
x,y,z
-x,-y,-z
loop_
_atom_site_type_symbol
_atom_site_label
_atom_site_fract_x
_atom_site_fract_y
_atom_site_fract_z
Si Si1 0.507817 0.628333 0.847112
Si Si2 0.913484 0.374906 0.528566
Si Si3 0.729977 0.939137 0.955547
Si Si4 0.415120 0.875582 0.120039
Si Si5 0.677058 0.845865 0.394380
Si Si6 0.949085 0.107240 0.653937
Si Si7 0.352843 0.725031 0.337049
Si Si8 0.854261 0.703855 0.850234
O O1 0.600050 0.717967 0.808417
O O2 0.402824 0.347269 0.628777
O O3 0.441560 0.764029 0.917511
O O4 0.596545 0.724422 0.113218
O O5 0.966256 0.336446 0.702575
O O6 0.858917 0.528879 0.623033
O O7 0.000000 0.500000 0.500000
O O8 0.811601 0.100559 0.252880
O O9 0.810556 0.870935 0.869565
O O10 0.698005 0.111861 0.958222
O O11 0.393565 0.721240 0.177309
O O12 0.532772 0.137157 0.393842
O O13 0.809135 0.913853 0.490648
O O14 0.689690 0.095182 0.579394
O O15 0.000000 0.000000 0.500000
O O16 0.022364 0.164308 0.898342
O O17 0.248064 0.468833 0.183655
#
# Coordination Sequence:
#
# PCOD9012437 Si02
#       8
#     2   2   2   2   2   2   2   2
#     4  10  21  41  71 104 143 189 232 311 365 429
#     4  12  28  50  74 110 151 195 254 310 373 442
#     4  12  26  49  72 111 153 190 251 304 384 444
#     4  10  24  42  71 104 150 189 242 305 372 445
#     4  10  21  40  70 103 140 178 251 293 360 434
#     4  12  24  48  76 110 146 198 252 306 366 451
#     4  10  23  45  69 107 139 189 253 298 364 452
#     4  12  27  48  80 103 156 199 247 310 376 439
#
# _framework density 25.912269999999999
#
# number of rings (size 3 to 8) (size 9 to 14) (size 15 to 20)
#    0.000    1.000    3.750    1.500   10.500    1.000 
#    4.500    0.000    0.000    0.000    0.000    0.000 
#    0.000    0.000    0.000    0.000    0.000    0.000 
#
# Total GULP energy -89674.210656 kJ/mol
# GULP energy per Si atom -5604.638166 kJ/mol
# Density = 2.585329 g / cm^3
# Si number density = 25.912270 Si / 1000 Ang^3
#
#
#
# Elastic Constant Matrix: (Units=GPa)
#
#
# Indices 1 2 3 4 5 6 
#
# 1 194.1293 61.9847 42.8603 7.0443 -10.9630 -19.5829
# 2 61.9847 71.8300 20.7203 0.7867 2.7681 1.1518
# 3 42.8603 20.7203 42.3322 4.4675 2.7202 -3.7251
# 4 7.0443 0.7867 4.4675 34.2014 -4.4102 -0.0561
# 5 -10.9630 2.7681 2.7202 -4.4102 46.9934 13.4709
# 6 -19.5829 1.1518 -3.7251 -0.0561 13.4709 60.9569
#
#
#
# Elastic Compliance Matrix: (Units=1/GPa)
#
#
# Indices 1 2 3 4 5 6 
#
# 1 0.008660 -0.005919 -0.005752 -0.000629 0.002044 0.002090
# 2 -0.005919 0.020313 -0.004152 0.001083 -0.001610 -0.002182
# 3 -0.005752 -0.004152 0.032150 -0.003376 -0.003555 0.000978
# 4 -0.000629 0.001083 -0.003376 0.030186 0.003131 -0.001093
# 5 0.002044 -0.001610 -0.003555 0.003131 0.023718 -0.004769
# 6 0.002090 -0.002182 0.000978 -0.001093 -0.004769 0.018230
#
#
# Mechanical properties :
#
#
# Convention : Reuss Voigt Hill
#
# Bulk Modulus (GPa) = 33.92631 62.15800 48.04216
# Shear Modulus (GPa) = 28.61570 40.61208 34.61389
#
# Velocity S-wave (km/s) = 3.32675 3.96320 3.65884
# Velocity P-wave (km/s) = 5.27992 6.70690 6.03573
#
# Compressibility (1/GPa) = 0.02947564
#
# Stress axis : x y z
#
# Youngs Moduli (GPa) = 115.46951 49.23011 31.10467
#
# Poissons Ratio (x) = 0.29142 0.17891
# Poissons Ratio (y) = 0.68352 0.12915
# Poissons Ratio (z) = 0.66417 0.20441
#
# Static dielectric constant tensor:
#      x y z
#    x 1.987250 -0.036820 -0.007430 
#    y -0.036820 2.109620 -0.040670 
#    z -0.007430 -0.040670 2.016780 
# 
# From -- ./inp_files/299783.got.cif
#   From: 2010.05.17/outbox.cif.g08.bks.cpg/sg2_150_cif.got.tgz:299783.got - 2010.06.03 11:33:40.
