data_PCOD9012923
_publ_section_title
;
Structure prediction by ZEFSAII (Michael W. Deem and Ramdas Pophale) SiO2 
 PCOD9012923
Probable space group: P -1
;
_chemical_formula_sum "Si O2"
_cell_formula_units_Z 10
_cell_length_a 5.699140
_cell_length_b 9.191344
_cell_length_c 11.178867
_cell_angle_alpha 132.972315
_cell_angle_beta 62.331619
_cell_angle_gamma 93.311519
_cell_volume 347.899147
_symmetry_space_group_name_H-M "P -1"
_symmetry_group_IT_number 2
_symmetry_cell_setting 'triclinic'
loop_
_space_group_symop_operation_xyz
x,y,z
-x,-y,-z
loop_
_atom_site_type_symbol
_atom_site_label
_atom_site_fract_x
_atom_site_fract_y
_atom_site_fract_z
Si Si1 0.283614 0.507305 0.873508
Si Si2 0.726671 0.763686 0.773080
Si Si3 0.139012 0.364071 0.577116
Si Si4 0.423138 0.925924 0.348373
Si Si5 0.034847 0.030305 0.867609
O O1 0.275626 0.434081 0.697452
O O2 0.536784 0.321422 0.782897
O O3 0.216931 0.759863 0.016710
O O4 0.000000 0.500000 0.000000
O O5 0.668334 0.677624 0.612450
O O6 0.842632 0.567416 0.729258
O O7 0.006850 0.817854 0.704491
O O8 0.500000 0.000000 0.000000
O O9 0.146810 0.128238 0.479721
O O10 0.679689 0.931157 0.205492
O O11 0.500000 0.000000 0.500000
O O12 0.000000 0.000000 0.000000
#
# Coordination Sequence:
#
# PCOD9012923 Si02
#       5
#     2   2   2   2   2
#     4   9  19  38  66  90 122 163 209 261 311 370
#     4  11  24  40  60  95 134 163 205 268 318 370
#     4  10  21  41  62  89 128 167 205 258 324 365
#     4   9  20  40  63  90 125 162 208 262 313 375
#     4  11  20  38  67  96 120 165 220 259 309 377
#
# _framework density 28.743963999999998
#
# number of rings (size 3 to 8) (size 9 to 14) (size 15 to 20)
#    0.000    2.000    2.000    1.200    2.800    0.800 
#   14.400   10.000    0.000    0.000    0.000    0.000 
#    0.000    0.000    0.000    0.000    0.000    0.000 
#
# Total GULP energy -55944.306752 kJ/mol
# GULP energy per Si atom -5594.430675 kJ/mol
# Density = 2.867854 g / cm^3
# Si number density = 28.743964 Si / 1000 Ang^3
#
#
#
# Elastic Constant Matrix: (Units=GPa)
#
#
# Indices 1 2 3 4 5 6 
#
# 1 55.7306 54.2806 33.6538 5.7055 -23.7209 -8.9154
# 2 54.2806 290.9889 75.5343 59.2180 -20.8669 -4.2054
# 3 33.6538 75.5343 150.7599 17.4852 -25.8774 -9.7962
# 4 5.7055 59.2180 17.4852 88.8332 -21.9903 -3.5666
# 5 -23.7209 -20.8669 -25.8774 -21.9903 58.5111 14.7538
# 6 -8.9154 -4.2054 -9.7962 -3.5666 14.7538 57.0740
#
#
#
# Elastic Compliance Matrix: (Units=1/GPa)
#
#
# Indices 1 2 3 4 5 6 
#
# 1 0.028079 -0.004713 -0.002636 0.004346 0.009838 0.001315
# 2 -0.004713 0.005264 -0.001541 -0.003388 -0.001904 -0.000332
# 3 -0.002636 -0.001541 0.008355 0.000063 0.002001 0.000395
# 4 0.004346 -0.003388 0.000063 0.014745 0.006183 -0.000237
# 5 0.009838 -0.001904 0.002001 0.006183 0.024681 -0.004254
# 6 0.001315 -0.000332 0.000395 -0.000237 -0.004254 0.018855
#
#
# Mechanical properties :
#
#
# Convention : Reuss Voigt Hill
#
# Bulk Modulus (GPa) = 41.81056 91.60185 66.70621
# Shear Modulus (GPa) = 39.76685 63.15105 51.45895
#
# Velocity S-wave (km/s) = 3.72356 4.69232 4.23573
# Velocity P-wave (km/s) = 5.75013 7.82909 6.86872
#
# Compressibility (1/GPa) = 0.02391740
#
# Stress axis : x y z
#
# Youngs Moduli (GPa) = 35.61346 189.97823 119.68373
#
# Poissons Ratio (x) = 0.89544 0.31554
# Poissons Ratio (y) = 0.16786 0.18439
# Poissons Ratio (z) = 0.09389 0.29270
#
# Static dielectric constant tensor:
#      x y z
#    x 2.355830 -0.042180 -0.010760 
#    y -0.042180 2.212740 -0.131700 
#    z -0.010760 -0.131700 2.798230 
# 
# From -- ./inp_files/176342.got.cif
#   From: 2010.05.17/outbox.cif.g08.bks.cpg/sg2_89_cif.got.tgz:176342.got - 2010.06.03 11:33:40.
