data_PCOD9012231
_publ_section_title
;
Structure prediction by ZEFSAII (Michael W. Deem and Ramdas Pophale) SiO2 
 PCOD9012231
Probable space group: P -1
;
_chemical_formula_sum "Si O2"
_cell_formula_units_Z 14
_cell_length_a 14.746839
_cell_length_b 11.162179
_cell_length_c 14.017812
_cell_angle_alpha 147.149817
_cell_angle_beta 150.105669
_cell_angle_gamma 31.072210
_cell_volume 549.225561
_symmetry_space_group_name_H-M "P -1"
_symmetry_group_IT_number 2
_symmetry_cell_setting 'triclinic'
loop_
_space_group_symop_operation_xyz
x,y,z
-x,-y,-z
loop_
_atom_site_type_symbol
_atom_site_label
_atom_site_fract_x
_atom_site_fract_y
_atom_site_fract_z
Si Si1 0.251131 0.668097 0.718711
Si Si2 0.209589 0.040858 0.497380
Si Si3 0.471917 0.956213 0.837207
Si Si4 0.194147 0.914817 0.017644
Si Si5 0.875507 0.662735 0.901852
Si Si6 0.823760 0.803831 0.640813
Si Si7 0.575270 0.488157 0.425456
O O1 0.021375 0.904784 0.653523
O O2 0.196202 0.439367 0.515755
O O3 0.400493 0.608936 0.725956
O O4 0.322555 0.718507 0.920160
O O5 0.220727 0.161925 0.489194
O O6 0.285258 0.137753 0.721979
O O7 0.372334 0.752893 0.430109
O O8 0.677422 0.886453 0.920820
O O9 0.441449 0.711279 0.655693
O O10 0.500000 0.000000 0.000000
O O11 0.068686 0.188821 0.030716
O O12 0.298863 0.978825 0.245979
O O13 0.043934 0.806240 0.845208
O O14 0.778474 0.510311 0.654676
O O15 0.000000 0.500000 0.000000
#
# Coordination Sequence:
#
# PCOD9012231 Si02
#       7
#     2   2   2   2   2   2   2
#     4  11  23  44  72 102 138 187 231 278 354 416
#     4  10  23  43  69  95 139 181 226 285 351 397
#     4  11  26  45  64 103 140 177 238 291 344 422
#     4  10  21  40  69 101 135 180 235 279 341 422
#     4  11  24  41  71  99 135 182 231 281 353 412
#     4  10  22  43  68 102 143 179 234 289 339 413
#     4  11  25  46  68 102 142 179 233 294 348 411
#
# _framework density 25.490438999999999
#
# number of rings (size 3 to 8) (size 9 to 14) (size 15 to 20)
#    0.000    1.429    1.429    4.286   10.000    1.143 
#    5.143    0.714    0.000    0.000    0.000    0.000 
#    0.000    0.000    0.000    0.000    0.000    0.000 
#
# Total GULP energy -78144.637675 kJ/mol
# GULP energy per Si atom -5581.759834 kJ/mol
# Density = 2.543242 g / cm^3
# Si number density = 25.490439 Si / 1000 Ang^3
#
#
#
# Elastic Constant Matrix: (Units=GPa)
#
#
# Indices 1 2 3 4 5 6 
#
# 1 134.8443 16.1204 26.5370 7.9664 -18.3089 8.7585
# 2 16.1204 46.4683 17.3088 -7.7718 5.2488 8.9331
# 3 26.5370 17.3088 119.3458 6.2696 -30.9308 5.4510
# 4 7.9664 -7.7718 6.2696 38.5355 10.0058 -1.1754
# 5 -18.3089 5.2488 -30.9308 10.0058 65.0575 9.4024
# 6 8.7585 8.9331 5.4510 -1.1754 9.4024 34.9659
#
#
#
# Elastic Compliance Matrix: (Units=1/GPa)
#
#
# Indices 1 2 3 4 5 6 
#
# 1 0.008700 -0.003445 -0.000251 -0.003423 0.003467 -0.002307
# 2 -0.003445 0.027486 -0.005219 0.008699 -0.006530 -0.003297
# 3 -0.000251 -0.005219 0.011302 -0.004672 0.006781 -0.002346
# 4 -0.003423 0.008699 -0.004672 0.031642 -0.009171 0.002893
# 5 0.003467 -0.006530 0.006781 -0.009171 0.022463 -0.006606
# 6 -0.002307 -0.003297 -0.002346 0.002893 -0.006606 0.032259
#
#
# Mechanical properties :
#
#
# Convention : Reuss Voigt Hill
#
# Bulk Modulus (GPa) = 33.71884 46.73232 40.22558
# Shear Modulus (GPa) = 30.94685 43.75791 37.35238
#
# Velocity S-wave (km/s) = 3.48811 4.14773 3.83214
# Velocity P-wave (km/s) = 5.42949 6.42739 5.94940
#
# Compressibility (1/GPa) = 0.02965701
#
# Stress axis : x y z
#
# Youngs Moduli (GPa) = 114.94160 36.38269 88.48106
#
# Poissons Ratio (x) = 0.12535 0.02222
# Poissons Ratio (y) = 0.39600 0.46178
# Poissons Ratio (z) = 0.02886 0.18988
#
# Static dielectric constant tensor:
#      x y z
#    x 2.054250 -0.077660 0.004640 
#    y -0.077660 3.003860 -0.877500 
#    z 0.004640 -0.877500 2.934460 
# 
# From -- ./inp_files/538368.got.cif
#   From: 2010.05.17/outbox.cif.g08.bks.cpg/sg2_270_cif.got.tgz:538368.got - 2010.06.03 11:33:40.
