data_PCOD9012074
_publ_section_title
;
Structure prediction by ZEFSAII (Michael W. Deem and Ramdas Pophale) SiO2 
 PCOD9012074
Probable space group: P -1
;
_chemical_formula_sum "Si O2"
_cell_formula_units_Z 16
_cell_length_a 10.410854
_cell_length_b 13.552726
_cell_length_c 12.356717
_cell_angle_alpha 114.326120
_cell_angle_beta 155.359880
_cell_angle_gamma 64.946130
_cell_volume 656.805891
_symmetry_space_group_name_H-M "P -1"
_symmetry_group_IT_number 2
_symmetry_cell_setting 'triclinic'
loop_
_space_group_symop_operation_xyz
x,y,z
-x,-y,-z
loop_
_atom_site_type_symbol
_atom_site_label
_atom_site_fract_x
_atom_site_fract_y
_atom_site_fract_z
Si Si1 0.995405 0.649972 0.141593
Si Si2 0.893057 0.328645 0.527709
Si Si3 0.263334 0.142944 0.064036
Si Si4 0.632389 0.134938 0.133350
Si Si5 0.578575 0.461354 0.747417
Si Si6 0.269126 0.926101 0.237234
Si Si7 0.684680 0.573007 0.251149
Si Si8 0.638439 0.932661 0.329469
O O1 0.041440 0.711611 0.317636
O O2 0.314113 0.614330 0.305671
O O3 0.777041 0.726258 0.924725
O O4 0.843702 0.540872 0.003094
O O5 0.686405 0.258358 0.264470
O O6 0.719200 0.450863 0.464454
O O7 0.199928 0.336160 0.696030
O O8 0.923259 0.127665 0.842572
O O9 0.397635 0.102764 0.031084
O O10 0.502068 0.062740 0.284160
O O11 0.990427 0.079032 0.389719
O O12 0.492870 0.115531 0.901712
O O13 0.513227 0.398776 0.778966
O O14 0.490570 0.870639 0.287162
O O15 0.500000 0.000000 0.500000
O O16 0.000000 0.000000 0.000000
O O17 0.000000 0.500000 0.500000
O O18 0.500000 0.500000 0.000000
#
# Coordination Sequence:
#
# PCOD9012074 Si02
#       8
#     2   2   2   2   2   2   2   2
#     4  11  22  41  68  93 133 171 222 281 334 403
#     4  11  23  41  67  97 138 175 226 275 343 399
#     4  11  24  45  68 102 134 181 228 280 345 404
#     4  12  25  42  71 104 139 180 226 285 342 408
#     4  10  22  42  64  96 129 173 223 276 338 394
#     4  10  23  45  71  96 137 183 226 282 342 402
#     4  10  21  40  68  94 131 178 218 274 337 404
#     4  11  25  45  69 100 141 182 228 283 339 409
#
# _framework density 24.360316999999998
#
# number of rings (size 3 to 8) (size 9 to 14) (size 15 to 20)
#    0.000    1.250    2.500    3.375    0.000    6.000 
#    0.000    1.250    0.000    0.000    0.000    0.000 
#    0.000    0.000    0.000    0.000    0.000    0.000 
#
# Total GULP energy -89322.500602 kJ/mol
# GULP energy per Si atom -5582.656288 kJ/mol
# Density = 2.430487 g / cm^3
# Si number density = 24.360317 Si / 1000 Ang^3
#
#
#
# Elastic Constant Matrix: (Units=GPa)
#
#
# Indices 1 2 3 4 5 6 
#
# 1 235.1277 41.5680 71.7254 13.5473 30.5041 1.6547
# 2 41.5680 88.2339 25.8343 -15.1339 6.5848 1.0694
# 3 71.7254 25.8343 138.8105 8.5045 -0.5362 5.1239
# 4 13.5473 -15.1339 8.5045 38.9623 -1.9302 9.2054
# 5 30.5041 6.5848 -0.5362 -1.9302 47.5545 2.8261
# 6 1.6547 1.0694 5.1239 9.2054 2.8261 29.4859
#
#
#
# Elastic Compliance Matrix: (Units=1/GPa)
#
#
# Indices 1 2 3 4 5 6 
#
# 1 0.006133 -0.002376 -0.002612 -0.003033 -0.003847 0.001512
# 2 -0.002376 0.014261 -0.001788 0.007310 -0.000034 -0.002352
# 3 -0.002612 -0.001788 0.009021 -0.001391 0.002034 -0.001117
# 4 -0.003033 0.007310 -0.001391 0.032425 0.002843 -0.010249
# 5 -0.003847 -0.000034 0.002034 0.002843 0.023836 -0.003309
# 6 0.001512 -0.002352 -0.001117 -0.010249 -0.003309 0.037626
#
#
# Mechanical properties :
#
#
# Convention : Reuss Voigt Hill
#
# Bulk Modulus (GPa) = 63.03547 82.26971 72.65259
# Shear Modulus (GPa) = 35.17640 44.73683 39.95662
#
# Velocity S-wave (km/s) = 3.80413 4.29005 4.05437
# Velocity P-wave (km/s) = 6.72515 7.64099 7.19765
#
# Compressibility (1/GPa) = 0.01586408
#
# Stress axis : x y z
#
# Youngs Moduli (GPa) = 163.05214 70.12067 110.85860
#
# Poissons Ratio (x) = 0.16661 0.28952
# Poissons Ratio (y) = 0.38743 0.19817
# Poissons Ratio (z) = 0.42583 0.12535
#
# Static dielectric constant tensor:
#      x y z
#    x 2.027250 0.004890 0.021290 
#    y 0.004890 2.010160 -0.023920 
#    z 0.021290 -0.023920 1.926040 
# 
# From -- ./inp_files/399361.got.cif
#   From: 2010.05.17/outbox.cif.g08.bks.cpg/sg2_200_cif.got.tgz:399361.got - 2010.06.03 11:33:40.
