data_PCOD9012370
_publ_section_title
;
Structure prediction by ZEFSAII (Michael W. Deem and Ramdas Pophale) SiO2 
 PCOD9012370
Probable space group: P -1
;
_chemical_formula_sum "Si O2"
_cell_formula_units_Z 16
_cell_length_a 9.955495
_cell_length_b 14.855476
_cell_length_c 20.842671
_cell_angle_alpha 161.601605
_cell_angle_beta 45.469921
_cell_angle_gamma 134.867713
_cell_volume 682.499914
_symmetry_space_group_name_H-M "P -1"
_symmetry_group_IT_number 2
_symmetry_cell_setting 'triclinic'
loop_
_space_group_symop_operation_xyz
x,y,z
-x,-y,-z
loop_
_atom_site_type_symbol
_atom_site_label
_atom_site_fract_x
_atom_site_fract_y
_atom_site_fract_z
Si Si1 0.999991 0.331612 0.479546
Si Si2 0.369816 0.047138 0.694752
Si Si3 0.187221 0.164650 0.172605
Si Si4 0.425366 0.479199 0.751520
Si Si5 0.778088 0.403232 0.985990
Si Si6 0.316161 0.273941 0.431045
Si Si7 0.855969 0.501735 0.246928
Si Si8 0.260854 0.535393 0.114377
O O1 0.927065 0.631525 0.692920
O O2 0.131466 0.251051 0.322012
O O3 0.130319 0.350833 0.510414
O O4 0.810371 0.081035 0.376645
O O5 0.555862 0.299017 0.797884
O O6 0.475070 0.775227 0.482371
O O7 0.265521 0.190238 0.884799
O O8 0.410180 0.249623 0.136376
O O9 0.143385 0.821849 0.947959
O O10 0.229932 0.516187 0.807343
O O11 0.363073 0.430039 0.813039
O O12 0.753058 0.431029 0.936321
O O13 0.698117 0.067737 0.804554
O O14 0.000000 0.500000 0.000000
O O15 0.500000 0.500000 0.500000
O O16 0.283388 0.333387 0.556174
O O17 0.075105 0.650109 0.277849
#
# Coordination Sequence:
#
# PCOD9012370 Si02
#       8
#     2   2   2   2   2   2   2   2
#     4  10  21  44  68  95 139 175 223 281 346 400
#     4  10  23  45  64  98 133 180 229 273 343 404
#     4  10  21  40  69  97 130 180 222 278 342 409
#     4  11  23  41  71  99 132 182 231 276 342 405
#     4  12  25  44  70  99 143 179 228 286 338 401
#     4  12  27  45  70 106 137 178 229 290 338 404
#     4  12  23  42  69 101 139 178 228 280 340 405
#     4  11  24  44  67  99 139 181 226 279 340 408
#
# _framework density 23.443225000000002
#
# number of rings (size 3 to 8) (size 9 to 14) (size 15 to 20)
#    0.000    1.000    2.500    4.125    1.750    4.000 
#    9.000    0.000    0.000    0.000    0.000    0.000 
#    0.000    0.000    0.000    0.000    0.000    0.000 
#
# Total GULP energy -89257.522090 kJ/mol
# GULP energy per Si atom -5578.595131 kJ/mol
# Density = 2.338987 g / cm^3
# Si number density = 23.443225 Si / 1000 Ang^3
#
#
#
# Elastic Constant Matrix: (Units=GPa)
#
#
# Indices 1 2 3 4 5 6 
#
# 1 101.6701 47.1023 22.5911 0.5942 9.6886 21.5431
# 2 47.1023 106.5502 21.4893 -16.2246 7.2362 25.2179
# 3 22.5911 21.4893 59.2835 9.5722 -1.3109 7.8005
# 4 0.5942 -16.2246 9.5722 32.8634 10.2119 -1.4860
# 5 9.6886 7.2362 -1.3109 10.2119 20.1818 -1.0104
# 6 21.5431 25.2179 7.8005 -1.4860 -1.0104 40.6472
#
#
#
# Elastic Compliance Matrix: (Units=1/GPa)
#
#
# Indices 1 2 3 4 5 6 
#
# 1 0.013938 -0.003927 -0.003520 0.000494 -0.005982 -0.004406
# 2 -0.003927 0.016879 -0.006145 0.013533 -0.011764 -0.007009
# 3 -0.003520 -0.006145 0.022705 -0.013311 0.012160 0.001136
# 4 0.000494 0.013533 -0.013311 0.050641 -0.031830 -0.005043
# 5 -0.005982 -0.011764 0.012160 -0.031830 0.073976 0.008811
# 6 -0.004406 -0.007009 0.001136 -0.005043 0.008811 0.031102
#
#
# Mechanical properties :
#
#
# Convention : Reuss Voigt Hill
#
# Bulk Modulus (GPa) = 37.96763 49.98547 43.97655
# Shear Modulus (GPa) = 20.39101 30.49323 25.44212
#
# Velocity S-wave (km/s) = 2.95244 3.61047 3.29791
# Velocity P-wave (km/s) = 5.27762 6.22486 5.77071
#
# Compressibility (1/GPa) = 0.02633823
#
# Stress axis : x y z
#
# Youngs Moduli (GPa) = 71.74549 59.24468 44.04222
#
# Poissons Ratio (x) = 0.23268 0.15503
# Poissons Ratio (y) = 0.28177 0.27063
# Poissons Ratio (z) = 0.25255 0.36404
#
# Static dielectric constant tensor:
#      x y z
#    x 1.897530 0.009520 0.015660 
#    y 0.009520 1.987270 -0.022170 
#    z 0.015660 -0.022170 1.982510 
# 
# From -- ./inp_files/590513.got.cif
#   From: 2010.05.17/outbox.cif.g08.bks.cpg/sg2_296_cif.got.tgz:590513.got - 2010.06.03 11:33:40.
