data_PCOD9012359
_publ_section_title
;
Structure prediction by ZEFSAII (Michael W. Deem and Ramdas Pophale) SiO2 
 PCOD9012359
Probable space group: P -1
;
_chemical_formula_sum "Si O2"
_cell_formula_units_Z 14
_cell_length_a 11.847811
_cell_length_b 9.719212
_cell_length_c 14.572187
_cell_angle_alpha 150.455105
_cell_angle_beta 52.268576
_cell_angle_gamma 118.353406
_cell_volume 647.261469
_symmetry_space_group_name_H-M "P -1"
_symmetry_group_IT_number 2
_symmetry_cell_setting 'triclinic'
loop_
_space_group_symop_operation_xyz
x,y,z
-x,-y,-z
loop_
_atom_site_type_symbol
_atom_site_label
_atom_site_fract_x
_atom_site_fract_y
_atom_site_fract_z
Si Si1 0.000520 0.144628 0.985345
Si Si2 0.772266 0.410929 0.124498
Si Si3 0.232390 0.955669 0.470665
Si Si4 0.854639 0.358585 0.494593
Si Si5 0.824055 0.391621 0.878278
Si Si6 0.519093 0.636583 0.166198
Si Si7 0.459542 0.331260 0.197613
O O1 0.108133 0.929836 0.746722
O O2 0.053440 0.448919 0.132822
O O3 0.847401 0.197586 0.039795
O O4 0.000000 0.000000 0.000000
O O5 0.598392 0.444031 0.239676
O O6 0.819821 0.718863 0.293770
O O7 0.829374 0.303264 0.931766
O O8 0.171931 0.738825 0.444457
O O9 0.205244 0.852348 0.320437
O O10 0.402987 0.912024 0.386242
O O11 0.709121 0.541195 0.629749
O O12 0.000000 0.500000 0.500000
O O13 0.686371 0.641326 0.095400
O O14 0.480024 0.416240 0.131930
O O15 0.500000 0.500000 0.000000
O O16 0.500000 0.000000 0.000000
#
# Coordination Sequence:
#
# PCOD9012359 Si02
#       7
#     2   2   2   2   2   2   2
#     4  12  26  45  62  96 139 179 225 278 344 396
#     4  11  24  44  69  98 134 173 228 286 322 404
#     4  10  21  40  70 102 129 173 227 268 341 396
#     4  11  23  42  69  99 139 182 217 273 341 401
#     4  10  21  40  69  96 134 171 220 278 331 401
#     4   8  18  36  63  96 128 165 210 271 326 396
#     4  10  22  41  68  97 133 177 221 277 335 392
#
# _framework density 21.629587999999998
#
# number of rings (size 3 to 8) (size 9 to 14) (size 15 to 20)
#    0.000    1.714    1.429    2.143    2.000    4.571 
#   10.286    0.714    0.000    0.000    0.000    0.000 
#    0.000    0.000    0.000    0.000    0.000    0.000 
#
# Total GULP energy -78022.214111 kJ/mol
# GULP energy per Si atom -5573.015294 kJ/mol
# Density = 2.158036 g / cm^3
# Si number density = 21.629588 Si / 1000 Ang^3
#
#
#
# Elastic Constant Matrix: (Units=GPa)
#
#
# Indices 1 2 3 4 5 6 
#
# 1 130.6146 71.7167 50.7636 2.0977 -22.8108 -13.0206
# 2 71.7167 65.3978 27.0047 6.1316 -10.9694 -1.7755
# 3 50.7636 27.0047 87.4352 9.5216 -9.6867 -11.4094
# 4 2.0977 6.1316 9.5216 31.4344 0.8710 0.8795
# 5 -22.8108 -10.9694 -9.6867 0.8710 42.6622 1.2392
# 6 -13.0206 -1.7755 -11.4094 0.8795 1.2392 48.1072
#
#
#
# Elastic Compliance Matrix: (Units=1/GPa)
#
#
# Indices 1 2 3 4 5 6 
#
# 1 0.024110 -0.023317 -0.006188 0.004556 0.005282 0.003978
# 2 -0.023317 0.040713 0.000924 -0.006499 -0.001528 -0.004431
# 3 -0.006188 0.000924 0.015573 -0.004557 0.000496 0.002123
# 4 0.004556 -0.006499 -0.004557 0.034202 -0.000948 -0.000688
# 5 0.005282 -0.001528 0.000496 -0.000948 0.025979 0.000839
# 6 0.003978 -0.004431 0.002123 -0.000688 0.000839 0.022195
#
#
# Mechanical properties :
#
#
# Convention : Reuss Voigt Hill
#
# Bulk Modulus (GPa) = 43.04451 64.71307 53.87879
# Shear Modulus (GPa) = 21.96080 33.37160 27.66620
#
# Velocity S-wave (km/s) = 3.18985 3.93220 3.58032
# Velocity P-wave (km/s) = 5.78886 7.11336 6.48501
#
# Compressibility (1/GPa) = 0.02323177
#
# Stress axis : x y z
#
# Youngs Moduli (GPa) = 41.47666 24.56237 64.21460
#
# Poissons Ratio (x) = 0.57273 0.39737
# Poissons Ratio (y) = 0.96713 -0.05931
# Poissons Ratio (z) = 0.25666 -0.02269
#
# Static dielectric constant tensor:
#      x y z
#    x 1.893880 0.034910 -0.053560 
#    y 0.034910 1.787240 -0.039400 
#    z -0.053560 -0.039400 1.786320 
# 
# From -- ./inp_files/516447.got.cif
#   From: 2010.05.17/outbox.cif.g08.bks.cpg/sg2_259_cif.got.tgz:516447.got - 2010.06.03 11:33:40.
