data_PCOD9012104
_publ_section_title
;
Structure prediction by ZEFSAII (Michael W. Deem and Ramdas Pophale) SiO2 
 PCOD9012104
Probable space group: P -1
;
_chemical_formula_sum "Si O2"
_cell_formula_units_Z 16
_cell_length_a 5.483411
_cell_length_b 11.339888
_cell_length_c 18.108401
_cell_angle_alpha 40.814175
_cell_angle_beta 90.439277
_cell_angle_gamma 74.837332
_cell_volume 671.550545
_symmetry_space_group_name_H-M "P -1"
_symmetry_group_IT_number 2
_symmetry_cell_setting 'triclinic'
loop_
_space_group_symop_operation_xyz
x,y,z
-x,-y,-z
loop_
_atom_site_type_symbol
_atom_site_label
_atom_site_fract_x
_atom_site_fract_y
_atom_site_fract_z
Si Si1 0.392980 0.195702 0.957713
Si Si2 0.884179 0.875360 0.610543
Si Si3 0.133214 0.764339 0.119733
Si Si4 0.881234 0.370969 0.515638
Si Si5 0.636486 0.397461 0.650185
Si Si6 0.616217 0.754957 0.901524
Si Si7 0.136815 0.713955 0.838844
Si Si8 0.318308 0.203044 0.495353
O O1 0.434937 0.135366 0.072003
O O2 0.580059 0.309768 0.884753
O O3 0.080228 0.305201 0.884803
O O4 0.500000 0.000000 0.000000
O O5 0.804049 0.750649 0.608793
O O6 0.083818 0.762162 0.729433
O O7 0.601117 0.020414 0.576685
O O8 0.000000 0.000000 0.500000
O O9 0.191087 0.726876 0.223998
O O10 0.000000 0.000000 0.000000
O O11 0.731636 0.310850 0.609794
O O12 0.681213 0.532819 0.381980
O O13 0.000000 0.500000 0.500000
O O14 0.094392 0.192552 0.555151
O O15 0.641408 0.611047 0.561033
O O16 0.347098 0.790647 0.838910
O O17 0.846092 0.792395 0.840411
O O18 0.738341 0.522356 0.034721
#
# Coordination Sequence:
#
# PCOD9012104 Si02
#       8
#     2   2   2   2   2   2   2   2
#     4  10  22  42  62  96 137 171 218 273 336 407
#     4  11  25  43  65  99 136 173 231 289 346 401
#     4  10  23  40  64  99 136 173 219 272 334 402
#     4   9  20  40  63  95 130 172 223 269 329 408
#     4  10  21  40  68  95 132 178 221 275 336 412
#     4  10  22  45  69 100 131 178 231 277 341 412
#     4  10  24  43  71  97 132 179 230 283 339 405
#     4  10  23  41  63  98 129 177 224 279 343 398
#
# _framework density 23.82546
#
# number of rings (size 3 to 8) (size 9 to 14) (size 15 to 20)
#    0.000    2.000    0.000    1.500    8.750    1.000 
#    4.500   10.000    0.000    0.000    0.000    0.000 
#    0.000    0.000    0.000    0.000    0.000    0.000 
#
# Total GULP energy -89376.940380 kJ/mol
# GULP energy per Si atom -5586.058774 kJ/mol
# Density = 2.377123 g / cm^3
# Si number density = 23.825460 Si / 1000 Ang^3
#
#
#
# Elastic Constant Matrix: (Units=GPa)
#
#
# Indices 1 2 3 4 5 6 
#
# 1 172.8932 37.0728 47.2661 24.3727 32.5964 -9.3781
# 2 37.0728 108.3770 26.5522 30.8349 8.8517 -10.5551
# 3 47.2661 26.5522 122.3021 34.0559 35.8174 2.1887
# 4 24.3727 30.8349 34.0559 31.7864 8.7463 -0.0573
# 5 32.5964 8.8517 35.8174 8.7463 34.0693 17.8958
# 6 -9.3781 -10.5551 2.1887 -0.0573 17.8958 35.9202
#
#
#
# Elastic Compliance Matrix: (Units=1/GPa)
#
#
# Indices 1 2 3 4 5 6 
#
# 1 0.009251 -0.000076 0.001963 -0.005088 -0.014598 0.009538
# 2 -0.000076 0.013991 0.002922 -0.014815 -0.006601 0.007178
# 3 0.001963 0.002922 0.018437 -0.017496 -0.023899 0.012126
# 4 -0.005088 -0.014815 -0.017496 0.063545 0.017836 -0.013400
# 5 -0.014598 -0.006601 -0.023899 0.017836 0.091862 -0.050033
# 6 0.009538 0.007178 0.012126 -0.013400 -0.050033 0.056606
#
#
# Mechanical properties :
#
#
# Convention : Reuss Voigt Hill
#
# Bulk Modulus (GPa) = 19.49489 69.48382 44.48936
# Shear Modulus (GPa) = 19.14445 39.86726 29.50586
#
# Velocity S-wave (km/s) = 2.83773 4.09504 3.52293
# Velocity P-wave (km/s) = 4.35168 7.18235 5.93815
#
# Compressibility (1/GPa) = 0.05129549
#
# Stress axis : x y z
#
# Youngs Moduli (GPa) = 108.10120 71.47693 54.23815
#
# Poissons Ratio (x) = 0.00546 -0.10646
# Poissons Ratio (y) = 0.00826 -0.15849
# Poissons Ratio (z) = -0.21219 -0.20887
#
# Static dielectric constant tensor:
#      x y z
#    x 2.145130 -0.026370 -0.040770 
#    y -0.026370 1.883320 -0.001120 
#    z -0.040770 -0.001120 1.913710 
# 
# From -- ./inp_files/482637.got.cif
#   From: 2010.05.17/outbox.cif.g08.bks.cpg/sg2_242_cif.got.tgz:482637.got - 2010.06.03 11:33:40.
