data_PCOD9012315
_publ_section_title
;
Structure prediction by ZEFSAII (Michael W. Deem and Ramdas Pophale) SiO2 
 PCOD9012315
Probable space group: P -1
;
_chemical_formula_sum "Si O2"
_cell_formula_units_Z 14
_cell_length_a 7.910388
_cell_length_b 11.355822
_cell_length_c 8.951868
_cell_angle_alpha 53.973262
_cell_angle_beta 79.913930
_cell_angle_gamma 83.375979
_cell_volume 640.212319
_symmetry_space_group_name_H-M "P -1"
_symmetry_group_IT_number 2
_symmetry_cell_setting 'triclinic'
loop_
_space_group_symop_operation_xyz
x,y,z
-x,-y,-z
loop_
_atom_site_type_symbol
_atom_site_label
_atom_site_fract_x
_atom_site_fract_y
_atom_site_fract_z
Si Si1 0.181151 0.558246 0.368682
Si Si2 0.340735 0.418602 0.728740
Si Si3 0.493067 0.118790 0.044003
Si Si4 0.951618 0.786938 0.129456
Si Si5 0.658592 0.904984 0.608450
Si Si6 0.169274 0.000676 0.768477
Si Si7 0.568072 0.577705 0.786393
O O1 0.315860 0.494078 0.515348
O O2 0.259099 0.497214 0.249252
O O3 0.000000 0.500000 0.500000
O O4 0.125031 0.724704 0.227032
O O5 0.155658 0.340968 0.836467
O O6 0.409117 0.549376 0.720971
O O7 0.464294 0.278975 0.855383
O O8 0.346196 0.089642 0.214566
O O9 0.665261 0.094261 0.133096
O O10 0.500000 0.000000 0.000000
O O11 0.837610 0.857226 0.228038
O O12 0.006173 0.908708 0.913011
O O13 0.814115 0.956448 0.439344
O O14 0.614606 0.741263 0.691728
O O15 0.500000 0.000000 0.500000
O O16 0.500000 0.500000 0.000000
#
# Coordination Sequence:
#
# PCOD9012315 Si02
#       7
#     2   2   2   2   2   2   2
#     4  10  23  41  67  95 140 179 223 270 340 404
#     4  11  22  42  66 102 132 176 237 272 334 405
#     4  11  21  39  70  96 128 170 231 287 327 399
#     4  10  21  41  67  99 136 187 219 277 334 411
#     4  10  23  41  65  95 133 172 219 279 343 394
#     4  10  21  40  69  92 138 180 224 270 347 396
#     4  12  24  42  71  99 136 178 224 293 337 394
#
# _framework density 21.867747999999999
#
# number of rings (size 3 to 8) (size 9 to 14) (size 15 to 20)
#    0.000    1.429    2.857    3.000    4.000    0.000 
#    0.000    3.571    0.000    0.000    0.000    0.000 
#    0.000    0.000    0.000    0.000    0.000    0.000 
#
# Total GULP energy -77995.887076 kJ/mol
# GULP energy per Si atom -5571.134791 kJ/mol
# Density = 2.181798 g / cm^3
# Si number density = 21.867748 Si / 1000 Ang^3
#
#
#
# Elastic Constant Matrix: (Units=GPa)
#
#
# Indices 1 2 3 4 5 6 
#
# 1 74.2866 17.3634 25.4034 9.6579 9.3625 -9.7846
# 2 17.3634 74.5874 56.4059 10.5526 3.0871 -14.8849
# 3 25.4034 56.4059 162.5750 15.3304 -9.1387 -11.8258
# 4 9.6579 10.5526 15.3304 41.5893 -16.1080 1.8981
# 5 9.3625 3.0871 -9.1387 -16.1080 37.9503 -7.6822
# 6 -9.7846 -14.8849 -11.8258 1.8981 -7.6822 35.4248
#
#
#
# Elastic Compliance Matrix: (Units=1/GPa)
#
#
# Indices 1 2 3 4 5 6 
#
# 1 0.016082 -0.000824 -0.001894 -0.005308 -0.006120 0.002421
# 2 -0.000824 0.020227 -0.006280 -0.004292 -0.003639 0.005616
# 3 -0.001894 -0.006280 0.008842 -0.000008 0.003202 0.000484
# 4 -0.005308 -0.004292 -0.000008 0.032256 0.014994 -0.001749
# 5 -0.006120 -0.003639 0.003202 0.014994 0.036286 0.004915
# 6 0.002421 0.005616 0.000484 -0.001749 0.004915 0.032578
#
#
# Mechanical properties :
#
#
# Convention : Reuss Voigt Hill
#
# Bulk Modulus (GPa) = 36.82780 56.64383 46.73581
# Shear Modulus (GPa) = 28.84837 37.14464 32.99651
#
# Velocity S-wave (km/s) = 3.63605 4.12588 3.88869
# Velocity P-wave (km/s) = 5.87414 6.97541 6.44833
#
# Compressibility (1/GPa) = 0.02715340
#
# Stress axis : x y z
#
# Youngs Moduli (GPa) = 62.18159 49.43924 113.09646
#
# Poissons Ratio (x) = 0.04073 0.21426
# Poissons Ratio (y) = 0.05122 0.71030
# Poissons Ratio (z) = 0.11780 0.31050
#
# Static dielectric constant tensor:
#      x y z
#    x 0.227710 0.939360 -0.260370 
#    y 0.939360 1.256580 0.175070 
#    z -0.260370 0.175070 1.860600 
# 
# From -- ./inp_files/174051.got.cif
#   From: 2010.05.17/outbox.cif.g08.bks.cpg/sg2_88_cif.got.tgz:174051.got - 2010.06.03 11:33:40.
