data_PCOD9012239
_publ_section_title
;
Structure prediction by ZEFSAII (Michael W. Deem and Ramdas Pophale) SiO2 
 PCOD9012239
Probable space group: P -1
;
_chemical_formula_sum "Si O2"
_cell_formula_units_Z 14
_cell_length_a 5.575982
_cell_length_b 15.351197
_cell_length_c 11.330203
_cell_angle_alpha 45.588325
_cell_angle_beta 124.115684
_cell_angle_gamma 133.959391
_cell_volume 493.344057
_symmetry_space_group_name_H-M "P -1"
_symmetry_group_IT_number 2
_symmetry_cell_setting 'triclinic'
loop_
_space_group_symop_operation_xyz
x,y,z
-x,-y,-z
loop_
_atom_site_type_symbol
_atom_site_label
_atom_site_fract_x
_atom_site_fract_y
_atom_site_fract_z
Si Si1 0.473717 0.290540 0.151011
Si Si2 0.541477 0.183142 0.048684
Si Si3 0.540801 0.552227 0.773457
Si Si4 0.175510 0.301783 0.512714
Si Si5 0.188338 0.651787 0.248432
Si Si6 0.866129 0.007783 0.584384
Si Si7 0.164861 0.855992 0.212665
O O1 0.475740 0.340268 0.238899
O O2 0.158851 0.127526 0.226306
O O3 0.667549 0.240319 0.160767
O O4 0.539685 0.426815 0.965092
O O5 0.821330 0.308699 0.926828
O O6 0.196351 0.173610 0.910567
O O7 0.418129 0.018284 0.160195
O O8 0.796140 0.606288 0.681086
O O9 0.168520 0.470657 0.691570
O O10 0.523146 0.377160 0.607678
O O11 0.112300 0.156688 0.571848
O O12 0.898777 0.240553 0.597474
O O13 0.292124 0.800356 0.196323
O O14 0.500000 0.000000 0.500000
O O15 0.000000 0.000000 0.500000
#
# Coordination Sequence:
#
# PCOD9012239 Si02
#       7
#     2   2   2   2   2   2   2
#     4  11  24  48  74 108 157 197 264 316 398 463
#     4  10  21  41  65 107 135 192 255 315 382 451
#     4  11  25  47  71 110 158 208 252 315 397 479
#     4  11  25  46  73 109 147 199 261 320 389 459
#     4  11  24  42  72 105 152 200 255 317 390 470
#     4  12  28  53  81 117 156 205 272 331 394 470
#     4  10  21  40  69 101 144 187 249 322 379 448
#
# _framework density 28.377759999999999
#
# number of rings (size 3 to 8) (size 9 to 14) (size 15 to 20)
#    0.000    1.143    4.286    0.857    2.000    3.429 
#    5.143    0.000    0.000    0.000    0.000    0.000 
#    0.000    0.000    0.000    0.000    0.000    0.000 
#
# Total GULP energy -78223.784997 kJ/mol
# GULP energy per Si atom -5587.413214 kJ/mol
# Density = 2.831317 g / cm^3
# Si number density = 28.377760 Si / 1000 Ang^3
#
#
#
# Elastic Constant Matrix: (Units=GPa)
#
#
# Indices 1 2 3 4 5 6 
#
# 1 71.8909 13.8199 27.5631 9.1887 -13.5003 -9.9348
# 2 13.8199 85.5487 17.2500 -2.0563 22.6997 -14.6429
# 3 27.5631 17.2500 185.8909 -10.6843 -27.4600 0.6286
# 4 9.1887 -2.0563 -10.6843 43.7338 -14.0167 2.4841
# 5 -13.5003 22.6997 -27.4600 -14.0167 50.8330 2.0632
# 6 -9.9348 -14.6429 0.6286 2.4841 2.0632 44.1997
#
#
#
# Elastic Compliance Matrix: (Units=1/GPa)
#
#
# Indices 1 2 3 4 5 6 
#
# 1 0.016656 -0.002927 -0.001820 -0.003022 0.003801 0.002792
# 2 -0.002927 0.016467 -0.002878 -0.003075 -0.010757 0.005513
# 3 -0.001820 -0.002878 0.006995 0.003905 0.005737 -0.001949
# 4 -0.003022 -0.003075 0.003905 0.027901 0.010528 -0.003813
# 5 0.003801 -0.010757 0.005737 0.010528 0.031685 -0.004862
# 6 0.002792 0.005513 -0.001949 -0.003813 -0.004862 0.025548
#
#
# Mechanical properties :
#
#
# Convention : Reuss Voigt Hill
#
# Bulk Modulus (GPa) = 40.21350 51.17739 45.69545
# Shear Modulus (GPa) = 33.60424 46.73313 40.16869
#
# Velocity S-wave (km/s) = 3.44492 4.06251 3.76639
# Velocity P-wave (km/s) = 5.47949 6.33078 5.92046
#
# Compressibility (1/GPa) = 0.02486727
#
# Stress axis : x y z
#
# Youngs Moduli (GPa) = 60.03738 60.72909 142.96094
#
# Poissons Ratio (x) = 0.17776 0.26016
# Poissons Ratio (y) = 0.17573 0.41151
# Poissons Ratio (z) = 0.10925 0.17481
#
# Static dielectric constant tensor:
#      x y z
#    x 2.285240 0.026940 0.079850 
#    y 0.026940 2.133280 0.063800 
#    z 0.079850 0.063800 2.230720 
# 
# From -- ./inp_files/364060.got.cif
#   From: 2010.05.17/outbox.cif.g08.bks.cpg/sg2_183_cif.got.tgz:364060.got - 2010.06.03 11:33:40.
