data_PCOD9012126
_publ_section_title
;
Structure prediction by ZEFSAII (Michael W. Deem and Ramdas Pophale) SiO2 
 PCOD9012126
Probable space group: P -1
;
_chemical_formula_sum "Si O2"
_cell_formula_units_Z 16
_cell_length_a 5.190792
_cell_length_b 15.449224
_cell_length_c 14.912663
_cell_angle_alpha 136.724859
_cell_angle_beta 93.946438
_cell_angle_gamma 74.361883
_cell_volume 774.597968
_symmetry_space_group_name_H-M "P -1"
_symmetry_group_IT_number 2
_symmetry_cell_setting 'triclinic'
loop_
_space_group_symop_operation_xyz
x,y,z
-x,-y,-z
loop_
_atom_site_type_symbol
_atom_site_label
_atom_site_fract_x
_atom_site_fract_y
_atom_site_fract_z
Si Si1 0.716961 0.533039 0.966960
Si Si2 0.344232 0.062719 0.955055
Si Si3 0.086613 0.950514 0.714596
Si Si4 0.381440 0.798615 0.080121
Si Si5 0.912551 0.337452 0.162550
Si Si6 0.322534 0.214594 0.450512
Si Si7 0.451896 0.455053 0.562717
Si Si8 0.099933 0.580122 0.298616
O O1 0.761435 0.436965 0.807712
O O2 0.500000 0.500000 0.000000
O O3 0.609311 0.692287 0.063033
O O4 0.000000 0.500000 0.000000
O O5 0.507629 0.110608 0.916115
O O6 0.198846 0.969494 0.830402
O O7 0.129159 0.198637 0.085935
O O8 0.500000 0.000000 0.000000
O O9 0.364337 0.885662 0.614339
O O10 0.889826 0.860173 0.639829
O O11 0.880533 0.099140 0.799076
O O12 0.280635 0.700213 0.941120
O O13 0.758144 0.414070 0.301366
O O14 0.039729 0.441121 0.200211
O O15 0.337943 0.330399 0.469490
O O16 0.180600 0.299076 0.599140
O O17 0.500000 0.500000 0.500000
O O18 0.702124 0.416115 0.610607
#
# Coordination Sequence:
#
# PCOD9012126 Si02
#       8
#     2   2   2   2   2   2   2   2
#     4  12  27  44  80 110 134 178 242 309 378 412
#     4  11  24  40  67  99 145 194 238 289 355 423
#     4  11  24  43  67  98 140 190 237 276 351 428
#     4  11  23  45  68 103 146 181 232 308 348 425
#     4  10  21  40  68  96 148 186 236 293 360 398
#     4  11  24  43  67  98 140 190 237 276 351 428
#     4  11  24  40  67  99 145 194 238 289 355 423
#     4  11  23  45  68 103 146 181 232 308 348 425
#
# _framework density 20.655877
#
# number of rings (size 3 to 8) (size 9 to 14) (size 15 to 20)
#    0.000    1.000    5.000    0.750    3.500    8.000 
#    2.250    0.000    0.000    4.500    0.000    0.000 
#    0.000    0.000    0.000    0.000    0.000    0.000 
#
# Total GULP energy -89304.654133 kJ/mol
# GULP energy per Si atom -5581.540883 kJ/mol
# Density = 2.060886 g / cm^3
# Si number density = 20.655877 Si / 1000 Ang^3
#
#
#
# Elastic Constant Matrix: (Units=GPa)
#
#
# Indices 1 2 3 4 5 6 
#
# 1 142.5466 61.9763 48.8286 -4.1495 -8.6303 -2.3132
# 2 61.9763 89.8038 54.4513 -8.3100 -12.6177 -9.8968
# 3 48.8286 54.4513 74.9524 -1.4602 -18.4727 1.0058
# 4 -4.1495 -8.3100 -1.4602 13.7727 6.6114 -7.8060
# 5 -8.6303 -12.6177 -18.4727 6.6114 67.8019 12.7626
# 6 -2.3132 -9.8968 1.0058 -7.8060 12.7626 38.9142
#
#
#
# Elastic Compliance Matrix: (Units=1/GPa)
#
#
# Indices 1 2 3 4 5 6 
#
# 1 0.010374 -0.005840 -0.002567 -0.001141 -0.000171 -0.000975
# 2 -0.005840 0.029779 -0.018901 0.025125 -0.005545 0.014573
# 3 -0.002567 -0.018901 0.030718 -0.020451 0.008925 -0.012783
# 4 -0.001141 0.025125 -0.020451 0.114883 -0.019047 0.036142
# 5 -0.000171 -0.005545 0.008925 -0.019047 0.020265 -0.012118
# 6 -0.000975 0.014573 -0.012783 0.036142 -0.012118 0.040901
#
#
# Mechanical properties :
#
#
# Convention : Reuss Voigt Hill
#
# Bulk Modulus (GPa) = 61.52267 70.86836 66.19552
# Shear Modulus (GPa) = 16.28900 33.56751 24.92826
#
# Velocity S-wave (km/s) = 2.81123 4.03560 3.47772
# Velocity P-wave (km/s) = 6.35504 7.48988 6.94568
#
# Compressibility (1/GPa) = 0.01625417
#
# Stress axis : x y z
#
# Youngs Moduli (GPa) = 96.39106 33.58125 32.55387
#
# Poissons Ratio (x) = 0.19613 0.08356
# Poissons Ratio (y) = 0.56296 0.61531
# Poissons Ratio (z) = 0.24742 0.63473
#
# Static dielectric constant tensor:
#      x y z
#    x 1.798970 -0.013550 -0.033390 
#    y -0.013550 1.825770 -0.018890 
#    z -0.033390 -0.018890 1.784120 
# 
# From -- ./inp_files/484495.got.cif
#   From: 2010.05.17/outbox.cif.g08.bks.cpg/sg2_243_cif.got.tgz:484495.got - 2010.06.03 11:33:40.
