data_PCOD9012450
_publ_section_title
;
Structure prediction by ZEFSAII (Michael W. Deem and Ramdas Pophale) SiO2 
 PCOD9012450
Probable space group: P -1
;
_chemical_formula_sum "Si O2"
_cell_formula_units_Z 13
_cell_length_a 7.999376
_cell_length_b 11.283167
_cell_length_c 6.602614
_cell_angle_alpha 124.809042
_cell_angle_beta 106.307897
_cell_angle_gamma 89.247121
_cell_volume 461.355784
_symmetry_space_group_name_H-M "P -1"
_symmetry_group_IT_number 2
_symmetry_cell_setting 'triclinic'
loop_
_space_group_symop_operation_xyz
x,y,z
-x,-y,-z
loop_
_atom_site_type_symbol
_atom_site_label
_atom_site_fract_x
_atom_site_fract_y
_atom_site_fract_z
Si Si1 0.260232 0.400700 0.157288
Si Si2 0.500000 0.000000 0.000000
Si Si3 0.414433 0.844286 0.424970
Si Si4 0.900375 0.066906 0.156098
Si Si5 0.617145 0.594810 0.333962
Si Si6 0.968269 0.116889 0.723139
Si Si7 0.006517 0.411064 0.619067
O O1 0.453014 0.462560 0.189351
O O2 0.307246 0.365979 0.374625
O O3 0.140993 0.528379 0.241762
O O4 0.134027 0.252901 0.891372
O O5 0.413811 0.869523 0.688831
O O6 0.302420 0.004158 0.021954
O O7 0.539422 0.725793 0.329584
O O8 0.212531 0.810976 0.248852
O O9 0.500000 0.000000 0.500000
O O10 0.914158 0.034428 0.394605
O O11 0.955976 0.240891 0.378420
O O12 0.032850 0.938158 0.083687
O O13 0.784024 0.558731 0.231440
O O14 0.000000 0.500000 0.500000
#
# Coordination Sequence:
#
# PCOD9012450 Si02
#       7
#     2   1   2   2   2   2   2
#     4  10  23  45  75 104 146 195 251 302 378 452
#     4  12  24  44  74 102 146 202 240 304 376 434
#     4  12  26  46  73 113 153 194 258 309 378 459
#     4  12  24  44  76 107 146 190 248 309 371 452
#     4  10  22  45  75 109 142 192 251 307 369 453
#     4  12  26  47  67 109 149 191 244 313 375 442
#     4  10  21  40  70 106 141 183 241 305 370 438
#
# _framework density 28.177823
#
# number of rings (size 3 to 8) (size 9 to 14) (size 15 to 20)
#    0.000    0.923    1.538    6.462    0.000    3.077 
#    2.769    0.769    0.000    0.000    0.000    0.000 
#    0.000    0.000    0.000    0.000    0.000    0.000 
#
# Total GULP energy -72577.567471 kJ/mol
# GULP energy per Si atom -5582.889805 kJ/mol
# Density = 2.811369 g / cm^3
# Si number density = 28.177823 Si / 1000 Ang^3
#
#
#
# Elastic Constant Matrix: (Units=GPa)
#
#
# Indices 1 2 3 4 5 6 
#
# 1 268.0485 93.4206 92.0242 16.4377 28.8129 -23.0273
# 2 93.4206 184.4747 37.6010 19.6498 16.9050 -27.2647
# 3 92.0242 37.6010 167.7788 13.1016 24.7657 -25.0697
# 4 16.4377 19.6498 13.1016 54.7120 -2.1691 0.6542
# 5 28.8129 16.9050 24.7657 -2.1691 77.6655 7.4940
# 6 -23.0273 -27.2647 -25.0697 0.6542 7.4940 47.5292
#
#
#
# Elastic Compliance Matrix: (Units=1/GPa)
#
#
# Indices 1 2 3 4 5 6 
#
# 1 0.005387 -0.002096 -0.002279 -0.000359 -0.000859 0.000347
# 2 -0.002096 0.007290 0.000431 -0.002189 -0.001359 0.003638
# 3 -0.002279 0.000431 0.008137 -0.001554 -0.002254 0.003812
# 4 -0.000359 -0.002189 -0.001554 0.019654 0.001926 -0.002823
# 5 -0.000859 -0.001359 -0.002254 0.001926 0.014720 -0.004732
# 6 0.000347 0.003638 0.003812 -0.002823 -0.004732 0.026090
#
#
# Mechanical properties :
#
#
# Convention : Reuss Voigt Hill
#
# Bulk Modulus (GPa) = 77.35582 118.48819 97.92200
# Shear Modulus (GPa) = 53.49099 62.46507 57.97803
#
# Velocity S-wave (km/s) = 4.36172 4.71342 4.54097
# Velocity P-wave (km/s) = 7.27176 8.47131 7.89435
#
# Compressibility (1/GPa) = 0.01292728
#
# Stress axis : x y z
#
# Youngs Moduli (GPa) = 185.61542 137.18149 122.89274
#
# Poissons Ratio (x) = 0.28749 0.28003
# Poissons Ratio (y) = 0.38899 -0.05295
# Poissons Ratio (z) = 0.42296 -0.05911
#
# Static dielectric constant tensor:
#      x y z
#    x 2.179940 0.039370 -0.174470 
#    y 0.039370 2.311750 -0.142290 
#    z -0.174470 -0.142290 2.211120 
# 
# From -- ./inp_files/190997.got.cif
#   From: 2010.05.17/outbox.cif.g08.bks.cpg/sg2_96_cif.got.tgz:190997.got - 2010.06.03 11:33:40.
