data_PCOD9012010
_publ_section_title
;
Structure prediction by ZEFSAII (Michael W. Deem and Ramdas Pophale) SiO2 
 PCOD9012010
Probable space group: P -1
;
_chemical_formula_sum "Si O2"
_cell_formula_units_Z 14
_cell_length_a 17.791006
_cell_length_b 8.641528
_cell_length_c 14.044436
_cell_angle_alpha 99.550161
_cell_angle_beta 157.527685
_cell_angle_gamma 66.337538
_cell_volume 612.858177
_symmetry_space_group_name_H-M "P -1"
_symmetry_group_IT_number 2
_symmetry_cell_setting 'triclinic'
loop_
_space_group_symop_operation_xyz
x,y,z
-x,-y,-z
loop_
_atom_site_type_symbol
_atom_site_label
_atom_site_fract_x
_atom_site_fract_y
_atom_site_fract_z
Si Si1 0.894035 0.710840 0.485241
Si Si2 0.383705 0.400640 0.277802
Si Si3 0.208544 0.745742 0.416484
Si Si4 0.200657 0.716352 0.689688
Si Si5 0.830132 0.155584 0.905269
Si Si6 0.956731 0.636913 0.235124
Si Si7 0.567897 0.169842 0.147152
O O1 0.966195 0.562299 0.640679
O O2 0.110272 0.703689 0.685485
O O3 0.671698 0.949339 0.281362
O O4 0.732283 0.690129 0.218045
O O5 0.606015 0.360827 0.467645
O O6 0.530374 0.281288 0.535553
O O7 0.170708 0.653211 0.065120
O O8 0.299952 0.287287 0.112516
O O9 0.127763 0.619551 0.348778
O O10 0.374095 0.740570 0.692837
O O11 0.958686 0.989839 0.125585
O O12 0.002552 0.743442 0.382645
O O13 0.256717 0.867482 0.742218
O O14 0.500000 0.500000 0.000000
O O15 0.000000 0.000000 0.000000
#
# Coordination Sequence:
#
# PCOD9012010 Si02
#       7
#     2   2   2   2   2   2   2
#     4  11  22  37  59  85 122 165 210 252 301 353
#     4  10  21  40  68  87 121 161 193 250 311 355
#     4  10  22  40  59  92 125 153 205 248 304 362
#     4  11  22  37  57  83 123 165 205 250 297 348
#     4   9  20  43  67  91 120 155 195 251 305 369
#     4  11  23  35  61  92 117 164 203 246 298 362
#     4  10  22  38  57  87 119 162 208 256 300 355
#
# _framework density 22.843785
#
# number of rings (size 3 to 8) (size 9 to 14) (size 15 to 20)
#    0.000    1.714    1.429    2.571    4.000    0.571 
#    0.000   13.571    0.000    0.000    0.000    0.000 
#    0.000    0.000    0.000    0.000    0.000    0.000 
#
# Total GULP energy -78011.298884 kJ/mol
# GULP energy per Si atom -5572.235635 kJ/mol
# Density = 2.279179 g / cm^3
# Si number density = 22.843785 Si / 1000 Ang^3
#
#
#
# Elastic Constant Matrix: (Units=GPa)
#
#
# Indices 1 2 3 4 5 6 
#
# 1 72.0430 17.4198 43.2003 6.2825 7.2235 14.8275
# 2 17.4198 85.8434 29.8483 -4.3337 3.3409 9.4475
# 3 43.2003 29.8483 110.0595 9.4863 -15.5741 8.4826
# 4 6.2825 -4.3337 9.4863 31.3133 2.8190 5.5069
# 5 7.2235 3.3409 -15.5741 2.8190 39.5549 5.4903
# 6 14.8275 9.4475 8.4826 5.5069 5.4903 25.8079
#
#
#
# Elastic Compliance Matrix: (Units=1/GPa)
#
#
# Indices 1 2 3 4 5 6 
#
# 1 0.021346 -0.000196 -0.008595 0.000276 -0.006159 -0.008116
# 2 -0.000196 0.013848 -0.004079 0.004112 -0.002482 -0.003965
# 3 -0.008595 -0.004079 0.015014 -0.004233 0.008031 0.000691
# 4 0.000276 0.004112 -0.004233 0.035293 -0.003603 -0.007037
# 5 -0.006159 -0.002482 0.008031 -0.003603 0.030580 -0.003929
# 6 -0.008116 -0.003965 0.000691 -0.007037 -0.003929 0.046972
#
#
# Mechanical properties :
#
#
# Convention : Reuss Voigt Hill
#
# Bulk Modulus (GPa) = 40.87057 49.87588 45.37322
# Shear Modulus (GPa) = 25.38720 31.16706 28.27713
#
# Velocity S-wave (km/s) = 3.33729 3.69773 3.52212
# Velocity P-wave (km/s) = 5.72540 6.33338 6.03705
#
# Compressibility (1/GPa) = 0.02446749
#
# Stress axis : x y z
#
# Youngs Moduli (GPa) = 46.84724 72.21405 66.60444
#
# Poissons Ratio (x) = 0.01417 0.57248
# Poissons Ratio (y) = 0.00919 0.27165
# Poissons Ratio (z) = 0.40267 0.29453
#
# Static dielectric constant tensor:
#      x y z
#    x 1.904820 -0.022050 -0.013340 
#    y -0.022050 1.998580 -0.027970 
#    z -0.013340 -0.027970 1.938340 
# 
# From -- ./inp_files/537409.got.cif
#   From: 2010.05.17/outbox.cif.g08.bks.cpg/sg2_269_cif.got.tgz:537409.got - 2010.06.03 11:33:40.
