data_PCOD9012397
_publ_section_title
;
Structure prediction by ZEFSAII (Michael W. Deem and Ramdas Pophale) SiO2 
 PCOD9012397
Probable space group: P -1
;
_chemical_formula_sum "Si O2"
_cell_formula_units_Z 12
_cell_length_a 5.057338
_cell_length_b 15.452573
_cell_length_c 7.006028
_cell_angle_alpha 81.889188
_cell_angle_beta 111.010883
_cell_angle_gamma 118.201428
_cell_volume 450.169803
_symmetry_space_group_name_H-M "P -1"
_symmetry_group_IT_number 2
_symmetry_cell_setting 'triclinic'
loop_
_space_group_symop_operation_xyz
x,y,z
-x,-y,-z
loop_
_atom_site_type_symbol
_atom_site_label
_atom_site_fract_x
_atom_site_fract_y
_atom_site_fract_z
Si Si1 0.085547 0.395006 0.111767
Si Si2 0.826855 0.761679 0.574140
Si Si3 0.732299 0.205350 0.646219
Si Si4 0.412381 0.089731 0.943220
Si Si5 0.818374 0.504341 0.261844
Si Si6 0.202854 0.067412 0.312811
O O1 0.079203 0.301449 0.241120
O O2 0.453438 0.475934 0.220772
O O3 0.845766 0.425456 0.149406
O O4 0.047886 0.399816 0.871949
O O5 0.454230 0.733050 0.483124
O O6 0.940646 0.755375 0.392551
O O7 0.498863 0.901789 0.479570
O O8 0.669990 0.176998 0.858492
O O9 0.346455 0.113735 0.130535
O O10 0.064301 0.041981 0.764165
O O11 0.032631 0.128122 0.341996
O O12 0.000000 0.500000 0.500000
O O13 0.500000 0.000000 0.000000
#
# Coordination Sequence:
#
# PCOD9012397 Si02
#       6
#     2   2   2   2   2   2
#     4  10  21  41  66  93 134 161 206 259 307 374
#     4  10  22  42  60  89 127 166 194 260 318 364
#     4  10  23  40  60  84 123 162 207 253 318 365
#     4  11  22  38  62  86 119 162 217 266 299 367
#     4  10  21  40  69  99 121 168 210 247 307 381
#     4   9  23  38  59  88 115 163 210 254 314 357
#
# _framework density 26.656606
#
# number of rings (size 3 to 8) (size 9 to 14) (size 15 to 20)
#    1.000    1.000    0.000    3.000    4.667    1.333 
#    3.000    3.333    0.000    0.000    0.000    0.000 
#    0.000    0.000    0.000    0.000    0.000    0.000 
#
# Total GULP energy -67141.685594 kJ/mol
# GULP energy per Si atom -5595.140466 kJ/mol
# Density = 2.659593 g / cm^3
# Si number density = 26.656606 Si / 1000 Ang^3
#
#
#
# Elastic Constant Matrix: (Units=GPa)
#
#
# Indices 1 2 3 4 5 6 
#
# 1 118.5230 16.5708 29.7260 -3.3955 -15.0740 -22.5306
# 2 16.5708 38.3944 32.8936 -18.8656 -1.1219 1.5448
# 3 29.7260 32.8936 178.1480 -23.1727 -23.1287 -3.8949
# 4 -3.3955 -18.8656 -23.1727 39.2745 1.5821 8.4169
# 5 -15.0740 -1.1219 -23.1287 1.5821 61.3263 -0.5138
# 6 -22.5306 1.5448 -3.8949 8.4169 -0.5138 32.3855
#
#
#
# Elastic Compliance Matrix: (Units=1/GPa)
#
#
# Indices 1 2 3 4 5 6 
#
# 1 0.011677 -0.007244 -0.000711 -0.005087 0.002682 0.009748
# 2 -0.007244 0.043930 -0.004977 0.020490 -0.003492 -0.013114
# 3 -0.000711 -0.004977 0.007181 0.001641 0.002402 0.000218
# 4 -0.005087 0.020490 0.001641 0.038990 -0.001384 -0.014474
# 5 0.002682 -0.003492 0.002402 -0.001384 0.017868 0.002965
# 6 0.009748 -0.013114 0.000218 -0.014474 0.002965 0.042120
#
#
# Mechanical properties :
#
#
# Convention : Reuss Voigt Hill
#
# Bulk Modulus (GPa) = 27.08348 54.82735 40.95541
# Shear Modulus (GPa) = 25.00771 43.65558 34.33164
#
# Velocity S-wave (km/s) = 3.06623 4.05124 3.59266
# Velocity P-wave (km/s) = 4.76633 6.51890 5.71025
#
# Compressibility (1/GPa) = 0.03692288
#
# Stress axis : x y z
#
# Youngs Moduli (GPa) = 85.64010 22.76372 139.25431
#
# Poissons Ratio (x) = 0.16489 0.09904
# Poissons Ratio (y) = 0.62034 0.69314
# Poissons Ratio (z) = 0.06091 0.11331
#
# Static dielectric constant tensor:
#      x y z
#    x 2.040620 0.053070 0.037660 
#    y 0.053070 2.146520 0.020840 
#    z 0.037660 0.020840 2.095520 
# 
# From -- ./inp_files/6375.got.cif
#   From: 2010.05.17/outbox.cif.g08.bks.cpg/sg2_4_cif.got.tgz:6375.got - 2010.06.03 11:33:40.
