data_PCOD9012967
_publ_section_title
;
Structure prediction by ZEFSAII (Michael W. Deem and Ramdas Pophale) SiO2 
 PCOD9012967
Probable space group: P -1
;
_chemical_formula_sum "Si O2"
_cell_formula_units_Z 16
_cell_length_a 12.129617
_cell_length_b 20.462937
_cell_length_c 8.978223
_cell_angle_alpha 91.177392
_cell_angle_beta 69.458869
_cell_angle_gamma 150.935163
_cell_volume 788.087905
_symmetry_space_group_name_H-M "P -1"
_symmetry_group_IT_number 2
_symmetry_cell_setting 'triclinic'
loop_
_space_group_symop_operation_xyz
x,y,z
-x,-y,-z
loop_
_atom_site_type_symbol
_atom_site_label
_atom_site_fract_x
_atom_site_fract_y
_atom_site_fract_z
Si Si1 0.319593 0.876040 0.440789
Si Si2 0.949387 0.797437 0.435102
Si Si3 0.762320 0.529840 0.209508
Si Si4 0.224476 0.885824 0.022246
Si Si5 0.105551 0.600278 0.232775
Si Si6 0.493299 0.272424 0.171431
Si Si7 0.301114 0.728250 0.468510
Si Si8 0.162998 0.022414 0.559866
O O1 0.151536 0.722854 0.560327
O O2 0.088770 0.806828 0.460268
O O3 0.500000 0.000000 0.500000
O O4 0.594501 0.996414 0.201882
O O5 0.577154 0.613759 0.607737
O O6 0.048523 0.843363 0.217435
O O7 0.095207 0.933744 0.460377
O O8 0.702664 0.444102 0.107568
O O9 0.000385 0.710757 0.074052
O O10 0.907461 0.562004 0.277927
O O11 0.500000 0.000000 0.000000
O O12 0.305152 0.716402 0.290579
O O13 0.892510 0.429228 0.370407
O O14 0.314877 0.684983 0.999041
O O15 0.173012 0.125674 0.233256
O O16 0.360779 0.180126 0.389452
O O17 0.631355 0.899203 0.401729
#
# Coordination Sequence:
#
# PCOD9012967 Si02
#       8
#     2   2   2   2   2   2   2   2
#     4  11  23  40  63  90 126 168 198 250 309 374
#     4  10  22  41  66  92 123 161 206 263 301 360
#     4  11  22  41  67  94 122 155 217 259 305 354
#     4  10  23  38  63  93 116 166 210 248 301 359
#     4  11  24  39  64  93 121 166 201 260 304 367
#     4  10  23  38  66  92 120 163 208 258 303 359
#     4  11  24  41  58  90 130 160 205 241 322 369
#     4  10  21  41  62  92 124 160 205 255 312 362
#
# _framework density 20.302303999999999
#
# number of rings (size 3 to 8) (size 9 to 14) (size 15 to 20)
#    0.000    1.500    2.500    2.250    7.000    0.500 
#    0.000    4.375    0.000    0.000    0.000    0.000 
#    0.000    0.000    0.000    0.000    0.000    0.000 
#
# Total GULP energy -89297.358187 kJ/mol
# GULP energy per Si atom -5581.084887 kJ/mol
# Density = 2.025609 g / cm^3
# Si number density = 20.302304 Si / 1000 Ang^3
#
#
#
# Elastic Constant Matrix: (Units=GPa)
#
#
# Indices 1 2 3 4 5 6 
#
# 1 104.8200 30.5388 29.8929 -6.6953 -8.0057 10.0116
# 2 30.5388 105.9784 34.7060 -10.0789 -3.1756 1.2954
# 3 29.8929 34.7060 53.2628 -7.5300 -7.5825 14.3859
# 4 -6.6953 -10.0789 -7.5300 19.5836 0.0289 8.1221
# 5 -8.0057 -3.1756 -7.5825 0.0289 25.4177 -2.5811
# 6 10.0116 1.2954 14.3859 8.1221 -2.5811 33.5468
#
#
#
# Elastic Compliance Matrix: (Units=1/GPa)
#
#
# Indices 1 2 3 4 5 6 
#
# 1 0.011758 -0.001650 -0.004384 0.002298 0.001987 -0.001969
# 2 -0.001650 0.012625 -0.008022 0.001617 -0.001035 0.002974
# 3 -0.004384 -0.008022 0.033462 0.013694 0.006001 -0.015585
# 4 0.002298 0.001617 0.013694 0.067369 0.002626 -0.022730
# 5 0.001987 -0.001035 0.006001 0.002626 0.041569 -0.000564
# 6 -0.001969 0.002974 -0.015585 -0.022730 -0.000564 0.042425
#
#
# Mechanical properties :
#
#
# Convention : Reuss Voigt Hill
#
# Bulk Modulus (GPa) = 33.63395 50.48185 42.05790
# Shear Modulus (GPa) = 20.22387 26.97117 23.59752
#
# Velocity S-wave (km/s) = 3.15959 3.64878 3.41296
# Velocity P-wave (km/s) = 5.46930 6.53227 6.02427
#
# Compressibility (1/GPa) = 0.02973186
#
# Stress axis : x y z
#
# Youngs Moduli (GPa) = 85.04979 79.20808 29.88430
#
# Poissons Ratio (x) = 0.13071 0.13101
# Poissons Ratio (y) = 0.14035 0.23974
# Poissons Ratio (z) = 0.37286 0.63543
#
# Static dielectric constant tensor:
#      x y z
#    x 1.746240 -0.024420 -0.001940 
#    y -0.024420 1.740060 -0.003800 
#    z -0.001940 -0.003800 1.717690 
# 
# From -- ./inp_files/188682.got.cif
#   From: 2010.05.17/outbox.cif.g08.bks.cpg/sg2_95_cif.got.tgz:188682.got - 2010.06.03 11:33:40.
