data_PCOD9012462
_publ_section_title
;
Structure prediction by ZEFSAII (Michael W. Deem and Ramdas Pophale) SiO2 
 PCOD9012462
Probable space group: P -1
;
_chemical_formula_sum "Si O2"
_cell_formula_units_Z 16
_cell_length_a 8.800905
_cell_length_b 25.046150
_cell_length_c 12.109666
_cell_angle_alpha 23.428265
_cell_angle_beta 143.946030
_cell_angle_gamma 138.017537
_cell_volume 624.624916
_symmetry_space_group_name_H-M "P -1"
_symmetry_group_IT_number 2
_symmetry_cell_setting 'triclinic'
loop_
_space_group_symop_operation_xyz
x,y,z
-x,-y,-z
loop_
_atom_site_type_symbol
_atom_site_label
_atom_site_fract_x
_atom_site_fract_y
_atom_site_fract_z
Si Si1 0.294761 0.842146 0.490875
Si Si2 0.589574 0.745048 0.175922
Si Si3 0.324574 0.305237 0.438476
Si Si4 0.892507 0.840962 0.845662
Si Si5 0.150600 0.579620 0.566453
Si Si6 0.059899 0.039417 0.132660
Si Si7 0.000428 0.724924 0.904061
Si Si8 0.086826 0.580633 0.777024
O O1 0.593355 0.874868 0.601324
O O2 0.242218 0.685209 0.744428
O O3 0.155714 0.898062 0.411888
O O4 0.157033 0.908036 0.178413
O O5 0.637492 0.781928 0.263864
O O6 0.289300 0.715715 0.043758
O O7 0.788893 0.623097 0.505701
O O8 0.696519 0.862385 0.938629
O O9 0.600891 0.374314 0.444177
O O10 0.135730 0.427821 0.125515
O O11 0.207650 0.245770 0.369937
O O12 0.012797 0.937454 0.827155
O O13 0.934403 0.689849 0.204021
O O14 0.996637 0.830352 0.802524
O O15 0.214700 0.596558 0.700841
O O16 0.069435 0.423938 0.805738
#
# Coordination Sequence:
#
# PCOD9012462 Si02
#       8
#     2   2   2   2   2   2   2   2
#     4  10  21  40  70  89 116 160 210 261 305 337
#     4  11  23  40  58  92 135 156 199 251 310 372
#     4  11  23  40  61  94 130 160 203 243 308 374
#     4  12  21  39  67  90 119 160 211 252 296 361
#     4  11  21  40  61  95 125 157 213 248 291 374
#     4  10  24  44  63  95 120 154 213 262 296 363
#     4  11  25  37  63  91 130 168 192 252 307 366
#     4  10  21  41  64  91 123 162 204 258 296 363
#
# _framework density 25.615373999999999
#
# number of rings (size 3 to 8) (size 9 to 14) (size 15 to 20)
#    0.000    1.250    3.750    4.125    1.750    4.000 
#    0.000    0.625    0.000   12.750    0.000    0.000 
#    0.000    0.000    0.000    0.000    0.000    0.000 
#
# Total GULP energy -89634.216781 kJ/mol
# GULP energy per Si atom -5602.138549 kJ/mol
# Density = 2.555707 g / cm^3
# Si number density = 25.615374 Si / 1000 Ang^3
#
#
#
# Elastic Constant Matrix: (Units=GPa)
#
#
# Indices 1 2 3 4 5 6 
#
# 1 92.1562 33.5808 27.9287 -3.8859 -0.1921 -5.4994
# 2 33.5808 109.2010 38.9487 -1.8768 7.5756 -25.9267
# 3 27.9287 38.9487 43.3043 11.7862 2.2140 -9.0596
# 4 -3.8859 -1.8768 11.7862 39.6927 2.1785 13.2437
# 5 -0.1921 7.5756 2.2140 2.1785 42.5776 2.8259
# 6 -5.4994 -25.9267 -9.0596 13.2437 2.8259 53.9449
#
#
#
# Elastic Compliance Matrix: (Units=1/GPa)
#
#
# Indices 1 2 3 4 5 6 
#
# 1 0.014436 -0.001372 -0.009901 0.004951 0.000710 -0.002103
# 2 -0.001372 0.015421 -0.012725 0.003001 -0.002543 0.004531
# 3 -0.009901 -0.012725 0.046557 -0.017035 0.000348 0.004858
# 4 0.004951 0.003001 -0.017035 0.033996 -0.000753 -0.009221
# 5 0.000710 -0.002543 0.000348 -0.000753 0.024107 -0.002169
# 6 -0.002103 0.004531 0.004858 -0.009221 -0.002169 0.023694
#
#
# Mechanical properties :
#
#
# Convention : Reuss Voigt Hill
#
# Bulk Modulus (GPa) = 35.18433 49.50865 42.34649
# Shear Modulus (GPa) = 23.18254 36.85661 30.01957
#
# Velocity S-wave (km/s) = 3.01163 3.79733 3.42707
# Velocity P-wave (km/s) = 5.08514 6.21256 5.67691
#
# Compressibility (1/GPa) = 0.02842174
#
# Stress axis : x y z
#
# Youngs Moduli (GPa) = 69.27066 64.84461 21.47882
#
# Poissons Ratio (x) = 0.08893 0.21265
# Poissons Ratio (y) = 0.09501 0.27331
# Poissons Ratio (z) = 0.68582 0.82512
#
# Static dielectric constant tensor:
#      x y z
#    x 2.035110 -0.046220 -0.035800 
#    y -0.046220 2.037540 -0.014120 
#    z -0.035800 -0.014120 2.011190 
# 
# From -- ./inp_files/406582.got.cif
#   From: 2010.05.17/outbox.cif.g08.bks.cpg/sg2_204_cif.got.tgz:406582.got - 2010.06.03 11:33:40.
