data_PCOD9012625
_publ_section_title
;
Structure prediction by ZEFSAII (Michael W. Deem and Ramdas Pophale) SiO2 
 PCOD9012625
Probable space group: P -1
;
_chemical_formula_sum "Si O2"
_cell_formula_units_Z 16
_cell_length_a 24.345598
_cell_length_b 5.175616
_cell_length_c 21.198622
_cell_angle_alpha 74.790904
_cell_angle_beta 163.096975
_cell_angle_gamma 98.370465
_cell_volume 694.497852
_symmetry_space_group_name_H-M "P -1"
_symmetry_group_IT_number 2
_symmetry_cell_setting 'triclinic'
loop_
_space_group_symop_operation_xyz
x,y,z
-x,-y,-z
loop_
_atom_site_type_symbol
_atom_site_label
_atom_site_fract_x
_atom_site_fract_y
_atom_site_fract_z
Si Si1 0.896695 0.254920 0.041963
Si Si2 0.317059 0.849777 0.069954
Si Si3 0.303876 0.791739 0.838475
Si Si4 0.701744 0.781573 0.560603
Si Si5 0.541949 0.810401 0.622008
Si Si6 0.230551 0.412980 0.678097
Si Si7 0.183103 0.494470 0.843506
Si Si8 0.167289 0.706636 0.176573
O O1 0.774156 0.597011 0.899801
O O2 0.824682 0.245449 0.891836
O O3 0.140046 0.139086 0.313677
O O4 0.813341 0.096234 0.012301
O O5 0.296513 0.150613 0.996327
O O6 0.232015 0.656206 0.946196
O O7 0.554461 0.693065 0.358895
O O8 0.207865 0.686485 0.679552
O O9 0.250750 0.639149 0.849381
O O10 0.232674 0.137999 0.739553
O O11 0.547363 0.676477 0.103348
O O12 0.859229 0.553780 0.796838
O O13 0.554559 0.016335 0.431983
O O14 0.397235 0.636948 0.458191
O O15 0.500000 0.000000 0.500000
O O16 0.051593 0.463269 0.428399
O O17 0.000000 0.000000 0.000000
#
# Coordination Sequence:
#
# PCOD9012625 Si02
#       8
#     2   2   2   2   2   2   2   2
#     4  12  25  47  68  99 132 183 235 306 371 432
#     4  12  29  45  66  98 140 198 237 281 343 441
#     4  10  21  40  72 108 141 176 225 292 338 393
#     4  12  26  47  66  97 135 177 239 301 371 430
#     4  12  22  41  69  96 133 163 224 301 374 448
#     4  10  21  40  72 109 139 175 231 284 343 395
#     4  12  25  45  68  99 145 190 234 273 347 410
#     4  12  23  41  71 100 125 167 233 309 385 421
#
# _framework density 23.038229000000001
#
# number of rings (size 3 to 8) (size 9 to 14) (size 15 to 20)
#    0.000    0.500    3.750    5.250    0.000    3.000 
#    0.000    0.000    0.000    0.000    0.000    0.000 
#    0.000    0.000    0.000    0.000    0.000    0.000 
#
# Total GULP energy -89425.393938 kJ/mol
# GULP energy per Si atom -5589.087121 kJ/mol
# Density = 2.298579 g / cm^3
# Si number density = 23.038229 Si / 1000 Ang^3
#
#
#
# Elastic Constant Matrix: (Units=GPa)
#
#
# Indices 1 2 3 4 5 6 
#
# 1 50.5054 5.2279 39.1362 16.0757 12.3446 -9.9022
# 2 5.2279 72.2268 25.3245 10.5345 -4.7831 -6.9826
# 3 39.1362 25.3245 120.3163 28.3401 -1.8617 -7.1069
# 4 16.0757 10.5345 28.3401 48.8403 -7.5407 -2.7608
# 5 12.3446 -4.7831 -1.8617 -7.5407 38.5658 0.0367
# 6 -9.9022 -6.9826 -7.1069 -2.7608 0.0367 35.3100
#
#
#
# Elastic Compliance Matrix: (Units=1/GPa)
#
#
# Indices 1 2 3 4 5 6 
#
# 1 0.033776 0.001821 -0.009336 -0.007611 -0.012532 0.007371
# 2 0.001821 0.015432 -0.003250 -0.001758 0.000828 0.002770
# 3 -0.009336 -0.003250 0.012795 -0.003310 0.002557 -0.000947
# 4 -0.007611 -0.001758 -0.003310 0.026331 0.007208 -0.001097
# 5 -0.012532 0.000828 0.002557 0.007208 0.031579 -0.002305
# 6 0.007371 0.002770 -0.000947 -0.001097 -0.002305 0.030662
#
#
# Mechanical properties :
#
#
# Convention : Reuss Voigt Hill
#
# Bulk Modulus (GPa) = 24.70671 42.49172 33.59921
# Shear Modulus (GPa) = 26.94034 36.10054 31.52044
#
# Velocity S-wave (km/s) = 3.42332 3.96281 3.70290
# Velocity P-wave (km/s) = 5.13547 6.27874 5.73566
#
# Compressibility (1/GPa) = 0.04047484
#
# Stress axis : x y z
#
# Youngs Moduli (GPa) = 29.60647 64.80030 78.15280
#
# Poissons Ratio (x) = -0.11803 0.72962
# Poissons Ratio (y) = -0.05393 0.25401
# Poissons Ratio (z) = 0.27640 0.21061
#
# Static dielectric constant tensor:
#      x y z
#    x 1.885290 0.044820 0.016910 
#    y 0.044820 2.033730 0.025290 
#    z 0.016910 0.025290 1.885570 
# 
# From -- ./inp_files/601730.got.cif
#   From: 2010.05.17/outbox.cif.g08.bks.cpg/sg2_301_cif.got.tgz:601730.got - 2010.06.03 11:33:40.
