data_PCOD9012712
_publ_section_title
;
Structure prediction by ZEFSAII (Michael W. Deem and Ramdas Pophale) SiO2 
 PCOD9012712
Probable space group: P -1
;
_chemical_formula_sum "Si O2"
_cell_formula_units_Z 16
_cell_length_a 13.799068
_cell_length_b 17.989118
_cell_length_c 4.888074
_cell_angle_alpha 101.219446
_cell_angle_beta 108.350530
_cell_angle_gamma 36.257109
_cell_volume 677.302519
_symmetry_space_group_name_H-M "P -1"
_symmetry_group_IT_number 2
_symmetry_cell_setting 'triclinic'
loop_
_space_group_symop_operation_xyz
x,y,z
-x,-y,-z
loop_
_atom_site_type_symbol
_atom_site_label
_atom_site_fract_x
_atom_site_fract_y
_atom_site_fract_z
Si Si1 0.056908 0.682512 0.311266
Si Si2 0.156395 0.928032 0.889918
Si Si3 0.706410 0.909287 0.838675
Si Si4 0.540541 0.407329 0.674457
Si Si5 0.496903 0.269984 0.612418
Si Si6 0.457224 0.922891 0.671940
Si Si7 0.108690 0.816977 0.371353
Si Si8 0.255955 0.512323 0.848152
O O1 0.102886 0.741728 0.467133
O O2 0.094078 0.616508 0.575456
O O3 0.189924 0.570888 0.128497
O O4 0.880221 0.790033 0.068847
O O5 0.163116 0.857231 0.624240
O O6 0.330153 0.833419 0.133347
O O7 0.084191 0.048919 0.788997
O O8 0.000000 0.000000 0.000000
O O9 0.612544 0.884765 0.692298
O O10 0.699567 0.959069 0.582835
O O11 0.589835 0.026860 0.027109
O O12 0.500000 0.500000 0.500000
O O13 0.506157 0.341065 0.487970
O O14 0.746045 0.282548 0.802249
O O15 0.592023 0.519264 0.137098
O O16 0.493795 0.193334 0.399110
O O17 0.342684 0.380365 0.761388
#
# Coordination Sequence:
#
# PCOD9012712 Si02
#       8
#     2   2   2   2   2   2   2   2
#     4  12  24  43  64  94 131 173 218 276 321 389
#     4  11  23  37  54  89 124 163 214 269 322 385
#     4  10  23  42  73 101 135 160 224 268 346 389
#     4  10  21  41  58  87 126 178 221 268 307 390
#     4  10  23  41  67  88 136 172 223 267 336 382
#     4  10  22  44  71 105 126 175 209 279 332 412
#     4  11  24  36  59  87 125 171 216 271 324 384
#     4  10  26  40  64  91 128 178 228 258 323 386
#
# _framework density 23.623121000000001
#
# number of rings (size 3 to 8) (size 9 to 14) (size 15 to 20)
#    0.750    0.750    2.500    1.500    5.250    2.500 
#    0.000    1.250    0.000    0.000    0.000    0.000 
#    0.000    0.000    0.000    0.000    0.000    0.000 
#
# Total GULP energy -89388.580580 kJ/mol
# GULP energy per Si atom -5586.786286 kJ/mol
# Density = 2.356935 g / cm^3
# Si number density = 23.623121 Si / 1000 Ang^3
#
#
#
# Elastic Constant Matrix: (Units=GPa)
#
#
# Indices 1 2 3 4 5 6 
#
# 1 40.4135 24.1662 13.4529 9.0211 3.7584 17.7219
# 2 24.1662 152.2776 47.9711 -1.2960 12.3005 21.1012
# 3 13.4529 47.9711 92.8490 -2.4565 -0.7170 13.6535
# 4 9.0211 -1.2960 -2.4565 41.3810 -6.4766 3.9547
# 5 3.7584 12.3005 -0.7170 -6.4766 32.9321 4.2980
# 6 17.7219 21.1012 13.6535 3.9547 4.2980 35.8108
#
#
#
# Elastic Compliance Matrix: (Units=1/GPa)
#
#
# Indices 1 2 3 4 5 6 
#
# 1 0.034899 -0.002945 -0.001702 -0.006865 -0.002465 -0.013833
# 2 -0.002945 0.008722 -0.003799 0.000462 -0.002657 -0.001966
# 3 -0.001702 -0.003799 0.013416 0.001692 0.002568 -0.002530
# 4 -0.006865 0.000462 0.001692 0.026846 0.006086 -0.001215
# 5 -0.002465 -0.002657 0.002568 0.006086 0.033265 -0.002858
# 6 -0.013833 -0.001966 -0.002530 -0.001215 -0.002858 0.037370
#
#
# Mechanical properties :
#
#
# Convention : Reuss Voigt Hill
#
# Bulk Modulus (GPa) = 24.90874 50.74670 37.82772
# Shear Modulus (GPa) = 27.05761 35.35478 31.20620
#
# Velocity S-wave (km/s) = 3.38803 3.87281 3.63850
# Velocity P-wave (km/s) = 5.08646 6.44412 5.80512
#
# Compressibility (1/GPa) = 0.04014655
#
# Stress axis : x y z
#
# Youngs Moduli (GPa) = 28.65398 114.65296 74.53786
#
# Poissons Ratio (x) = 0.33764 0.12683
# Poissons Ratio (y) = 0.08438 0.28316
# Poissons Ratio (z) = 0.04876 0.43555
#
# Static dielectric constant tensor:
#      x y z
#    x 1.928780 -0.004530 -0.031540 
#    y -0.004530 1.958320 -0.034320 
#    z -0.031540 -0.034320 1.944350 
# 
# From -- ./inp_files/112498.got.cif
#   From: 2010.05.17/outbox.cif.g08.bks.cpg/sg2_57_cif.got.tgz:112498.got - 2010.06.03 11:33:40.
