data_PCOD9012928
_publ_section_title
;
Structure prediction by ZEFSAII (Michael W. Deem and Ramdas Pophale) SiO2 
 PCOD9012928
Probable space group: P -1
;
_chemical_formula_sum "Si O2"
_cell_formula_units_Z 16
_cell_length_a 13.773219
_cell_length_b 14.284646
_cell_length_c 14.441695
_cell_angle_alpha 44.721201
_cell_angle_beta 150.110910
_cell_angle_gamma 148.679288
_cell_volume 731.038423
_symmetry_space_group_name_H-M "P -1"
_symmetry_group_IT_number 2
_symmetry_cell_setting 'triclinic'
loop_
_space_group_symop_operation_xyz
x,y,z
-x,-y,-z
loop_
_atom_site_type_symbol
_atom_site_label
_atom_site_fract_x
_atom_site_fract_y
_atom_site_fract_z
Si Si1 0.027528 0.583427 0.680534
Si Si2 0.351204 0.795858 0.616992
Si Si3 0.555342 0.863073 0.035970
Si Si4 0.397409 0.370344 0.095618
Si Si5 0.181956 0.793337 0.276137
Si Si6 0.706665 0.504495 0.721687
Si Si7 0.636529 0.623212 0.294657
Si Si8 0.705547 0.206492 0.941247
O O1 0.147945 0.659283 0.624114
O O2 0.279025 0.696340 0.876493
O O3 0.863436 0.370707 0.693564
O O4 0.849605 0.630346 0.517312
O O5 0.521099 0.744483 0.767622
O O6 0.205200 0.777814 0.416761
O O7 0.552250 0.003499 0.671304
O O8 0.648446 0.049220 0.944817
O O9 0.735653 0.815601 0.210266
O O10 0.511831 0.871999 0.102630
O O11 0.535452 0.496460 0.211472
O O12 0.500000 0.500000 0.000000
O O13 0.083077 0.245194 0.933212
O O14 0.500000 0.500000 0.500000
O O15 0.601136 0.459323 0.771985
O O16 0.713779 0.355246 0.796718
O O17 0.011993 0.688912 0.849272
#
# Coordination Sequence:
#
# PCOD9012928 Si02
#       8
#     2   2   2   2   2   2   2   2
#     4  12  22  41  62  90 128 168 202 259 312 366
#     4  11  24  41  61  91 123 168 212 253 312 366
#     4  10  21  41  62  90 120 160 204 252 310 366
#     4  12  21  40  66  87 122 169 207 257 312 363
#     4  11  23  40  62  86 125 164 210 259 305 366
#     4  10  21  41  63  92 125 161 198 254 313 365
#     4  11  23  37  63  91 121 159 208 252 306 371
#     4   9  21  41  65  88 123 159 202 251 308 377
#
# _framework density 21.886673999999999
#
# number of rings (size 3 to 8) (size 9 to 14) (size 15 to 20)
#    0.000    1.250    3.750    2.250    0.000    2.000 
#    6.750    5.000    0.000    0.000    0.000    0.000 
#    0.000    0.000    0.000    0.000    0.000    0.000 
#
# Total GULP energy -89432.651029 kJ/mol
# GULP energy per Si atom -5589.540689 kJ/mol
# Density = 2.183686 g / cm^3
# Si number density = 21.886674 Si / 1000 Ang^3
#
#
#
# Elastic Constant Matrix: (Units=GPa)
#
#
# Indices 1 2 3 4 5 6 
#
# 1 58.1588 18.0299 6.7593 -10.8771 3.6861 -7.7196
# 2 18.0299 139.3913 28.1639 -15.0696 12.9928 -38.2996
# 3 6.7593 28.1639 108.3020 -7.6930 20.2929 -15.4144
# 4 -10.8771 -15.0696 -7.6930 19.6292 -5.3693 8.5947
# 5 3.6861 12.9928 20.2929 -5.3693 42.4224 -4.7955
# 6 -7.7196 -38.2996 -15.4144 8.5947 -4.7955 27.5510
#
#
#
# Elastic Compliance Matrix: (Units=1/GPa)
#
#
# Indices 1 2 3 4 5 6 
#
# 1 0.019465 -0.001299 -0.000121 0.009475 0.000035 0.000631
# 2 -0.001299 0.011902 -0.000488 0.001135 -0.001425 0.015306
# 3 -0.000121 -0.000488 0.010876 0.000681 -0.004461 0.004384
# 4 0.009475 0.001135 0.000681 0.065224 0.005080 -0.014850
# 5 0.000035 -0.001425 -0.004461 0.005080 0.026622 -0.001418
# 6 0.000631 0.015306 0.004384 -0.014850 -0.001418 0.064589
#
#
# Mechanical properties :
#
#
# Convention : Reuss Voigt Hill
#
# Bulk Modulus (GPa) = 26.02314 45.75092 35.88703
# Shear Modulus (GPa) = 23.22321 34.78046 29.00184
#
# Velocity S-wave (km/s) = 3.26094 3.99070 3.64413
# Velocity P-wave (km/s) = 5.10823 6.49485 5.84282
#
# Compressibility (1/GPa) = 0.03842734
#
# Stress axis : x y z
#
# Youngs Moduli (GPa) = 51.37550 84.02216 91.94520
#
# Poissons Ratio (x) = 0.10913 0.01110
# Poissons Ratio (y) = 0.06673 0.04486
# Poissons Ratio (z) = 0.00620 0.04099
#
# Static dielectric constant tensor:
#      x y z
#    x 1.812700 0.022880 -0.022220 
#    y 0.022880 1.841290 -0.053600 
#    z -0.022220 -0.053600 1.792780 
# 
# From -- ./inp_files/317747.got.cif
#   From: 2010.05.17/outbox.cif.g08.bks.cpg/sg2_159_cif.got.tgz:317747.got - 2010.06.03 11:33:40.
