data_PCOD9012822
_publ_section_title
;
Structure prediction by ZEFSAII (Michael W. Deem and Ramdas Pophale) SiO2 
 PCOD9012822
Probable space group: P -1
;
_chemical_formula_sum "Si O2"
_cell_formula_units_Z 10
_cell_length_a 9.344440
_cell_length_b 11.856733
_cell_length_c 13.882534
_cell_angle_alpha 150.455503
_cell_angle_beta 43.545249
_cell_angle_gamma 124.924336
_cell_volume 514.814646
_symmetry_space_group_name_H-M "P -1"
_symmetry_group_IT_number 2
_symmetry_cell_setting 'triclinic'
loop_
_space_group_symop_operation_xyz
x,y,z
-x,-y,-z
loop_
_atom_site_type_symbol
_atom_site_label
_atom_site_fract_x
_atom_site_fract_y
_atom_site_fract_z
Si Si1 0.953025 0.959032 0.627676
Si Si2 0.312571 0.194506 0.700471
Si Si3 0.947434 0.464330 0.202419
Si Si4 0.862443 0.605984 0.556222
Si Si5 0.385734 0.624466 0.860495
O O1 0.930947 0.840456 0.655657
O O2 0.968884 0.736411 0.386079
O O3 0.157050 0.078632 0.621649
O O4 0.745120 0.148889 0.855998
O O5 0.394738 0.401665 0.758709
O O6 0.500000 0.000000 0.500000
O O7 0.160942 0.309230 0.945817
O O8 0.899796 0.439025 0.319824
O O9 0.758202 0.415114 0.190763
O O10 0.617616 0.653778 0.738112
O O11 0.000000 0.500000 0.500000
#
# Coordination Sequence:
#
# PCOD9012822 Si02
#       5
#     2   2   2   2   2
#     4   9  21  39  63  85 122 154 204 236 298 355
#     4  11  23  40  60  91 125 153 199 254 296 349
#     4   9  22  40  64  86 121 160 202 234 306 355
#     4  10  21  41  61  91 124 153 198 250 297 351
#     4  11  21  40  65  87 120 158 203 245 290 360
#
# _framework density 19.424465000000001
#
# number of rings (size 3 to 8) (size 9 to 14) (size 15 to 20)
#    1.200    0.800    0.000    4.800    0.000    4.000 
#    3.600    5.000    0.000    0.000    0.000    0.000 
#    0.000    0.000    0.000    0.000    0.000    0.000 
#
# Total GULP energy -55787.892226 kJ/mol
# GULP energy per Si atom -5578.789223 kJ/mol
# Density = 1.938025 g / cm^3
# Si number density = 19.424465 Si / 1000 Ang^3
#
#
#
# Elastic Constant Matrix: (Units=GPa)
#
#
# Indices 1 2 3 4 5 6 
#
# 1 63.6869 9.7663 67.5572 -10.7156 -10.6836 -19.5223
# 2 9.7663 62.2427 16.7060 5.5862 -7.7781 -15.4026
# 3 67.5572 16.7060 136.6178 2.9623 -12.3776 1.6023
# 4 -10.7156 5.5862 2.9623 33.4785 -1.6483 -1.6716
# 5 -10.6836 -7.7781 -12.3776 -1.6483 14.8632 16.1174
# 6 -19.5223 -15.4026 1.6023 -1.6716 16.1174 32.6057
#
#
#
# Elastic Compliance Matrix: (Units=1/GPa)
#
#
# Indices 1 2 3 4 5 6 
#
# 1 0.166808 0.025765 -0.104414 0.060245 -0.166603 0.202619
# 2 0.025765 0.023322 -0.019070 0.006661 -0.031207 0.043148
# 3 -0.104414 -0.019070 0.074788 -0.037706 0.122225 -0.137551
# 4 0.060245 0.006661 -0.037706 0.052172 -0.056600 0.071723
# 5 -0.166603 -0.031207 0.122225 -0.056600 0.345959 -0.294413
# 6 0.202619 0.043148 -0.137551 0.071723 -0.294413 0.328336
#
#
# Mechanical properties :
#
#
# Convention : Reuss Voigt Hill
#
# Bulk Modulus (GPa) = 14.39263 50.06736 32.23000
# Shear Modulus (GPa) = 4.13229 27.42402 15.77815
#
# Velocity S-wave (km/s) = 1.46013 3.76151 2.85315
# Velocity P-wave (km/s) = 3.20441 6.68555 5.24237
#
# Compressibility (1/GPa) = 0.06947999
#
# Stress axis : x y z
#
# Youngs Moduli (GPa) = 5.99492 42.87827 13.37106
#
# Poissons Ratio (x) = -1.10476 1.39612
# Poissons Ratio (y) = -0.15446 0.25499
# Poissons Ratio (z) = 0.62595 0.81771
#
# Static dielectric constant tensor:
#      x y z
#    x 1.655470 -0.026370 0.034550 
#    y -0.026370 1.687920 0.011420 
#    z 0.034550 0.011420 1.670880 
# 
# From -- ./inp_files/17659.got.cif
#   From: 2010.05.17/outbox.cif.g08.bks.cpg/sg2_9_cif.got.tgz:17659.got - 2010.06.03 11:33:40.
