data_PCOD9012734
_publ_section_title
;
Structure prediction by ZEFSAII (Michael W. Deem and Ramdas Pophale) SiO2 
 PCOD9012734
Probable space group: P -1
;
_chemical_formula_sum "Si O2"
_cell_formula_units_Z 16
_cell_length_a 19.170668
_cell_length_b 5.343332
_cell_length_c 9.281909
_cell_angle_alpha 76.478046
_cell_angle_beta 44.956176
_cell_angle_gamma 85.502572
_cell_volume 647.912269
_symmetry_space_group_name_H-M "P -1"
_symmetry_group_IT_number 2
_symmetry_cell_setting 'triclinic'
loop_
_space_group_symop_operation_xyz
x,y,z
-x,-y,-z
loop_
_atom_site_type_symbol
_atom_site_label
_atom_site_fract_x
_atom_site_fract_y
_atom_site_fract_z
Si Si1 0.529859 0.689775 0.593946
Si Si2 0.588551 0.917192 0.786945
Si Si3 0.337785 0.949760 0.824298
Si Si4 0.374001 0.276831 0.965062
Si Si5 0.931548 0.378213 0.985185
Si Si6 0.177777 0.514779 0.123582
Si Si7 0.112588 0.315319 0.545997
Si Si8 0.797427 0.201537 0.454756
O O1 0.557987 0.810726 0.691259
O O2 0.626218 0.776979 0.344195
O O3 0.482315 0.395660 0.731485
O O4 0.429449 0.795503 0.665613
O O5 0.679836 0.143107 0.616503
O O6 0.624915 0.699829 0.868767
O O7 0.500000 0.000000 0.000000
O O8 0.351913 0.989873 0.969954
O O9 0.226905 0.812931 0.983504
O O10 0.279308 0.398027 0.026949
O O11 0.881370 0.567799 0.924483
O O12 0.004653 0.249226 0.788067
O O13 0.844981 0.214869 0.223889
O O14 0.000000 0.500000 0.000000
O O15 0.112946 0.445663 0.370116
O O16 0.169875 0.537654 0.536872
O O17 0.161770 0.049438 0.499870
#
# Coordination Sequence:
#
# PCOD9012734 Si02
#       8
#     2   2   2   2   2   2   2   2
#     4  10  22  37  61  88 131 179 237 278 339 405
#     4  12  23  40  65  99 141 187 238 288 348 415
#     4  10  21  41  59  92 132 178 228 285 341 418
#     4  11  22  40  63  93 135 182 235 287 347 416
#     4  10  24  50  73 104 139 182 238 299 365 433
#     4  11  23  43  69 100 138 180 233 295 361 427
#     4  11  24  47  76 104 143 186 239 299 359 428
#     4  11  25  47  72 106 147 187 239 297 355 425
#
# _framework density 24.694701999999999
#
# number of rings (size 3 to 8) (size 9 to 14) (size 15 to 20)
#    0.000    1.250    2.500    3.000    1.750    1.000 
#   15.750    3.125    0.000    0.000    0.000    0.000 
#    0.000    0.000    0.000    0.000    0.000    0.000 
#
# Total GULP energy -89303.792729 kJ/mol
# GULP energy per Si atom -5581.487046 kJ/mol
# Density = 2.463850 g / cm^3
# Si number density = 24.694702 Si / 1000 Ang^3
#
#
#
# Elastic Constant Matrix: (Units=GPa)
#
#
# Indices 1 2 3 4 5 6 
#
# 1 128.8606 9.8191 44.0891 8.4777 20.8748 8.8866
# 2 9.8191 45.1161 5.4010 3.4185 0.8506 11.9503
# 3 44.0891 5.4010 172.3774 -1.6546 3.3880 11.1360
# 4 8.4777 3.4185 -1.6546 18.0359 -3.1883 -1.4710
# 5 20.8748 0.8506 3.3880 -3.1883 46.4692 8.3463
# 6 8.8866 11.9503 11.1360 -1.4710 8.3463 24.9652
#
#
#
# Elastic Compliance Matrix: (Units=1/GPa)
#
#
# Indices 1 2 3 4 5 6 
#
# 1 0.009794 -0.001165 -0.002388 -0.005446 -0.004453 -0.000695
# 2 -0.001165 0.026247 0.000242 -0.005123 0.002053 -0.013245
# 3 -0.002388 0.000242 0.006558 0.001680 0.001150 -0.002476
# 4 -0.005446 -0.005123 0.001680 0.060557 0.005615 0.005332
# 5 -0.004453 0.002053 0.001150 0.005615 0.025223 -0.008012
# 6 -0.000695 -0.013245 -0.002476 0.005332 -0.008012 0.050741
#
#
# Mechanical properties :
#
#
# Convention : Reuss Voigt Hill
#
# Bulk Modulus (GPa) = 27.79597 51.66361 39.72979
# Shear Modulus (GPa) = 25.28632 37.03039 31.15836
#
# Velocity S-wave (km/s) = 3.20341 3.87657 3.55596
# Velocity P-wave (km/s) = 4.99627 6.40339 5.74309
#
# Compressibility (1/GPa) = 0.03597644
#
# Stress axis : x y z
#
# Youngs Moduli (GPa) = 102.10544 38.09889 152.48535
#
# Poissons Ratio (x) = 0.04438 0.36418
# Poissons Ratio (y) = 0.11893 -0.03685
# Poissons Ratio (z) = 0.24386 -0.00921
#
# Static dielectric constant tensor:
#      x y z
#    x 2.054880 -0.124010 0.035260 
#    y -0.124010 2.130160 -0.063810 
#    z 0.035260 -0.063810 2.006650 
# 
# From -- ./inp_files/123540.got.cif
#   From: 2010.05.17/outbox.cif.g08.bks.cpg/sg2_62_cif.got.tgz:123540.got - 2010.06.03 11:33:40.
