data_PCOD9012597
_publ_section_title
;
Structure prediction by ZEFSAII (Michael W. Deem and Ramdas Pophale) SiO2 
 PCOD9012597
Probable space group: P -1
;
_chemical_formula_sum "Si O2"
_cell_formula_units_Z 16
_cell_length_a 16.200410
_cell_length_b 9.417994
_cell_length_c 14.201111
_cell_angle_alpha 89.177720
_cell_angle_beta 152.949784
_cell_angle_gamma 72.359307
_cell_volume 708.848510
_symmetry_space_group_name_H-M "P -1"
_symmetry_group_IT_number 2
_symmetry_cell_setting 'triclinic'
loop_
_space_group_symop_operation_xyz
x,y,z
-x,-y,-z
loop_
_atom_site_type_symbol
_atom_site_label
_atom_site_fract_x
_atom_site_fract_y
_atom_site_fract_z
Si Si1 0.291337 0.828173 0.263437
Si Si2 0.168224 0.650427 0.839806
Si Si3 0.575599 0.522759 0.712485
Si Si4 0.139193 0.744728 0.405511
Si Si5 0.350934 0.944796 0.658578
Si Si6 0.562943 0.668071 0.224581
Si Si7 0.290480 0.354104 0.824784
Si Si8 0.434364 0.950603 0.243825
O O1 0.492527 0.684551 0.551280
O O2 0.301792 0.680583 0.210466
O O3 0.391163 0.906654 0.302713
O O4 0.000000 0.000000 0.000000
O O5 0.290488 0.504353 0.877749
O O6 0.247845 0.529991 0.019513
O O7 0.305312 0.726391 0.984198
O O8 0.874306 0.836737 0.531734
O O9 0.308011 0.622398 0.485443
O O10 0.235930 0.848810 0.532385
O O11 0.224656 0.570314 0.561440
O O12 0.846677 0.896986 0.086351
O O13 0.439242 0.965786 0.649265
O O14 0.584548 0.815621 0.969066
O O15 0.552762 0.740463 0.110767
O O16 0.596686 0.756227 0.344388
O O17 0.000000 0.500000 0.500000
#
# Coordination Sequence:
#
# PCOD9012597 Si02
#       8
#     2   2   2   2   2   2   2   2
#     4  11  21  39  72 105 135 174 233 279 337 413
#     4  11  23  44  68  96 136 182 229 280 339 409
#     4  10  21  40  71  98 130 183 223 277 341 403
#     4  11  21  44  69  93 138 181 223 276 341 406
#     4  12  26  42  71  98 141 180 226 287 344 404
#     4  11  23  43  70  94 136 187 227 274 347 399
#     4  12  26  44  66 102 137 180 237 286 336 411
#     4  12  24  43  68 106 135 181 228 283 347 405
#
# _framework density 22.571819000000001
#
# number of rings (size 3 to 8) (size 9 to 14) (size 15 to 20)
#    0.000    0.750    7.500    1.875    0.000    3.500 
#    0.000    1.250    0.000    0.000    0.000    0.000 
#    0.000    0.000    0.000    0.000    0.000    0.000 
#
# Total GULP energy -89345.492839 kJ/mol
# GULP energy per Si atom -5584.093302 kJ/mol
# Density = 2.252044 g / cm^3
# Si number density = 22.571819 Si / 1000 Ang^3
#
#
#
# Elastic Constant Matrix: (Units=GPa)
#
#
# Indices 1 2 3 4 5 6 
#
# 1 112.1769 12.6109 7.8181 -16.1035 -5.5885 7.5610
# 2 12.6109 56.4660 8.0992 -11.3069 2.6068 -5.8404
# 3 7.8181 8.0992 92.6047 -18.3653 -0.3097 8.3201
# 4 -16.1035 -11.3069 -18.3653 27.9643 -4.0310 1.1105
# 5 -5.5885 2.6068 -0.3097 -4.0310 24.1324 -1.2690
# 6 7.5610 -5.8404 8.3201 1.1105 -1.2690 34.8841
#
#
#
# Elastic Compliance Matrix: (Units=1/GPa)
#
#
# Indices 1 2 3 4 5 6 
#
# 1 0.010323 -0.001578 0.000807 0.006452 0.003503 -0.002772
# 2 -0.001578 0.019860 -0.000669 0.006357 -0.001269 0.003578
# 3 0.000807 -0.000669 0.012917 0.009072 0.001751 -0.003593
# 4 0.006452 0.006357 0.009072 0.049448 0.008986 -0.003745
# 5 0.003503 -0.001269 0.001751 0.008986 0.043906 -0.000078
# 6 -0.002772 0.003578 -0.003593 -0.003745 -0.000078 0.030839
#
#
# Mechanical properties :
#
#
# Convention : Reuss Voigt Hill
#
# Bulk Modulus (GPa) = 24.86318 35.36713 30.11515
# Shear Modulus (GPa) = 27.23623 32.91078 30.07350
#
# Velocity S-wave (km/s) = 3.47745 3.82258 3.65409
# Velocity P-wave (km/s) = 5.21178 5.93174 5.58338
#
# Compressibility (1/GPa) = 0.04022012
#
# Stress axis : x y z
#
# Youngs Moduli (GPa) = 96.86945 50.35319 77.41845
#
# Poissons Ratio (x) = 0.07945 -0.06245
# Poissons Ratio (y) = 0.15284 0.05177
# Poissons Ratio (z) = -0.07815 0.03367
#
# Static dielectric constant tensor:
#      x y z
#    x 1.869410 0.000500 -0.038770 
#    y 0.000500 1.931210 -0.025240 
#    z -0.038770 -0.025240 1.839040 
# 
# From -- ./inp_files/529698.got.cif
#   From: 2010.05.17/outbox.cif.g08.bks.cpg/sg2_265_cif.got.tgz:529698.got - 2010.06.03 11:33:40.
