data_PCOD9012917
_publ_section_title
;
Structure prediction by ZEFSAII (Michael W. Deem and Ramdas Pophale) SiO2 
 PCOD9012917
Probable space group: P -1
;
_chemical_formula_sum "Si O2"
_cell_formula_units_Z 16
_cell_length_a 8.096775
_cell_length_b 13.823835
_cell_length_c 17.273452
_cell_angle_alpha 146.863363
_cell_angle_beta 63.981107
_cell_angle_gamma 93.807030
_cell_volume 750.676895
_symmetry_space_group_name_H-M "P -1"
_symmetry_group_IT_number 2
_symmetry_cell_setting 'triclinic'
loop_
_space_group_symop_operation_xyz
x,y,z
-x,-y,-z
loop_
_atom_site_type_symbol
_atom_site_label
_atom_site_fract_x
_atom_site_fract_y
_atom_site_fract_z
Si Si1 0.985169 0.079556 0.970405
Si Si2 0.444681 0.876970 0.988789
Si Si3 0.736197 0.035644 0.752360
Si Si4 0.681225 0.463617 0.080116
Si Si5 0.150000 0.463144 0.744821
Si Si6 0.757395 0.369004 0.631512
Si Si7 0.283784 0.324692 0.936684
Si Si8 0.345260 0.889577 0.638774
O O1 0.775900 0.102189 0.984778
O O2 0.925889 0.321624 0.144020
O O3 0.223333 0.921762 0.767201
O O4 0.000000 0.000000 0.000000
O O5 0.654712 0.613537 0.783044
O O6 0.373842 0.985083 0.161479
O O7 0.500000 0.000000 0.000000
O O8 0.536266 0.179372 0.826550
O O9 0.797466 0.202402 0.875263
O O10 0.969405 0.798320 0.521423
O O11 0.758896 0.521477 0.179619
O O12 0.407790 0.585618 0.232397
O O13 0.725852 0.550317 0.053067
O O14 0.375950 0.252316 0.515490
O O15 0.913889 0.504610 0.846218
O O16 0.712703 0.241769 0.491786
O O17 0.247447 0.138127 0.798853
#
# Coordination Sequence:
#
# PCOD9012917 Si02
#       8
#     2   2   2   2   2   2   2   2
#     4  11  22  41  64  92 122 158 203 259 315 364
#     4  11  24  42  65  91 122 163 207 250 315 377
#     4  11  22  42  61  89 134 162 201 259 309 366
#     4  10  21  41  65  88 125 171 208 250 309 366
#     4  10  21  42  62  87 129 164 203 259 309 358
#     4  10  21  43  65  85 125 171 199 253 316 363
#     4  11  24  35  63 101 122 164 211 254 302 363
#     4  10  21  41  62  89 126 159 207 253 305 366
#
# _framework density 21.314097
#
# number of rings (size 3 to 8) (size 9 to 14) (size 15 to 20)
#    0.000    1.500    5.000    1.500    3.500    6.500 
#    0.000    0.000    0.000    0.000    0.000    0.000 
#    0.000    0.000    0.000    0.000    0.000    0.000 
#
# Total GULP energy -89408.078054 kJ/mol
# GULP energy per Si atom -5588.004878 kJ/mol
# Density = 2.126558 g / cm^3
# Si number density = 21.314097 Si / 1000 Ang^3
#
#
#
# Elastic Constant Matrix: (Units=GPa)
#
#
# Indices 1 2 3 4 5 6 
#
# 1 58.0853 8.0778 21.7325 2.1306 -19.2340 2.0245
# 2 8.0778 200.7146 65.7346 -13.8524 -6.9358 6.7556
# 3 21.7325 65.7346 186.3981 -16.3340 -26.4405 8.8596
# 4 2.1306 -13.8524 -16.3340 12.5709 -0.3419 -5.0323
# 5 -19.2340 -6.9358 -26.4405 -0.3419 37.4783 4.3057
# 6 2.0245 6.7556 8.8596 -5.0323 4.3057 25.2544
#
#
#
# Elastic Compliance Matrix: (Units=1/GPa)
#
#
# Indices 1 2 3 4 5 6 
#
# 1 0.021690 -0.000437 -0.001309 -0.007343 0.010569 -0.004428
# 2 -0.000437 0.005835 -0.001666 0.004318 -0.000276 -0.000034
# 3 -0.001309 -0.001666 0.007484 0.007709 0.004521 -0.001310
# 4 -0.007343 0.004318 0.007709 0.102364 0.001464 0.016877
# 5 0.010569 -0.000276 0.004521 0.001464 0.036204 -0.008240
# 6 -0.004428 -0.000034 -0.001310 0.016877 -0.008240 0.045188
#
#
# Mechanical properties :
#
#
# Convention : Reuss Voigt Hill
#
# Bulk Modulus (GPa) = 35.47877 70.69864 53.08871
# Shear Modulus (GPa) = 21.27811 38.37093 29.82452
#
# Velocity S-wave (km/s) = 3.16303 4.24755 3.74476
# Velocity P-wave (km/s) = 5.47919 7.56951 6.60753
#
# Compressibility (1/GPa) = 0.02818587
#
# Stress axis : x y z
#
# Youngs Moduli (GPa) = 46.10456 171.37933 133.61798
#
# Poissons Ratio (x) = 0.07487 0.17485
# Poissons Ratio (y) = 0.02014 0.22261
# Poissons Ratio (z) = 0.06033 0.28553
#
# Static dielectric constant tensor:
#      x y z
#    x 1.872840 0.016260 -0.013130 
#    y 0.016260 1.691710 -0.016400 
#    z -0.013130 -0.016400 1.791870 
# 
# From -- ./inp_files/273070.got.cif
#   From: 2010.05.17/outbox.cif.g08.bks.cpg/sg2_137_cif.got.tgz:273070.got - 2010.06.03 11:33:40.
