data_PCOD9012774
_publ_section_title
;
Structure prediction by ZEFSAII (Michael W. Deem and Ramdas Pophale) SiO2 
 PCOD9012774
Probable space group: P -1
;
_chemical_formula_sum "Si O2"
_cell_formula_units_Z 14
_cell_length_a 11.386604
_cell_length_b 20.694360
_cell_length_c 9.749049
_cell_angle_alpha 152.622342
_cell_angle_beta 53.969993
_cell_angle_gamma 140.273979
_cell_volume 639.109319
_symmetry_space_group_name_H-M "P -1"
_symmetry_group_IT_number 2
_symmetry_cell_setting 'triclinic'
loop_
_space_group_symop_operation_xyz
x,y,z
-x,-y,-z
loop_
_atom_site_type_symbol
_atom_site_label
_atom_site_fract_x
_atom_site_fract_y
_atom_site_fract_z
Si Si1 0.154265 0.387008 0.667750
Si Si2 0.986546 0.855516 0.435052
Si Si3 0.814544 0.724215 0.845253
Si Si4 0.637200 0.679901 0.149415
Si Si5 0.108290 0.671808 0.645649
Si Si6 0.354919 0.988070 0.281667
Si Si7 0.243263 0.733977 0.374553
O O1 0.236001 0.354452 0.421629
O O2 0.145986 0.299411 0.650319
O O3 0.926719 0.275592 0.582029
O O4 0.253220 0.601777 0.025562
O O5 0.852336 0.799763 0.291071
O O6 0.168199 0.878874 0.303819
O O7 0.075810 0.056386 0.811734
O O8 0.962005 0.701746 0.759669
O O9 0.642111 0.628120 0.892414
O O10 0.600608 0.823079 0.440074
O O11 0.500000 0.500000 0.000000
O O12 0.173255 0.644265 0.406508
O O13 0.000000 0.500000 0.500000
O O14 0.289728 0.853713 0.944817
O O15 0.547948 0.061361 0.363797
#
# Coordination Sequence:
#
# PCOD9012774 Si02
#       7
#     2   2   2   2   2   2   2
#     4  10  22  41  63  86 130 170 200 246 311 371
#     4  11  20  40  64  88 122 163 206 256 313 357
#     4  10  21  41  60  94 121 158 208 255 307 367
#     4  11  22  38  67  94 120 158 206 263 311 358
#     4  11  21  37  64  90 125 161 205 259 309 356
#     4  11  21  39  63  92 127 154 213 262 298 365
#     4  10  23  39  59  91 128 167 206 247 300 372
#
# _framework density 21.905486
#
# number of rings (size 3 to 8) (size 9 to 14) (size 15 to 20)
#    0.000    1.429    2.857    3.429    2.000    0.571 
#    0.000    7.857    0.000    0.000    0.000    0.000 
#    0.000    0.000    0.000    0.000    0.000    0.000 
#
# Total GULP energy -78311.275618 kJ/mol
# GULP energy per Si atom -5593.662544 kJ/mol
# Density = 2.185563 g / cm^3
# Si number density = 21.905486 Si / 1000 Ang^3
#
#
#
# Elastic Constant Matrix: (Units=GPa)
#
#
# Indices 1 2 3 4 5 6 
#
# 1 44.8153 2.0464 2.4730 -1.5231 18.7438 -0.4913
# 2 2.0464 69.8971 22.5940 -5.1602 -6.8455 -6.5356
# 3 2.4730 22.5940 85.3248 -21.8074 1.8957 -1.7843
# 4 -1.5231 -5.1602 -21.8074 35.2124 2.0315 9.7599
# 5 18.7438 -6.8455 1.8957 2.0315 24.0529 5.8746
# 6 -0.4913 -6.5356 -1.7843 9.7599 5.8746 24.0440
#
#
#
# Elastic Compliance Matrix: (Units=1/GPa)
#
#
# Indices 1 2 3 4 5 6 
#
# 1 0.035225 -0.003647 0.001177 0.001651 -0.030320 0.006554
# 2 -0.003647 0.016903 -0.005003 -0.002090 0.007447 0.003177
# 3 0.001177 -0.005003 0.015611 0.010139 -0.003594 -0.003415
# 4 0.001651 -0.002090 0.010139 0.038716 -0.002303 -0.014935
# 5 -0.030320 0.007447 -0.003594 -0.002303 0.071564 -0.015412
# 6 0.006554 0.003177 -0.003415 -0.014935 -0.015412 0.052162
#
#
# Mechanical properties :
#
#
# Convention : Reuss Voigt Hill
#
# Bulk Modulus (GPa) = 18.94184 28.25153 23.59668
# Shear Modulus (GPa) = 19.03141 28.19012 23.61077
#
# Velocity S-wave (km/s) = 2.95073 3.59123 3.28662
# Velocity P-wave (km/s) = 4.50277 5.48825 5.01975
#
# Compressibility (1/GPa) = 0.05279319
#
# Stress axis : x y z
#
# Youngs Moduli (GPa) = 28.38920 59.16122 64.05920
#
# Poissons Ratio (x) = 0.21574 -0.07542
# Poissons Ratio (y) = 0.10352 0.32051
# Poissons Ratio (z) = -0.03343 0.29600
#
# Static dielectric constant tensor:
#      x y z
#    x 1.801800 0.034220 0.013490 
#    y 0.034220 1.812260 -0.010960 
#    z 0.013490 -0.010960 1.769430 
# 
# From -- ./inp_files/179546.got.cif
#   From: 2010.05.17/outbox.cif.g08.bks.cpg/sg2_90_cif.got.tgz:179546.got - 2010.06.03 11:33:40.
