data_PCOD9012099
_publ_section_title
;
Structure prediction by ZEFSAII (Michael W. Deem and Ramdas Pophale) SiO2 
 PCOD9012099
Probable space group: P -1
;
_chemical_formula_sum "Si O2"
_cell_formula_units_Z 14
_cell_length_a 9.080966
_cell_length_b 19.865504
_cell_length_c 8.708299
_cell_angle_alpha 136.372259
_cell_angle_beta 46.659834
_cell_angle_gamma 142.055893
_cell_volume 641.316481
_symmetry_space_group_name_H-M "P -1"
_symmetry_group_IT_number 2
_symmetry_cell_setting 'triclinic'
loop_
_space_group_symop_operation_xyz
x,y,z
-x,-y,-z
loop_
_atom_site_type_symbol
_atom_site_label
_atom_site_fract_x
_atom_site_fract_y
_atom_site_fract_z
Si Si1 0.490585 0.529761 0.820105
Si Si2 0.657210 0.419208 0.314110
Si Si3 0.196799 0.203145 0.955593
Si Si4 0.978273 0.318762 0.907055
Si Si5 0.312289 0.027130 0.607020
Si Si6 0.911270 0.788821 0.622402
Si Si7 0.749696 0.075443 0.847044
O O1 0.684667 0.504699 0.573222
O O2 0.360351 0.531401 0.756266
O O3 0.624151 0.661780 0.009705
O O4 0.271890 0.419657 0.892556
O O5 0.382990 0.297086 0.336184
O O6 0.853067 0.388611 0.115433
O O7 0.060084 0.210570 0.214752
O O8 0.354708 0.153067 0.813069
O O9 0.987924 0.110861 0.834440
O O10 0.971681 0.262547 0.652961
O O11 0.833106 0.205403 0.938003
O O12 0.500000 0.000000 0.500000
O O13 0.299649 0.003484 0.396854
O O14 0.043537 0.924358 0.698830
O O15 0.500000 0.000000 0.000000
#
# Coordination Sequence:
#
# PCOD9012099 Si02
#       7
#     2   2   2   2   2   2   2
#     4   9  20  37  62  98 128 167 219 259 332 371
#     4   9  18  37  64  99 130 166 210 280 308 378
#     4  11  23  42  64  96 139 166 205 284 321 389
#     4  10  21  40  68  95 130 173 218 265 312 392
#     4  11  24  42  69  96 121 177 226 265 325 385
#     4   9  21  36  67  96 126 164 221 260 324 370
#     4  11  26  44  63  94 135 171 218 263 335 386
#
# _framework density 21.830096000000001
#
# number of rings (size 3 to 8) (size 9 to 14) (size 15 to 20)
#    0.000    2.000    0.000    3.000   10.000    0.571 
#    5.143    0.714    0.000    0.000    0.000    0.000 
#    0.000    0.000    0.000    0.000    0.000    0.000 
#
# Total GULP energy -78173.952508 kJ/mol
# GULP energy per Si atom -5583.853751 kJ/mol
# Density = 2.178041 g / cm^3
# Si number density = 21.830096 Si / 1000 Ang^3
#
#
#
# Elastic Constant Matrix: (Units=GPa)
#
#
# Indices 1 2 3 4 5 6 
#
# 1 67.7639 18.5771 48.8094 -0.4752 -8.2013 -3.2168
# 2 18.5771 142.2854 52.4942 -2.1458 8.6909 -12.7038
# 3 48.8094 52.4942 109.0428 10.6889 -21.0809 -7.9280
# 4 -0.4752 -2.1458 10.6889 34.6517 -6.3784 4.5678
# 5 -8.2013 8.6909 -21.0809 -6.3784 24.2461 6.1454
# 6 -3.2168 -12.7038 -7.9280 4.5678 6.1454 28.2584
#
#
#
# Elastic Compliance Matrix: (Units=1/GPa)
#
#
# Indices 1 2 3 4 5 6 
#
# 1 0.022402 0.001464 -0.011471 0.003604 -0.001929 -0.000173
# 2 0.001464 0.010862 -0.007728 0.000279 -0.011391 0.005314
# 3 -0.011471 -0.007728 0.021580 -0.003910 0.017082 -0.001808
# 4 0.003604 0.000279 -0.003910 0.032655 0.008245 -0.007633
# 5 -0.001929 -0.011391 0.017082 0.008245 0.065799 -0.016190
# 6 -0.000173 0.005314 -0.001808 -0.007633 -0.016190 0.042004
#
#
# Mechanical properties :
#
#
# Convention : Reuss Voigt Hill
#
# Bulk Modulus (GPa) = 51.61421 62.09483 56.85452
# Shear Modulus (GPa) = 21.07661 30.71200 25.89431
#
# Velocity S-wave (km/s) = 3.11060 3.75489 3.44782
# Velocity P-wave (km/s) = 6.04946 6.87788 6.47693
#
# Compressibility (1/GPa) = 0.01937451
#
# Stress axis : x y z
#
# Youngs Moduli (GPa) = 44.63945 92.06044 46.33998
#
# Poissons Ratio (x) = -0.13477 0.53156
# Poissons Ratio (y) = -0.06535 0.35810
# Poissons Ratio (z) = 0.51205 0.71141
#
# Static dielectric constant tensor:
#      x y z
#    x 1.827390 0.000630 0.019400 
#    y 0.000630 1.828060 0.011500 
#    z 0.019400 0.011500 1.816160 
# 
# From -- ./inp_files/224173.got.cif
#   From: 2010.05.17/outbox.cif.g08.bks.cpg/sg2_113_cif.got.tgz:224173.got - 2010.06.03 11:33:40.
