data_PCOD9012453
_publ_section_title
;
Structure prediction by ZEFSAII (Michael W. Deem and Ramdas Pophale) SiO2 
 PCOD9012453
Probable space group: P -1
;
_chemical_formula_sum "Si O2"
_cell_formula_units_Z 13
_cell_length_a 12.400143
_cell_length_b 8.328235
_cell_length_c 8.380036
_cell_angle_alpha 87.853437
_cell_angle_beta 133.506448
_cell_angle_gamma 68.764608
_cell_volume 529.805134
_symmetry_space_group_name_H-M "P -1"
_symmetry_group_IT_number 2
_symmetry_cell_setting 'triclinic'
loop_
_space_group_symop_operation_xyz
x,y,z
-x,-y,-z
loop_
_atom_site_type_symbol
_atom_site_label
_atom_site_fract_x
_atom_site_fract_y
_atom_site_fract_z
Si Si1 0.303007 0.874281 0.656219
Si Si2 0.117589 0.791762 0.201628
Si Si3 0.425821 0.052682 0.105363
Si Si4 0.500000 0.500000 0.500000
Si Si5 0.962945 0.608136 0.240171
Si Si6 0.619687 0.286920 0.939192
Si Si7 0.973500 0.269025 0.375572
O O1 0.185234 0.827415 0.434081
O O2 0.422532 0.921842 0.666497
O O3 0.423747 0.716819 0.916767
O O4 0.154687 0.067456 0.587091
O O5 0.290096 0.658029 0.279756
O O6 0.015353 0.687984 0.142655
O O7 0.000000 0.000000 0.000000
O O8 0.398171 0.886031 0.140783
O O9 0.500000 0.000000 0.000000
O O10 0.243400 0.249764 0.937392
O O11 0.497594 0.462475 0.694523
O O12 0.003160 0.396920 0.276622
O O13 0.062580 0.619907 0.498096
O O14 0.815043 0.248063 0.159924
#
# Coordination Sequence:
#
# PCOD9012453 Si02
#       7
#     2   2   2   1   2   2   2
#     4  11  23  44  78 103 138 194 240 293 363 429
#     4  12  28  52  74 106 148 196 234 300 364 430
#     4  10  21  40  70 107 144 178 239 303 350 425
#     4  12  30  46  76 104 146 184 248 298 358 426
#     4  11  23  41  69 111 146 181 241 300 356 425
#     4  11  23  46  71 100 144 187 239 294 356 430
#     4  11  22  40  74 109 138 185 242 298 354 428
#
# _framework density 24.537326
#
# number of rings (size 3 to 8) (size 9 to 14) (size 15 to 20)
#    0.000    0.923    4.615    3.231    4.308    1.846 
#    2.769    3.077    0.000    0.000    0.000    0.000 
#    0.000    0.000    0.000    0.000    0.000    0.000 
#
# Total GULP energy -72432.982009 kJ/mol
# GULP energy per Si atom -5571.767847 kJ/mol
# Density = 2.448148 g / cm^3
# Si number density = 24.537326 Si / 1000 Ang^3
#
#
#
# Elastic Constant Matrix: (Units=GPa)
#
#
# Indices 1 2 3 4 5 6 
#
# 1 102.3924 55.4311 40.4669 -19.1203 11.5139 26.4126
# 2 55.4311 68.3754 28.8655 -15.5848 1.3047 35.8595
# 3 40.4669 28.8655 122.2685 -18.3388 -3.7161 22.7440
# 4 -19.1203 -15.5848 -18.3388 38.3507 0.7607 7.1388
# 5 11.5139 1.3047 -3.7161 0.7607 41.8818 2.6803
# 6 26.4126 35.8595 22.7440 7.1388 2.6803 52.2473
#
#
#
# Elastic Compliance Matrix: (Units=1/GPa)
#
#
# Indices 1 2 3 4 5 6 
#
# 1 0.019620 -0.014889 -0.003149 0.002021 -0.005353 0.001670
# 2 -0.014889 0.042057 0.001937 0.015062 0.004247 -0.024457
# 3 -0.003149 0.001937 0.010558 0.005184 0.001977 -0.005143
# 4 0.002021 0.015062 0.005184 0.039215 -0.000063 -0.018971
# 5 -0.005353 0.004247 0.001977 -0.000063 0.025544 -0.002371
# 6 0.001670 -0.024457 -0.005143 -0.018971 -0.002371 0.040034
#
#
# Mechanical properties :
#
#
# Convention : Reuss Voigt Hill
#
# Bulk Modulus (GPa) = 24.98000 60.28482 42.63241
# Shear Modulus (GPa) = 22.46436 37.71414 30.08925
#
# Velocity S-wave (km/s) = 3.02903 3.92473 3.50560
# Velocity P-wave (km/s) = 4.73666 6.72011 5.81360
#
# Compressibility (1/GPa) = 0.04003202
#
# Stress axis : x y z
#
# Youngs Moduli (GPa) = 50.96925 23.77731 94.71511
#
# Poissons Ratio (x) = 0.35403 0.29822
# Poissons Ratio (y) = 0.75890 -0.18343
# Poissons Ratio (z) = 0.16048 -0.04605
#
# Static dielectric constant tensor:
#      x y z
#    x 2.015690 0.021720 -0.069260 
#    y 0.021720 2.035360 0.073040 
#    z -0.069260 0.073040 1.925410 
# 
# From -- ./inp_files/177625.got.cif
#   From: 2010.05.17/outbox.cif.g08.bks.cpg/sg2_89_cif.got.tgz:177625.got - 2010.06.03 11:33:40.
