data_PCOD9012497
_publ_section_title
;
Structure prediction by ZEFSAII (Michael W. Deem and Ramdas Pophale) SiO2 
 PCOD9012497
Probable space group: P -1
;
_chemical_formula_sum "Si O2"
_cell_formula_units_Z 16
_cell_length_a 5.033637
_cell_length_b 20.364599
_cell_length_c 16.166989
_cell_angle_alpha 22.109409
_cell_angle_beta 87.126949
_cell_angle_gamma 86.898711
_cell_volume 622.834677
_symmetry_space_group_name_H-M "P -1"
_symmetry_group_IT_number 2
_symmetry_cell_setting 'triclinic'
loop_
_space_group_symop_operation_xyz
x,y,z
-x,-y,-z
loop_
_atom_site_type_symbol
_atom_site_label
_atom_site_fract_x
_atom_site_fract_y
_atom_site_fract_z
Si Si1 0.261325 0.194602 0.229648
Si Si2 0.494211 0.846186 0.965749
Si Si3 0.522262 0.444279 0.200491
Si Si4 0.830506 0.841121 0.429058
Si Si5 0.025266 0.701825 0.054255
Si Si6 0.161341 0.840629 0.577434
Si Si7 0.749160 0.373539 0.632059
Si Si8 0.833600 0.334941 0.489764
O O1 0.065489 0.193264 0.312418
O O2 0.338654 0.995746 0.432389
O O3 0.468437 0.350251 0.057043
O O4 0.081884 0.261495 0.077748
O O5 0.795521 0.779036 0.030279
O O6 0.324995 0.780743 0.123166
O O7 0.322501 0.762836 0.991927
O O8 0.436071 0.050059 0.713768
O O9 0.238434 0.353188 0.313043
O O10 0.639431 0.400618 0.341796
O O11 0.684731 0.328689 0.264234
O O12 0.999833 0.918548 0.410088
O O13 0.004482 0.827096 0.361043
O O14 0.028795 0.496298 0.310322
O O15 0.500000 0.500000 0.500000
O O16 0.735845 0.303968 0.619552
O O17 0.000000 0.500000 0.500000
#
# Coordination Sequence:
#
# PCOD9012497 Si02
#       8
#     2   2   2   2   2   2   2   2
#     4  10  21  40  70  95 137 187 241 288 358 422
#     4  12  24  44  70 100 138 184 227 296 353 420
#     4  10  23  42  64  96 142 183 234 294 356 427
#     4  11  25  42  68  98 145 181 234 293 365 418
#     4  11  23  43  69 100 134 182 238 279 354 419
#     4  10  21  44  61 102 138 183 236 302 345 430
#     4  12  24  43  71 105 137 177 240 298 346 428
#     4  10  24  42  67  97 135 180 231 288 355 423
#
# _framework density 25.688998999999999
#
# number of rings (size 3 to 8) (size 9 to 14) (size 15 to 20)
#    0.000    1.250    3.750    1.125    7.000    1.000 
#    2.250    2.500    0.000    0.000    0.000    0.000 
#    0.000    0.000    0.000    0.000    0.000    0.000 
#
# Total GULP energy -89530.591491 kJ/mol
# GULP energy per Si atom -5595.661968 kJ/mol
# Density = 2.563053 g / cm^3
# Si number density = 25.688999 Si / 1000 Ang^3
#
#
#
# Elastic Constant Matrix: (Units=GPa)
#
#
# Indices 1 2 3 4 5 6 
#
# 1 105.0850 40.0544 24.6549 -12.4711 -8.8561 -8.6319
# 2 40.0544 198.9230 44.3310 3.3724 -2.3760 -27.4023
# 3 24.6549 44.3310 116.8589 -17.6552 -26.2124 -4.9364
# 4 -12.4711 3.3724 -17.6552 39.0521 -1.9456 -2.6026
# 5 -8.8561 -2.3760 -26.2124 -1.9456 39.5658 -7.8062
# 6 -8.6319 -27.4023 -4.9364 -2.6026 -7.8062 39.9778
#
#
#
# Elastic Compliance Matrix: (Units=1/GPa)
#
#
# Indices 1 2 3 4 5 6 
#
# 1 0.011175 -0.001955 -0.000358 0.003830 0.002691 0.001804
# 2 -0.001955 0.006454 -0.002472 -0.002133 -0.001134 0.003336
# 3 -0.000358 -0.002472 0.012585 0.006355 0.008799 0.001915
# 4 0.003830 -0.002133 0.006355 0.030478 0.007134 0.003527
# 5 0.002691 -0.001134 0.008799 0.007134 0.033549 0.007906
# 6 0.001804 0.003336 0.001915 0.003527 0.007906 0.029700
#
#
# Mechanical properties :
#
#
# Convention : Reuss Voigt Hill
#
# Bulk Modulus (GPa) = 48.43656 70.99419 59.71537
# Shear Modulus (GPa) = 35.61537 44.50758 40.06147
#
# Velocity S-wave (km/s) = 3.72749 4.16691 3.95331
# Velocity P-wave (km/s) = 6.11731 7.13070 6.64336
#
# Compressibility (1/GPa) = 0.02064556
#
# Stress axis : x y z
#
# Youngs Moduli (GPa) = 89.48916 154.95182 79.45873
#
# Poissons Ratio (x) = 0.30288 0.02842
# Poissons Ratio (y) = 0.17492 0.19639
# Poissons Ratio (z) = 0.03200 0.38297
#
# Static dielectric constant tensor:
#      x y z
#    x 1.964480 0.004630 -0.044810 
#    y 0.004630 2.053880 0.008610 
#    z -0.044810 0.008610 2.177040 
# 
# From -- ./inp_files/550965.got.cif
#   From: 2010.05.17/outbox.cif.g08.bks.cpg/sg2_276_cif.got.tgz:550965.got - 2010.06.03 11:33:40.
