data_PCOD9012889
_publ_section_title
;
Structure prediction by ZEFSAII (Michael W. Deem and Ramdas Pophale) SiO2 
 PCOD9012889
Probable space group: P -1
;
_chemical_formula_sum "Si O2"
_cell_formula_units_Z 14
_cell_length_a 11.582392
_cell_length_b 26.189028
_cell_length_c 11.756372
_cell_angle_alpha 21.164895
_cell_angle_beta 44.791616
_cell_angle_gamma 31.397695
_cell_volume 595.976362
_symmetry_space_group_name_H-M "P -1"
_symmetry_group_IT_number 2
_symmetry_cell_setting 'triclinic'
loop_
_space_group_symop_operation_xyz
x,y,z
-x,-y,-z
loop_
_atom_site_type_symbol
_atom_site_label
_atom_site_fract_x
_atom_site_fract_y
_atom_site_fract_z
Si Si1 0.026909 0.124354 0.800777
Si Si2 0.756767 0.358009 0.054685
Si Si3 0.000729 0.906074 0.846790
Si Si4 0.349739 0.135397 0.437500
Si Si5 0.094835 0.528450 0.103683
Si Si6 0.563925 0.626487 0.003404
Si Si7 0.048548 0.595691 0.355112
O O1 0.779591 0.382988 0.411809
O O2 0.278366 0.047409 0.747974
O O3 0.046826 0.079202 0.014943
O O4 0.000000 0.000000 0.000000
O O5 0.500000 0.500000 0.000000
O O6 0.931272 0.329528 0.081449
O O7 0.882566 0.127026 0.427133
O O8 0.721608 0.481175 0.713584
O O9 0.299528 0.724349 0.003186
O O10 0.902159 0.836534 0.986557
O O11 0.500000 0.000000 0.500000
O O12 0.456400 0.205415 0.274678
O O13 0.080410 0.352917 0.127988
O O14 0.996496 0.454387 0.391034
O O15 0.360197 0.383531 0.159164
O O16 0.000000 0.500000 0.500000
#
# Coordination Sequence:
#
# PCOD9012889 Si02
#       7
#     2   2   2   2   2   2   2
#     4  11  23  39  63  99 131 164 204 249 313 387
#     4  11  24  43  63  88 123 165 216 264 307 362
#     4  12  23  41  66  94 126 167 206 260 317 366
#     4  11  22  38  61  94 130 164 203 250 312 387
#     4  10  21  41  62  86 125 166 201 259 316 362
#     4  11  22  40  65  95 128 163 203 251 314 389
#     4  10  23  42  63  88 120 163 216 261 305 361
#
# _framework density 23.490866
#
# number of rings (size 3 to 8) (size 9 to 14) (size 15 to 20)
#    0.000    1.143    0.000    8.571    0.000    2.286 
#    0.000    9.286    0.000    1.714    0.000    0.000 
#    0.000    0.000    0.000    0.000    0.000    0.000 
#
# Total GULP energy -78002.801585 kJ/mol
# GULP energy per Si atom -5571.628685 kJ/mol
# Density = 2.343740 g / cm^3
# Si number density = 23.490866 Si / 1000 Ang^3
#
#
#
# Elastic Constant Matrix: (Units=GPa)
#
#
# Indices 1 2 3 4 5 6 
#
# 1 114.5527 15.2785 32.5587 -2.0005 -44.1792 21.6300
# 2 15.2785 148.3449 52.5514 35.6968 -1.1573 21.3302
# 3 32.5587 52.5514 110.0045 22.7526 -25.1327 8.6452
# 4 -2.0005 35.6968 22.7526 51.6298 10.8917 1.5966
# 5 -44.1792 -1.1573 -25.1327 10.8917 48.8950 -5.6032
# 6 21.6300 21.3302 8.6452 1.5966 -5.6032 36.0103
#
#
#
# Elastic Compliance Matrix: (Units=1/GPa)
#
#
# Indices 1 2 3 4 5 6 
#
# 1 0.015188 0.000224 -0.000733 -0.001758 0.012943 -0.006988
# 2 0.000224 0.009886 -0.003581 -0.004904 -0.000891 -0.005052
# 3 -0.000733 -0.003581 0.013784 -0.005247 0.007583 0.000665
# 4 -0.001758 -0.004904 -0.005247 0.027070 -0.010152 0.002441
# 5 0.012943 -0.000891 0.007583 -0.010152 0.037975 -0.002708
# 6 -0.006988 -0.005052 0.000665 0.002441 -0.002708 0.034270
#
#
# Mechanical properties :
#
#
# Convention : Reuss Voigt Hill
#
# Bulk Modulus (GPa) = 32.59587 63.74213 48.16900
# Shear Modulus (GPa) = 31.93270 45.47459 38.70364
#
# Velocity S-wave (km/s) = 3.69096 4.40459 4.06347
# Velocity P-wave (km/s) = 5.66307 7.28430 6.52424
#
# Compressibility (1/GPa) = 0.03067873
#
# Stress axis : x y z
#
# Youngs Moduli (GPa) = 65.83949 101.15064 72.54901
#
# Poissons Ratio (x) = -0.02266 0.05315
# Poissons Ratio (y) = -0.01475 0.25982
# Poissons Ratio (z) = 0.04823 0.36225
#
# Static dielectric constant tensor:
#      x y z
#    x 1.938860 0.029290 -0.034160 
#    y 0.029290 1.840610 0.162700 
#    z -0.034160 0.162700 1.829270 
# 
# From -- ./inp_files/187311.got.cif
#   From: 2010.05.17/outbox.cif.g08.bks.cpg/sg2_94_cif.got.tgz:187311.got - 2010.06.03 11:33:40.
