data_PCOD9012813
_publ_section_title
;
Structure prediction by ZEFSAII (Michael W. Deem and Ramdas Pophale) SiO2 
 PCOD9012813
Probable space group: P -1
;
_chemical_formula_sum "Si O2"
_cell_formula_units_Z 14
_cell_length_a 29.916899
_cell_length_b 7.069144
_cell_length_c 5.040484
_cell_angle_alpha 94.839206
_cell_angle_beta 85.619076
_cell_angle_gamma 148.055918
_cell_volume 561.975557
_symmetry_space_group_name_H-M "P -1"
_symmetry_group_IT_number 2
_symmetry_cell_setting 'triclinic'
loop_
_space_group_symop_operation_xyz
x,y,z
-x,-y,-z
loop_
_atom_site_type_symbol
_atom_site_label
_atom_site_fract_x
_atom_site_fract_y
_atom_site_fract_z
Si Si1 0.576182 0.278725 0.785237
Si Si2 0.974006 0.279956 0.238760
Si Si3 0.178673 0.523250 0.695053
Si Si4 0.261217 0.351103 0.308687
Si Si5 0.123976 0.559139 0.217943
Si Si6 0.484746 0.266177 0.657573
Si Si7 0.688542 0.252141 0.147832
O O1 0.670256 0.550446 0.835155
O O2 0.571556 0.483992 0.740087
O O3 0.551268 0.036104 0.541532
O O4 0.500000 0.000000 0.000000
O O5 0.026842 0.272841 0.226379
O O6 0.000000 0.500000 0.500000
O O7 0.877400 0.864570 0.256215
O O8 0.000000 0.500000 0.000000
O O9 0.153284 0.510971 0.417272
O O10 0.275482 0.811488 0.746514
O O11 0.151473 0.584698 0.922853
O O12 0.284512 0.496765 0.611605
O O13 0.173129 0.930298 0.297829
O O14 0.268726 0.554950 0.130777
O O15 0.500000 0.500000 0.500000
O O16 0.412310 0.073732 0.871276
#
# Coordination Sequence:
#
# PCOD9012813 Si02
#       7
#     2   2   2   2   2   2   2
#     4  10  21  41  61  90 125 170 214 274 322 386
#     4  12  24  44  70  94 128 173 209 252 317 382
#     4  12  25  42  65  98 132 159 215 263 312 378
#     4  11  23  42  65  88 129 168 214 256 325 382
#     4  12  25  42  66  98 128 166 206 268 316 369
#     4  10  23  39  63  90 127 167 220 269 327 384
#     4  11  23  43  62  92 126 170 211 261 315 391
#
# _framework density 24.912115
#
# number of rings (size 3 to 8) (size 9 to 14) (size 15 to 20)
#    0.000    0.857    1.429    6.000    2.000    1.714 
#    0.000    0.000    0.000    0.000    0.000    0.000 
#    0.000    0.000    0.000    0.000    0.000    0.000 
#
# Total GULP energy -78320.676812 kJ/mol
# GULP energy per Si atom -5594.334058 kJ/mol
# Density = 2.485541 g / cm^3
# Si number density = 24.912115 Si / 1000 Ang^3
#
#
#
# Elastic Constant Matrix: (Units=GPa)
#
#
# Indices 1 2 3 4 5 6 
#
# 1 167.7593 -2.0355 0.3155 -4.1437 6.9627 12.8563
# 2 -2.0355 34.3432 -2.9627 -11.4908 3.3487 -4.6918
# 3 0.3155 -2.9627 82.9605 -5.8574 6.5284 -7.1444
# 4 -4.1437 -11.4908 -5.8574 37.5264 -16.4918 2.0303
# 5 6.9627 3.3487 6.5284 -16.4918 49.6747 -2.8063
# 6 12.8563 -4.6918 -7.1444 2.0303 -2.8063 40.5146
#
#
#
# Elastic Compliance Matrix: (Units=1/GPa)
#
#
# Indices 1 2 3 4 5 6 
#
# 1 0.006166 0.000337 -0.000084 0.000521 -0.000817 -0.002015
# 2 0.000337 0.033370 0.002181 0.010950 0.001260 0.003681
# 3 -0.000084 0.002181 0.012554 0.002067 -0.000968 0.002322
# 4 0.000521 0.010950 0.002067 0.034999 0.010562 0.000445
# 5 -0.000817 0.001260 -0.000968 0.010562 0.023871 0.001359
# 6 -0.002015 0.003681 0.002322 0.000445 0.001359 0.026230
#
#
# Mechanical properties :
#
#
# Convention : Reuss Voigt Hill
#
# Bulk Modulus (GPa) = 17.55641 30.63305 24.09473
# Shear Modulus (GPa) = 33.04538 44.85953 38.95245
#
# Velocity S-wave (km/s) = 3.64604 4.24808 3.95852
# Velocity P-wave (km/s) = 4.97870 6.03198 5.53047
#
# Compressibility (1/GPa) = 0.05695926
#
# Stress axis : x y z
#
# Youngs Moduli (GPa) = 162.16976 29.96722 79.65417
#
# Poissons Ratio (x) = -0.01010 0.00668
# Poissons Ratio (y) = -0.05464 -0.17376
# Poissons Ratio (z) = 0.01361 -0.06537
#
# Static dielectric constant tensor:
#      x y z
#    x 2.038810 0.054760 0.062760 
#    y 0.054760 1.970010 0.014900 
#    z 0.062760 0.014900 1.969330 
# 
# From -- ./inp_files/7395.got.cif
#   From: 2010.05.17/outbox.cif.g08.bks.cpg/sg2_4_cif.got.tgz:7395.got - 2010.06.03 11:33:40.
