data_PCOD9012187
_publ_section_title
;
Structure prediction by ZEFSAII (Michael W. Deem and Ramdas Pophale) SiO2 
 PCOD9012187
Probable space group: P -1
;
_chemical_formula_sum "Si O2"
_cell_formula_units_Z 16
_cell_length_a 14.362799
_cell_length_b 17.297671
_cell_length_c 8.168325
_cell_angle_alpha 33.679277
_cell_angle_beta 135.790035
_cell_angle_gamma 138.597011
_cell_volume 720.145053
_symmetry_space_group_name_H-M "P -1"
_symmetry_group_IT_number 2
_symmetry_cell_setting 'triclinic'
loop_
_space_group_symop_operation_xyz
x,y,z
-x,-y,-z
loop_
_atom_site_type_symbol
_atom_site_label
_atom_site_fract_x
_atom_site_fract_y
_atom_site_fract_z
Si Si1 0.058797 0.181134 0.800621
Si Si2 0.688710 0.499041 0.882327
Si Si3 0.345191 0.958870 0.248312
Si Si4 0.171937 0.949795 0.728861
Si Si5 0.396167 0.947963 0.802100
Si Si6 0.895343 0.762453 0.858654
Si Si7 0.190003 0.711300 0.762538
Si Si8 0.636615 0.719531 0.165718
O O1 0.228042 0.252649 0.834050
O O2 0.962163 0.267666 0.446156
O O3 0.048280 0.202711 0.945438
O O4 0.000000 0.000000 0.000000
O O5 0.775982 0.595113 0.977850
O O6 0.657170 0.617388 0.517642
O O7 0.529850 0.368464 0.951896
O O8 0.794813 0.436987 0.028055
O O9 0.265538 0.832966 0.500513
O O10 0.505052 0.977116 0.360417
O O11 0.259201 0.916143 0.044965
O O12 0.348522 0.120000 0.024680
O O13 0.260568 0.988313 0.604416
O O14 0.021347 0.804897 0.805005
O O15 0.159652 0.105618 0.481939
O O16 0.304683 0.770662 0.954670
O O17 0.500000 0.000000 0.000000
#
# Coordination Sequence:
#
# PCOD9012187 Si02
#       8
#     2   2   2   2   2   2   2   2
#     4  12  25  43  73 105 133 176 238 287 331 397
#     4  11  27  44  69  95 145 186 216 278 354 412
#     4  11  20  43  69  98 134 174 235 281 328 402
#     4  10  21  40  68  99 129 176 234 284 327 397
#     4  10  23  37  66 103 132 170 228 285 331 390
#     4  11  23  43  67  97 137 181 225 278 343 406
#     4  12  24  42  69 106 135 180 224 286 340 397
#     4  11  24  47  68  98 140 185 226 274 346 413
#
# _framework density 22.217746999999999
#
# number of rings (size 3 to 8) (size 9 to 14) (size 15 to 20)
#    0.000    1.000    5.000    1.125    3.500    1.500 
#    0.000    1.250    0.000    0.000    0.000    0.000 
#    0.000    0.000    0.000    0.000    0.000    0.000 
#
# Total GULP energy -89201.696181 kJ/mol
# GULP energy per Si atom -5575.106011 kJ/mol
# Density = 2.216718 g / cm^3
# Si number density = 22.217747 Si / 1000 Ang^3
#
#
#
# Elastic Constant Matrix: (Units=GPa)
#
#
# Indices 1 2 3 4 5 6 
#
# 1 146.8653 34.0637 12.0871 -0.1367 16.5127 24.1655
# 2 34.0637 104.1723 14.8805 -1.0188 15.6005 -12.9750
# 3 12.0871 14.8805 59.7066 -1.8772 8.0762 -6.5728
# 4 -0.1367 -1.0188 -1.8772 27.9205 1.5348 -1.1463
# 5 16.5127 15.6005 8.0762 1.5348 22.4541 3.5749
# 6 24.1655 -12.9750 -6.5728 -1.1463 3.5749 33.6764
#
#
#
# Elastic Compliance Matrix: (Units=1/GPa)
#
#
# Indices 1 2 3 4 5 6 
#
# 1 0.009367 -0.003460 -0.001586 -0.000377 -0.002599 -0.008101
# 2 -0.003460 0.012998 -0.000557 0.001180 -0.007678 0.008237
# 3 -0.001586 -0.000557 0.018674 0.001781 -0.006126 0.005279
# 4 -0.000377 0.001180 0.001781 0.036315 -0.004103 0.002744
# 5 -0.002599 -0.007678 -0.006126 -0.004103 0.055591 -0.008330
# 6 -0.008101 0.008237 0.005279 0.002744 -0.008330 0.040689
#
#
# Mechanical properties :
#
#
# Convention : Reuss Voigt Hill
#
# Bulk Modulus (GPa) = 33.51922 48.08964 40.80443
# Shear Modulus (GPa) = 25.66966 33.45774 29.56370
#
# Velocity S-wave (km/s) = 3.40276 3.88480 3.65174
# Velocity P-wave (km/s) = 5.52791 6.46637 6.01547
#
# Compressibility (1/GPa) = 0.02983363
#
# Stress axis : x y z
#
# Youngs Moduli (GPa) = 106.76101 76.93704 53.55004
#
# Poissons Ratio (x) = 0.26619 0.08493
# Poissons Ratio (y) = 0.36937 0.02980
# Poissons Ratio (z) = 0.16933 0.04282
#
# Static dielectric constant tensor:
#      x y z
#    x 1.897340 0.023120 0.040420 
#    y 0.023120 1.887530 0.062520 
#    z 0.040420 0.062520 1.818120 
# 
# From -- ./inp_files/317926.got.cif
#   From: 2010.05.17/outbox.cif.g08.bks.cpg/sg2_159_cif.got.tgz:317926.got - 2010.06.03 11:33:40.
