data_PCOD9012806
_publ_section_title
;
Structure prediction by ZEFSAII (Michael W. Deem and Ramdas Pophale) SiO2 
 PCOD9012806
Probable space group: P -1
;
_chemical_formula_sum "Si O2"
_cell_formula_units_Z 10
_cell_length_a 8.108465
_cell_length_b 10.726802
_cell_length_c 12.597087
_cell_angle_alpha 36.577072
_cell_angle_beta 43.914653
_cell_angle_gamma 40.541076
_cell_volume 406.882732
_symmetry_space_group_name_H-M "P -1"
_symmetry_group_IT_number 2
_symmetry_cell_setting 'triclinic'
loop_
_space_group_symop_operation_xyz
x,y,z
-x,-y,-z
loop_
_atom_site_type_symbol
_atom_site_label
_atom_site_fract_x
_atom_site_fract_y
_atom_site_fract_z
Si Si1 0.203277 0.103642 0.110005
Si Si2 0.389989 0.236163 0.514381
Si Si3 0.739524 0.770163 0.776278
Si Si4 0.790049 0.376207 0.499867
Si Si5 0.310604 0.798721 0.813822
O O1 0.163654 0.881812 0.317557
O O2 0.195114 0.252965 0.114997
O O3 0.960240 0.223929 0.058208
O O4 0.500000 0.000000 0.000000
O O5 0.222401 0.462085 0.505456
O O6 0.517759 0.286425 0.315493
O O7 0.623639 0.046071 0.609489
O O8 0.246854 0.075009 0.658905
O O9 0.501061 0.710460 0.888962
O O10 0.990795 0.641798 0.673699
O O11 0.500000 0.500000 0.500000
#
# Coordination Sequence:
#
# PCOD9012806 Si02
#       5
#     2   2   2   2   2
#     4  12  24  39  61  90 129 163 189 250 315 354
#     4   9  18  37  64  92 110 153 207 253 287 335
#     4  10  21  41  61  89 121 156 203 257 287 347
#     4  12  20  36  71  92 114 159 211 247 294 359
#     4   9  19  40  60  90 124 154 197 259 294 351
#
# _framework density 24.577105
#
# number of rings (size 3 to 8) (size 9 to 14) (size 15 to 20)
#    1.200    0.400    4.000    1.800    0.000    4.000 
#    0.000    4.000    0.000    3.600    0.000    0.000 
#    0.000    0.000    0.000    0.000    0.000    0.000 
#
# Total GULP energy -55924.571500 kJ/mol
# GULP energy per Si atom -5592.457150 kJ/mol
# Density = 2.452117 g / cm^3
# Si number density = 24.577105 Si / 1000 Ang^3
#
#
#
# Elastic Constant Matrix: (Units=GPa)
#
#
# Indices 1 2 3 4 5 6 
#
# 1 211.9583 83.2851 51.5749 33.7042 -30.9553 -5.6619
# 2 83.2851 143.9027 39.8095 24.4497 -6.8240 27.4699
# 3 51.5749 39.8095 94.3674 4.0328 -19.0485 5.8417
# 4 33.7042 24.4497 4.0328 36.0230 -11.6074 6.1119
# 5 -30.9553 -6.8240 -19.0485 -11.6074 30.2561 3.5473
# 6 -5.6619 27.4699 5.8417 6.1119 3.5473 59.3255
#
#
#
# Elastic Compliance Matrix: (Units=1/GPa)
#
#
# Indices 1 2 3 4 5 6 
#
# 1 0.007974 -0.003784 -0.001902 -0.003764 0.004332 0.002829
# 2 -0.003784 0.011465 -0.003197 -0.004550 -0.004503 -0.004617
# 3 -0.001902 -0.003197 0.014589 0.005325 0.008702 -0.001207
# 4 -0.003764 -0.004550 0.005325 0.038830 0.013794 -0.003602
# 5 0.004332 -0.004503 0.008702 0.013794 0.047546 -0.002622
# 6 0.002829 -0.004617 -0.001207 -0.003602 -0.002622 0.019911
#
#
# Mechanical properties :
#
#
# Convention : Reuss Voigt Hill
#
# Bulk Modulus (GPa) = 61.49361 88.84084 75.16722
# Shear Modulus (GPa) = 30.58101 43.49152 37.03626
#
# Velocity S-wave (km/s) = 3.53127 4.21122 3.88615
# Velocity P-wave (km/s) = 6.45767 7.73771 7.12649
#
# Compressibility (1/GPa) = 0.01626185
#
# Stress axis : x y z
#
# Youngs Moduli (GPa) = 125.40150 87.22436 68.54710
#
# Poissons Ratio (x) = 0.33009 0.13035
# Poissons Ratio (y) = 0.47457 0.21914
# Poissons Ratio (z) = 0.23847 0.27885
#
# Static dielectric constant tensor:
#      x y z
#    x 2.048530 -0.070390 0.008780 
#    y -0.070390 1.943030 -0.076340 
#    z 0.008780 -0.076340 1.930110 
# 
# From -- ./inp_files/163151.got.cif
#   From: 2010.05.17/outbox.cif.g08.bks.cpg/sg2_82_cif.got.tgz:163151.got - 2010.06.03 11:33:40.
