data_PCOD9012592
_publ_section_title
;
Structure prediction by ZEFSAII (Michael W. Deem and Ramdas Pophale) SiO2 
 PCOD9012592
Probable space group: P -1
;
_chemical_formula_sum "Si O2"
_cell_formula_units_Z 16
_cell_length_a 20.560806
_cell_length_b 5.162909
_cell_length_c 12.081487
_cell_angle_alpha 53.609175
_cell_angle_beta 43.909771
_cell_angle_gamma 63.542926
_cell_volume 715.613236
_symmetry_space_group_name_H-M "P -1"
_symmetry_group_IT_number 2
_symmetry_cell_setting 'triclinic'
loop_
_space_group_symop_operation_xyz
x,y,z
-x,-y,-z
loop_
_atom_site_type_symbol
_atom_site_label
_atom_site_fract_x
_atom_site_fract_y
_atom_site_fract_z
Si Si1 0.996917 0.511417 0.182579
Si Si2 0.548965 0.054689 0.045176
Si Si3 0.367919 0.264360 0.289714
Si Si4 0.219146 0.308792 0.656696
Si Si5 0.250541 0.073419 0.089685
Si Si6 0.216071 0.315027 0.303333
Si Si7 0.019474 0.221583 0.635288
Si Si8 0.809944 0.412278 0.149592
O O1 0.888345 0.595821 0.269344
O O2 0.024942 0.692069 0.214688
O O3 0.006144 0.128101 0.284936
O O4 0.076234 0.602728 0.974082
O O5 0.463038 0.050824 0.239155
O O6 0.592800 0.402190 0.887226
O O7 0.500000 0.000000 0.000000
O O8 0.640651 0.860802 0.027185
O O9 0.297903 0.338824 0.457861
O O10 0.305720 0.144849 0.294145
O O11 0.236299 0.511971 0.694527
O O12 0.219480 0.927241 0.776178
O O13 0.196800 0.169512 0.244248
O O14 0.231391 0.698852 0.181745
O O15 0.217640 0.301066 0.972810
O O16 0.131161 0.233578 0.507834
O O17 0.000000 0.500000 0.500000
#
# Coordination Sequence:
#
# PCOD9012592 Si02
#       8
#     2   2   2   2   2   2   2   2
#     4  12  24  42  64  92 132 177 229 259 309 380
#     4  10  21  40  71  97 128 158 207 271 341 402
#     4  10  23  40  65 102 123 163 212 270 327 384
#     4  12  26  44  68  91 133 175 231 262 305 380
#     4  11  23  41  66  94 133 171 211 267 333 387
#     4  11  21  38  65  94 131 163 210 268 333 386
#     4  12  23  37  62  99 134 167 207 275 330 381
#     4  12  26  45  63  93 131 184 223 265 307 375
#
# _framework density 22.358443999999999
#
# number of rings (size 3 to 8) (size 9 to 14) (size 15 to 20)
#    0.000    0.750    2.500    5.625    3.500    0.000 
#    0.000    1.250    0.000    0.000    0.000    0.000 
#    0.000    0.000    0.000    0.000    0.000    0.000 
#
# Total GULP energy -89443.713613 kJ/mol
# GULP energy per Si atom -5590.232101 kJ/mol
# Density = 2.230756 g / cm^3
# Si number density = 22.358444 Si / 1000 Ang^3
#
#
#
# Elastic Constant Matrix: (Units=GPa)
#
#
# Indices 1 2 3 4 5 6 
#
# 1 57.6417 11.4988 12.1632 15.1260 -3.2305 -2.5316
# 2 11.4988 96.5029 25.6799 3.8026 4.8926 2.4536
# 3 12.1632 25.6799 99.1919 27.4044 -3.3818 -11.4564
# 4 15.1260 3.8026 27.4044 45.1955 3.7342 -1.6244
# 5 -3.2305 4.8926 -3.3818 3.7342 36.6649 11.1208
# 6 -2.5316 2.4536 -11.4564 -1.6244 11.1208 24.5578
#
#
#
# Elastic Compliance Matrix: (Units=1/GPa)
#
#
# Indices 1 2 3 4 5 6 
#
# 1 0.019694 -0.002283 0.000202 -0.006701 0.002506 0.000775
# 2 -0.002283 0.011653 -0.003608 0.002026 -0.001624 -0.002213
# 3 0.000202 -0.003608 0.013938 -0.008065 0.000789 0.005993
# 4 -0.006701 0.002026 -0.008065 0.029425 -0.004382 -0.000725
# 5 0.002506 -0.001624 0.000789 -0.004382 0.032550 -0.014241
# 6 0.000775 -0.002213 0.005993 -0.000725 -0.014241 0.050218
#
#
# Mechanical properties :
#
#
# Convention : Reuss Voigt Hill
#
# Bulk Modulus (GPa) = 29.49110 39.11336 34.30223
# Shear Modulus (GPa) = 27.75342 34.88328 31.31835
#
# Velocity S-wave (km/s) = 3.52702 3.95420 3.74671
# Velocity P-wave (km/s) = 5.45942 6.19511 5.83886
#
# Compressibility (1/GPa) = 0.03390853
#
# Stress axis : x y z
#
# Youngs Moduli (GPa) = 50.77621 85.81321 71.74676
#
# Poissons Ratio (x) = 0.19593 -0.01452
# Poissons Ratio (y) = 0.11593 0.25883
# Poissons Ratio (z) = -0.01028 0.30958
#
# Static dielectric constant tensor:
#      x y z
#    x 1.887350 -0.065540 -0.055040 
#    y -0.065540 1.894730 0.065410 
#    z -0.055040 0.065410 1.836660 
# 
# From -- ./inp_files/78241.got.cif
#   From: 2010.05.17/outbox.cif.g08.bks.cpg/sg2_40_cif.got.tgz:78241.got - 2010.06.03 11:33:40.
