data_PCOD9012827
_publ_section_title
;
Structure prediction by ZEFSAII (Michael W. Deem and Ramdas Pophale) SiO2 
 PCOD9012827
Probable space group: P -1
;
_chemical_formula_sum "Si O2"
_cell_formula_units_Z 12
_cell_length_a 11.516157
_cell_length_b 5.221406
_cell_length_c 21.736957
_cell_angle_alpha 56.313182
_cell_angle_beta 32.573961
_cell_angle_gamma 63.831469
_cell_volume 584.520976
_symmetry_space_group_name_H-M "P -1"
_symmetry_group_IT_number 2
_symmetry_cell_setting 'triclinic'
loop_
_space_group_symop_operation_xyz
x,y,z
-x,-y,-z
loop_
_atom_site_type_symbol
_atom_site_label
_atom_site_fract_x
_atom_site_fract_y
_atom_site_fract_z
Si Si1 0.053886 0.715924 0.389241
Si Si2 0.934893 0.770033 0.240272
Si Si3 0.522833 0.926129 0.865075
Si Si4 0.936259 0.848929 0.984400
Si Si5 0.323411 0.667658 0.158014
Si Si6 0.745167 0.094266 0.396734
O O1 0.157049 0.560934 0.302811
O O2 0.000000 0.500000 0.500000
O O3 0.258567 0.947235 0.283789
O O4 0.850812 0.898274 0.430543
O O5 0.784704 0.455946 0.345853
O O6 0.174019 0.674682 0.164118
O O7 0.876070 0.999587 0.290416
O O8 0.942982 0.952331 0.149246
O O9 0.497336 0.573715 0.902937
O O10 0.318597 0.115877 0.915700
O O11 0.583473 0.009522 0.897807
O O12 0.000000 0.500000 0.000000
O O13 0.000000 0.000000 0.000000
O O14 0.500000 0.000000 0.500000
#
# Coordination Sequence:
#
# PCOD9012827 Si02
#       6
#     2   2   2   2   2   2
#     4   9  21  38  63  93 128 165 217 269 316 378
#     4  11  22  44  66  91 131 170 214 273 318 390
#     4  10  21  41  61  91 128 160 218 261 317 386
#     4  12  27  43  64  96 133 171 219 266 329 395
#     4   9  19  39  63  92 120 159 222 254 326 373
#     4  11  23  43  64 100 130 173 219 264 330 397
#
# _framework density 20.529630999999998
#
# number of rings (size 3 to 8) (size 9 to 14) (size 15 to 20)
#    1.000    0.667    1.667    2.500    0.000    4.667 
#    0.000    0.000    0.000    0.000    0.000    0.000 
#    0.000    0.000    0.000    0.000    0.000    0.000 
#
# Total GULP energy -66918.280184 kJ/mol
# GULP energy per Si atom -5576.523349 kJ/mol
# Density = 2.048290 g / cm^3
# Si number density = 20.529631 Si / 1000 Ang^3
#
#
#
# Elastic Constant Matrix: (Units=GPa)
#
#
# Indices 1 2 3 4 5 6 
#
# 1 96.7444 29.5873 34.1810 -17.2773 7.3794 -11.1457
# 2 29.5873 124.5379 16.5566 -4.3887 8.5676 -1.1525
# 3 34.1810 16.5566 62.8963 -18.0037 7.4370 -15.8969
# 4 -17.2773 -4.3887 -18.0037 29.2347 -7.6333 -3.6705
# 5 7.3794 8.5676 7.4370 -7.6333 52.1108 2.4060
# 6 -11.1457 -1.1525 -15.8969 -3.6705 2.4060 41.9992
#
#
#
# Elastic Compliance Matrix: (Units=1/GPa)
#
#
# Indices 1 2 3 4 5 6 
#
# 1 0.014013 -0.002460 -0.004907 0.005112 -0.000235 0.002254
# 2 -0.002460 0.008832 -0.001565 -0.001501 -0.001051 -0.001074
# 3 -0.004907 -0.001565 0.025331 0.013356 -0.001144 0.009475
# 4 0.005112 -0.001501 0.013356 0.047593 0.004113 0.010294
# 5 -0.000235 -0.001051 -0.001144 0.004113 0.020223 -0.001323
# 6 0.002254 -0.001074 0.009475 0.010294 -0.001323 0.028941
#
#
# Mechanical properties :
#
#
# Convention : Reuss Voigt Hill
#
# Bulk Modulus (GPa) = 32.98964 49.42537 41.20751
# Shear Modulus (GPa) = 28.91857 38.25919 33.58888
#
# Velocity S-wave (km/s) = 3.75724 4.32164 4.04928
# Velocity P-wave (km/s) = 5.90987 7.00210 6.47905
#
# Compressibility (1/GPa) = 0.03031254
#
# Stress axis : x y z
#
# Youngs Moduli (GPa) = 71.36204 113.23077 39.47724
#
# Poissons Ratio (x) = 0.27851 0.19372
# Poissons Ratio (y) = 0.17552 0.06177
# Poissons Ratio (z) = 0.35019 0.17718
#
# Static dielectric constant tensor:
#      x y z
#    x 1.731910 -0.002050 -0.023790 
#    y -0.002050 1.776110 -0.018610 
#    z -0.023790 -0.018610 1.811960 
# 
# From -- ./inp_files/35115.got.cif
#   From: 2010.05.17/outbox.cif.g08.bks.cpg/sg2_18_cif.got.tgz:35115.got - 2010.06.03 11:33:40.
