data_PCOD9012667
_publ_section_title
;
Structure prediction by ZEFSAII (Michael W. Deem and Ramdas Pophale) SiO2 
 PCOD9012667
Probable space group: P -1
;
_chemical_formula_sum "Si O2"
_cell_formula_units_Z 13
_cell_length_a 9.320088
_cell_length_b 12.118031
_cell_length_c 9.169308
_cell_angle_alpha 144.539685
_cell_angle_beta 86.946075
_cell_angle_gamma 105.128269
_cell_volume 556.009578
_symmetry_space_group_name_H-M "P -1"
_symmetry_group_IT_number 2
_symmetry_cell_setting 'triclinic'
loop_
_space_group_symop_operation_xyz
x,y,z
-x,-y,-z
loop_
_atom_site_type_symbol
_atom_site_label
_atom_site_fract_x
_atom_site_fract_y
_atom_site_fract_z
Si Si1 0.702515 0.891524 0.061035
Si Si2 0.988175 0.769218 0.920220
Si Si3 0.500000 0.000000 0.000000
Si Si4 0.636055 0.711705 0.183952
Si Si5 0.096402 0.682428 0.510281
Si Si6 0.298975 0.902215 0.206667
Si Si7 0.860010 0.538177 0.130191
O O1 0.636067 0.762091 0.068134
O O2 0.598340 0.855951 0.886028
O O3 0.749294 0.135304 0.353938
O O4 0.867500 0.873363 0.005914
O O5 0.891389 0.537999 0.731492
O O6 0.071079 0.733878 0.732390
O O7 0.125799 0.882151 0.145322
O O8 0.402867 0.932726 0.089347
O O9 0.788695 0.670871 0.182045
O O10 0.631775 0.905123 0.483022
O O11 0.500000 0.500000 0.000000
O O12 0.945060 0.658745 0.400039
O O13 0.264951 0.683202 0.052140
O O14 0.000000 0.500000 0.000000
#
# Coordination Sequence:
#
# PCOD9012667 Si02
#       7
#     2   2   1   2   2   2   2
#     4  12  25  45  71 103 141 188 235 297 355 416
#     4  10  22  43  74 108 137 177 233 300 360 416
#     4  12  28  44  70 104 142 200 236 286 360 420
#     4  12  28  48  69 103 145 198 237 284 362 433
#     4  10  21  40  74 106 139 173 233 294 356 418
#     4  11  25  49  73 103 148 184 242 299 354 430
#     4  11  24  44  75 111 138 185 240 298 360 428
#
# _framework density 23.380894000000001
#
# number of rings (size 3 to 8) (size 9 to 14) (size 15 to 20)
#    0.000    0.923    1.538    5.077    2.154    6.769 
#    0.000    2.308    0.000    0.000    0.000    0.000 
#    0.000    0.000    0.000    0.000    0.000    0.000 
#
# Total GULP energy -72483.821656 kJ/mol
# GULP energy per Si atom -5575.678589 kJ/mol
# Density = 2.332768 g / cm^3
# Si number density = 23.380894 Si / 1000 Ang^3
#
#
#
# Elastic Constant Matrix: (Units=GPa)
#
#
# Indices 1 2 3 4 5 6 
#
# 1 68.5189 6.7614 -26.3488 -4.1957 -10.8322 -3.3847
# 2 6.7614 161.1410 17.8709 15.9280 -8.3695 -1.2221
# 3 -26.3488 17.8709 42.7944 -2.6044 -6.1298 27.1776
# 4 -4.1957 15.9280 -2.6044 30.1555 -5.0422 13.4215
# 5 -10.8322 -8.3695 -6.1298 -5.0422 13.8584 1.8566
# 6 -3.3847 -1.2221 27.1776 13.4215 1.8566 41.0080
#
#
#
# Elastic Compliance Matrix: (Units=1/GPa)
#
#
# Indices 1 2 3 4 5 6 
#
# 1 -0.011539 0.007411 -0.047402 -0.037112 -0.045024 0.044869
# 2 0.007411 0.004562 0.012966 0.007876 0.018658 -0.011268
# 3 -0.047402 0.012966 -0.077632 -0.070316 -0.099247 0.075430
# 4 -0.037112 0.007876 -0.070316 -0.017051 -0.068584 0.052458
# 5 -0.045024 0.018658 -0.099247 -0.068584 -0.032208 0.086520
# 6 0.044869 -0.011268 0.075430 0.052458 0.086520 -0.043324
#
#
# Mechanical properties :
#
#
# Convention : Reuss Voigt Hill
#
# Bulk Modulus (GPa) = -7.21197 29.89124 11.33964
# Shear Modulus (GPa) = -29.52264 35.28244 2.87990
#
# Velocity S-wave (km/s) = -3.55728 3.88884 1.11104
# Velocity P-wave (km/s) = 4.46806 5.74250 2.55076
#
# Compressibility (1/GPa) = -0.13865831
#
# Stress axis : x y z
#
# Youngs Moduli (GPa) = -86.66173 219.20704 -12.88132
#
# Poissons Ratio (x) = -1.62461 -0.61060
# Poissons Ratio (y) = 0.64228 0.16702
# Poissons Ratio (z) = -4.10795 -2.84227
#
# Static dielectric constant tensor:
#      x y z
#    x 1.971970 -0.047200 0.091990 
#    y -0.047200 1.905230 0.032160 
#    z 0.091990 0.032160 1.604560 
# 
# From -- ./inp_files/176914.got.cif
#   From: 2010.05.17/outbox.cif.g08.bks.cpg/sg2_89_cif.got.tgz:176914.got - 2010.06.03 11:33:40.
