data_PCOD9012322
_publ_section_title
;
Structure prediction by ZEFSAII (Michael W. Deem and Ramdas Pophale) SiO2 
 PCOD9012322
Probable space group: P -1
;
_chemical_formula_sum "Si O2"
_cell_formula_units_Z 14
_cell_length_a 12.206121
_cell_length_b 8.903521
_cell_length_c 12.248171
_cell_angle_alpha 56.553023
_cell_angle_beta 111.739458
_cell_angle_gamma 143.039548
_cell_volume 661.265871
_symmetry_space_group_name_H-M "P -1"
_symmetry_group_IT_number 2
_symmetry_cell_setting 'triclinic'
loop_
_space_group_symop_operation_xyz
x,y,z
-x,-y,-z
loop_
_atom_site_type_symbol
_atom_site_label
_atom_site_fract_x
_atom_site_fract_y
_atom_site_fract_z
Si Si1 0.156647 0.559212 0.582560
Si Si2 0.128051 0.946510 0.163647
Si Si3 0.758841 0.566701 0.549308
Si Si4 0.472207 0.625237 0.850141
Si Si5 0.388087 0.935047 0.700423
Si Si6 0.889325 0.991084 0.105324
Si Si7 0.114469 0.903596 0.689763
O O1 0.208171 0.482814 0.537267
O O2 0.330617 0.856994 0.582528
O O3 0.000000 0.500000 0.500000
O O4 0.045658 0.347796 0.728013
O O5 0.072885 0.090751 0.103996
O O6 0.320138 0.120505 0.222304
O O7 0.137035 0.917829 0.049136
O O8 0.922032 0.691886 0.639208
O O9 0.771966 0.795954 0.442321
O O10 0.569680 0.267575 0.645039
O O11 0.424788 0.771009 0.814173
O O12 0.299563 0.350059 0.827358
O O13 0.500000 0.500000 0.000000
O O14 0.224103 0.848570 0.733081
O O15 0.910327 0.096474 0.190196
#
# Coordination Sequence:
#
# PCOD9012322 Si02
#       7
#     2   2   2   2   2   2   2
#     4  12  22  41  69  98 128 169 226 276 322 391
#     4  10  21  40  69  93 126 169 227 271 320 384
#     4  11  24  42  64 100 137 179 219 266 337 400
#     4  10  22  41  70  95 126 171 230 275 323 388
#     4  12  24  41  67  98 137 171 222 280 329 391
#     4  10  21  43  69  93 127 179 220 272 332 387
#     4  11  24  43  63  98 141 176 219 264 341 408
#
# _framework density 21.171514999999999
#
# number of rings (size 3 to 8) (size 9 to 14) (size 15 to 20)
#    0.000    1.143    4.286    1.714    0.000    2.286 
#    0.000    3.571    0.000    0.000    0.000    0.000 
#    0.000    0.000    0.000    0.000    0.000    0.000 
#
# Total GULP energy -78102.424710 kJ/mol
# GULP energy per Si atom -5578.744622 kJ/mol
# Density = 2.112333 g / cm^3
# Si number density = 21.171515 Si / 1000 Ang^3
#
#
#
# Elastic Constant Matrix: (Units=GPa)
#
#
# Indices 1 2 3 4 5 6 
#
# 1 118.8060 30.0245 30.0972 25.1979 11.0379 3.6440
# 2 30.0245 95.2892 25.2785 24.9033 -9.1194 9.7670
# 3 30.0972 25.2785 82.7017 26.5846 -6.4046 -0.1893
# 4 25.1979 24.9033 26.5846 25.0639 -2.3251 -5.3632
# 5 11.0379 -9.1194 -6.4046 -2.3251 36.7338 7.1279
# 6 3.6440 9.7670 -0.1893 -5.3632 7.1279 28.5969
#
#
#
# Elastic Compliance Matrix: (Units=1/GPa)
#
#
# Indices 1 2 3 4 5 6 
#
# 1 0.011564 -0.000736 -0.000794 -0.010912 -0.004047 -0.002265
# 2 -0.000736 0.017145 0.001915 -0.020141 0.005659 -0.010937
# 3 -0.000794 0.001915 0.019266 -0.022382 0.003734 -0.005554
# 4 -0.010912 -0.020141 -0.022382 0.100192 -0.004733 0.028092
# 5 -0.004047 0.005659 0.003734 -0.004733 0.032195 -0.010305
# 6 -0.002265 -0.010937 -0.005554 0.028092 -0.010305 0.046793
#
#
# Mechanical properties :
#
#
# Convention : Reuss Voigt Hill
#
# Bulk Modulus (GPa) = 20.51524 51.95525 36.23525
# Shear Modulus (GPa) = 20.60707 32.17203 26.38955
#
# Velocity S-wave (km/s) = 3.12322 3.90242 3.53436
# Velocity P-wave (km/s) = 4.76624 6.70064 5.81445
#
# Compressibility (1/GPa) = 0.04874424
#
# Stress axis : x y z
#
# Youngs Moduli (GPa) = 86.47317 58.32685 51.90362
#
# Poissons Ratio (x) = 0.04296 0.04123
# Poissons Ratio (y) = 0.06368 -0.09941
# Poissons Ratio (z) = 0.06869 -0.11171
#
# Static dielectric constant tensor:
#      x y z
#    x 1.772250 0.010340 0.059030 
#    y 0.010340 1.822040 -0.038170 
#    z 0.059030 -0.038170 1.868050 
# 
# From -- ./inp_files/416632.got.cif
#   From: 2010.05.17/outbox.cif.g08.bks.cpg/sg2_209_cif.got.tgz:416632.got - 2010.06.03 11:33:40.
