data_PCOD9012168
_publ_section_title
;
Structure prediction by ZEFSAII (Michael W. Deem and Ramdas Pophale) SiO2 
 PCOD9012168
Probable space group: P -1
;
_chemical_formula_sum "Si O2"
_cell_formula_units_Z 14
_cell_length_a 11.263560
_cell_length_b 9.066971
_cell_length_c 15.053721
_cell_angle_alpha 36.583472
_cell_angle_beta 49.713672
_cell_angle_gamma 39.628871
_cell_volume 582.802863
_symmetry_space_group_name_H-M "P -1"
_symmetry_group_IT_number 2
_symmetry_cell_setting 'triclinic'
loop_
_space_group_symop_operation_xyz
x,y,z
-x,-y,-z
loop_
_atom_site_type_symbol
_atom_site_label
_atom_site_fract_x
_atom_site_fract_y
_atom_site_fract_z
Si Si1 0.796799 0.328540 0.919816
Si Si2 0.473119 0.734959 0.163114
Si Si3 0.205479 0.245605 0.566855
Si Si4 0.014489 0.352437 0.351676
Si Si5 0.684660 0.337923 0.426641
Si Si6 0.120651 0.800037 0.254541
Si Si7 0.569162 0.267419 0.190470
O O1 0.919854 0.455703 0.821064
O O2 0.862407 0.151370 0.880771
O O3 0.594632 0.620030 0.854121
O O4 0.754060 0.167494 0.093195
O O5 0.597465 0.514673 0.290002
O O6 0.249524 0.868377 0.217307
O O7 0.528315 0.532319 0.146557
O O8 0.500000 0.000000 0.000000
O O9 0.219676 0.443902 0.391190
O O10 0.085526 0.480989 0.588880
O O11 0.091388 0.093796 0.671468
O O12 0.395289 0.002042 0.637474
O O13 0.850544 0.371225 0.364954
O O14 0.196399 0.024077 0.446352
O O15 0.500000 0.500000 0.500000
#
# Coordination Sequence:
#
# PCOD9012168 Si02
#       7
#     2   2   2   2   2   2   2
#     4   9  21  40  63  96 134 166 226 268 324 401
#     4  11  26  43  61  97 137 181 223 264 336 409
#     4  10  21  40  68  98 129 159 225 286 327 384
#     4  10  24  42  69 103 127 175 232 268 330 397
#     4  11  26  45  69  93 137 182 223 269 328 402
#     4   9  21  39  64  95 127 165 218 276 326 386
#     4  10  23  39  67  98 132 179 209 277 344 375
#
# _framework density 24.021844000000002
#
# number of rings (size 3 to 8) (size 9 to 14) (size 15 to 20)
#    0.000    2.000    0.000    0.857   12.000    6.857 
#    0.000    1.429    0.000    0.000    0.000    0.000 
#    0.000    0.000    0.000    0.000    0.000    0.000 
#
# Total GULP energy -78124.164449 kJ/mol
# GULP energy per Si atom -5580.297461 kJ/mol
# Density = 2.396717 g / cm^3
# Si number density = 24.021844 Si / 1000 Ang^3
#
#
#
# Elastic Constant Matrix: (Units=GPa)
#
#
# Indices 1 2 3 4 5 6 
#
# 1 137.3060 25.2722 43.0974 -8.8460 -10.3094 -25.0215
# 2 25.2722 93.4898 23.7639 -9.4251 2.4555 -21.8968
# 3 43.0974 23.7639 99.1034 2.1779 6.0323 -6.0166
# 4 -8.8460 -9.4251 2.1779 36.0117 -3.5344 7.2324
# 5 -10.3094 2.4555 6.0323 -3.5344 38.5150 -5.4980
# 6 -25.0215 -21.8968 -6.0166 7.2324 -5.4980 39.2694
#
#
#
# Elastic Compliance Matrix: (Units=1/GPa)
#
#
# Indices 1 2 3 4 5 6 
#
# 1 0.010246 -0.000167 -0.004365 0.001965 0.004478 0.006032
# 2 -0.000167 0.013188 -0.002790 0.002345 0.000692 0.006485
# 3 -0.004365 -0.002790 0.012781 -0.002437 -0.003563 -0.002429
# 4 0.001965 0.002345 -0.002437 0.029896 0.003090 -0.002887
# 5 0.004478 0.000692 -0.003563 0.003090 0.028840 0.006162
# 6 0.006032 0.006485 -0.002429 -0.002887 0.006162 0.033947
#
#
# Mechanical properties :
#
#
# Convention : Reuss Voigt Hill
#
# Bulk Modulus (GPa) = 46.35930 57.12959 51.74444
# Shear Modulus (GPa) = 33.17192 38.61028 35.89110
#
# Velocity S-wave (km/s) = 3.72009 4.01346 3.86956
# Velocity P-wave (km/s) = 6.14758 6.73136 6.44608
#
# Compressibility (1/GPa) = 0.02157065
#
# Stress axis : x y z
#
# Youngs Moduli (GPa) = 97.60018 75.82875 78.24297
#
# Poissons Ratio (x) = 0.01265 0.34155
# Poissons Ratio (y) = 0.01629 0.21827
# Poissons Ratio (z) = 0.42605 0.21154
#
# Static dielectric constant tensor:
#      x y z
#    x 2.002870 -0.060510 0.001290 
#    y -0.060510 1.987340 0.021080 
#    z 0.001290 0.021080 1.913630 
# 
# From -- ./inp_files/512608.got.cif
#   From: 2010.05.17/outbox.cif.g08.bks.cpg/sg2_257_cif.got.tgz:512608.got - 2010.06.03 11:33:40.
