data_PCOD9012858
_publ_section_title
;
Structure prediction by ZEFSAII (Michael W. Deem and Ramdas Pophale) SiO2 
 PCOD9012858
Probable space group: P -1
;
_chemical_formula_sum "Si O2"
_cell_formula_units_Z 16
_cell_length_a 8.019794
_cell_length_b 19.647068
_cell_length_c 6.063422
_cell_angle_alpha 90.523694
_cell_angle_beta 56.660082
_cell_angle_gamma 103.384911
_cell_volume 768.232419
_symmetry_space_group_name_H-M "P -1"
_symmetry_group_IT_number 2
_symmetry_cell_setting 'triclinic'
loop_
_space_group_symop_operation_xyz
x,y,z
-x,-y,-z
loop_
_atom_site_type_symbol
_atom_site_label
_atom_site_fract_x
_atom_site_fract_y
_atom_site_fract_z
Si Si1 0.948299 0.174321 0.915685
Si Si2 0.290948 0.403477 0.231872
Si Si3 0.373016 0.809614 0.212921
Si Si4 0.593466 0.464067 0.624339
Si Si5 0.405172 0.659398 0.684547
Si Si6 0.406081 0.916834 0.568234
Si Si7 0.068325 0.706057 0.758946
Si Si8 0.644310 0.817076 0.629760
O O1 0.784616 0.195465 0.874016
O O2 0.122414 0.162736 0.625841
O O3 0.819238 0.107988 0.151876
O O4 0.021784 0.237899 0.040214
O O5 0.234106 0.468735 0.400491
O O6 0.461760 0.374982 0.243534
O O7 0.098046 0.342617 0.283512
O O8 0.413560 0.438786 0.930331
O O9 0.398182 0.882012 0.331149
O O10 0.258726 0.749407 0.467044
O O11 0.584678 0.807792 0.933066
O O12 0.500000 0.500000 0.500000
O O13 0.629410 0.392394 0.503373
O O14 0.169318 0.666220 0.871909
O O15 0.540762 0.740693 0.593091
O O16 0.545220 0.876764 0.606366
O O17 0.500000 0.000000 0.500000
#
# Coordination Sequence:
#
# PCOD9012858 Si02
#       8
#     2   2   2   2   2   2   2   2
#     4  10  22  40  61  96 127 168 222 261 322 390
#     4  10  22  39  63  88 127 176 210 271 333 377
#     4  10  21  41  61  94 128 162 212 265 327 376
#     4   9  21  41  58  90 130 169 217 265 329 389
#     4  11  21  38  63  93 124 167 218 272 321 383
#     4  10  23  43  63  92 135 169 210 264 317 391
#     4  11  22  40  64  97 130 165 223 273 319 391
#     4  11  22  39  65  94 127 167 216 269 321 383
#
# _framework density 20.827031000000002
#
# number of rings (size 3 to 8) (size 9 to 14) (size 15 to 20)
#    0.000    1.750    3.750    1.500    1.750    7.000 
#    0.000    6.875    0.000    0.000    0.000    0.000 
#    0.000    0.000    0.000    0.000    0.000    0.000 
#
# Total GULP energy -89074.925074 kJ/mol
# GULP energy per Si atom -5567.182817 kJ/mol
# Density = 2.077963 g / cm^3
# Si number density = 20.827031 Si / 1000 Ang^3
#
#
#
# Elastic Constant Matrix: (Units=GPa)
#
#
# Indices 1 2 3 4 5 6 
#
# 1 60.3336 27.4656 27.5322 4.5007 -2.0727 2.4972
# 2 27.4656 159.3711 46.8762 8.2844 4.1516 8.1417
# 3 27.5322 46.8762 124.6913 8.2953 -16.2059 6.2765
# 4 4.5007 8.2844 8.2953 17.1751 1.8268 6.6215
# 5 -2.0727 4.1516 -16.2059 1.8268 26.3303 2.1225
# 6 2.4972 8.1417 6.2765 6.6215 2.1225 30.8840
#
#
#
# Elastic Compliance Matrix: (Units=1/GPa)
#
#
# Indices 1 2 3 4 5 6 
#
# 1 0.019257 -0.002246 -0.003251 -0.002483 0.000023 0.000226
# 2 -0.002246 0.007608 -0.002611 -0.001194 -0.002832 -0.000843
# 3 -0.003251 -0.002611 0.010945 -0.003554 0.007220 -0.001007
# 4 -0.002483 -0.001194 -0.003554 0.066664 -0.005800 -0.012656
# 5 0.000023 -0.002832 0.007220 -0.005800 0.043472 -0.002467
# 6 0.000226 -0.000843 -0.001007 -0.012656 -0.002467 0.035671
#
#
# Mechanical properties :
#
#
# Convention : Reuss Voigt Hill
#
# Bulk Modulus (GPa) = 46.30623 60.90489 53.60556
# Shear Modulus (GPa) = 24.15110 31.04600 27.59855
#
# Velocity S-wave (km/s) = 3.40899 3.86509 3.64418
# Velocity P-wave (km/s) = 6.14629 7.01607 6.59554
#
# Compressibility (1/GPa) = 0.02159537
#
# Stress axis : x y z
#
# Youngs Moduli (GPa) = 51.92936 131.43210 91.36909
#
# Poissons Ratio (x) = 0.29514 0.29704
# Poissons Ratio (y) = 0.11661 0.23854
# Poissons Ratio (z) = 0.16882 0.34314
#
# Static dielectric constant tensor:
#      x y z
#    x 1.819510 -0.010070 -0.003950 
#    y -0.010070 1.777980 0.022980 
#    z -0.003950 0.022980 1.787120 
# 
# From -- ./inp_files/53203.got.cif
#   From: 2010.05.17/outbox.cif.g08.bks.cpg/sg2_27_cif.got.tgz:53203.got - 2010.06.03 11:33:40.
