data_PCOD9012888
_publ_section_title
;
Structure prediction by ZEFSAII (Michael W. Deem and Ramdas Pophale) SiO2 
 PCOD9012888
Probable space group: P -1
;
_chemical_formula_sum "Si O2"
_cell_formula_units_Z 12
_cell_length_a 7.223955
_cell_length_b 15.621610
_cell_length_c 7.268158
_cell_angle_alpha 60.760914
_cell_angle_beta 140.268449
_cell_angle_gamma 121.098876
_cell_volume 442.641506
_symmetry_space_group_name_H-M "P -1"
_symmetry_group_IT_number 2
_symmetry_cell_setting 'triclinic'
loop_
_space_group_symop_operation_xyz
x,y,z
-x,-y,-z
loop_
_atom_site_type_symbol
_atom_site_label
_atom_site_fract_x
_atom_site_fract_y
_atom_site_fract_z
Si Si1 0.480152 0.371695 0.450341
Si Si2 0.734115 0.031865 0.367973
Si Si3 0.819732 0.899679 0.080698
Si Si4 0.526444 0.809815 0.594303
Si Si5 0.645632 0.422846 0.931973
Si Si6 0.986557 0.368136 0.581228
O O1 0.337743 0.262488 0.362409
O O2 0.563626 0.366416 0.733363
O O3 0.298567 0.457237 0.195054
O O4 0.792208 0.413950 0.531101
O O5 0.461580 0.076245 0.047110
O O6 0.567855 0.924128 0.442561
O O7 0.000000 0.000000 0.500000
O O8 0.930549 0.113876 0.572639
O O9 0.664144 0.820225 0.891772
O O10 0.000000 0.000000 0.000000
O O11 0.182309 0.748947 0.392364
O O12 0.338226 0.395376 0.844155
O O13 0.891145 0.392598 0.277261
#
# Coordination Sequence:
#
# PCOD9012888 Si02
#       6
#     2   2   2   2   2   2
#     4   9  23  41  65  97 131 165 227 257 315 392
#     4  11  23  41  65  91 127 164 213 269 326 385
#     4  10  21  41  62  86 123 166 204 258 332 377
#     4   9  22  41  59  97 120 171 210 268 304 397
#     4  11  22  44  63  95 129 180 202 273 322 371
#     4  10  24  39  65  91 132 167 218 260 326 375
#
# _framework density 27.109976
#
# number of rings (size 3 to 8) (size 9 to 14) (size 15 to 20)
#    1.000    1.000    0.000    3.500    0.000   10.667 
#    0.000    0.000    0.000    0.000    0.000    0.000 
#    0.000    0.000    0.000    0.000    0.000    0.000 
#
# Total GULP energy -67113.134269 kJ/mol
# GULP energy per Si atom -5592.761189 kJ/mol
# Density = 2.704827 g / cm^3
# Si number density = 27.109976 Si / 1000 Ang^3
#
#
#
# Elastic Constant Matrix: (Units=GPa)
#
#
# Indices 1 2 3 4 5 6 
#
# 1 107.0447 2.0662 14.5757 1.4393 7.3462 -12.0484
# 2 2.0662 89.5509 21.7996 19.3707 2.3551 -28.9240
# 3 14.5757 21.7996 143.1206 10.7579 16.8153 -0.3733
# 4 1.4393 19.3707 10.7579 38.1523 -4.8152 -6.5279
# 5 7.3462 2.3551 16.8153 -4.8152 43.5169 12.5794
# 6 -12.0484 -28.9240 -0.3733 -6.5279 12.5794 48.3939
#
#
#
# Elastic Compliance Matrix: (Units=1/GPa)
#
#
# Indices 1 2 3 4 5 6 
#
# 1 0.010072 0.001453 -0.000887 -0.000520 -0.002646 0.003987
# 2 0.001453 0.016442 -0.001622 -0.006706 -0.004250 0.010376
# 3 -0.000887 -0.001622 0.007785 -0.001801 -0.002782 -0.000650
# 4 -0.000520 -0.006706 -0.001801 0.030538 0.004903 -0.001307
# 5 -0.002646 -0.004250 -0.002782 0.004903 0.028127 -0.009870
# 6 0.003987 0.010376 -0.000650 -0.001307 -0.009870 0.030243
#
#
# Mechanical properties :
#
#
# Convention : Reuss Voigt Hill
#
# Bulk Modulus (GPa) = 31.06725 46.28880 38.67803
# Shear Modulus (GPa) = 36.75195 46.09760 41.42477
#
# Velocity S-wave (km/s) = 3.68593 4.12805 3.91324
# Velocity P-wave (km/s) = 5.44053 6.31131 5.89203
#
# Compressibility (1/GPa) = 0.03218823
#
# Stress axis : x y z
#
# Youngs Moduli (GPa) = 99.28566 60.81967 128.45254
#
# Poissons Ratio (x) = -0.08839 0.11390
# Poissons Ratio (y) = -0.14429 0.20834
# Poissons Ratio (z) = 0.08804 0.09864
#
# Static dielectric constant tensor:
#      x y z
#    x 2.346800 -0.124210 0.051700 
#    y -0.124210 2.231240 -0.055450 
#    z 0.051700 -0.055450 2.059890 
# 
# From -- ./inp_files/210423.got.cif
#   From: 2010.05.17/outbox.cif.g08.bks.cpg/sg2_106_cif.got.tgz:210423.got - 2010.06.03 11:33:40.
