data_PCOD9012471
_publ_section_title
;
Structure prediction by ZEFSAII (Michael W. Deem and Ramdas Pophale) SiO2 
 PCOD9012471
Probable space group: P -1
;
_chemical_formula_sum "Si O2"
_cell_formula_units_Z 16
_cell_length_a 9.973119
_cell_length_b 10.819912
_cell_length_c 11.731796
_cell_angle_alpha 52.314585
_cell_angle_beta 89.192550
_cell_angle_gamma 58.832570
_cell_volume 767.081837
_symmetry_space_group_name_H-M "P -1"
_symmetry_group_IT_number 2
_symmetry_cell_setting 'triclinic'
loop_
_space_group_symop_operation_xyz
x,y,z
-x,-y,-z
loop_
_atom_site_type_symbol
_atom_site_label
_atom_site_fract_x
_atom_site_fract_y
_atom_site_fract_z
Si Si1 0.392221 0.281303 0.380708
Si Si2 0.086299 0.564388 0.044028
Si Si3 0.963171 0.716196 0.370545
Si Si4 0.339514 0.505664 0.477154
Si Si5 0.379689 0.960673 0.676293
Si Si6 0.786488 0.866338 0.043764
Si Si7 0.603527 0.557075 0.032316
Si Si8 0.426696 0.287042 0.826046
O O1 0.224300 0.393954 0.233908
O O2 0.354197 0.439611 0.384558
O O3 0.425987 0.100934 0.556720
O O4 0.560835 0.181805 0.355026
O O5 0.207330 0.576740 0.953087
O O6 0.929077 0.766157 0.998833
O O7 0.000000 0.500000 0.000000
O O8 0.135510 0.693686 0.392030
O O9 0.000000 0.500000 0.500000
O O10 0.818661 0.878244 0.371863
O O11 0.886138 0.796768 0.200909
O O12 0.500000 0.500000 0.500000
O O13 0.364718 0.356566 0.658657
O O14 0.497807 0.796898 0.866599
O O15 0.680115 0.782355 0.086901
O O16 0.633970 0.107478 0.913554
O O17 0.500000 0.500000 0.000000
O O18 0.609420 0.550684 0.172510
#
# Coordination Sequence:
#
# PCOD9012471 Si02
#       8
#     2   2   2   2   2   2   2   2
#     4  10  22  40  68  96 132 170 219 277 327 381
#     4  11  22  40  69 100 128 168 223 273 324 392
#     4  12  20  41  68  97 126 173 226 264 321 394
#     4  12  27  43  64  99 142 176 213 273 340 395
#     4  10  21  40  70  93 124 175 224 267 327 384
#     4  11  21  39  69 100 124 168 227 279 314 384
#     4  11  25  42  65  94 137 176 210 271 339 388
#     4  11  24  40  67  98 134 167 225 276 330 388
#
# _framework density 20.858270000000001
#
# number of rings (size 3 to 8) (size 9 to 14) (size 15 to 20)
#    0.000    1.000    6.250    0.000    5.250    1.000 
#    2.250    1.875    0.000    0.000    0.000    0.000 
#    0.000    0.000    0.000    0.000    0.000    0.000 
#
# Total GULP energy -89251.662746 kJ/mol
# GULP energy per Si atom -5578.228922 kJ/mol
# Density = 2.081080 g / cm^3
# Si number density = 20.858270 Si / 1000 Ang^3
#
#
#
# Elastic Constant Matrix: (Units=GPa)
#
#
# Indices 1 2 3 4 5 6 
#
# 1 114.0151 61.1824 10.6988 7.7453 25.0376 -24.4759
# 2 61.1824 155.5498 26.2480 18.6937 14.9547 -52.5615
# 3 10.6988 26.2480 68.3314 10.8722 24.4136 -1.2083
# 4 7.7453 18.6937 10.8722 28.7495 1.0224 9.5959
# 5 25.0376 14.9547 24.4136 1.0224 27.4173 0.9715
# 6 -24.4759 -52.5615 -1.2083 9.5959 0.9715 43.5528
#
#
#
# Elastic Compliance Matrix: (Units=1/GPa)
#
#
# Indices 1 2 3 4 5 6 
#
# 1 0.015832 -0.000705 0.006568 -0.009149 -0.019959 0.010690
# 2 -0.000705 0.020349 0.000312 -0.022581 -0.010933 0.029390
# 3 0.006568 0.000312 0.026319 -0.013709 -0.029392 0.008474
# 4 -0.009149 -0.022581 -0.013709 0.072487 0.031927 -0.049456
# 5 -0.019959 -0.010933 -0.029392 0.031927 0.086857 -0.034198
# 6 0.010690 0.029390 0.008474 -0.049456 -0.034198 0.076332
#
#
# Mechanical properties :
#
#
# Convention : Reuss Voigt Hill
#
# Bulk Modulus (GPa) = 13.36006 59.35053 36.35530
# Shear Modulus (GPa) = 16.08879 35.92841 26.00860
#
# Velocity S-wave (km/s) = 2.78031 4.15481 3.53501
# Velocity P-wave (km/s) = 4.08973 7.17862 5.84202
#
# Compressibility (1/GPa) = 0.07484995
#
# Stress axis : x y z
#
# Youngs Moduli (GPa) = 63.16298 49.14157 37.99590
#
# Poissons Ratio (x) = 0.03465 -0.24954
# Poissons Ratio (y) = 0.04453 -0.01187
# Poissons Ratio (z) = -0.41483 -0.01535
#
# Static dielectric constant tensor:
#      x y z
#    x 1.784740 -0.029810 0.033640 
#    y -0.029810 1.823000 -0.109930 
#    z 0.033640 -0.109930 2.027520 
# 
# From -- ./inp_files/392097.got.cif
#   From: 2010.05.17/outbox.cif.g08.bks.cpg/sg2_197_cif.got.tgz:392097.got - 2010.06.03 11:33:40.
