data_PCOD9012639
_publ_section_title
;
Structure prediction by ZEFSAII (Michael W. Deem and Ramdas Pophale) SiO2 
 PCOD9012639
Probable space group: P -1
;
_chemical_formula_sum "Si O2"
_cell_formula_units_Z 14
_cell_length_a 8.429653
_cell_length_b 9.510944
_cell_length_c 12.743174
_cell_angle_alpha 34.379464
_cell_angle_beta 102.501307
_cell_angle_gamma 95.763068
_cell_volume 557.529772
_symmetry_space_group_name_H-M "P -1"
_symmetry_group_IT_number 2
_symmetry_cell_setting 'triclinic'
loop_
_space_group_symop_operation_xyz
x,y,z
-x,-y,-z
loop_
_atom_site_type_symbol
_atom_site_label
_atom_site_fract_x
_atom_site_fract_y
_atom_site_fract_z
Si Si1 0.011089 0.301867 0.384001
Si Si2 0.057754 0.893310 0.830588
Si Si3 0.834869 0.757415 0.188878
Si Si4 0.369385 0.153338 0.465766
Si Si5 0.286212 0.672567 0.840688
Si Si6 0.411166 0.589050 0.539046
Si Si7 0.716636 0.849143 0.890304
O O1 0.019227 0.094852 0.605563
O O2 0.174973 0.251757 0.367603
O O3 0.986562 0.569043 0.276600
O O4 0.849983 0.293190 0.295452
O O5 0.110831 0.043885 0.845539
O O6 0.198146 0.687694 0.930788
O O7 0.898328 0.776098 0.912724
O O8 0.723359 0.580247 0.342515
O O9 0.733284 0.876091 0.001063
O O10 0.451901 0.392619 0.364907
O O11 0.500000 0.000000 0.500000
O O12 0.362399 0.931387 0.686861
O O13 0.372578 0.391813 0.000329
O O14 0.500000 0.500000 0.500000
O O15 0.336918 0.879444 0.333468
#
# Coordination Sequence:
#
# PCOD9012639 Si02
#       7
#     2   2   2   2   2   2   2
#     4  10  21  40  72  98 131 176 230 280 331 396
#     4  11  20  39  72 102 132 171 224 288 336 381
#     4  11  24  46  71 101 134 174 237 283 322 406
#     4  11  23  40  68 101 137 181 220 273 345 401
#     4  10  23  43  68 103 133 174 233 283 328 402
#     4  12  27  46  70  97 141 184 218 275 348 403
#     4  11  25  42  70  98 139 177 228 277 338 394
#
# _framework density 25.110765000000001
#
# number of rings (size 3 to 8) (size 9 to 14) (size 15 to 20)
#    0.000    1.143    1.429    6.429    4.000    1.143 
#    0.000    0.000    0.000    0.000    0.000    0.000 
#    0.000    0.000    0.000    0.000    0.000    0.000 
#
# Total GULP energy -78308.237168 kJ/mol
# GULP energy per Si atom -5593.445512 kJ/mol
# Density = 2.505361 g / cm^3
# Si number density = 25.110765 Si / 1000 Ang^3
#
#
#
# Elastic Constant Matrix: (Units=GPa)
#
#
# Indices 1 2 3 4 5 6 
#
# 1 79.5429 2.6653 3.3904 -3.1451 -23.6145 -18.8559
# 2 2.6653 133.5364 -12.8255 -7.1096 -16.7395 -6.0265
# 3 3.3904 -12.8255 85.1054 4.5399 -15.1442 10.2699
# 4 -3.1451 -7.1096 4.5399 27.3303 1.5769 -13.9823
# 5 -23.6145 -16.7395 -15.1442 1.5769 36.1788 -0.9580
# 6 -18.8559 -6.0265 10.2699 -13.9823 -0.9580 39.5222
#
#
#
# Elastic Compliance Matrix: (Units=1/GPa)
#
#
# Indices 1 2 3 4 5 6 
#
# 1 0.020382 0.002507 -0.000012 0.009180 0.014422 0.013707
# 2 0.002507 0.008758 0.001719 0.003737 0.006340 0.003561
# 3 -0.000012 0.001719 0.014063 -0.004804 0.006753 -0.004933
# 4 0.009180 0.003737 -0.004804 0.051771 0.004106 0.024613
# 5 0.014422 0.006340 0.006753 0.004106 0.042862 0.008584
# 6 0.013707 0.003561 -0.004933 0.024613 0.008584 0.042582
#
#
# Mechanical properties :
#
#
# Convention : Reuss Voigt Hill
#
# Bulk Modulus (GPa) = 19.36759 31.62723 25.49741
# Shear Modulus (GPa) = 26.42695 40.93656 33.68176
#
# Velocity S-wave (km/s) = 3.24761 4.04200 3.66639
# Velocity P-wave (km/s) = 4.66822 5.86568 5.30087
#
# Compressibility (1/GPa) = 0.05163266
#
# Stress axis : x y z
#
# Youngs Moduli (GPa) = 49.06267 114.18059 71.10880
#
# Poissons Ratio (x) = -0.28628 0.00082
# Poissons Ratio (y) = -0.12301 -0.12224
# Poissons Ratio (z) = 0.00057 -0.19628
#
# Static dielectric constant tensor:
#      x y z
#    x 2.096030 0.002680 0.103940 
#    y 0.002680 1.947580 0.014150 
#    z 0.103940 0.014150 2.024890 
# 
# From -- ./inp_files/380887.got.cif
#   From: 2010.05.17/outbox.cif.g08.bks.cpg/sg2_191_cif.got.tgz:380887.got - 2010.06.03 11:33:40.
