data_PCOD9012226
_publ_section_title
;
Structure prediction by ZEFSAII (Michael W. Deem and Ramdas Pophale) SiO2 
 PCOD9012226
Probable space group: P -1
;
_chemical_formula_sum "Si O2"
_cell_formula_units_Z 12
_cell_length_a 16.888029
_cell_length_b 5.180043
_cell_length_c 5.389772
_cell_angle_alpha 85.970774
_cell_angle_beta 74.430224
_cell_angle_gamma 80.365467
_cell_volume 447.633265
_symmetry_space_group_name_H-M "P -1"
_symmetry_group_IT_number 2
_symmetry_cell_setting 'triclinic'
loop_
_space_group_symop_operation_xyz
x,y,z
-x,-y,-z
loop_
_atom_site_type_symbol
_atom_site_label
_atom_site_fract_x
_atom_site_fract_y
_atom_site_fract_z
Si Si1 0.169240 0.440533 0.741298
Si Si2 0.739801 0.565583 0.835321
Si Si3 0.013922 0.213233 0.764967
Si Si4 0.441093 0.776172 0.553068
Si Si5 0.598119 0.019663 0.925097
Si Si6 0.862017 0.146860 0.609043
O O1 0.219322 0.330990 0.456984
O O2 0.075545 0.385442 0.830559
O O3 0.158586 0.747706 0.660679
O O4 0.219839 0.356255 0.948369
O O5 0.773796 0.251279 0.805245
O O6 0.647874 0.726590 0.904684
O O7 0.924619 0.303341 0.705456
O O8 0.073480 0.110390 0.484021
O O9 0.000000 0.000000 0.000000
O O10 0.500000 0.500000 0.500000
O O11 0.385896 0.829334 0.350257
O O12 0.500000 0.000000 0.500000
O O13 0.390476 0.818581 0.847039
O O14 0.500000 0.000000 0.000000
#
# Coordination Sequence:
#
# PCOD9012226 Si02
#       6
#     2   2   2   2   2   2
#     4  10  23  40  62  88 129 167 203 272 320 383
#     4  10  22  42  62  92 133 166 215 269 331 387
#     4  11  22  38  64  94 124 172 223 259 326 392
#     4  10  21  40  69 101 132 170 228 283 338 406
#     4  10  21  41  71  95 129 175 224 280 338 413
#     4   9  23  38  62  90 129 167 217 265 321 390
#
# _framework density 26.807659000000001
#
# number of rings (size 3 to 8) (size 9 to 14) (size 15 to 20)
#    1.000    1.000    0.000    3.000    4.667    1.333 
#    0.000   10.000    3.667    0.000    0.000    0.000 
#    0.000    0.000    0.000    0.000    0.000    0.000 
#
# Total GULP energy -66907.836209 kJ/mol
# GULP energy per Si atom -5575.653017 kJ/mol
# Density = 2.674664 g / cm^3
# Si number density = 26.807659 Si / 1000 Ang^3
#
#
#
# Elastic Constant Matrix: (Units=GPa)
#
#
# Indices 1 2 3 4 5 6 
#
# 1 98.4152 31.7923 36.6252 7.2257 -5.7801 -51.5199
# 2 31.7923 110.4519 38.7218 2.9495 -6.6374 -36.0154
# 3 36.6252 38.7218 204.3961 10.8937 27.2871 -20.2292
# 4 7.2257 2.9495 10.8937 36.7699 -9.6155 -10.4456
# 5 -5.7801 -6.6374 27.2871 -9.6155 42.6874 1.3969
# 6 -51.5199 -36.0154 -20.2292 -10.4456 1.3969 56.2083
#
#
#
# Elastic Compliance Matrix: (Units=1/GPa)
#
#
# Indices 1 2 3 4 5 6 
#
# 1 0.021281 0.001698 -0.003048 0.003655 0.005262 0.020046
# 2 0.001698 0.012617 -0.002509 0.003111 0.004195 0.009212
# 3 -0.003048 -0.002509 0.006606 -0.003360 -0.005700 -0.002507
# 4 0.003655 0.003111 -0.003360 0.032713 0.010169 0.009961
# 5 0.005262 0.004195 -0.005700 0.010169 0.030509 0.006591
# 6 0.020046 0.009212 -0.002507 0.009961 0.006591 0.042853
#
#
# Mechanical properties :
#
#
# Convention : Reuss Voigt Hill
#
# Bulk Modulus (GPa) = 30.50023 69.72687 50.11355
# Shear Modulus (GPa) = 30.26158 47.54139 38.90149
#
# Velocity S-wave (km/s) = 3.36347 4.21577 3.81351
# Velocity P-wave (km/s) = 5.14646 7.05433 6.17453
#
# Compressibility (1/GPa) = 0.03278664
#
# Stress axis : x y z
#
# Youngs Moduli (GPa) = 46.98918 79.25697 151.38004
#
# Poissons Ratio (x) = -0.13458 0.46146
# Poissons Ratio (y) = -0.07979 0.37976
# Poissons Ratio (z) = 0.14324 0.19883
#
# Static dielectric constant tensor:
#      x y z
#    x 2.089250 0.127530 0.013400 
#    y 0.127530 2.232010 0.048100 
#    z 0.013400 0.048100 2.232020 
# 
# From -- ./inp_files/8522.got.cif
#   From: 2010.05.17/outbox.cif.g08.bks.cpg/sg2_5_cif.got.tgz:8522.got - 2010.06.03 11:33:40.
