data_PCOD9012061
_publ_section_title
;
Structure prediction by ZEFSAII (Michael W. Deem and Ramdas Pophale) SiO2 
 PCOD9012061
Probable space group: P -1
;
_chemical_formula_sum "Si O2"
_cell_formula_units_Z 14
_cell_length_a 5.672435
_cell_length_b 8.245451
_cell_length_c 20.191593
_cell_angle_alpha 141.689512
_cell_angle_beta 92.650187
_cell_angle_gamma 96.465889
_cell_volume 567.670807
_symmetry_space_group_name_H-M "P -1"
_symmetry_group_IT_number 2
_symmetry_cell_setting 'triclinic'
loop_
_space_group_symop_operation_xyz
x,y,z
-x,-y,-z
loop_
_atom_site_type_symbol
_atom_site_label
_atom_site_fract_x
_atom_site_fract_y
_atom_site_fract_z
Si Si1 0.501381 0.618716 0.921668
Si Si2 0.273170 0.564247 0.558703
Si Si3 0.846532 0.136055 0.090514
Si Si4 0.365153 0.060836 0.808144
Si Si5 0.175235 0.652469 0.242118
Si Si6 0.910548 0.212259 0.868515
Si Si7 0.740746 0.919157 0.508767
O O1 0.311696 0.752705 0.929111
O O2 0.607881 0.483571 0.818035
O O3 0.364103 0.937532 0.160635
O O4 0.589505 0.623064 0.107859
O O5 0.500000 0.500000 0.500000
O O6 0.340011 0.874075 0.682272
O O7 0.281646 0.390300 0.570017
O O8 0.000000 0.500000 0.500000
O O9 0.684480 0.873076 0.039395
O O10 0.001712 0.418998 0.209685
O O11 0.000000 0.000000 0.000000
O O12 0.085284 0.007875 0.812159
O O13 0.094302 0.715032 0.186769
O O14 0.228052 0.919901 0.370121
O O15 0.000000 0.500000 0.000000
O O16 0.500000 0.000000 0.500000
O O17 0.000000 0.000000 0.500000
#
# Coordination Sequence:
#
# PCOD9012061 Si02
#       7
#     2   2   2   2   2   2   2
#     4   9  18  33  61  95 133 175 237 285 360 438
#     4  12  25  47  82 116 145 204 270 322 388 460
#     4   9  17  32  58  95 127 180 233 278 355 450
#     4  11  22  41  65  99 144 181 233 308 370 432
#     4  10  21  40  68  93 140 191 236 302 377 438
#     4  11  23  41  69 104 139 187 241 304 376 454
#     4  12  29  50  76 112 156 200 260 325 384 454
#
# _framework density 24.662182000000001
#
# number of rings (size 3 to 8) (size 9 to 14) (size 15 to 20)
#    0.000    1.429    1.429    4.714    2.000    0.000 
#    0.000   12.857    0.000    0.000    0.000    0.000 
#    0.000    0.000    0.000    0.000    0.000    0.000 
#
# Total GULP energy -77982.428452 kJ/mol
# GULP energy per Si atom -5570.173461 kJ/mol
# Density = 2.460605 g / cm^3
# Si number density = 24.662182 Si / 1000 Ang^3
#
#
#
# Elastic Constant Matrix: (Units=GPa)
#
#
# Indices 1 2 3 4 5 6 
#
# 1 196.2278 21.9992 47.3540 -11.0208 -32.9515 -17.9390
# 2 21.9992 104.2035 -1.1852 6.7987 0.1226 -0.4437
# 3 47.3540 -1.1852 127.6193 -4.1491 0.9812 -17.9091
# 4 -11.0208 6.7987 -4.1491 33.1874 4.0463 1.5695
# 5 -32.9515 0.1226 0.9812 4.0463 39.6891 10.3893
# 6 -17.9390 -0.4437 -17.9091 1.5695 10.3893 45.8412
#
#
#
# Elastic Compliance Matrix: (Units=1/GPa)
#
#
# Indices 1 2 3 4 5 6 
#
# 1 0.006948 -0.001606 -0.002527 0.001623 0.005566 0.000399
# 2 -0.001606 0.010100 0.000629 -0.002386 -0.001152 0.000058
# 3 -0.002527 0.000629 0.009291 0.000431 -0.003256 0.003370
# 4 0.001623 -0.002386 0.000431 0.031438 -0.001896 0.000134
# 5 0.005566 -0.001152 -0.003256 -0.001896 0.031725 -0.006230
# 6 0.000399 0.000058 0.003370 0.000134 -0.006230 0.024695
#
#
# Mechanical properties :
#
#
# Convention : Reuss Voigt Hill
#
# Bulk Modulus (GPa) = 51.72953 62.70960 57.21957
# Shear Modulus (GPa) = 39.16907 47.73573 43.45240
#
# Velocity S-wave (km/s) = 3.98958 4.40430 4.20206
# Velocity P-wave (km/s) = 6.49947 7.16564 6.84067
#
# Compressibility (1/GPa) = 0.01933132
#
# Stress axis : x y z
#
# Youngs Moduli (GPa) = 143.91666 99.00803 107.62650
#
# Poissons Ratio (x) = 0.15905 0.27199
# Poissons Ratio (y) = 0.23119 -0.06773
# Poissons Ratio (z) = 0.36371 -0.06230
#
# Static dielectric constant tensor:
#      x y z
#    x 2.317430 0.108200 0.166210 
#    y 0.108200 1.775820 0.092360 
#    z 0.166210 0.092360 2.081350 
# 
# From -- ./inp_files/548485.got.cif
#   From: 2010.05.17/outbox.cif.g08.bks.cpg/sg2_275_cif.got.tgz:548485.got - 2010.06.03 11:33:40.
