data_PCOD9012396
_publ_section_title
;
Structure prediction by ZEFSAII (Michael W. Deem and Ramdas Pophale) SiO2 
 PCOD9012396
Probable space group: P -1
;
_chemical_formula_sum "Si O2"
_cell_formula_units_Z 10
_cell_length_a 9.896480
_cell_length_b 7.073388
_cell_length_c 14.009723
_cell_angle_alpha 40.348047
_cell_angle_beta 43.285958
_cell_angle_gamma 66.538819
_cell_volume 407.327919
_symmetry_space_group_name_H-M "P -1"
_symmetry_group_IT_number 2
_symmetry_cell_setting 'triclinic'
loop_
_space_group_symop_operation_xyz
x,y,z
-x,-y,-z
loop_
_atom_site_type_symbol
_atom_site_label
_atom_site_fract_x
_atom_site_fract_y
_atom_site_fract_z
Si Si1 0.969945 0.637393 0.252861
Si Si2 0.532306 0.769925 0.650357
Si Si3 0.116578 0.746791 0.929024
Si Si4 0.683759 0.909997 0.982253
Si Si5 0.997215 0.800752 0.446154
O O1 0.927148 0.298251 0.453435
O O2 0.862030 0.890332 0.242842
O O3 0.971986 0.633708 0.139901
O O4 0.201865 0.840223 0.093306
O O5 0.353410 0.763238 0.821569
O O6 0.430838 0.429313 0.786864
O O7 0.764134 0.817279 0.551862
O O8 0.500000 0.000000 0.500000
O O9 0.000000 0.500000 0.000000
O O10 0.839780 0.926866 0.805579
O O11 0.500000 0.000000 0.000000
O O12 0.000000 0.500000 0.500000
#
# Coordination Sequence:
#
# PCOD9012396 Si02
#       5
#     2   2   2   2   2
#     4  10  22  44  68 101 140 182 230 280 345 414
#     4  12  24  39  70 103 138 178 229 288 337 403
#     4  11  24  42  70 100 141 180 232 290 339 402
#     4  11  21  42  73  98 138 186 222 282 348 408
#     4  10  21  40  69  98 141 179 227 277 345 414
#
# _framework density 24.550243999999999
#
# number of rings (size 3 to 8) (size 9 to 14) (size 15 to 20)
#    0.000    1.200    6.000    2.400    0.000    0.800 
#    0.000    4.000    0.000    0.000    0.000    0.000 
#    0.000    0.000    0.000    0.000    0.000    0.000 
#
# Total GULP energy -55773.687072 kJ/mol
# GULP energy per Si atom -5577.368707 kJ/mol
# Density = 2.449437 g / cm^3
# Si number density = 24.550244 Si / 1000 Ang^3
#
#
#
# Elastic Constant Matrix: (Units=GPa)
#
#
# Indices 1 2 3 4 5 6 
#
# 1 114.7506 69.9247 41.1679 11.6414 4.9534 -17.1725
# 2 69.9247 120.1179 47.0359 0.5980 -1.6471 -29.4759
# 3 41.1679 47.0359 132.5061 -25.3171 17.0179 -7.4435
# 4 11.6414 0.5980 -25.3171 51.5527 -15.1661 -4.2757
# 5 4.9534 -1.6471 17.0179 -15.1661 43.3551 8.1158
# 6 -17.1725 -29.4759 -7.4435 -4.2757 8.1158 58.3860
#
#
#
# Elastic Compliance Matrix: (Units=1/GPa)
#
#
# Indices 1 2 3 4 5 6 
#
# 1 0.015049 -0.007708 -0.002587 -0.005425 -0.002935 0.000216
# 2 -0.007708 0.015076 -0.002715 0.001234 0.002052 0.004803
# 3 -0.002587 -0.002715 0.010569 0.005171 -0.002127 -0.000110
# 4 -0.005425 0.001234 0.005171 0.025372 0.007416 0.000514
# 5 -0.002935 0.002052 -0.002127 0.007416 0.027541 -0.003384
# 6 0.000216 0.004803 -0.000110 0.000514 -0.003384 0.020110
#
#
# Mechanical properties :
#
#
# Convention : Reuss Voigt Hill
#
# Bulk Modulus (GPa) = 68.14168 75.95909 72.05038
# Shear Modulus (GPa) = 34.57187 44.60851 39.59019
#
# Velocity S-wave (km/s) = 3.75668 4.26729 4.02010
# Velocity P-wave (km/s) = 6.82885 7.43553 7.13863
#
# Compressibility (1/GPa) = 0.01467531
#
# Stress axis : x y z
#
# Youngs Moduli (GPa) = 66.45104 66.33227 94.61500
#
# Poissons Ratio (x) = 0.51127 0.24475
# Poissons Ratio (y) = 0.51218 0.25684
# Poissons Ratio (z) = 0.17190 0.18006
#
# Static dielectric constant tensor:
#      x y z
#    x 1.931060 -0.096080 0.104530 
#    y -0.096080 1.991910 -0.001460 
#    z 0.104530 -0.001460 2.134080 
# 
# From -- ./inp_files/235902.got.cif
#   From: 2010.05.17/outbox.cif.g08.bks.cpg/sg2_118_cif.got.tgz:235902.got - 2010.06.03 11:33:40.
