data_PCOD9012124
_publ_section_title
;
Structure prediction by ZEFSAII (Michael W. Deem and Ramdas Pophale) SiO2 
 PCOD9012124
Probable space group: P -1
;
_chemical_formula_sum "Si O2"
_cell_formula_units_Z 16
_cell_length_a 13.161860
_cell_length_b 11.723174
_cell_length_c 12.656052
_cell_angle_alpha 52.675451
_cell_angle_beta 32.010764
_cell_angle_gamma 75.293651
_cell_volume 647.507350
_symmetry_space_group_name_H-M "P -1"
_symmetry_group_IT_number 2
_symmetry_cell_setting 'triclinic'
loop_
_space_group_symop_operation_xyz
x,y,z
-x,-y,-z
loop_
_atom_site_type_symbol
_atom_site_label
_atom_site_fract_x
_atom_site_fract_y
_atom_site_fract_z
Si Si1 0.993018 0.382675 0.409018
Si Si2 0.885854 0.593389 0.088967
Si Si3 0.478587 0.828956 0.156387
Si Si4 0.978615 0.928019 0.442116
Si Si5 0.299175 0.001052 0.513664
Si Si6 0.491645 0.449855 0.696657
Si Si7 0.823938 0.247108 0.865243
Si Si8 0.190681 0.184520 0.665703
O O1 0.819430 0.310162 0.499756
O O2 0.837538 0.304213 0.699845
O O3 0.111628 0.279250 0.360428
O O4 0.140932 0.596958 0.177749
O O5 0.659542 0.472860 0.437122
O O6 0.766346 0.622659 0.079718
O O7 0.000000 0.500000 0.000000
O O8 0.099484 0.790165 0.837919
O O9 0.507945 0.688395 0.150990
O O10 0.500000 0.000000 0.000000
O O11 0.739518 0.941356 0.926955
O O12 0.808269 0.955881 0.512270
O O13 0.000000 0.000000 0.500000
O O14 0.328781 0.133994 0.501624
O O15 0.560133 0.057071 0.224910
O O16 0.625485 0.645567 0.518158
O O17 0.037623 0.232823 0.708713
O O18 0.000000 0.000000 0.000000
#
# Coordination Sequence:
#
# PCOD9012124 Si02
#       8
#     2   2   2   2   2   2   2   2
#     4  10  22  44  66 100 139 188 227 288 361 418
#     4  11  27  45  73 103 139 183 241 293 353 418
#     4  10  21  40  68  96 136 183 229 283 353 417
#     4  11  23  40  66 103 141 180 234 288 351 422
#     4  12  26  46  69 107 138 186 238 293 354 427
#     4  11  24  48  72 102 142 188 234 295 355 421
#     4  11  25  43  71  98 142 182 234 290 350 428
#     4  12  26  47  73  99 144 189 237 292 356 419
#
# _framework density 24.710144
#
# number of rings (size 3 to 8) (size 9 to 14) (size 15 to 20)
#    0.000    1.000    5.000    0.750    1.750    7.000 
#    0.000    0.000    0.000    0.000    0.000    0.000 
#    0.000    0.000    0.000    0.000    0.000    0.000 
#
# Total GULP energy -89304.744658 kJ/mol
# GULP energy per Si atom -5581.546541 kJ/mol
# Density = 2.465390 g / cm^3
# Si number density = 24.710144 Si / 1000 Ang^3
#
#
#
# Elastic Constant Matrix: (Units=GPa)
#
#
# Indices 1 2 3 4 5 6 
#
# 1 43.9960 13.8997 -0.1048 3.8232 1.2218 -4.2232
# 2 13.8997 165.2651 24.8545 -9.6444 -0.4975 -5.1199
# 3 -0.1048 24.8545 94.3134 5.9022 -15.2116 2.4659
# 4 3.8232 -9.6444 5.9022 45.6293 0.1192 1.5229
# 5 1.2218 -0.4975 -15.2116 0.1192 26.4613 -1.0444
# 6 -4.2232 -5.1199 2.4659 1.5229 -1.0444 34.4511
#
#
#
# Elastic Compliance Matrix: (Units=1/GPa)
#
#
# Indices 1 2 3 4 5 6 
#
# 1 0.023920 -0.002172 0.000582 -0.002626 -0.000694 0.002663
# 2 -0.002172 0.006669 -0.002044 0.001833 -0.000928 0.000762
# 3 0.000582 -0.002044 0.012432 -0.002080 0.007059 -0.000816
# 4 -0.002626 0.001833 -0.002080 0.022827 -0.001180 -0.000945
# 5 -0.000694 -0.000928 0.007059 -0.001180 0.041892 0.000594
# 6 0.002663 0.000762 -0.000816 -0.000945 0.000594 0.029585
#
#
# Mechanical properties :
#
#
# Convention : Reuss Voigt Hill
#
# Bulk Modulus (GPa) = 27.97030 42.31924 35.14477
# Shear Modulus (GPa) = 31.94667 38.97001 35.45834
#
# Velocity S-wave (km/s) = 3.59953 3.97556 3.79221
# Velocity P-wave (km/s) = 5.34971 6.18360 5.78171
#
# Compressibility (1/GPa) = 0.03575221
#
# Stress axis : x y z
#
# Youngs Moduli (GPa) = 41.80598 149.95293 80.43586
#
# Poissons Ratio (x) = 0.32571 -0.04679
# Poissons Ratio (y) = 0.09081 0.16442
# Poissons Ratio (z) = -0.02432 0.30651
#
# Static dielectric constant tensor:
#      x y z
#    x 2.066450 0.033740 0.070320 
#    y 0.033740 1.962310 0.018150 
#    z 0.070320 0.018150 2.060960 
# 
# From -- ./inp_files/532396.got.cif
#   From: 2010.05.17/outbox.cif.g08.bks.cpg/sg2_267_cif.got.tgz:532396.got - 2010.06.03 11:33:40.
