data_PCOD9012355
_publ_section_title
;
Structure prediction by ZEFSAII (Michael W. Deem and Ramdas Pophale) SiO2 
 PCOD9012355
Probable space group: P -1
;
_chemical_formula_sum "Si O2"
_cell_formula_units_Z 14
_cell_length_a 13.980626
_cell_length_b 8.973366
_cell_length_c 26.247006
_cell_angle_alpha 50.576315
_cell_angle_beta 19.685791
_cell_angle_gamma 39.307684
_cell_volume 631.656388
_symmetry_space_group_name_H-M "P -1"
_symmetry_group_IT_number 2
_symmetry_cell_setting 'triclinic'
loop_
_space_group_symop_operation_xyz
x,y,z
-x,-y,-z
loop_
_atom_site_type_symbol
_atom_site_label
_atom_site_fract_x
_atom_site_fract_y
_atom_site_fract_z
Si Si1 0.323654 0.627166 0.188749
Si Si2 0.168101 0.204342 0.824793
Si Si3 0.174234 0.575567 0.683227
Si Si4 0.385758 0.761229 0.326493
Si Si5 0.905874 0.890934 0.845694
Si Si6 0.930449 0.598258 0.570890
Si Si7 0.481888 0.138774 0.874653
O O1 0.129234 0.862565 0.194359
O O2 0.072008 0.572150 0.349929
O O3 0.418051 0.726021 0.168046
O O4 0.722436 0.358612 0.024412
O O5 0.189083 0.341757 0.736879
O O6 0.284258 0.289704 0.794808
O O7 0.500894 0.891984 0.723493
O O8 0.500000 0.500000 0.500000
O O9 0.200534 0.675920 0.702508
O O10 0.786234 0.826429 0.797195
O O11 0.466947 0.811679 0.218838
O O12 0.268684 0.593086 0.414545
O O13 0.000000 0.000000 0.500000
O O14 0.500000 0.000000 0.000000
O O15 0.898310 0.790408 0.926286
O O16 0.000000 0.500000 0.500000
#
# Coordination Sequence:
#
# PCOD9012355 Si02
#       7
#     2   2   2   2   2   2   2
#     4  10  18  36  58  84 109 149 193 230 270 339
#     4  11  21  36  57  91 108 143 197 235 272 330
#     4  10  17  29  55  85 106 139 193 237 259 328
#     4  10  22  36  56  87 115 148 182 237 293 323
#     4   8  16  31  53  81 106 140 191 233 269 314
#     4  11  22  36  54  82 122 153 177 227 296 339
#     4  10  17  36  56  81 111 149 188 233 274 338
#
# _framework density 22.163951999999998
#
# number of rings (size 3 to 8) (size 9 to 14) (size 15 to 20)
#    0.000    2.286    5.714    2.143    2.000    0.571 
#    0.000    0.000    0.000    6.857   14.857    0.000 
#    0.000    0.000    0.000    0.000    0.000    0.000 
#
# Total GULP energy -78007.993738 kJ/mol
# GULP energy per Si atom -5571.999553 kJ/mol
# Density = 2.211351 g / cm^3
# Si number density = 22.163952 Si / 1000 Ang^3
#
#
#
# Elastic Constant Matrix: (Units=GPa)
#
#
# Indices 1 2 3 4 5 6 
#
# 1 47.0688 14.9436 32.9616 -18.2249 24.0596 -3.8043
# 2 14.9436 111.2813 35.8160 -27.6767 18.5294 -12.7601
# 3 32.9616 35.8160 126.6261 -32.0260 46.4096 -4.7599
# 4 -18.2249 -27.6767 -32.0260 51.1601 -8.7347 13.5335
# 5 24.0596 18.5294 46.4096 -8.7347 37.1373 -8.5303
# 6 -3.8043 -12.7601 -4.7599 13.5335 -8.5303 26.4167
#
#
#
# Elastic Compliance Matrix: (Units=1/GPa)
#
#
# Indices 1 2 3 4 5 6 
#
# 1 0.037334 0.000830 0.003273 0.013594 -0.027685 -0.009537
# 2 0.000830 0.011102 -0.000776 0.004739 -0.003589 0.001756
# 3 0.003273 -0.000776 0.018824 0.010957 -0.025024 -0.010206
# 4 0.013594 0.004739 0.010957 0.035151 -0.020850 -0.018520
# 5 -0.027685 -0.003589 -0.025024 -0.020850 0.078984 0.025957
# 6 -0.009537 0.001756 -0.010206 -0.018520 0.025957 0.053360
#
#
# Mechanical properties :
#
#
# Convention : Reuss Voigt Hill
#
# Bulk Modulus (GPa) = 13.52922 50.26875 31.89898
# Shear Modulus (GPa) = 19.78324 36.35982 28.07153
#
# Velocity S-wave (km/s) = 2.99086 4.05469 3.56271
# Velocity P-wave (km/s) = 4.24787 6.68209 5.59887
#
# Compressibility (1/GPa) = 0.07391411
#
# Stress axis : x y z
#
# Youngs Moduli (GPa) = 26.78554 90.07302 53.12341
#
# Poissons Ratio (x) = -0.07478 -0.17389
# Poissons Ratio (y) = -0.02224 0.04125
# Poissons Ratio (z) = -0.08768 0.06994
#
# Static dielectric constant tensor:
#      x y z
#    x 1.884700 -0.196140 -0.086230 
#    y -0.196140 1.686120 -0.185550 
#    z -0.086230 -0.185550 1.663180 
# 
# From -- ./inp_files/619247.got.cif
#   From: 2010.05.17/outbox.cif.g08.bks.cpg/sg2_310_cif.got.tgz:619247.got - 2010.06.03 11:33:40.
