data_PCOD9012562
_publ_section_title
;
Structure prediction by ZEFSAII (Michael W. Deem and Ramdas Pophale) SiO2 
 PCOD9012562
Probable space group: P -1
;
_chemical_formula_sum "Si O2"
_cell_formula_units_Z 16
_cell_length_a 7.635177
_cell_length_b 9.472890
_cell_length_c 11.553033
_cell_angle_alpha 80.724149
_cell_angle_beta 60.692634
_cell_angle_gamma 113.579479
_cell_volume 597.481017
_symmetry_space_group_name_H-M "P -1"
_symmetry_group_IT_number 2
_symmetry_cell_setting 'triclinic'
loop_
_space_group_symop_operation_xyz
x,y,z
-x,-y,-z
loop_
_atom_site_type_symbol
_atom_site_label
_atom_site_fract_x
_atom_site_fract_y
_atom_site_fract_z
Si Si1 0.737598 0.179500 0.367880
Si Si2 0.522933 0.381325 0.810255
Si Si3 0.174404 0.240159 0.605974
Si Si4 0.699873 0.384772 0.527318
Si Si5 0.023643 0.205161 0.076657
Si Si6 0.775913 0.121831 0.935219
Si Si7 0.277265 0.584857 0.022122
Si Si8 0.448608 0.291596 0.301218
O O1 0.827406 0.303095 0.433022
O O2 0.914439 0.144769 0.246951
O O3 0.644620 0.265354 0.298779
O O4 0.500000 0.000000 0.500000
O O5 0.669431 0.344003 0.678712
O O6 0.485693 0.514207 0.734612
O O7 0.651829 0.468035 0.876518
O O8 0.266529 0.222061 0.957493
O O9 0.425017 0.289480 0.579541
O O10 0.182827 0.415772 0.563185
O O11 0.206889 0.185969 0.472653
O O12 0.955536 0.127339 0.780385
O O13 0.831382 0.099602 0.052854
O O14 0.113001 0.407717 0.028937
O O15 0.832696 0.313848 0.906276
O O16 0.500000 0.000000 0.000000
O O17 0.506038 0.716282 0.848835
#
# Coordination Sequence:
#
# PCOD9012562 Si02
#       8
#     2   2   2   2   2   2   2   2
#     4  11  23  38  61  99 133 177 221 268 335 414
#     4  10  21  40  71 104 126 164 232 291 328 384
#     4   9  18  37  68  97 122 176 222 281 331 390
#     4   9  18  37  68  97 127 167 234 274 335 388
#     4  11  22  43  70  94 130 181 229 276 333 395
#     4  12  25  41  62 102 141 180 221 270 344 409
#     4  11  23  42  70 103 133 170 233 286 327 397
#     4   9  19  39  68  95 127 164 229 279 327 392
#
# _framework density 26.779094000000001
#
# number of rings (size 3 to 8) (size 9 to 14) (size 15 to 20)
#    0.000    1.750    2.500    3.375    5.250    1.000 
#    4.500   12.500    0.000    0.000    0.000    0.000 
#    0.000    0.000    0.000    0.000    0.000    0.000 
#
# Total GULP energy -89451.741429 kJ/mol
# GULP energy per Si atom -5590.733839 kJ/mol
# Density = 2.671814 g / cm^3
# Si number density = 26.779094 Si / 1000 Ang^3
#
#
#
# Elastic Constant Matrix: (Units=GPa)
#
#
# Indices 1 2 3 4 5 6 
#
# 1 60.4561 38.6553 32.3735 17.0983 -11.9992 8.9419
# 2 38.6553 123.5053 54.3801 22.9575 -5.7646 6.0829
# 3 32.3735 54.3801 220.3896 57.5354 -8.2389 17.9260
# 4 17.0983 22.9575 57.5354 43.6301 2.3042 -5.0186
# 5 -11.9992 -5.7646 -8.2389 2.3042 30.3746 2.0333
# 6 8.9419 6.0829 17.9260 -5.0186 2.0333 42.0781
#
#
#
# Elastic Compliance Matrix: (Units=1/GPa)
#
#
# Indices 1 2 3 4 5 6 
#
# 1 0.025510 -0.005865 0.001213 -0.009843 0.010493 -0.006771
# 2 -0.005865 0.010806 -0.001478 -0.001387 -0.000574 0.000176
# 3 0.001213 -0.001478 0.008229 -0.011324 0.003629 -0.005076
# 4 -0.009843 -0.001387 -0.011324 0.044540 -0.011471 0.012983
# 5 0.010493 -0.000574 0.003629 -0.011471 0.039279 -0.006959
# 6 -0.006771 0.000176 -0.005076 0.012983 -0.006959 0.029226
#
#
# Mechanical properties :
#
#
# Convention : Reuss Voigt Hill
#
# Bulk Modulus (GPa) = 30.97650 72.79654 51.88652
# Shear Modulus (GPa) = 27.68365 41.81270 34.74818
#
# Velocity S-wave (km/s) = 3.21873 3.95573 3.60611
# Velocity P-wave (km/s) = 5.04045 6.93591 6.06272
#
# Compressibility (1/GPa) = 0.03228254
#
# Stress axis : x y z
#
# Youngs Moduli (GPa) = 39.20096 92.54238 121.52162
#
# Poissons Ratio (x) = 0.54278 -0.14736
# Poissons Ratio (y) = 0.22992 0.17966
# Poissons Ratio (z) = -0.04754 0.13682
#
# Static dielectric constant tensor:
#      x y z
#    x 2.138980 -0.009310 -0.009740 
#    y -0.009310 2.072890 0.017090 
#    z -0.009740 0.017090 2.178040 
# 
# From -- ./inp_files/392609.got.cif
#   From: 2010.05.17/outbox.cif.g08.bks.cpg/sg2_197_cif.got.tgz:392609.got - 2010.06.03 11:33:40.
