data_PCOD9012934
_publ_section_title
;
Structure prediction by ZEFSAII (Michael W. Deem and Ramdas Pophale) SiO2 
 PCOD9012934
Probable space group: P -1
;
_chemical_formula_sum "Si O2"
_cell_formula_units_Z 14
_cell_length_a 16.017959
_cell_length_b 12.658829
_cell_length_c 13.877431
_cell_angle_alpha 30.071723
_cell_angle_beta 28.925573
_cell_angle_gamma 48.580341
_cell_volume 626.356088
_symmetry_space_group_name_H-M "P -1"
_symmetry_group_IT_number 2
_symmetry_cell_setting 'triclinic'
loop_
_space_group_symop_operation_xyz
x,y,z
-x,-y,-z
loop_
_atom_site_type_symbol
_atom_site_label
_atom_site_fract_x
_atom_site_fract_y
_atom_site_fract_z
Si Si1 0.705161 0.304335 0.120060
Si Si2 0.210728 0.920941 0.402267
Si Si3 0.256389 0.103488 0.696148
Si Si4 0.929803 0.714526 0.686330
Si Si5 0.302506 0.514112 0.212687
Si Si6 0.487455 0.244111 0.703239
Si Si7 0.244532 0.919202 0.048245
O O1 0.479391 0.215416 0.410850
O O2 0.756400 0.087008 0.219978
O O3 0.786811 0.459098 0.008095
O O4 0.784708 0.466381 0.817183
O O5 0.317642 0.784095 0.454616
O O6 0.025993 0.755448 0.661935
O O7 0.161878 0.097877 0.377732
O O8 0.349038 0.085129 0.051347
O O9 0.198042 0.296520 0.557305
O O10 0.162718 0.998249 0.975048
O O11 0.093015 0.782526 0.388640
O O12 0.500000 0.500000 0.000000
O O13 0.333298 0.747118 0.053258
O O14 0.500000 0.500000 0.500000
O O15 0.394800 0.134099 0.782789
#
# Coordination Sequence:
#
# PCOD9012934 Si02
#       7
#     2   2   2   2   2   2   2
#     4   9  19  36  59  85 123 158 203 251 300 365
#     4   9  22  43  62  87 127 163 207 252 312 371
#     4   9  19  36  59  89 118 156 211 249 288 372
#     4  10  21  41  62  90 130 167 195 258 325 359
#     4   9  19  36  58  88 120 160 207 247 296 367
#     4  10  22  40  66  93 116 161 216 258 294 373
#     4  10  22  37  60  91 125 156 208 255 306 363
#
# _framework density 22.351503999999998
#
# number of rings (size 3 to 8) (size 9 to 14) (size 15 to 20)
#    0.000    2.571    0.000    0.857    6.000    4.571 
#    0.000   13.571    0.000    0.000    0.000    0.000 
#    0.000    0.000    0.000    0.000    0.000    0.000 
#
# Total GULP energy -78246.385032 kJ/mol
# GULP energy per Si atom -5589.027502 kJ/mol
# Density = 2.230063 g / cm^3
# Si number density = 22.351504 Si / 1000 Ang^3
#
#
#
# Elastic Constant Matrix: (Units=GPa)
#
#
# Indices 1 2 3 4 5 6 
#
# 1 59.8519 46.7205 33.3023 -30.9059 -11.2367 -4.0454
# 2 46.7205 114.0066 29.7650 -29.4634 -21.5517 7.1038
# 3 33.3023 29.7650 68.2469 -26.2358 -17.7187 0.6244
# 4 -30.9059 -29.4634 -26.2358 48.1882 11.0530 -0.5600
# 5 -11.2367 -21.5517 -17.7187 11.0530 45.0587 -6.2859
# 6 -4.0454 7.1038 0.6244 -0.5600 -6.2859 31.7065
#
#
#
# Elastic Compliance Matrix: (Units=1/GPa)
#
#
# Indices 1 2 3 4 5 6 
#
# 1 0.036135 -0.009907 -0.008846 0.012692 -0.001348 0.006961
# 2 -0.009907 0.014050 0.000221 0.001523 0.003446 -0.003706
# 3 -0.008846 0.000221 0.022326 0.005398 0.005288 -0.000474
# 4 0.012692 0.001523 0.005398 0.033223 -0.001942 0.001374
# 5 -0.001348 0.003446 0.005288 -0.001942 0.026647 0.004200
# 6 0.006961 -0.003706 -0.000474 0.001374 0.004200 0.034124
#
#
# Mechanical properties :
#
#
# Convention : Reuss Voigt Hill
#
# Bulk Modulus (GPa) = 28.21343 51.29789 39.75566
# Shear Modulus (GPa) = 23.21423 33.81185 28.51304
#
# Velocity S-wave (km/s) = 3.22623 3.89361 3.57552
# Velocity P-wave (km/s) = 5.15054 6.57373 5.90517
#
# Compressibility (1/GPa) = 0.03544411
#
# Stress axis : x y z
#
# Youngs Moduli (GPa) = 27.67417 71.17583 44.79173
#
# Poissons Ratio (x) = 0.70516 0.39625
# Poissons Ratio (y) = 0.27417 -0.00989
# Poissons Ratio (z) = 0.24482 -0.01571
#
# Static dielectric constant tensor:
#      x y z
#    x 1.832770 0.011160 0.010530 
#    y 0.011160 1.779930 0.038080 
#    z 0.010530 0.038080 1.913540 
# 
# From -- ./inp_files/214861.got.cif
#   From: 2010.05.17/outbox.cif.g08.bks.cpg/sg2_108_cif.got.tgz:214861.got - 2010.06.03 11:33:40.
