data_PCOD9012200
_publ_section_title
;
Structure prediction by ZEFSAII (Michael W. Deem and Ramdas Pophale) SiO2 
 PCOD9012200
Probable space group: P -1
;
_chemical_formula_sum "Si O2"
_cell_formula_units_Z 16
_cell_length_a 14.172918
_cell_length_b 9.227052
_cell_length_c 11.602469
_cell_angle_alpha 66.773570
_cell_angle_beta 147.931648
_cell_angle_gamma 102.582997
_cell_volume 718.940266
_symmetry_space_group_name_H-M "P -1"
_symmetry_group_IT_number 2
_symmetry_cell_setting 'triclinic'
loop_
_space_group_symop_operation_xyz
x,y,z
-x,-y,-z
loop_
_atom_site_type_symbol
_atom_site_label
_atom_site_fract_x
_atom_site_fract_y
_atom_site_fract_z
Si Si1 0.400105 0.143119 0.443574
Si Si2 0.579362 0.372325 0.218067
Si Si3 0.294902 0.812817 0.076871
Si Si4 0.167343 0.117846 0.672021
Si Si5 0.169979 0.896879 0.546391
Si Si6 0.972805 0.943594 0.861512
Si Si7 0.094241 0.470494 0.480782
Si Si8 0.722092 0.533446 0.932467
O O1 0.538210 0.160090 0.682484
O O2 0.222333 0.097459 0.325705
O O3 0.320940 0.321134 0.250287
O O4 0.500000 0.000000 0.500000
O O5 0.636916 0.203769 0.263034
O O6 0.767131 0.416753 0.438831
O O7 0.426132 0.388871 0.148746
O O8 0.500000 0.500000 0.000000
O O9 0.318150 0.637945 0.095453
O O10 0.137358 0.816603 0.010674
O O11 0.248220 0.963194 0.887792
O O12 0.221529 0.287234 0.678199
O O13 0.950655 0.173832 0.464219
O O14 0.184327 0.057793 0.577078
O O15 0.048962 0.916197 0.300089
O O16 0.000000 0.000000 0.000000
O O17 0.000000 0.500000 0.500000
O O18 0.928375 0.498339 0.208117
#
# Coordination Sequence:
#
# PCOD9012200 Si02
#       8
#     2   2   2   2   2   2   2   2
#     4  12  27  46  73 102 138 187 237 286 351 419
#     4  12  24  41  68 101 141 184 228 284 348 413
#     4  11  26  48  72 101 146 180 235 297 345 416
#     4  10  21  43  71 101 138 179 225 289 357 405
#     4  10  21  40  68  99 137 178 227 284 349 414
#     4  11  24  43  73 102 134 185 236 284 348 413
#     4  12  24  41  70 103 141 183 233 284 348 419
#     4  12  28  46  68 105 144 184 232 293 350 411
#
# _framework density 22.25498
#
# number of rings (size 3 to 8) (size 9 to 14) (size 15 to 20)
#    0.000    0.750    3.750    4.125    3.500    3.500 
#    0.000    1.875    0.000    0.000    0.000    0.000 
#    0.000    0.000    0.000    0.000    0.000    0.000 
#
# Total GULP energy -89255.806700 kJ/mol
# GULP energy per Si atom -5578.487919 kJ/mol
# Density = 2.220433 g / cm^3
# Si number density = 22.254980 Si / 1000 Ang^3
#
#
#
# Elastic Constant Matrix: (Units=GPa)
#
#
# Indices 1 2 3 4 5 6 
#
# 1 90.0075 17.9223 32.2707 -1.5305 8.6819 -22.5579
# 2 17.9223 109.8348 43.5760 -10.0592 -2.2719 -18.0471
# 3 32.2707 43.5760 134.4521 16.3025 -9.5671 -4.9571
# 4 -1.5305 -10.0592 16.3025 42.0489 5.9913 4.2852
# 5 8.6819 -2.2719 -9.5671 5.9913 46.2168 2.4460
# 6 -22.5579 -18.0471 -4.9571 4.2852 2.4460 37.9632
#
#
#
# Elastic Compliance Matrix: (Units=1/GPa)
#
#
# Indices 1 2 3 4 5 6 
#
# 1 0.015104 0.000701 -0.004084 0.002025 -0.004378 0.008829
# 2 0.000701 0.011972 -0.004471 0.004285 -0.001295 0.005124
# 3 -0.004084 -0.004471 0.010704 -0.005605 0.003636 -0.002756
# 4 0.002025 0.004285 -0.005605 0.027786 -0.004916 -0.000311
# 5 -0.004378 -0.001295 0.003636 -0.004916 0.023983 -0.003733
# 6 0.008829 0.005124 -0.002756 -0.000311 -0.003733 0.033939
#
#
# Mechanical properties :
#
#
# Convention : Reuss Voigt Hill
#
# Bulk Modulus (GPa) = 45.30750 57.98138 51.64444
# Shear Modulus (GPa) = 34.11740 41.28080 37.69910
#
# Velocity S-wave (km/s) = 3.91963 4.31153 4.12024
# Velocity P-wave (km/s) = 6.39431 7.13411 6.77432
#
# Compressibility (1/GPa) = 0.02207140
#
# Stress axis : x y z
#
# Youngs Moduli (GPa) = 66.20678 83.53085 93.42582
#
# Poissons Ratio (x) = -0.05857 0.38156
# Poissons Ratio (y) = -0.04643 0.41773
# Poissons Ratio (z) = 0.27039 0.37348
#
# Static dielectric constant tensor:
#      x y z
#    x 1.681880 -0.142630 0.029180 
#    y -0.142630 1.781440 0.067490 
#    z 0.029180 0.067490 1.862930 
# 
# From -- ./inp_files/447265.got.cif
#   From: 2010.05.17/outbox.cif.g08.bks.cpg/sg2_224_cif.got.tgz:447265.got - 2010.06.03 11:33:40.
