data_PCOD9012777
_publ_section_title
;
Structure prediction by ZEFSAII (Michael W. Deem and Ramdas Pophale) SiO2 
 PCOD9012777
Probable space group: P -1
;
_chemical_formula_sum "Si O2"
_cell_formula_units_Z 14
_cell_length_a 7.505672
_cell_length_b 10.259412
_cell_length_c 10.869279
_cell_angle_alpha 117.596975
_cell_angle_beta 50.623331
_cell_angle_gamma 121.133967
_cell_volume 542.095642
_symmetry_space_group_name_H-M "P -1"
_symmetry_group_IT_number 2
_symmetry_cell_setting 'triclinic'
loop_
_space_group_symop_operation_xyz
x,y,z
-x,-y,-z
loop_
_atom_site_type_symbol
_atom_site_label
_atom_site_fract_x
_atom_site_fract_y
_atom_site_fract_z
Si Si1 0.842244 0.668210 0.855437
Si Si2 0.048618 0.163823 0.354583
Si Si3 0.314655 0.608453 0.034204
Si Si4 0.492782 0.274396 0.385568
Si Si5 0.211628 0.425599 0.744760
Si Si6 0.085257 0.107817 0.891033
Si Si7 0.440652 0.947379 0.364168
O O1 0.994278 0.729263 0.692167
O O2 0.734221 0.488590 0.858958
O O3 0.595930 0.713484 0.955437
O O4 0.964142 0.743627 0.964416
O O5 0.301992 0.247988 0.345727
O O6 0.024745 0.998552 0.225630
O O7 0.846979 0.136170 0.538230
O O8 0.078387 0.664373 0.157866
O O9 0.291523 0.502711 0.876010
O O10 0.362628 0.318218 0.581789
O O11 0.717215 0.428062 0.318891
O O12 0.516459 0.104478 0.319578
O O13 0.376203 0.148080 0.775329
O O14 0.000000 0.000000 0.000000
O O15 0.500000 0.000000 0.500000
#
# Coordination Sequence:
#
# PCOD9012777 Si02
#       7
#     2   2   2   2   2   2   2
#     4  10  21  41  65  90 127 160 214 262 299 374
#     4  10  21  41  60  95 124 163 201 258 309 378
#     4  10  22  42  65  90 122 166 216 258 305 358
#     4  11  23  43  62  91 133 156 211 253 318 371
#     4  10  24  41  65  91 120 174 197 268 308 366
#     4   9  21  39  62  92 121 162 203 251 316 360
#     4  10  23  39  64  92 123 167 202 254 313 374
#
# _framework density 25.825700000000001
#
# number of rings (size 3 to 8) (size 9 to 14) (size 15 to 20)
#    0.000    2.000    1.429    0.429   12.000    0.000 
#    0.000    3.571    0.000    0.000    0.000    0.000 
#    0.000    0.000    0.000    0.000    0.000    0.000 
#
# Total GULP energy -78089.862961 kJ/mol
# GULP energy per Si atom -5577.847354 kJ/mol
# Density = 2.576692 g / cm^3
# Si number density = 25.825700 Si / 1000 Ang^3
#
#
#
# Elastic Constant Matrix: (Units=GPa)
#
#
# Indices 1 2 3 4 5 6 
#
# 1 42.4583 5.1331 23.7786 -3.5664 5.7949 7.2210
# 2 5.1331 74.5763 18.5664 -23.5672 2.9701 -5.7351
# 3 23.7786 18.5664 119.6997 5.3795 5.2695 12.7407
# 4 -3.5664 -23.5672 5.3795 53.5877 8.5116 6.9062
# 5 5.7949 2.9701 5.2695 8.5116 40.5862 -11.3512
# 6 7.2210 -5.7351 12.7407 6.9062 -11.3512 40.3285
#
#
#
# Elastic Compliance Matrix: (Units=1/GPa)
#
#
# Indices 1 2 3 4 5 6 
#
# 1 0.028497 0.000439 -0.005033 0.004304 -0.005993 -0.005874
# 2 0.000439 0.016844 -0.003101 0.007924 -0.002184 0.001325
# 3 -0.005033 -0.003101 0.010237 -0.002300 -0.000615 -0.002553
# 4 0.004304 0.007924 -0.002300 0.024529 -0.007502 -0.005229
# 5 -0.005993 -0.002184 -0.000615 -0.007502 0.030322 0.010776
# 6 -0.005874 0.001325 -0.002553 -0.005229 0.010776 0.030772
#
#
# Mechanical properties :
#
#
# Convention : Reuss Voigt Hill
#
# Bulk Modulus (GPa) = 24.88370 36.85451 30.86910
# Shear Modulus (GPa) = 29.41404 39.51757 34.46581
#
# Velocity S-wave (km/s) = 3.37849 3.91598 3.65712
# Velocity P-wave (km/s) = 4.98749 5.89474 5.45999
#
# Compressibility (1/GPa) = 0.04018696
#
# Stress axis : x y z
#
# Youngs Moduli (GPa) = 35.09169 59.36855 97.68205
#
# Poissons Ratio (x) = -0.02604 0.49167
# Poissons Ratio (y) = -0.01539 0.30289
# Poissons Ratio (z) = 0.17663 0.18409
#
# Static dielectric constant tensor:
#      x y z
#    x 2.063320 0.011770 -0.102820 
#    y 0.011770 2.272540 -0.008550 
#    z -0.102820 -0.008550 2.121110 
# 
# From -- ./inp_files/182700.got.cif
#   From: 2010.05.17/outbox.cif.g08.bks.cpg/sg2_92_cif.got.tgz:182700.got - 2010.06.03 11:33:40.
