data_PCOD9012759
_publ_section_title
;
Structure prediction by ZEFSAII (Michael W. Deem and Ramdas Pophale) SiO2 
 PCOD9012759
Probable space group: P -1
;
_chemical_formula_sum "Si O2"
_cell_formula_units_Z 16
_cell_length_a 7.508696
_cell_length_b 14.384834
_cell_length_c 9.819800
_cell_angle_alpha 83.029306
_cell_angle_beta 132.605849
_cell_angle_gamma 121.684696
_cell_volume 616.118634
_symmetry_space_group_name_H-M "P -1"
_symmetry_group_IT_number 2
_symmetry_cell_setting 'triclinic'
loop_
_space_group_symop_operation_xyz
x,y,z
-x,-y,-z
loop_
_atom_site_type_symbol
_atom_site_label
_atom_site_fract_x
_atom_site_fract_y
_atom_site_fract_z
Si Si1 0.152276 0.851626 0.813304
Si Si2 0.195002 0.056445 0.877699
Si Si3 0.354065 0.557146 0.205819
Si Si4 0.973883 0.823360 0.424554
Si Si5 0.739350 0.485243 0.270882
Si Si6 0.292450 0.245541 0.083750
Si Si7 0.149622 0.733860 0.295504
Si Si8 0.537919 0.668181 0.543990
O O1 0.143498 0.876551 0.645496
O O2 0.883416 0.715219 0.703546
O O3 0.067137 0.921928 0.847788
O O4 0.468958 0.885898 0.013785
O O5 0.034723 0.082593 0.679469
O O6 0.239554 0.130009 0.021173
O O7 0.634643 0.696732 0.289061
O O8 0.498847 0.495690 0.227794
O O9 0.354134 0.556836 0.371596
O O10 0.000000 0.500000 0.000000
O O11 0.159415 0.797618 0.425860
O O12 0.550446 0.363181 0.109607
O O13 0.918168 0.595769 0.241226
O O14 0.000000 0.500000 0.500000
O O15 0.460401 0.302481 0.302614
O O16 0.987910 0.233727 0.899498
O O17 0.458023 0.751625 0.421662
#
# Coordination Sequence:
#
# PCOD9012759 Si02
#       8
#     2   2   2   2   2   2   2   2
#     4  10  22  39  62  91 120 153 206 264 311 355
#     4  10  22  40  64  88 116 162 209 254 305 372
#     4  10  23  41  63  95 130 163 208 260 305 365
#     4   9  20  41  66  85 122 164 207 248 308 366
#     4  11  22  40  64  89 120 169 211 247 304 371
#     4  11  23  39  62  87 125 164 206 241 313 375
#     4  10  21  41  60  90 122 166 202 253 298 377
#     4  11  23  38  61  90 126 158 200 259 312 362
#
# _framework density 25.969024999999998
#
# number of rings (size 3 to 8) (size 9 to 14) (size 15 to 20)
#    0.000    1.750    1.250    2.250    3.500    6.000 
#    0.000    2.500    0.000    0.000    0.000    0.000 
#    0.000    0.000    0.000    0.000    0.000    0.000 
#
# Total GULP energy -89245.436621 kJ/mol
# GULP energy per Si atom -5577.839789 kJ/mol
# Density = 2.590992 g / cm^3
# Si number density = 25.969025 Si / 1000 Ang^3
#
#
#
# Elastic Constant Matrix: (Units=GPa)
#
#
# Indices 1 2 3 4 5 6 
#
# 1 93.9907 17.1837 29.2696 -4.8369 -4.5635 -34.4527
# 2 17.1837 72.2780 22.3994 -0.1461 2.0400 -31.2893
# 3 29.2696 22.3994 104.7892 6.3987 -8.7121 -22.4860
# 4 -4.8369 -0.1461 6.3987 32.3298 -2.6592 4.5922
# 5 -4.5635 2.0400 -8.7121 -2.6592 57.4843 3.5203
# 6 -34.4527 -31.2893 -22.4860 4.5922 3.5203 31.3552
#
#
#
# Elastic Compliance Matrix: (Units=1/GPa)
#
#
# Indices 1 2 3 4 5 6 
#
# 1 0.020603 0.008860 -0.000985 -0.001155 -0.000782 0.031030
# 2 0.008860 0.028941 -0.000174 -0.004359 -0.002968 0.039462
# 3 -0.000985 -0.000174 0.011784 -0.003468 0.001089 0.007581
# 4 -0.001155 -0.004359 -0.003468 0.033458 0.001895 -0.013218
# 5 -0.000782 -0.002968 0.001089 0.001895 0.018019 -0.005340
# 6 0.031030 0.039462 0.007581 -0.013218 -0.005340 0.113340
#
#
# Mechanical properties :
#
#
# Convention : Reuss Voigt Hill
#
# Bulk Modulus (GPa) = 13.03254 45.41814 29.22534
# Shear Modulus (GPa) = 21.15774 37.71421 29.43597
#
# Velocity S-wave (km/s) = 2.85744 3.81501 3.37041
# Velocity P-wave (km/s) = 3.98949 6.07726 5.14048
#
# Compressibility (1/GPa) = 0.07673103
#
# Stress axis : x y z
#
# Youngs Moduli (GPa) = 48.53642 34.55284 84.85918
#
# Poissons Ratio (x) = -0.30612 0.08355
# Poissons Ratio (y) = -0.43001 0.01474
# Poissons Ratio (z) = 0.04779 0.00600
#
# Static dielectric constant tensor:
#      x y z
#    x 2.197000 0.168270 -0.043750 
#    y 0.168270 2.207600 -0.035340 
#    z -0.043750 -0.035340 2.030840 
# 
# From -- ./inp_files/399154.got.cif
#   From: 2010.05.17/outbox.cif.g08.bks.cpg/sg2_200_cif.got.tgz:399154.got - 2010.06.03 11:33:40.
