data_PCOD9012972
_publ_section_title
;
Structure prediction by ZEFSAII (Michael W. Deem and Ramdas Pophale) SiO2 
 PCOD9012972
Probable space group: P -1
;
_chemical_formula_sum "Si O2"
_cell_formula_units_Z 16
_cell_length_a 19.365137
_cell_length_b 25.083835
_cell_length_c 15.375042
_cell_angle_alpha 160.600048
_cell_angle_beta 29.466672
_cell_angle_gamma 160.140242
_cell_volume 833.708275
_symmetry_space_group_name_H-M "P -1"
_symmetry_group_IT_number 2
_symmetry_cell_setting 'triclinic'
loop_
_space_group_symop_operation_xyz
x,y,z
-x,-y,-z
loop_
_atom_site_type_symbol
_atom_site_label
_atom_site_fract_x
_atom_site_fract_y
_atom_site_fract_z
Si Si1 0.827391 0.361520 0.181830
Si Si2 0.186047 0.254567 0.957367
Si Si3 0.140138 0.019471 0.252236
Si Si4 0.560208 0.870362 0.255810
Si Si5 0.545875 0.996061 0.086481
Si Si6 0.459242 0.203303 0.634446
Si Si7 0.994297 0.826044 0.786693
Si Si8 0.849533 0.641719 0.143817
O O1 0.692367 0.201636 0.169289
O O2 0.915189 0.612651 0.486728
O O3 0.013797 0.389585 0.015458
O O4 0.671163 0.218838 0.053114
O O5 0.285633 0.160961 0.709363
O O6 0.347784 0.513885 0.138291
O O7 0.147971 0.278372 0.133968
O O8 0.978962 0.084054 0.867177
O O9 0.180463 0.235453 0.568896
O O10 0.981693 0.817215 0.187110
O O11 0.338327 0.070443 0.115699
O O12 0.601036 0.884887 0.336411
O O13 0.500000 0.000000 0.500000
O O14 0.370371 0.602319 0.023115
O O15 0.771918 0.011398 0.192169
O O16 0.516358 0.093189 0.348115
O O17 0.000000 0.000000 0.000000
#
# Coordination Sequence:
#
# PCOD9012972 Si02
#       8
#     2   2   2   2   2   2   2   2
#     4  10  21  41  62  92 129 169 205 260 319 370
#     4  11  23  41  65  94 127 166 215 261 307 372
#     4  10  22  37  66  96 124 161 214 269 305 364
#     4  12  25  42  65  94 129 171 208 255 323 381
#     4  10  22  37  66  96 123 161 217 265 308 365
#     4  11  23  41  65  95 125 167 216 259 309 373
#     4  12  25  42  63  94 131 170 206 256 323 380
#     4  10  21  41  62  93 128 167 209 258 317 372
#
# _framework density 19.191365000000001
#
# number of rings (size 3 to 8) (size 9 to 14) (size 15 to 20)
#    0.000    1.250    5.000    0.750    3.500    1.500 
#    0.000    2.500    0.000    0.000    0.000    0.000 
#    0.000    0.000    0.000    0.000    0.000    0.000 
#
# Total GULP energy -89390.642515 kJ/mol
# GULP energy per Si atom -5586.915157 kJ/mol
# Density = 1.914768 g / cm^3
# Si number density = 19.191365 Si / 1000 Ang^3
#
#
#
# Elastic Constant Matrix: (Units=GPa)
#
#
# Indices 1 2 3 4 5 6 
#
# 1 66.7537 0.9690 39.3791 0.2235 -1.4259 17.8125
# 2 0.9690 55.0786 23.6996 -6.1231 -3.4568 19.0664
# 3 39.3791 23.6996 138.4643 -5.9406 -10.4183 22.5179
# 4 0.2235 -6.1231 -5.9406 32.6664 5.2409 -0.7311
# 5 -1.4259 -3.4568 -10.4183 5.2409 25.9340 2.4192
# 6 17.8125 19.0664 22.5179 -0.7311 2.4192 37.2451
#
#
#
# Elastic Compliance Matrix: (Units=1/GPa)
#
#
# Indices 1 2 3 4 5 6 
#
# 1 0.020437 0.005069 -0.005131 -0.000443 0.000697 -0.009321
# 2 0.005069 0.024528 -0.003138 0.003237 0.002865 -0.013206
# 3 -0.005131 -0.003138 0.009835 0.000657 0.003313 -0.002089
# 4 -0.000443 0.003237 0.000657 0.032249 -0.005768 -0.000835
# 5 0.000697 0.002865 0.003313 -0.005768 0.042097 -0.006651
# 6 -0.009321 -0.013206 -0.002089 -0.000835 -0.006651 0.039746
#
#
# Mechanical properties :
#
#
# Convention : Reuss Voigt Hill
#
# Bulk Modulus (GPa) = 20.66015 43.15466 31.90741
# Shear Modulus (GPa) = 26.12003 32.25235 29.18619
#
# Velocity S-wave (km/s) = 3.69322 4.10392 3.90397
# Velocity P-wave (km/s) = 5.38286 6.70757 6.08139
#
# Compressibility (1/GPa) = 0.04840236
#
# Stress axis : x y z
#
# Youngs Moduli (GPa) = 48.93054 40.76960 101.67339
#
# Poissons Ratio (x) = -0.20667 0.52165
# Poissons Ratio (y) = -0.24804 0.31903
# Poissons Ratio (z) = 0.25104 0.12793
#
# Static dielectric constant tensor:
#      x y z
#    x 1.640570 0.000180 -0.008360 
#    y 0.000180 1.639220 0.009600 
#    z -0.008360 0.009600 1.637600 
# 
# From -- ./inp_files/185138.got.cif
#   From: 2010.05.17/outbox.cif.g08.bks.cpg/sg2_93_cif.got.tgz:185138.got - 2010.06.03 11:33:40.
