data_PCOD9012189
_publ_section_title
;
Structure prediction by ZEFSAII (Michael W. Deem and Ramdas Pophale) SiO2 
 PCOD9012189
Probable space group: P -1
;
_chemical_formula_sum "Si O2"
_cell_formula_units_Z 12
_cell_length_a 8.248117
_cell_length_b 10.253108
_cell_length_c 8.307250
_cell_angle_alpha 56.481865
_cell_angle_beta 67.976196
_cell_angle_gamma 80.611236
_cell_volume 542.092208
_symmetry_space_group_name_H-M "P -1"
_symmetry_group_IT_number 2
_symmetry_cell_setting 'triclinic'
loop_
_space_group_symop_operation_xyz
x,y,z
-x,-y,-z
loop_
_atom_site_type_symbol
_atom_site_label
_atom_site_fract_x
_atom_site_fract_y
_atom_site_fract_z
Si Si1 0.314092 0.479656 0.000558
Si Si2 0.536322 0.009911 0.670207
Si Si3 0.202157 0.716113 0.643340
Si Si4 0.172518 0.092301 0.804634
Si Si5 0.850047 0.818007 0.619077
Si Si6 0.311753 0.421621 0.679462
O O1 0.234095 0.640404 0.859036
O O2 0.331974 0.392564 0.882345
O O3 0.500000 0.500000 0.000000
O O4 0.198056 0.368201 0.234548
O O5 0.625634 0.182584 0.543635
O O6 0.347577 0.995257 0.833049
O O7 0.500000 0.000000 0.500000
O O8 0.690692 0.894301 0.719347
O O9 0.184784 0.567636 0.631545
O O10 0.039861 0.825051 0.625810
O O11 0.145090 0.116855 0.607291
O O12 0.227403 0.266063 0.734902
O O13 0.000000 0.000000 0.000000
O O14 0.500000 0.500000 0.500000
#
# Coordination Sequence:
#
# PCOD9012189 Si02
#       6
#     2   2   2   2   2   2
#     4  10  21  40  68  99 131 182 229 279 340 409
#     4  10  21  41  68  91 134 183 224 278 332 409
#     4  10  22  40  70  98 132 174 239 276 338 402
#     4  11  24  46  68 103 141 178 229 287 347 407
#     4  11  23  43  66  98 137 184 230 277 341 409
#     4  10  21  42  70  96 142 175 228 281 346 403
#
# _framework density 22.136455999999999
#
# number of rings (size 3 to 8) (size 9 to 14) (size 15 to 20)
#    1.000    0.667    1.667    4.000    0.000    4.667 
#    6.000    1.667    0.000    0.000    0.000    1.167 
#    0.000    0.000    0.000    0.000    0.000    0.000 
#
# Total GULP energy -66871.582485 kJ/mol
# GULP energy per Si atom -5572.631874 kJ/mol
# Density = 2.208607 g / cm^3
# Si number density = 22.136456 Si / 1000 Ang^3
#
#
#
# Elastic Constant Matrix: (Units=GPa)
#
#
# Indices 1 2 3 4 5 6 
#
# 1 150.9666 69.4885 63.8201 -7.5349 -23.7664 -24.9822
# 2 69.4885 120.4642 26.9985 -7.8907 -12.1757 -7.0379
# 3 63.8201 26.9985 134.3782 -13.6432 -22.9286 -16.3070
# 4 -7.5349 -7.8907 -13.6432 18.6741 1.1118 -1.0184
# 5 -23.7664 -12.1757 -22.9286 1.1118 47.8516 0.2817
# 6 -24.9822 -7.0379 -16.3070 -1.0184 0.2817 48.0492
#
#
#
# Elastic Compliance Matrix: (Units=1/GPa)
#
#
# Indices 1 2 3 4 5 6 
#
# 1 0.011730 -0.005469 -0.003520 -0.000089 0.002726 0.004085
# 2 -0.005469 0.011518 0.000546 0.002985 0.000412 -0.000910
# 3 -0.003520 0.000546 0.010430 0.006342 0.003230 0.001905
# 4 -0.000089 0.002985 0.006342 0.059475 0.002350 0.003790
# 5 0.002726 0.000412 0.003230 0.002350 0.023835 0.002484
# 6 0.004085 -0.000910 0.001905 0.003790 0.002484 0.023515
#
#
# Mechanical properties :
#
#
# Convention : Reuss Voigt Hill
#
# Bulk Modulus (GPa) = 59.55509 80.71369 70.13439
# Shear Modulus (GPa) = 30.67732 39.28177 34.97954
#
# Velocity S-wave (km/s) = 3.72671 4.21709 3.97946
# Velocity P-wave (km/s) = 6.74387 7.76227 7.27092
#
# Compressibility (1/GPa) = 0.01679118
#
# Stress axis : x y z
#
# Youngs Moduli (GPa) = 85.24929 86.82358 95.87714
#
# Poissons Ratio (x) = 0.47485 0.33754
# Poissons Ratio (y) = 0.46624 -0.05238
# Poissons Ratio (z) = 0.30012 -0.04743
#
# Static dielectric constant tensor:
#      x y z
#    x 1.742260 -0.163420 0.042970 
#    y -0.163420 1.814410 0.035380 
#    z 0.042970 0.035380 1.778610 
# 
# From -- ./inp_files/160690.got.cif
#   From: 2010.05.17/outbox.cif.g08.bks.cpg/sg2_81_cif.got.tgz:160690.got - 2010.06.03 11:33:40.
