data_PCOD9012007
_publ_section_title
;
Structure prediction by ZEFSAII (Michael W. Deem and Ramdas Pophale) SiO2 
 PCOD9012007
Probable space group: P -1
;
_chemical_formula_sum "Si O2"
_cell_formula_units_Z 16
_cell_length_a 7.399629
_cell_length_b 11.737093
_cell_length_c 8.931796
_cell_angle_alpha 101.617699
_cell_angle_beta 106.263799
_cell_angle_gamma 105.967465
_cell_volume 682.599480
_symmetry_space_group_name_H-M "P -1"
_symmetry_group_IT_number 2
_symmetry_cell_setting 'triclinic'
loop_
_space_group_symop_operation_xyz
x,y,z
-x,-y,-z
loop_
_atom_site_type_symbol
_atom_site_label
_atom_site_fract_x
_atom_site_fract_y
_atom_site_fract_z
Si Si1 0.552924 0.943432 0.346633
Si Si2 0.766107 0.052114 0.145656
Si Si3 0.665469 0.821246 0.844265
Si Si4 0.285823 0.661612 0.149610
Si Si5 0.563406 0.572437 0.380100
Si Si6 0.002177 0.702460 0.898575
Si Si7 0.183978 0.142277 0.426852
Si Si8 0.715280 0.386084 0.198886
O O1 0.396071 0.804238 0.257382
O O2 0.760674 0.924066 0.437344
O O3 0.500000 0.000000 0.500000
O O4 0.583661 0.014067 0.212869
O O5 0.823807 0.162980 0.065849
O O6 0.740776 0.925075 0.017941
O O7 0.957168 0.104368 0.312642
O O8 0.714389 0.882846 0.709357
O O9 0.434912 0.732788 0.780251
O O10 0.798507 0.730586 0.860919
O O11 0.361203 0.580223 0.258463
O O12 0.056926 0.650223 0.053949
O O13 0.358971 0.635713 0.996054
O O14 0.500000 0.500000 0.500000
O O15 0.711963 0.711766 0.480623
O O16 0.680004 0.504035 0.288914
O O17 0.059158 0.617563 0.763977
#
# Coordination Sequence:
#
# PCOD9012007 Si02
#       8
#     2   2   2   2   2   2   2   2
#     4  11  24  35  62  94 128 163 201 254 317 373
#     4  11  22  41  63  89 131 169 196 257 312 378
#     4  11  21  40  68  90 124 171 204 255 312 374
#     4   9  22  40  59  93 119 163 209 252 307 370
#     4  11  21  40  68  87 123 167 208 260 316 359
#     4   9  22  37  64  96 121 153 224 249 300 371
#     4  10  23  39  59  93 124 165 206 253 321 365
#     4  10  21  40  68  85 123 164 214 254 308 363
#
# _framework density 23.439810000000001
#
# number of rings (size 3 to 8) (size 9 to 14) (size 15 to 20)
#    0.750    1.000    2.500    2.250    5.250    1.000 
#    0.000    3.125    5.500    0.000    0.000    0.000 
#    0.000    0.000    0.000    0.000    0.000    0.000 
#
# Total GULP energy -89280.379801 kJ/mol
# GULP energy per Si atom -5580.023738 kJ/mol
# Density = 2.338646 g / cm^3
# Si number density = 23.439810 Si / 1000 Ang^3
#
#
#
# Elastic Constant Matrix: (Units=GPa)
#
#
# Indices 1 2 3 4 5 6 
#
# 1 78.8756 18.4843 11.5157 12.0480 -4.3398 -16.8854
# 2 18.4843 93.6755 39.2500 -6.0951 -13.8056 -14.1477
# 3 11.5157 39.2500 86.1689 4.7721 -14.1682 -21.0720
# 4 12.0480 -6.0951 4.7721 49.9589 -14.3563 0.5315
# 5 -4.3398 -13.8056 -14.1682 -14.3563 47.0730 -2.2959
# 6 -16.8854 -14.1477 -21.0720 0.5315 -2.2959 34.4770
#
#
#
# Elastic Compliance Matrix: (Units=1/GPa)
#
#
# Indices 1 2 3 4 5 6 
#
# 1 0.015320 -0.002698 0.001179 -0.004200 0.000045 0.007184
# 2 -0.002698 0.014538 -0.005531 0.003982 0.003635 0.001444
# 3 0.001179 -0.005531 0.016786 -0.001661 0.003462 0.008823
# 4 -0.004200 0.003982 -0.001661 0.023839 0.007487 -0.001307
# 5 0.000045 0.003635 0.003462 0.007487 0.025895 0.005239
# 6 0.007184 0.001444 0.008823 -0.001307 0.005239 0.038878
#
#
# Mechanical properties :
#
#
# Convention : Reuss Voigt Hill
#
# Bulk Modulus (GPa) = 30.72911 44.13555 37.43233
# Shear Modulus (GPa) = 31.20981 38.93312 35.07147
#
# Velocity S-wave (km/s) = 3.65291 4.07994 3.87232
# Velocity P-wave (km/s) = 5.56147 6.40817 5.99978
#
# Compressibility (1/GPa) = 0.03254244
#
# Stress axis : x y z
#
# Youngs Moduli (GPa) = 65.27222 68.78475 59.57350
#
# Poissons Ratio (x) = 0.18562 -0.07021
# Poissons Ratio (y) = 0.17614 0.32951
# Poissons Ratio (z) = -0.07693 0.38046
#
# Static dielectric constant tensor:
#      x y z
#    x 1.957060 -0.021120 0.016400 
#    y -0.021120 1.910180 -0.016350 
#    z 0.016400 -0.016350 1.848810 
# 
# From -- ./inp_files/188671.got.cif
#   From: 2010.05.17/outbox.cif.g08.bks.cpg/sg2_95_cif.got.tgz:188671.got - 2010.06.03 11:33:40.
