data_PCOD9012086
_publ_section_title
;
Structure prediction by ZEFSAII (Michael W. Deem and Ramdas Pophale) SiO2 
 PCOD9012086
Probable space group: P -1
;
_chemical_formula_sum "Si O2"
_cell_formula_units_Z 16
_cell_length_a 26.582821
_cell_length_b 9.668710
_cell_length_c 8.570043
_cell_angle_alpha 110.635118
_cell_angle_beta 40.652416
_cell_angle_gamma 140.554419
_cell_volume 752.847609
_symmetry_space_group_name_H-M "P -1"
_symmetry_group_IT_number 2
_symmetry_cell_setting 'triclinic'
loop_
_space_group_symop_operation_xyz
x,y,z
-x,-y,-z
loop_
_atom_site_type_symbol
_atom_site_label
_atom_site_fract_x
_atom_site_fract_y
_atom_site_fract_z
Si Si1 0.058404 0.947026 0.258111
Si Si2 0.126489 0.229867 0.910123
Si Si3 0.661422 0.887737 0.639805
Si Si4 0.324791 0.320887 0.972731
Si Si5 0.625008 0.514758 0.728949
Si Si6 0.840326 0.384459 0.937606
Si Si7 0.586693 0.836651 0.440255
Si Si8 0.918690 0.425641 0.421484
O O1 0.116116 0.092168 0.015354
O O2 0.178686 0.081325 0.140916
O O3 0.000000 0.000000 0.500000
O O4 0.954731 0.646484 0.363955
O O5 0.272765 0.443836 0.564755
O O6 0.115088 0.375165 0.065167
O O7 0.000000 0.000000 0.000000
O O8 0.635409 0.676137 0.660655
O O9 0.645055 0.885833 0.493426
O O10 0.807524 0.170792 0.472971
O O11 0.535430 0.774483 0.977674
O O12 0.424225 0.595242 0.758557
O O13 0.394007 0.271127 0.764345
O O14 0.318169 0.349792 0.180248
O O15 0.857169 0.347883 0.709386
O O16 0.943364 0.453027 0.832132
O O17 0.683657 0.117039 0.257141
#
# Coordination Sequence:
#
# PCOD9012086 Si02
#       8
#     2   2   2   2   2   2   2   2
#     4  12  24  43  64  96 128 169 214 256 322 380
#     4  12  26  42  64  96 133 169 208 265 323 377
#     4  10  22  40  67  97 126 170 214 263 313 378
#     4  10  21  42  67  91 126 168 211 262 316 377
#     4  10  22  42  65  94 132 169 212 260 322 376
#     4  11  24  42  63  96 127 168 214 262 322 371
#     4  10  21  40  68  95 121 163 219 265 309 375
#     4  11  24  42  67  94 129 167 213 264 314 383
#
# _framework density 21.25264
#
# number of rings (size 3 to 8) (size 9 to 14) (size 15 to 20)
#    0.000    1.250    2.500    3.000    3.500    3.500 
#    2.250    2.500    0.000    0.000    0.000    0.000 
#    0.000    0.000    0.000    0.000    0.000    0.000 
#
# Total GULP energy -89481.482817 kJ/mol
# GULP energy per Si atom -5592.592676 kJ/mol
# Density = 2.120427 g / cm^3
# Si number density = 21.252640 Si / 1000 Ang^3
#
#
#
# Elastic Constant Matrix: (Units=GPa)
#
#
# Indices 1 2 3 4 5 6 
#
# 1 29.4844 6.3426 1.3110 -0.5284 7.9536 2.1610
# 2 6.3426 61.6379 1.5086 -17.4081 2.7440 1.8536
# 3 1.3110 1.5086 69.8415 1.8060 6.2164 -2.1313
# 4 -0.5284 -17.4081 1.8060 36.2272 -3.2837 1.5512
# 5 7.9536 2.7440 6.2164 -3.2837 31.1197 -4.9047
# 6 2.1610 1.8536 -2.1313 1.5512 -4.9047 31.3763
#
#
#
# Elastic Compliance Matrix: (Units=1/GPa)
#
#
# Indices 1 2 3 4 5 6 
#
# 1 0.037735 -0.003913 0.000218 -0.002098 -0.010169 -0.003839
# 2 -0.003913 0.019308 -0.000644 0.009329 0.000198 -0.001345
# 3 0.000218 -0.000644 0.014645 -0.001332 -0.002967 0.000620
# 4 -0.002098 0.009329 -0.001332 0.032477 0.003153 -0.001610
# 5 -0.010169 0.000198 -0.002967 0.003153 0.036595 0.006052
# 6 -0.003839 -0.001345 0.000620 -0.001610 0.006052 0.033283
#
#
# Mechanical properties :
#
#
# Convention : Reuss Voigt Hill
#
# Bulk Modulus (GPa) = 15.86963 19.92091 17.89527
# Shear Modulus (GPa) = 24.54307 29.86474 27.20390
#
# Velocity S-wave (km/s) = 3.40196 3.75270 3.58162
# Velocity P-wave (km/s) = 4.78690 5.30761 5.05397
#
# Compressibility (1/GPa) = 0.06301344
#
# Stress axis : x y z
#
# Youngs Moduli (GPa) = 26.50047 51.79082 68.28077
#
# Poissons Ratio (x) = 0.20264 -0.01491
# Poissons Ratio (y) = 0.10369 0.04394
# Poissons Ratio (z) = -0.00579 0.03333
#
# Static dielectric constant tensor:
#      x y z
#    x 1.745640 -0.019330 -0.000200 
#    y -0.019330 1.765070 -0.011130 
#    z -0.000200 -0.011130 1.806130 
# 
# From -- ./inp_files/205422.got.cif
#   From: 2010.05.17/outbox.cif.g08.bks.cpg/sg2_103_cif.got.tgz:205422.got - 2010.06.03 11:33:40.
