data_PCOD9012867
_publ_section_title
;
Structure prediction by ZEFSAII (Michael W. Deem and Ramdas Pophale) SiO2 
 PCOD9012867
Probable space group: P -1
;
_chemical_formula_sum "Si O2"
_cell_formula_units_Z 14
_cell_length_a 19.600525
_cell_length_b 9.496923
_cell_length_c 12.959269
_cell_angle_alpha 35.424689
_cell_angle_beta 28.206175
_cell_angle_gamma 43.709078
_cell_volume 660.776167
_symmetry_space_group_name_H-M "P -1"
_symmetry_group_IT_number 2
_symmetry_cell_setting 'triclinic'
loop_
_space_group_symop_operation_xyz
x,y,z
-x,-y,-z
loop_
_atom_site_type_symbol
_atom_site_label
_atom_site_fract_x
_atom_site_fract_y
_atom_site_fract_z
Si Si1 0.348348 0.462622 0.167603
Si Si2 0.184532 0.201666 0.199745
Si Si3 0.159140 0.085565 0.771979
Si Si4 0.726426 0.292799 0.283295
Si Si5 0.620591 0.929080 0.800203
Si Si6 0.983580 0.739403 0.948009
Si Si7 0.876565 0.153645 0.689748
O O1 0.240229 0.268596 0.479285
O O2 0.390469 0.333800 0.081391
O O3 0.248196 0.702601 0.168642
O O4 0.500000 0.500000 0.000000
O O5 0.239425 0.101208 0.295606
O O6 0.018154 0.300155 0.375664
O O7 0.183156 0.984539 0.248375
O O8 0.281628 0.421153 0.897727
O O9 0.252656 0.838668 0.777093
O O10 0.141561 0.222541 0.821883
O O11 0.000000 0.000000 0.000000
O O12 0.870314 0.251853 0.185703
O O13 0.618149 0.137448 0.590377
O O14 0.500000 0.000000 0.000000
O O15 0.946250 0.952287 0.791263
O O16 0.000000 0.500000 0.000000
#
# Coordination Sequence:
#
# PCOD9012867 Si02
#       7
#     2   2   2   2   2   2   2
#     4  11  25  45  66  95 137 178 220 279 343 400
#     4  11  23  40  68  99 133 170 227 278 332 398
#     4   9  21  39  65  92 128 169 217 269 328 387
#     4  10  21  41  61  95 129 171 218 275 330 392
#     4  11  25  44  68  92 130 180 226 278 337 401
#     4  11  20  36  62 100 131 171 215 278 332 387
#     4  11  23  38  66 102 133 171 226 274 336 401
#
# _framework density 21.187204000000001
#
# number of rings (size 3 to 8) (size 9 to 14) (size 15 to 20)
#    0.000    1.429    2.857    2.571    4.000    2.286 
#    0.000    0.714    0.000    0.000    0.000    0.000 
#    0.000    0.000    0.000    0.000    0.000    0.000 
#
# Total GULP energy -77994.142243 kJ/mol
# GULP energy per Si atom -5571.010160 kJ/mol
# Density = 2.113898 g / cm^3
# Si number density = 21.187204 Si / 1000 Ang^3
#
#
#
# Elastic Constant Matrix: (Units=GPa)
#
#
# Indices 1 2 3 4 5 6 
#
# 1 69.2344 54.0182 10.2354 8.5167 1.8410 14.9576
# 2 54.0182 158.1521 55.8145 17.3857 -6.4187 27.5590
# 3 10.2354 55.8145 65.8697 5.7633 6.1678 0.8613
# 4 8.5167 17.3857 5.7633 30.3171 -2.6800 17.8237
# 5 1.8410 -6.4187 6.1678 -2.6800 26.0734 6.3683
# 6 14.9576 27.5590 0.8613 17.8237 6.3683 39.5785
#
#
#
# Elastic Compliance Matrix: (Units=1/GPa)
#
#
# Indices 1 2 3 4 5 6 
#
# 1 0.021064 -0.008874 0.004905 -0.002135 -0.005023 -0.000118
# 2 -0.008874 0.015971 -0.013267 0.002975 0.010572 -0.010519
# 3 0.004905 -0.013267 0.027459 -0.007515 -0.013911 0.012409
# 4 -0.002135 0.002975 -0.007515 0.049679 0.014053 -0.025734
# 5 -0.005023 0.010572 -0.013911 0.014053 0.050850 -0.019671
# 6 -0.000118 -0.010519 0.012409 -0.025734 -0.019671 0.047120
#
#
# Mechanical properties :
#
#
# Convention : Reuss Voigt Hill
#
# Bulk Modulus (GPa) = 33.30857 59.26582 46.28720
# Shear Modulus (GPa) = 19.48386 30.73970 25.11178
#
# Velocity S-wave (km/s) = 3.03579 3.81315 3.44646
# Velocity P-wave (km/s) = 5.29559 6.88622 6.14261
#
# Compressibility (1/GPa) = 0.03002230
#
# Stress axis : x y z
#
# Youngs Moduli (GPa) = 47.47379 62.61214 36.41804
#
# Poissons Ratio (x) = 0.55564 -0.17864
# Poissons Ratio (y) = 0.42130 0.48316
# Poissons Ratio (z) = -0.23287 0.83067
#
# Static dielectric constant tensor:
#      x y z
#    x 1.772650 0.012260 0.005330 
#    y 0.012260 1.876400 0.042910 
#    z 0.005330 0.042910 1.821730 
# 
# From -- ./inp_files/426865.got.cif
#   From: 2010.05.17/outbox.cif.g08.bks.cpg/sg2_214_cif.got.tgz:426865.got - 2010.06.03 11:33:40.
