data_PCOD9012068
_publ_section_title
;
Structure prediction by ZEFSAII (Michael W. Deem and Ramdas Pophale) SiO2 
 PCOD9012068
Probable space group: P -1
;
_chemical_formula_sum "Si O2"
_cell_formula_units_Z 16
_cell_length_a 14.379402
_cell_length_b 23.666041
_cell_length_c 14.437177
_cell_angle_alpha 23.187941
_cell_angle_beta 28.381606
_cell_angle_gamma 17.032209
_cell_volume 566.614191
_symmetry_space_group_name_H-M "P -1"
_symmetry_group_IT_number 2
_symmetry_cell_setting 'triclinic'
loop_
_space_group_symop_operation_xyz
x,y,z
-x,-y,-z
loop_
_atom_site_type_symbol
_atom_site_label
_atom_site_fract_x
_atom_site_fract_y
_atom_site_fract_z
Si Si1 0.201891 0.146416 0.609830
Si Si2 0.107998 0.625059 0.179101
Si Si3 0.786547 0.642012 0.304248
Si Si4 0.724862 0.774718 0.838080
Si Si5 0.192951 0.893917 0.328596
Si Si6 0.447945 0.610335 0.030814
Si Si7 0.074680 0.209505 0.183703
Si Si8 0.050684 0.853019 0.332618
O O1 0.925542 0.227974 0.669394
O O2 0.065757 0.375158 0.422969
O O3 0.500000 0.000000 0.500000
O O4 0.381156 0.951872 0.826238
O O5 0.276908 0.559003 0.229611
O O6 0.838934 0.662659 0.333456
O O7 0.372527 0.449005 0.132625
O O8 0.964146 0.865828 0.923210
O O9 0.470107 0.760495 0.359695
O O10 0.813525 0.785550 0.016753
O O11 0.870020 0.832039 0.577812
O O12 0.726216 0.809438 0.891707
O O13 0.000000 0.500000 0.000000
O O14 0.936326 0.943619 0.534279
O O15 0.291956 0.764060 0.337630
O O16 0.696689 0.456045 0.129067
O O17 0.193456 0.876741 0.874390
#
# Coordination Sequence:
#
# PCOD9012068 Si02
#       8
#     2   2   2   2   2   2   2   2
#     4  10  19  34  57  82 111 150 186 224 279 335
#     4   9  18  35  57  82 114 148 186 227 274 330
#     4  11  22  38  59  80 113 153 184 224 281 331
#     4  10  17  29  54  84 110 140 183 230 273 324
#     4  10  22  37  56  86 114 143 188 234 271 324
#     4   9  17  33  59  83 107 151 188 220 280 333
#     4  10  20  35  57  82 111 143 185 231 273 325
#     4   9  18  34  56  81 115 149 183 227 277 332
#
# _framework density 28.237908999999998
#
# number of rings (size 3 to 8) (size 9 to 14) (size 15 to 20)
#    0.000    2.250    0.000    5.625    0.000    3.500 
#    0.000    3.125    0.000    9.750    0.000    0.000 
#    0.000    0.000    0.000    0.000    0.000    0.000 
#
# Total GULP energy -89425.820212 kJ/mol
# GULP energy per Si atom -5589.113763 kJ/mol
# Density = 2.817364 g / cm^3
# Si number density = 28.237909 Si / 1000 Ang^3
#
#
#
# Elastic Constant Matrix: (Units=GPa)
#
#
# Indices 1 2 3 4 5 6 
#
# 1 216.5584 36.0709 56.1138 -21.6143 -4.5907 -55.3634
# 2 36.0709 116.9292 45.8087 -8.9482 -6.3967 -12.7873
# 3 56.1138 45.8087 82.3041 -16.7071 -15.4806 -10.3019
# 4 -21.6143 -8.9482 -16.7071 41.7190 -6.9540 3.4253
# 5 -4.5907 -6.3967 -15.4806 -6.9540 61.5620 -1.4294
# 6 -55.3634 -12.7873 -10.3019 3.4253 -1.4294 55.4895
#
#
#
# Elastic Compliance Matrix: (Units=1/GPa)
#
#
# Indices 1 2 3 4 5 6 
#
# 1 0.007517 0.000112 -0.004013 0.001750 -0.000084 0.006671
# 2 0.000112 0.011058 -0.006158 -0.000225 -0.000381 0.001521
# 3 -0.004013 -0.006158 0.020092 0.005587 0.004700 -0.001917
# 4 0.001750 -0.000225 0.005587 0.027751 0.004673 0.001138
# 5 -0.000084 -0.000381 0.004700 0.004673 0.017928 0.000874
# 6 0.006671 0.001521 -0.001917 0.001138 0.000874 0.024624
#
#
# Mechanical properties :
#
#
# Convention : Reuss Voigt Hill
#
# Bulk Modulus (GPa) = 53.91206 76.86432 65.38819
# Shear Modulus (GPa) = 36.96260 50.27397 43.61828
#
# Velocity S-wave (km/s) = 3.62190 4.22402 3.93449
# Velocity P-wave (km/s) = 6.05181 7.14627 6.62169
#
# Compressibility (1/GPa) = 0.01854873
#
# Stress axis : x y z
#
# Youngs Moduli (GPa) = 133.03009 90.42834 49.77122
#
# Poissons Ratio (x) = -0.01014 0.19974
# Poissons Ratio (y) = -0.01491 0.30650
# Poissons Ratio (z) = 0.53388 0.55688
#
# Static dielectric constant tensor:
#      x y z
#    x 2.084520 -0.114640 -0.277470 
#    y -0.114640 2.253890 -0.050560 
#    z -0.277470 -0.050560 1.825120 
# 
# From -- ./inp_files/574505.got.cif
#   From: 2010.05.17/outbox.cif.g08.bks.cpg/sg2_288_cif.got.tgz:574505.got - 2010.06.03 11:33:40.
