data_PCOD9012404
_publ_section_title
;
Structure prediction by ZEFSAII (Michael W. Deem and Ramdas Pophale) SiO2 
 PCOD9012404
Probable space group: P -1
;
_chemical_formula_sum "Si O2"
_cell_formula_units_Z 14
_cell_length_a 7.883134
_cell_length_b 11.299981
_cell_length_c 18.204037
_cell_angle_alpha 155.276091
_cell_angle_beta 115.915579
_cell_angle_gamma 79.095194
_cell_volume 508.504004
_symmetry_space_group_name_H-M "P -1"
_symmetry_group_IT_number 2
_symmetry_cell_setting 'triclinic'
loop_
_space_group_symop_operation_xyz
x,y,z
-x,-y,-z
loop_
_atom_site_type_symbol
_atom_site_label
_atom_site_fract_x
_atom_site_fract_y
_atom_site_fract_z
Si Si1 0.270346 0.251602 0.515687
Si Si2 0.598508 0.087774 0.404205
Si Si3 0.914960 0.799968 0.794061
Si Si4 0.080756 0.304201 0.956393
Si Si5 0.626508 0.867582 0.022971
Si Si6 0.063915 0.756430 0.328200
Si Si7 0.631874 0.109202 0.893008
O O1 0.452947 0.168720 0.476131
O O2 0.110804 0.016213 0.419548
O O3 0.429478 0.626599 0.791681
O O4 0.092719 0.090023 0.323367
O O5 0.770258 0.409368 0.567728
O O6 0.754847 0.041274 0.460757
O O7 0.436410 0.831690 0.166860
O O8 0.737302 0.884542 0.777583
O O9 0.135923 0.910907 0.850334
O O10 0.000000 0.000000 0.000000
O O11 0.321732 0.347114 0.029799
O O12 0.097308 0.482077 0.137798
O O13 0.000000 0.500000 0.000000
O O14 0.551652 0.050806 0.167485
O O15 0.825060 0.487921 0.168039
#
# Coordination Sequence:
#
# PCOD9012404 Si02
#       7
#     2   2   2   2   2   2   2
#     4  11  22  40  76  98 136 189 219 282 354 395
#     4  12  23  43  74  98 136 190 228 280 352 398
#     4  12  23  49  72 100 136 178 239 287 333 421
#     4  10  21  40  69  99 134 178 230 274 329 413
#     4  12  26  46  69 105 143 178 228 286 346 403
#     4  11  22  41  71 103 136 176 239 276 331 426
#     4  12  27  44  71 104 140 182 227 285 350 404
#
# _framework density 27.531738000000001
#
# number of rings (size 3 to 8) (size 9 to 14) (size 15 to 20)
#    0.000    0.571    7.143    0.857    2.000    2.857 
#    0.000    5.000    0.000    0.000    0.000    0.000 
#    0.000    0.000    0.000    0.000    0.000    0.000 
#
# Total GULP energy -78247.910270 kJ/mol
# GULP energy per Si atom -5589.136448 kJ/mol
# Density = 2.746907 g / cm^3
# Si number density = 27.531738 Si / 1000 Ang^3
#
#
#
# Elastic Constant Matrix: (Units=GPa)
#
#
# Indices 1 2 3 4 5 6 
#
# 1 133.6008 43.7939 37.7119 -5.1220 -2.8738 36.5794
# 2 43.7939 113.9511 23.3977 -28.9583 5.8367 5.6720
# 3 37.7119 23.3977 112.2625 -18.6002 15.1435 -2.9834
# 4 -5.1220 -28.9583 -18.6002 57.9689 9.3601 10.2648
# 5 -2.8738 5.8367 15.1435 9.3601 37.7464 0.0599
# 6 36.5794 5.6720 -2.9834 10.2648 0.0599 45.3199
#
#
#
# Elastic Compliance Matrix: (Units=1/GPa)
#
#
# Indices 1 2 3 4 5 6 
#
# 1 0.012762 -0.003983 -0.004395 -0.001118 0.003644 -0.009843
# 2 -0.003983 0.012023 0.000423 0.006368 -0.003912 0.000301
# 3 -0.004395 0.000423 0.011888 0.004038 -0.006176 0.003371
# 4 -0.001118 0.006368 0.004038 0.023910 -0.008611 -0.005033
# 5 0.003644 -0.003912 -0.006176 -0.008611 0.031989 -0.000950
# 6 -0.009843 0.000301 0.003371 -0.005033 -0.000950 0.031336
#
#
# Mechanical properties :
#
#
# Convention : Reuss Voigt Hill
#
# Bulk Modulus (GPa) = 48.16400 63.29129 55.72764
# Shear Modulus (GPa) = 34.07409 45.20109 39.63759
#
# Velocity S-wave (km/s) = 3.52181 4.05629 3.79846
# Velocity P-wave (km/s) = 5.83691 6.70644 6.28673
#
# Compressibility (1/GPa) = 0.02076239
#
# Stress axis : x y z
#
# Youngs Moduli (GPa) = 78.35959 83.17125 84.12116
#
# Poissons Ratio (x) = 0.33126 0.36972
# Poissons Ratio (y) = 0.31210 -0.03557
# Poissons Ratio (z) = 0.34440 -0.03517
#
# Static dielectric constant tensor:
#      x y z
#    x 2.162360 -0.029800 0.071050 
#    y -0.029800 2.310980 0.047510 
#    z 0.071050 0.047510 2.181570 
# 
# From -- ./inp_files/559418.got.cif
#   From: 2010.05.17/outbox.cif.g08.bks.cpg/sg2_280_cif.got.tgz:559418.got - 2010.06.03 11:33:40.
