data_PCOD9012746
_publ_section_title
;
Structure prediction by ZEFSAII (Michael W. Deem and Ramdas Pophale) SiO2 
 PCOD9012746
Probable space group: P -1
;
_chemical_formula_sum "Si O2"
_cell_formula_units_Z 14
_cell_length_a 17.285828
_cell_length_b 16.151074
_cell_length_c 10.062953
_cell_angle_alpha 104.304657
_cell_angle_beta 122.768692
_cell_angle_gamma 24.273709
_cell_volume 681.351271
_symmetry_space_group_name_H-M "P -1"
_symmetry_group_IT_number 2
_symmetry_cell_setting 'triclinic'
loop_
_space_group_symop_operation_xyz
x,y,z
-x,-y,-z
loop_
_atom_site_type_symbol
_atom_site_label
_atom_site_fract_x
_atom_site_fract_y
_atom_site_fract_z
Si Si1 0.218894 0.879215 0.716578
Si Si2 0.904257 0.207194 0.098971
Si Si3 0.496475 0.210746 0.142302
Si Si4 0.856480 0.183751 0.745403
Si Si5 0.800051 0.889340 0.743086
Si Si6 0.424681 0.204476 0.780568
Si Si7 0.693564 0.885097 0.389060
O O1 0.289692 0.894702 0.689767
O O2 0.553880 0.545671 0.938165
O O3 0.000000 0.000000 0.500000
O O4 0.045349 0.064368 0.760257
O O5 0.015413 0.026505 0.210753
O O6 0.133617 0.083978 0.270041
O O7 0.898456 0.186461 0.929935
O O8 0.572884 0.065956 0.252808
O O9 0.530930 0.148928 0.997317
O O10 0.141656 0.554088 0.967988
O O11 0.500000 0.500000 0.500000
O O12 0.654705 0.949814 0.530810
O O13 0.598662 0.083113 0.763315
O O14 0.459445 0.070895 0.761092
O O15 0.060026 0.548822 0.570272
#
# Coordination Sequence:
#
# PCOD9012746 Si02
#       7
#     2   2   2   2   2   2   2
#     4  11  22  39  59  83 118 156 193 241 290 340
#     4  10  23  39  57  84 117 155 193 243 288 341
#     4  10  23  39  59  88 118 153 198 239 290 349
#     4  11  22  38  58  83 113 154 199 237 287 344
#     4  10  22  38  60  87 119 151 194 240 289 351
#     4  10  21  41  60  87 121 151 191 243 293 349
#     4  10  22  38  62  89 117 153 193 238 295 351
#
# _framework density 20.547405000000001
#
# number of rings (size 3 to 8) (size 9 to 14) (size 15 to 20)
#    0.000    1.714    1.429    2.143    2.000    2.857 
#    2.571    0.000    0.000    0.000    0.000    0.000 
#    0.000    0.000    0.000    0.000    0.000    0.000 
#
# Total GULP energy -78252.465359 kJ/mol
# GULP energy per Si atom -5589.461811 kJ/mol
# Density = 2.050064 g / cm^3
# Si number density = 20.547405 Si / 1000 Ang^3
#
#
#
# Elastic Constant Matrix: (Units=GPa)
#
#
# Indices 1 2 3 4 5 6 
#
# 1 53.4976 -12.7919 6.0234 -15.0819 5.1597 2.4543
# 2 -12.7919 52.0875 -1.3930 4.3666 0.8397 -20.7263
# 3 6.0234 -1.3930 29.7252 6.2989 7.1192 -5.5239
# 4 -15.0819 4.3666 6.2989 25.0114 10.9229 -7.5381
# 5 5.1597 0.8397 7.1192 10.9229 32.3479 4.3230
# 6 2.4543 -20.7263 -5.5239 -7.5381 4.3230 40.4436
#
#
#
# Elastic Compliance Matrix: (Units=1/GPa)
#
#
# Indices 1 2 3 4 5 6 
#
# 1 0.029824 0.008304 -0.006551 0.026486 -0.013535 0.007934
# 2 0.008304 0.027149 0.002703 0.007602 -0.007327 0.015978
# 3 -0.006551 0.002703 0.039578 -0.010483 -0.004966 0.005765
# 4 0.026486 0.007602 -0.010483 0.075952 -0.030200 0.018241
# 5 -0.013535 -0.007327 -0.004966 -0.030200 0.046452 -0.014206
# 6 0.007934 0.015978 0.005765 0.018241 -0.014206 0.038139
#
#
# Mechanical properties :
#
#
# Convention : Reuss Voigt Hill
#
# Bulk Modulus (GPa) = 9.48202 13.22080 11.35141
# Shear Modulus (GPa) = 17.64694 29.12536 23.38615
#
# Velocity S-wave (km/s) = 2.93378 3.76902 3.37732
# Velocity P-wave (km/s) = 4.01258 5.03874 4.55465
#
# Compressibility (1/GPa) = 0.10546280
#
# Stress axis : x y z
#
# Youngs Moduli (GPa) = 33.53016 36.83386 25.26679
#
# Poissons Ratio (x) = -0.30587 0.16551
# Poissons Ratio (y) = -0.27844 -0.06829
# Poissons Ratio (z) = 0.21964 -0.09955
#
# Static dielectric constant tensor:
#      x y z
#    x 1.747920 0.028620 0.041790 
#    y 0.028620 1.718170 0.029550 
#    z 0.041790 0.029550 1.721210 
# 
# From -- ./inp_files/315263.got.cif
#   From: 2010.05.17/outbox.cif.g08.bks.cpg/sg2_158_cif.got.tgz:315263.got - 2010.06.03 11:33:40.
