data_PCOD9012525
_publ_section_title
;
Structure prediction by ZEFSAII (Michael W. Deem and Ramdas Pophale) SiO2 
 PCOD9012525
Probable space group: P -1
;
_chemical_formula_sum "Si O2"
_cell_formula_units_Z 16
_cell_length_a 17.755934
_cell_length_b 9.179329
_cell_length_c 9.128589
_cell_angle_alpha 46.479839
_cell_angle_beta 84.123874
_cell_angle_gamma 50.092240
_cell_volume 655.668696
_symmetry_space_group_name_H-M "P -1"
_symmetry_group_IT_number 2
_symmetry_cell_setting 'triclinic'
loop_
_space_group_symop_operation_xyz
x,y,z
-x,-y,-z
loop_
_atom_site_type_symbol
_atom_site_label
_atom_site_fract_x
_atom_site_fract_y
_atom_site_fract_z
Si Si1 0.312340 0.567097 0.915164
Si Si2 0.515852 0.150958 0.656743
Si Si3 0.112449 0.909065 0.496093
Si Si4 0.714577 0.469506 0.731141
Si Si5 0.505590 0.371340 0.812849
Si Si6 0.909861 0.786072 0.988264
Si Si7 0.903646 0.390442 0.737357
Si Si8 0.792997 0.677304 0.248951
O O1 0.182040 0.850829 0.662472
O O2 0.412505 0.502837 0.867075
O O3 0.302638 0.612734 0.057984
O O4 0.361730 0.237276 0.105924
O O5 0.411468 0.242372 0.531510
O O6 0.481924 0.276228 0.743119
O O7 0.522312 0.346979 0.433849
O O8 0.202320 0.564887 0.630803
O O9 0.000000 0.000000 0.500000
O O10 0.079732 0.154083 0.219731
O O11 0.775772 0.554915 0.696561
O O12 0.806418 0.146608 0.836332
O O13 0.651203 0.041744 0.047496
O O14 0.855299 0.682405 0.106471
O O15 0.036071 0.569542 0.200080
O O16 0.876301 0.520003 0.488085
O O17 0.000000 0.000000 0.000000
#
# Coordination Sequence:
#
# PCOD9012525 Si02
#       8
#     2   2   2   2   2   2   2   2
#     4  12  26  40  69 101 141 182 219 284 344 388
#     4  11  23  44  67  95 137 179 232 273 333 406
#     4  12  27  46  70 101 139 176 232 283 336 407
#     4  11  22  43  67  99 139 179 222 282 337 402
#     4  11  25  42  70 102 133 180 235 275 332 405
#     4  11  24  46  72  97 136 181 233 276 334 415
#     4  10  21  40  70  98 129 177 227 275 331 405
#     4  12  23  44  76  98 133 184 227 276 346 394
#
# _framework density 24.402566
#
# number of rings (size 3 to 8) (size 9 to 14) (size 15 to 20)
#    0.000    0.750    5.000    3.375    3.500    1.000 
#    2.250    0.000    0.000    0.000    0.000    0.000 
#    0.000    0.000    0.000    0.000    0.000    0.000 
#
# Total GULP energy -89663.409833 kJ/mol
# GULP energy per Si atom -5603.963115 kJ/mol
# Density = 2.434702 g / cm^3
# Si number density = 24.402566 Si / 1000 Ang^3
#
#
#
# Elastic Constant Matrix: (Units=GPa)
#
#
# Indices 1 2 3 4 5 6 
#
# 1 99.2148 26.1439 56.1399 1.1983 5.5064 -26.9436
# 2 26.1439 76.4143 40.4897 19.5976 -3.6815 -28.4911
# 3 56.1399 40.4897 159.2253 11.9518 10.6858 -18.8575
# 4 1.1983 19.5976 11.9518 38.0837 4.6274 -14.9638
# 5 5.5064 -3.6815 10.6858 4.6274 58.4457 4.9340
# 6 -26.9436 -28.4911 -18.8575 -14.9638 4.9340 35.9696
#
#
#
# Elastic Compliance Matrix: (Units=1/GPa)
#
#
# Indices 1 2 3 4 5 6 
#
# 1 0.016075 -0.000192 -0.004459 0.006143 -0.002246 0.012415
# 2 -0.000192 0.020968 -0.003515 -0.004984 0.001332 0.012366
# 3 -0.004459 -0.003515 0.008690 -0.001435 -0.001107 -0.002014
# 4 0.006143 -0.004984 -0.001435 0.035714 -0.004759 0.015412
# 5 -0.002246 0.001332 -0.001107 -0.004759 0.018467 -0.005720
# 6 0.012415 0.012366 -0.002014 0.015412 -0.005720 0.053037
#
#
# Mechanical properties :
#
#
# Convention : Reuss Voigt Hill
#
# Bulk Modulus (GPa) = 34.01279 64.48905 49.25092
# Shear Modulus (GPa) = 27.92021 40.63852 34.27936
#
# Velocity S-wave (km/s) = 3.38620 4.08528 3.75206
# Velocity P-wave (km/s) = 5.40897 6.98121 6.24476
#
# Compressibility (1/GPa) = 0.02940071
#
# Stress axis : x y z
#
# Youngs Moduli (GPa) = 62.20920 47.69261 115.07624
#
# Poissons Ratio (x) = 0.00915 0.51312
# Poissons Ratio (y) = 0.01193 0.40450
# Poissons Ratio (z) = 0.27739 0.16764
#
# Static dielectric constant tensor:
#      x y z
#    x 1.932030 0.002550 -0.006430 
#    y 0.002550 1.954540 -0.025460 
#    z -0.006430 -0.025460 1.942480 
# 
# From -- ./inp_files/345857.got.cif
#   From: 2010.05.17/outbox.cif.g08.bks.cpg/sg2_173_cif.got.tgz:345857.got - 2010.06.03 11:33:40.
