data_PCOD9012561
_publ_section_title
;
Structure prediction by ZEFSAII (Michael W. Deem and Ramdas Pophale) SiO2 
 PCOD9012561
Probable space group: P -1
;
_chemical_formula_sum "Si O2"
_cell_formula_units_Z 16
_cell_length_a 9.094749
_cell_length_b 12.406629
_cell_length_c 7.968181
_cell_angle_alpha 120.434508
_cell_angle_beta 100.073378
_cell_angle_gamma 65.867655
_cell_volume 706.861742
_symmetry_space_group_name_H-M "P -1"
_symmetry_group_IT_number 2
_symmetry_cell_setting 'triclinic'
loop_
_space_group_symop_operation_xyz
x,y,z
-x,-y,-z
loop_
_atom_site_type_symbol
_atom_site_label
_atom_site_fract_x
_atom_site_fract_y
_atom_site_fract_z
Si Si1 0.319389 0.053895 0.276093
Si Si2 0.629652 0.694908 0.583829
Si Si3 0.869284 0.085049 0.674634
Si Si4 0.193870 0.620309 0.688792
Si Si5 0.369807 0.193280 0.948680
Si Si6 0.290987 0.676975 0.414343
Si Si7 0.485564 0.411230 0.081465
Si Si8 0.918090 0.830532 0.983366
O O1 0.326118 0.198334 0.434136
O O2 0.253061 0.985201 0.353361
O O3 0.200181 0.080820 0.113643
O O4 0.495003 0.952664 0.172471
O O5 0.748523 0.540455 0.454846
O O6 0.625481 0.750450 0.816582
O O7 0.450936 0.702132 0.516555
O O8 0.783154 0.230530 0.686218
O O9 0.964892 0.101425 0.869091
O O10 0.000000 0.000000 0.500000
O O11 0.176884 0.696668 0.567693
O O12 0.342942 0.641425 0.831297
O O13 0.031309 0.688066 0.813799
O O14 0.420927 0.296091 0.929335
O O15 0.193284 0.189054 0.905235
O O16 0.355015 0.519086 0.259183
O O17 0.500000 0.500000 0.000000
#
# Coordination Sequence:
#
# PCOD9012561 Si02
#       8
#     2   2   2   2   2   2   2   2
#     4  11  25  44  71  94 135 176 222 271 327 405
#     4  10  21  40  71 104 123 177 223 272 324 384
#     4  12  28  45  65 100 135 176 217 275 339 393
#     4  11  21  43  72  97 135 172 225 273 330 391
#     4  11  22  42  70  98 134 169 228 268 326 402
#     4  11  22  41  69  95 135 173 224 270 319 406
#     4  11  21  41  68  99 128 178 224 270 328 386
#     4  11  25  44  67 100 128 178 220 278 335 385
#
# _framework density 22.635259999999999
#
# number of rings (size 3 to 8) (size 9 to 14) (size 15 to 20)
#    0.000    1.000    2.500    5.625    3.500    2.500 
#    6.750    1.250    0.000    0.000    0.000    0.000 
#    0.000    0.000    0.000    0.000    0.000    0.000 
#
# Total GULP energy -89531.586219 kJ/mol
# GULP energy per Si atom -5595.724139 kJ/mol
# Density = 2.258374 g / cm^3
# Si number density = 22.635260 Si / 1000 Ang^3
#
#
#
# Elastic Constant Matrix: (Units=GPa)
#
#
# Indices 1 2 3 4 5 6 
#
# 1 108.1265 61.2939 29.9696 24.5895 -26.2903 17.8097
# 2 61.2939 91.7992 9.1990 9.1665 -7.8053 22.1530
# 3 29.9696 9.1990 54.7171 11.4700 -12.2145 3.2780
# 4 24.5895 9.1665 11.4700 28.1496 -1.1487 1.4774
# 5 -26.2903 -7.8053 -12.2145 -1.1487 37.0115 8.6819
# 6 17.8097 22.1530 3.2780 1.4774 8.6819 37.8327
#
#
#
# Elastic Compliance Matrix: (Units=1/GPa)
#
#
# Indices 1 2 3 4 5 6 
#
# 1 0.026342 -0.012275 -0.005039 -0.015907 0.015790 -0.007778
# 2 -0.012275 0.019622 0.002494 0.003511 -0.002353 -0.005524
# 3 -0.005039 0.002494 0.022954 -0.005464 0.004814 -0.001969
# 4 -0.015907 0.003511 -0.005464 0.049638 -0.012421 0.006818
# 5 0.015790 -0.002353 0.004814 -0.012421 0.042642 -0.015773
# 6 -0.007778 -0.005524 -0.001969 0.006818 -0.015773 0.036852
#
#
# Mechanical properties :
#
#
# Convention : Reuss Voigt Hill
#
# Bulk Modulus (GPa) = 25.45924 50.61866 38.03895
# Shear Modulus (GPa) = 20.76560 30.87744 25.82152
#
# Velocity S-wave (km/s) = 3.03215 3.69742 3.38119
# Velocity P-wave (km/s) = 4.85083 6.37489 5.66435
#
# Compressibility (1/GPa) = 0.03927848
#
# Stress axis : x y z
#
# Youngs Moduli (GPa) = 37.96287 50.96333 43.56469
#
# Poissons Ratio (x) = 0.62558 0.21951
# Poissons Ratio (y) = 0.46600 -0.10866
# Poissons Ratio (z) = 0.19128 -0.12711
#
# Static dielectric constant tensor:
#      x y z
#    x 1.845440 0.028970 -0.020020 
#    y 0.028970 1.855580 -0.013450 
#    z -0.020020 -0.013450 1.877590 
# 
# From -- ./inp_files/190185.got.cif
#   From: 2010.05.17/outbox.cif.g08.bks.cpg/sg2_96_cif.got.tgz:190185.got - 2010.06.03 11:33:40.
