data_PCOD9012106
_publ_section_title
;
Structure prediction by ZEFSAII (Michael W. Deem and Ramdas Pophale) SiO2 
 PCOD9012106
Probable space group: P -1
;
_chemical_formula_sum "Si O2"
_cell_formula_units_Z 16
_cell_length_a 9.474270
_cell_length_b 31.346627
_cell_length_c 11.478400
_cell_angle_alpha 26.546920
_cell_angle_beta 137.841774
_cell_angle_gamma 152.267915
_cell_volume 687.733533
_symmetry_space_group_name_H-M "P -1"
_symmetry_group_IT_number 2
_symmetry_cell_setting 'triclinic'
loop_
_space_group_symop_operation_xyz
x,y,z
-x,-y,-z
loop_
_atom_site_type_symbol
_atom_site_label
_atom_site_fract_x
_atom_site_fract_y
_atom_site_fract_z
Si Si1 0.658727 0.404067 0.399996
Si Si2 0.768988 0.559795 0.641031
Si Si3 0.922049 0.403897 0.018562
Si Si4 0.620990 0.144364 0.753692
Si Si5 0.145600 0.398309 0.762592
Si Si6 0.220271 0.916631 0.624206
Si Si7 0.360107 0.097918 0.463185
Si Si8 0.819316 0.892854 0.260118
O O1 0.653991 0.471763 0.340778
O O2 0.330511 0.255143 0.517966
O O3 0.844139 0.521535 0.127310
O O4 0.864902 0.377713 0.614036
O O5 0.843432 0.486826 0.798101
O O6 0.403137 0.460344 0.670148
O O7 0.005901 0.719663 0.346886
O O8 0.892163 0.578141 0.802666
O O9 0.594282 0.243717 0.178322
O O10 0.507361 0.160581 0.528306
O O11 0.452153 0.131003 0.795193
O O12 0.500000 0.000000 0.000000
O O13 0.989395 0.248296 0.081123
O O14 0.021238 0.932957 0.399014
O O15 0.500000 0.000000 0.500000
O O16 0.352103 0.996262 0.635152
O O17 0.000000 0.000000 0.500000
O O18 0.000000 0.000000 0.000000
#
# Coordination Sequence:
#
# PCOD9012106 Si02
#       8
#     2   2   2   2   2   2   2   2
#     4  11  25  46  66  99 138 176 228 276 348 398
#     4  10  22  42  68  99 130 174 227 272 341 402
#     4  10  21  40  68  95 135 170 219 279 332 405
#     4  11  26  44  69 105 139 178 227 281 344 412
#     4  11  26  43  69 101 135 179 226 285 335 411
#     4  12  26  45  71 104 138 182 235 278 339 411
#     4  11  23  42  69 102 136 182 222 278 341 401
#     4  12  27  47  72  98 140 183 226 288 342 408
#
# _framework density 23.264823
#
# number of rings (size 3 to 8) (size 9 to 14) (size 15 to 20)
#    0.000    1.000    2.500    3.000    7.000    5.500 
#    0.000    0.000    0.000    0.000    0.000    0.000 
#    0.000    0.000    0.000    0.000    0.000    0.000 
#
# Total GULP energy -89441.091743 kJ/mol
# GULP energy per Si atom -5590.068234 kJ/mol
# Density = 2.321187 g / cm^3
# Si number density = 23.264823 Si / 1000 Ang^3
#
#
#
# Elastic Constant Matrix: (Units=GPa)
#
#
# Indices 1 2 3 4 5 6 
#
# 1 109.9972 15.0427 21.7468 -15.9496 -9.4396 -5.4705
# 2 15.0427 73.3498 20.0112 -16.3939 -2.6978 -7.4216
# 3 21.7468 20.0112 118.2527 -31.6955 -12.6645 8.8731
# 4 -15.9496 -16.3939 -31.6955 44.0638 -1.6395 0.9939
# 5 -9.4396 -2.6978 -12.6645 -1.6395 36.2476 -9.8719
# 6 -5.4705 -7.4216 8.8731 0.9939 -9.8719 36.7586
#
#
#
# Elastic Compliance Matrix: (Units=1/GPa)
#
#
# Indices 1 2 3 4 5 6 
#
# 1 0.010156 -0.000890 -0.000803 0.002830 0.003043 0.002266
# 2 -0.000890 0.015626 -0.001379 0.004478 0.001654 0.003678
# 3 -0.000803 -0.001379 0.011414 0.007587 0.003350 -0.002459
# 4 0.002830 0.004478 0.007587 0.031032 0.005134 0.000033
# 5 0.003043 0.001654 0.003350 0.005134 0.032219 0.008492
# 6 0.002266 0.003678 -0.002459 0.000033 0.008492 0.031158
#
#
# Mechanical properties :
#
#
# Convention : Reuss Voigt Hill
#
# Bulk Modulus (GPa) = 32.20444 46.13349 39.16897
# Shear Modulus (GPa) = 33.76107 39.73392 36.74749
#
# Velocity S-wave (km/s) = 3.81355 4.13715 3.97864
# Velocity P-wave (km/s) = 5.76745 6.53408 6.16269
#
# Compressibility (1/GPa) = 0.03105161
#
# Stress axis : x y z
#
# Youngs Moduli (GPa) = 98.46663 63.99608 87.60991
#
# Poissons Ratio (x) = 0.05696 0.07033
# Poissons Ratio (y) = 0.08765 0.12084
# Poissons Ratio (z) = 0.07904 0.08827
#
# Static dielectric constant tensor:
#      x y z
#    x 1.848720 -0.001510 -0.031380 
#    y -0.001510 1.917910 0.048580 
#    z -0.031380 0.048580 1.912480 
# 
# From -- ./inp_files/407522.got.cif
#   From: 2010.05.17/outbox.cif.g08.bks.cpg/sg2_204_cif.got.tgz:407522.got - 2010.06.03 11:33:40.
