data_PCOD9012348
_publ_section_title
;
Structure prediction by ZEFSAII (Michael W. Deem and Ramdas Pophale) SiO2 
 PCOD9012348
Probable space group: P -1
;
_chemical_formula_sum "Si O2"
_cell_formula_units_Z 14
_cell_length_a 9.283308
_cell_length_b 7.370496
_cell_length_c 9.766678
_cell_angle_alpha 52.680570
_cell_angle_beta 98.249626
_cell_angle_gamma 100.005238
_cell_volume 522.743013
_symmetry_space_group_name_H-M "P -1"
_symmetry_group_IT_number 2
_symmetry_cell_setting 'triclinic'
loop_
_space_group_symop_operation_xyz
x,y,z
-x,-y,-z
loop_
_atom_site_type_symbol
_atom_site_label
_atom_site_fract_x
_atom_site_fract_y
_atom_site_fract_z
Si Si1 0.343852 0.883357 0.088756
Si Si2 0.035367 0.699395 0.524271
Si Si3 0.743002 0.823363 0.424090
Si Si4 0.438238 0.764109 0.732829
Si Si5 0.343119 0.666015 0.485497
Si Si6 0.853020 0.560466 0.807034
Si Si7 0.271708 0.296763 0.024256
O O1 0.245974 0.088181 0.012071
O O2 0.368946 0.763278 0.293052
O O3 0.245739 0.685237 0.083240
O O4 0.500000 0.000000 0.000000
O O5 0.919182 0.880656 0.396890
O O6 0.997004 0.583339 0.720186
O O7 0.000000 0.500000 0.500000
O O8 0.202272 0.771992 0.481350
O O9 0.459152 0.752395 0.576803
O O10 0.684339 0.609504 0.414857
O O11 0.757875 0.709201 0.627196
O O12 0.653185 0.037850 0.312694
O O13 0.589028 0.759294 0.837209
O O14 0.336611 0.526668 0.853513
O O15 0.859882 0.666869 0.908892
#
# Coordination Sequence:
#
# PCOD9012348 Si02
#       7
#     2   2   2   2   2   2   2
#     4  11  22  39  64  93 126 170 202 253 324 377
#     4   8  16  40  69  96 119 155 211 262 311 371
#     4   8  19  37  65  94 117 156 211 255 311 365
#     4  11  23  40  61  90 131 168 213 260 303 373
#     4  10  21  40  69  96 120 162 218 255 307 379
#     4   9  20  41  66  92 122 165 204 260 318 368
#     4  11  25  41  56  89 137 172 204 257 321 364
#
# _framework density 26.781798999999999
#
# number of rings (size 3 to 8) (size 9 to 14) (size 15 to 20)
#    0.857    1.429    1.429    2.571    0.000    6.286 
#    0.000    6.429    0.000    2.571    0.000    0.000 
#    0.000    0.000    0.000    0.000    0.000    0.000 
#
# Total GULP energy -78335.521101 kJ/mol
# GULP energy per Si atom -5595.394364 kJ/mol
# Density = 2.672084 g / cm^3
# Si number density = 26.781799 Si / 1000 Ang^3
#
#
#
# Elastic Constant Matrix: (Units=GPa)
#
#
# Indices 1 2 3 4 5 6 
#
# 1 80.7384 7.3524 33.4476 4.2995 -7.1855 -14.3564
# 2 7.3524 143.4810 51.5174 -14.2187 -2.7975 -14.0323
# 3 33.4476 51.5174 106.3355 5.1643 -12.7884 -13.4291
# 4 4.2995 -14.2187 5.1643 49.7145 -7.8977 -9.2442
# 5 -7.1855 -2.7975 -12.7884 -7.8977 39.1376 5.6722
# 6 -14.3564 -14.0323 -13.4291 -9.2442 5.6722 37.8649
#
#
#
# Elastic Compliance Matrix: (Units=1/GPa)
#
#
# Indices 1 2 3 4 5 6 
#
# 1 0.015103 0.001482 -0.004826 0.000594 0.000756 0.004595
# 2 0.001482 0.009266 -0.004765 0.003558 -0.000373 0.003230
# 3 -0.004826 -0.004765 0.013710 -0.001848 0.002823 0.000392
# 4 0.000594 0.003558 -0.001848 0.022942 0.003525 0.005961
# 5 0.000756 -0.000373 0.002823 0.003525 0.027605 -0.002125
# 6 0.004595 0.003230 0.000392 0.005961 -0.002125 0.031262
#
#
# Mechanical properties :
#
#
# Convention : Reuss Voigt Hill
#
# Bulk Modulus (GPa) = 45.74569 57.24330 51.49449
# Shear Modulus (GPa) = 34.86959 41.22590 38.04774
#
# Velocity S-wave (km/s) = 3.61222 3.92768 3.77325
# Velocity P-wave (km/s) = 5.87499 6.47991 6.18485
#
# Compressibility (1/GPa) = 0.02185998
#
# Stress axis : x y z
#
# Youngs Moduli (GPa) = 66.21278 107.92430 72.94170
#
# Poissons Ratio (x) = -0.15993 0.35202
# Poissons Ratio (y) = -0.09812 0.34756
# Poissons Ratio (z) = 0.31955 0.51425
#
# Static dielectric constant tensor:
#      x y z
#    x 2.232350 -0.008110 -0.035890 
#    y -0.008110 2.146420 -0.007100 
#    z -0.035890 -0.007100 2.130050 
# 
# From -- ./inp_files/526147.got.cif
#   From: 2010.05.17/outbox.cif.g08.bks.cpg/sg2_264_cif.got.tgz:526147.got - 2010.06.03 11:33:40.
