data_PCOD9012101
_publ_section_title
;
Structure prediction by ZEFSAII (Michael W. Deem and Ramdas Pophale) SiO2 
 PCOD9012101
Probable space group: P -1
;
_chemical_formula_sum "Si O2"
_cell_formula_units_Z 14
_cell_length_a 12.252406
_cell_length_b 20.341240
_cell_length_c 15.316492
_cell_angle_alpha 19.827519
_cell_angle_beta 151.156345
_cell_angle_gamma 151.387804
_cell_volume 589.817424
_symmetry_space_group_name_H-M "P -1"
_symmetry_group_IT_number 2
_symmetry_cell_setting 'triclinic'
loop_
_space_group_symop_operation_xyz
x,y,z
-x,-y,-z
loop_
_atom_site_type_symbol
_atom_site_label
_atom_site_fract_x
_atom_site_fract_y
_atom_site_fract_z
Si Si1 0.029628 0.683765 0.422519
Si Si2 0.950364 0.074840 0.687282
Si Si3 0.237334 0.802465 0.159797
Si Si4 0.906531 0.425978 0.122174
Si Si5 0.502308 0.731955 0.595368
Si Si6 0.018085 0.846824 0.781069
Si Si7 0.400620 0.279284 0.038393
O O1 0.022042 0.780855 0.389198
O O2 0.294578 0.766844 0.463963
O O3 0.938167 0.435370 0.668765
O O4 0.836075 0.743612 0.154889
O O5 0.007706 0.243480 0.441724
O O6 0.685272 0.910411 0.718995
O O7 0.127226 0.946208 0.958863
O O8 0.457110 0.787983 0.392159
O O9 0.232535 0.880526 0.959082
O O10 0.985756 0.627493 0.987124
O O11 0.624137 0.317579 0.082011
O O12 0.000000 0.500000 0.000000
O O13 0.778886 0.832953 0.686169
O O14 0.457099 0.489398 0.868498
O O15 0.000000 0.000000 0.500000
#
# Coordination Sequence:
#
# PCOD9012101 Si02
#       7
#     2   2   2   2   2   2   2
#     4  11  21  42  67  98 134 165 218 278 332 392
#     4  12  22  39  70 100 130 173 219 269 339 395
#     4  11  22  43  67  99 134 170 217 277 334 385
#     4  11  25  44  62  96 136 174 225 272 328 402
#     4  10  22  42  70  97 135 169 219 278 330 394
#     4  11  25  45  67  92 133 185 223 267 332 396
#     4  10  21  40  68  95 131 172 213 277 331 387
#
# _framework density 23.736159000000001
#
# number of rings (size 3 to 8) (size 9 to 14) (size 15 to 20)
#    0.000    1.143    4.286    2.571    0.000    4.571 
#    0.000    2.143    0.000    0.000    0.000    0.000 
#    0.000    0.000    0.000    0.000    0.000    0.000 
#
# Total GULP energy -78219.254791 kJ/mol
# GULP energy per Si atom -5587.089628 kJ/mol
# Density = 2.368213 g / cm^3
# Si number density = 23.736159 Si / 1000 Ang^3
#
#
#
# Elastic Constant Matrix: (Units=GPa)
#
#
# Indices 1 2 3 4 5 6 
#
# 1 96.0607 22.4849 24.7007 -11.6897 -7.6926 -9.1475
# 2 22.4849 75.0686 35.8065 4.2419 -1.1717 -0.8764
# 3 24.7007 35.8065 131.9305 -27.4015 -13.8439 -8.9208
# 4 -11.6897 4.2419 -27.4015 31.2184 -0.3488 1.8285
# 5 -7.6926 -1.1717 -13.8439 -0.3488 50.1963 -2.1852
# 6 -9.1475 -0.8764 -8.9208 1.8285 -2.1852 23.3058
#
#
#
# Elastic Compliance Matrix: (Units=1/GPa)
#
#
# Indices 1 2 3 4 5 6 
#
# 1 0.012561 -0.004203 0.000468 0.005433 0.002200 0.004731
# 2 -0.004203 0.018208 -0.006602 -0.009695 -0.002235 -0.002941
# 3 0.000468 -0.006602 0.012374 0.011734 0.003590 0.004088
# 4 0.005433 -0.009695 0.011734 0.045551 0.004294 0.003088
# 5 0.002200 -0.002235 0.003590 0.004294 0.021393 0.003823
# 6 0.004731 -0.002941 0.004088 0.003088 0.003823 0.046335
#
#
# Mechanical properties :
#
#
# Convention : Reuss Voigt Hill
#
# Bulk Modulus (GPa) = 44.50463 52.11599 48.31031
# Shear Modulus (GPa) = 27.08766 35.61528 31.35147
#
# Velocity S-wave (km/s) = 3.38183 3.87779 3.63827
# Velocity P-wave (km/s) = 5.83433 6.48488 6.16819
#
# Compressibility (1/GPa) = 0.02246957
#
# Stress axis : x y z
#
# Youngs Moduli (GPa) = 79.60873 54.92185 80.81368
#
# Poissons Ratio (x) = 0.23085 -0.03783
# Poissons Ratio (y) = 0.33461 0.53352
# Poissons Ratio (z) = -0.03727 0.36258
#
# Static dielectric constant tensor:
#      x y z
#    x 1.929750 -0.010890 -0.057220 
#    y -0.010890 1.896830 0.020540 
#    z -0.057220 0.020540 1.923850 
# 
# From -- ./inp_files/155613.got.cif
#   From: 2010.05.17/outbox.cif.g08.bks.cpg/sg2_78_cif.got.tgz:155613.got - 2010.06.03 11:33:40.
