data_PCOD9012614
_publ_section_title
;
Structure prediction by ZEFSAII (Michael W. Deem and Ramdas Pophale) SiO2 
 PCOD9012614
Probable space group: P -1
;
_chemical_formula_sum "Si O2"
_cell_formula_units_Z 15
_cell_length_a 8.481038
_cell_length_b 13.478580
_cell_length_c 8.449022
_cell_angle_alpha 101.332128
_cell_angle_beta 115.607294
_cell_angle_gamma 49.991500
_cell_volume 662.467334
_symmetry_space_group_name_H-M "P -1"
_symmetry_group_IT_number 2
_symmetry_cell_setting 'triclinic'
loop_
_space_group_symop_operation_xyz
x,y,z
-x,-y,-z
loop_
_atom_site_type_symbol
_atom_site_label
_atom_site_fract_x
_atom_site_fract_y
_atom_site_fract_z
Si Si1 0.751876 0.018941 0.244203
Si Si2 0.787727 0.380221 0.944938
Si Si3 0.807637 0.212555 0.447124
Si Si4 0.056793 0.095059 0.022188
Si Si5 0.309171 0.366552 0.414598
Si Si6 0.364627 0.117273 0.356253
Si Si7 0.000000 0.500000 0.000000
Si Si8 0.282006 0.555807 0.696071
O O1 0.973527 0.893863 0.388201
O O2 0.782450 0.129195 0.286636
O O3 0.532982 0.076856 0.270123
O O4 0.758621 0.973686 0.058110
O O5 0.972442 0.385732 0.950897
O O6 0.769423 0.426219 0.133279
O O7 0.847080 0.240523 0.923843
O O8 0.549713 0.482304 0.789416
O O9 0.572826 0.293872 0.467310
O O10 0.831377 0.310637 0.403469
O O11 0.159527 0.122018 0.216518
O O12 0.000000 0.000000 0.000000
O O13 0.294926 0.254243 0.426054
O O14 0.239397 0.468369 0.555778
O O15 0.163530 0.432934 0.211977
O O16 0.500000 0.000000 0.500000
#
# Coordination Sequence:
#
# PCOD9012614 Si02
#       8
#     2   2   2   2   2   2   1   2
#     4  10  24  42  71  99 134 183 228 279 350 402
#     4  11  26  45  68 102 139 175 238 282 340 415
#     4  10  21  40  72 102 135 171 233 279 335 416
#     4  12  26  46  72 100 138 182 233 287 347 407
#     4  11  24  44  71 100 144 179 227 283 356 404
#     4  11  27  47  66 103 141 177 233 291 337 422
#     4  12  24  46  64 104 140 180 222 292 332 420
#     4  11  24  43  71 101 132 187 224 281 346 412
#
# _framework density 22.642626
#
# number of rings (size 3 to 8) (size 9 to 14) (size 15 to 20)
#    0.000    1.067    2.667    2.400   11.200    0.533 
#    2.400    0.000    0.000    0.000    0.000    0.000 
#    0.000    0.000    0.000    0.000    0.000    0.000 
#
# Total GULP energy -83633.791225 kJ/mol
# GULP energy per Si atom -5575.586082 kJ/mol
# Density = 2.259109 g / cm^3
# Si number density = 22.642626 Si / 1000 Ang^3
#
#
#
# Elastic Constant Matrix: (Units=GPa)
#
#
# Indices 1 2 3 4 5 6 
#
# 1 75.9506 40.4201 12.8455 14.9091 15.9970 20.6120
# 2 40.4201 165.3565 56.1952 21.1190 -1.1404 40.1458
# 3 12.8455 56.1952 85.5459 26.3713 11.2068 16.1165
# 4 14.9091 21.1190 26.3713 30.0883 -0.8821 -0.9853
# 5 15.9970 -1.1404 11.2068 -0.8821 20.6529 3.4501
# 6 20.6120 40.1458 16.1165 -0.9853 3.4501 39.8652
#
#
#
# Elastic Compliance Matrix: (Units=1/GPa)
#
#
# Indices 1 2 3 4 5 6 
#
# 1 0.026588 -0.005100 0.011262 -0.020601 -0.025958 -0.011427
# 2 -0.005100 0.011202 -0.006755 0.000641 0.009383 -0.006708
# 3 0.011262 -0.006755 0.026936 -0.025411 -0.023375 -0.008515
# 4 -0.020601 0.000641 -0.025411 0.066762 0.029394 0.019385
# 5 -0.025958 0.009383 -0.023375 0.029394 0.081802 0.007070
# 6 -0.011427 -0.006708 -0.008515 0.019385 0.007070 0.041058
#
#
# Mechanical properties :
#
#
# Convention : Reuss Voigt Hill
#
# Bulk Modulus (GPa) = 15.73854 60.64162 38.19008
# Shear Modulus (GPa) = 18.06912 32.61410 25.34161
#
# Velocity S-wave (km/s) = 2.82798 3.79936 3.34907
# Velocity P-wave (km/s) = 4.19872 6.78874 5.64430
#
# Compressibility (1/GPa) = 0.06353828
#
# Stress axis : x y z
#
# Youngs Moduli (GPa) = 37.61035 89.27305 37.12483
#
# Poissons Ratio (x) = 0.45532 -0.41809
# Poissons Ratio (y) = 0.19182 0.25080
# Poissons Ratio (z) = -0.42356 0.60308
#
# Static dielectric constant tensor:
#      x y z
#    x 1.831880 -0.089960 -0.053110 
#    y -0.089960 1.814400 -0.054950 
#    z -0.053110 -0.054950 1.798080 
# 
# From -- ./inp_files/189522.got.cif
#   From: 2010.05.17/outbox.cif.g08.bks.cpg/sg2_95_cif.got.tgz:189522.got - 2010.06.03 11:33:40.
