data_PCOD9012537
_publ_section_title
;
Structure prediction by ZEFSAII (Michael W. Deem and Ramdas Pophale) SiO2 
 PCOD9012537
Probable space group: P -1
;
_chemical_formula_sum "Si O2"
_cell_formula_units_Z 16
_cell_length_a 11.006739
_cell_length_b 13.696438
_cell_length_c 8.409314
_cell_angle_alpha 107.330095
_cell_angle_beta 78.424854
_cell_angle_gamma 149.518855
_cell_volume 609.742979
_symmetry_space_group_name_H-M "P -1"
_symmetry_group_IT_number 2
_symmetry_cell_setting 'triclinic'
loop_
_space_group_symop_operation_xyz
x,y,z
-x,-y,-z
loop_
_atom_site_type_symbol
_atom_site_label
_atom_site_fract_x
_atom_site_fract_y
_atom_site_fract_z
Si Si1 0.635425 0.448469 0.596332
Si Si2 0.148773 0.187673 0.757100
Si Si3 0.422202 0.004964 0.865354
Si Si4 0.246253 0.073250 0.851605
Si Si5 0.939607 0.157090 0.517746
Si Si6 0.761591 0.538258 0.958680
Si Si7 0.768389 0.334579 0.368993
Si Si8 0.072025 0.648374 0.188878
O O1 0.385156 0.317921 0.660312
O O2 0.609665 0.318692 0.460072
O O3 0.796047 0.633910 0.529627
O O4 0.788902 0.546779 0.766656
O O5 0.223100 0.336279 0.917108
O O6 0.966176 0.095473 0.624524
O O7 0.067604 0.038640 0.825078
O O8 0.245760 0.976750 0.925360
O O9 0.333473 0.850901 0.700925
O O10 0.673163 0.225721 0.837090
O O11 0.500000 0.000000 0.000000
O O12 0.236608 0.002150 0.653603
O O13 0.488776 0.305168 0.945032
O O14 0.877230 0.220319 0.644646
O O15 0.958010 0.615022 0.044239
O O16 0.000000 0.500000 0.500000
O O17 0.868275 0.436360 0.220051
#
# Coordination Sequence:
#
# PCOD9012537 Si02
#       8
#     2   2   2   2   2   2   2   2
#     4  10  21  40  70  99 132 178 226 278 344 409
#     4  10  22  44  68  95 135 180 224 279 351 409
#     4  12  28  44  70 105 140 183 234 283 342 414
#     4  11  23  40  67  97 131 172 229 275 339 398
#     4  10  22  41  67 101 132 173 226 286 339 406
#     4  10  23  44  70  95 136 183 222 281 353 404
#     4  11  26  44  68 104 139 185 233 278 343 409
#     4  10  25  45  69  97 144 181 226 283 345 408
#
# _framework density 26.240566999999999
#
# number of rings (size 3 to 8) (size 9 to 14) (size 15 to 20)
#    0.000    1.500    0.000    4.500   10.500    2.000 
#    0.000    3.750    0.000    0.000    0.000    0.000 
#    0.000    0.000    0.000    0.000    0.000    0.000 
#
# Total GULP energy -89571.877373 kJ/mol
# GULP energy per Si atom -5598.242336 kJ/mol
# Density = 2.618084 g / cm^3
# Si number density = 26.240567 Si / 1000 Ang^3
#
#
#
# Elastic Constant Matrix: (Units=GPa)
#
#
# Indices 1 2 3 4 5 6 
#
# 1 144.7527 33.4285 39.9472 0.5154 -2.8763 -30.3786
# 2 33.4285 80.4805 13.1774 3.6321 -13.3753 -3.1021
# 3 39.9472 13.1774 118.5597 26.3322 -7.5266 -17.5856
# 4 0.5154 3.6321 26.3322 48.2420 -9.8403 -2.4769
# 5 -2.8763 -13.3753 -7.5266 -9.8403 63.0508 -3.1818
# 6 -30.3786 -3.1021 -17.5856 -2.4769 -3.1818 48.0251
#
#
#
# Elastic Compliance Matrix: (Units=1/GPa)
#
#
# Indices 1 2 3 4 5 6 
#
# 1 0.009392 -0.003400 -0.002447 0.001729 -0.000067 0.004910
# 2 -0.003400 0.014321 -0.000375 -0.000343 0.002724 -0.001200
# 3 -0.002447 -0.000375 0.010912 -0.005725 0.000326 0.002150
# 4 0.001729 -0.000343 -0.005725 0.024532 0.003174 0.000451
# 5 -0.000067 0.002724 0.000326 0.003174 0.017047 0.001546
# 6 0.004910 -0.001200 0.002150 0.000451 0.001546 0.024764
#
#
# Mechanical properties :
#
#
# Convention : Reuss Voigt Hill
#
# Bulk Modulus (GPa) = 45.08404 57.43322 51.25863
# Shear Modulus (GPa) = 41.38921 49.01289 45.20105
#
# Velocity S-wave (km/s) = 3.97583 4.32653 4.15488
# Velocity P-wave (km/s) = 6.18827 6.84786 6.52640
#
# Compressibility (1/GPa) = 0.02218080
#
# Stress axis : x y z
#
# Youngs Moduli (GPa) = 106.47676 69.82726 91.64490
#
# Poissons Ratio (x) = 0.23744 0.22422
# Poissons Ratio (y) = 0.36206 0.03436
# Poissons Ratio (z) = 0.26051 0.02618
#
# Static dielectric constant tensor:
#      x y z
#    x 2.091050 -0.052180 0.029690 
#    y -0.052180 2.103380 -0.058480 
#    z 0.029690 -0.058480 2.031430 
# 
# From -- ./inp_files/273716.got.cif
#   From: 2010.05.17/outbox.cif.g08.bks.cpg/sg2_137_cif.got.tgz:273716.got - 2010.06.03 11:33:40.
