data_PCOD9012515
_publ_section_title
;
Structure prediction by ZEFSAII (Michael W. Deem and Ramdas Pophale) SiO2 
 PCOD9012515
Probable space group: P -1
;
_chemical_formula_sum "Si O2"
_cell_formula_units_Z 13
_cell_length_a 11.297888
_cell_length_b 9.803531
_cell_length_c 14.459920
_cell_angle_alpha 136.323551
_cell_angle_beta 30.458228
_cell_angle_gamma 123.311178
_cell_volume 547.894143
_symmetry_space_group_name_H-M "P -1"
_symmetry_group_IT_number 2
_symmetry_cell_setting 'triclinic'
loop_
_space_group_symop_operation_xyz
x,y,z
-x,-y,-z
loop_
_atom_site_type_symbol
_atom_site_label
_atom_site_fract_x
_atom_site_fract_y
_atom_site_fract_z
Si Si1 0.000000 0.500000 0.500000
Si Si2 0.789066 0.920271 0.156989
Si Si3 0.983420 0.828644 0.351039
Si Si4 0.552560 0.705624 0.476267
Si Si5 0.260577 0.030559 0.118094
Si Si6 0.751926 0.536913 0.884112
Si Si7 0.209118 0.711117 0.869021
O O1 0.140322 0.261694 0.297541
O O2 0.069482 0.493879 0.338206
O O3 0.578669 0.113527 0.412503
O O4 0.706581 0.759153 0.067427
O O5 0.927750 0.794437 0.087043
O O6 0.000000 0.000000 0.000000
O O7 0.732306 0.785557 0.464193
O O8 0.138626 0.623827 0.189361
O O9 0.000000 0.000000 0.500000
O O10 0.091504 0.910703 0.228127
O O11 0.329160 0.655115 0.660254
O O12 0.698888 0.492081 0.234193
O O13 0.500000 0.000000 0.000000
O O14 0.309632 0.901602 0.928848
O O15 0.500000 0.500000 0.000000
#
# Coordination Sequence:
#
# PCOD9012515 Si02
#       7
#     1   2   2   2   2   2   2
#     4  12  26  46  74 102 148 186 240 298 372 426
#     4  10  21  41  70 101 141 188 236 292 362 438
#     4  12  23  44  70 100 143 180 237 299 361 422
#     4  10  21  40  70  97 136 189 227 289 357 425
#     4  12  27  45  71 107 141 184 244 298 360 439
#     4  12  25  46  75 109 146 191 248 303 366 435
#     4  10  22  42  67  99 138 184 236 284 358 434
#
# _framework density 23.727212000000002
#
# number of rings (size 3 to 8) (size 9 to 14) (size 15 to 20)
#    0.000    0.923    3.077    4.615    0.000    1.846 
#    0.000    0.769    0.000    0.000    0.000    0.000 
#    0.000    0.000    0.000    0.000    0.000    0.000 
#
# Total GULP energy -72416.654738 kJ/mol
# GULP energy per Si atom -5570.511903 kJ/mol
# Density = 2.367321 g / cm^3
# Si number density = 23.727212 Si / 1000 Ang^3
#
#
#
# Elastic Constant Matrix: (Units=GPa)
#
#
# Indices 1 2 3 4 5 6 
#
# 1 96.0311 39.8771 46.1575 30.5695 -33.3316 5.4037
# 2 39.8771 117.7391 56.1149 40.4903 -27.3645 -10.5183
# 3 46.1575 56.1149 129.7164 62.1339 -35.4290 -14.0825
# 4 30.5695 40.4903 62.1339 62.2448 -11.9309 -9.6930
# 5 -33.3316 -27.3645 -35.4290 -11.9309 45.8731 9.4577
# 6 5.4037 -10.5183 -14.0825 -9.6930 9.4577 45.5732
#
#
#
# Elastic Compliance Matrix: (Units=1/GPa)
#
#
# Indices 1 2 3 4 5 6 
#
# 1 0.017329 -0.001652 -0.000138 -0.006106 0.011167 -0.006095
# 2 -0.001652 0.012339 -0.001119 -0.005252 0.003765 0.000800
# 3 -0.000138 -0.001119 0.018288 -0.015662 0.009251 0.000158
# 4 -0.006106 -0.005252 -0.015662 0.036733 -0.011100 0.004789
# 5 0.011167 0.003765 0.009251 -0.011100 0.038036 -0.007851
# 6 -0.006095 0.000800 0.000158 0.004789 -0.007851 0.025547
#
#
# Mechanical properties :
#
#
# Convention : Reuss Voigt Hill
#
# Bulk Modulus (GPa) = 23.73226 69.75394 46.74310
# Shear Modulus (GPa) = 29.73791 44.16070 36.94930
#
# Velocity S-wave (km/s) = 3.54407 4.31882 3.95049
# Velocity P-wave (km/s) = 5.17408 7.37101 6.36800
#
# Compressibility (1/GPa) = 0.04213673
#
# Stress axis : x y z
#
# Youngs Moduli (GPa) = 57.70790 81.04481 54.67998
#
# Poissons Ratio (x) = 0.13391 0.00754
# Poissons Ratio (y) = 0.09535 0.06120
# Poissons Ratio (z) = 0.00796 0.09071
#
# Static dielectric constant tensor:
#      x y z
#    x 1.980780 0.027170 0.012400 
#    y 0.027170 1.862410 0.054880 
#    z 0.012400 0.054880 1.906160 
# 
# From -- ./inp_files/516343.got.cif
#   From: 2010.05.17/outbox.cif.g08.bks.cpg/sg2_259_cif.got.tgz:516343.got - 2010.06.03 11:33:40.
