data_PCOD9012088
_publ_section_title
;
Structure prediction by ZEFSAII (Michael W. Deem and Ramdas Pophale) SiO2 
 PCOD9012088
Probable space group: P -1
;
_chemical_formula_sum "Si O2"
_cell_formula_units_Z 16
_cell_length_a 23.190004
_cell_length_b 8.462617
_cell_length_c 8.350152
_cell_angle_alpha 34.744466
_cell_angle_beta 60.458408
_cell_angle_gamma 48.957506
_cell_volume 700.255361
_symmetry_space_group_name_H-M "P -1"
_symmetry_group_IT_number 2
_symmetry_cell_setting 'triclinic'
loop_
_space_group_symop_operation_xyz
x,y,z
-x,-y,-z
loop_
_atom_site_type_symbol
_atom_site_label
_atom_site_fract_x
_atom_site_fract_y
_atom_site_fract_z
Si Si1 0.443769 0.029404 0.196787
Si Si2 0.820375 0.198056 0.707134
Si Si3 0.440524 0.645327 0.812923
Si Si4 0.008763 0.173586 0.193636
Si Si5 0.803259 0.028330 0.509036
Si Si6 0.282209 0.070581 0.836374
Si Si7 0.293331 0.249118 0.031462
Si Si8 0.951292 0.893298 0.261721
O O1 0.470872 0.760234 0.523633
O O2 0.424157 0.363810 0.024405
O O3 0.368892 0.062966 0.187937
O O4 0.500000 0.000000 0.000000
O O5 0.783759 0.575305 0.419423
O O6 0.903218 0.030582 0.818832
O O7 0.830629 0.047529 0.637972
O O8 0.758267 0.142055 0.929821
O O9 0.358871 0.940692 0.736261
O O10 0.500000 0.500000 0.000000
O O11 0.000000 0.000000 0.500000
O O12 0.946713 0.145688 0.196188
O O13 0.000000 0.500000 0.000000
O O14 0.866597 0.948228 0.354025
O O15 0.732175 0.382340 0.273010
O O16 0.774425 0.776022 0.768291
O O17 0.304304 0.089683 0.974488
O O18 0.000000 0.500000 0.500000
O O19 0.000000 0.000000 0.000000
#
# Coordination Sequence:
#
# PCOD9012088 Si02
#       8
#     2   2   2   2   2   2   2   2
#     4  12  26  46  71 104 141 182 234 275 338 432
#     4  10  21  40  68  95 125 178 231 284 335 414
#     4  12  26  46  72 105 143 179 223 292 351 408
#     4  12  24  42  71  95 132 181 246 289 342 418
#     4  10  21  41  68  89 132 177 228 276 345 417
#     4  10  22  42  66  97 135 171 224 281 351 401
#     4  10  22  42  68  96 126 182 224 276 337 419
#     4  12  26  44  62  99 138 181 230 295 363 409
#
# _framework density 22.848807999999998
#
# number of rings (size 3 to 8) (size 9 to 14) (size 15 to 20)
#    0.000    1.000    1.250    5.250    3.500    3.000 
#   13.500    0.000    0.000    0.000    0.000    0.000 
#    0.000    0.000    0.000    0.000    0.000    0.000 
#
# Total GULP energy -89217.606504 kJ/mol
# GULP energy per Si atom -5576.100406 kJ/mol
# Density = 2.279680 g / cm^3
# Si number density = 22.848808 Si / 1000 Ang^3
#
#
#
# Elastic Constant Matrix: (Units=GPa)
#
#
# Indices 1 2 3 4 5 6 
#
# 1 80.4142 15.1282 25.9151 -2.2332 -3.0324 -12.6534
# 2 15.1282 50.4157 6.4635 8.6498 -9.1138 -19.4715
# 3 25.9151 6.4635 133.6274 7.6291 -24.5662 2.6635
# 4 -2.2332 8.6498 7.6291 44.0325 -3.7820 -14.0736
# 5 -3.0324 -9.1138 -24.5662 -3.7820 31.5404 -6.0792
# 6 -12.6534 -19.4715 2.6635 -14.0736 -6.0792 24.7511
#
#
#
# Elastic Compliance Matrix: (Units=1/GPa)
#
#
# Indices 1 2 3 4 5 6 
#
# 1 0.015538 -0.000503 -0.003207 0.005175 0.001636 0.011237
# 2 -0.000503 0.036160 0.000716 0.005854 0.018601 0.036009
# 3 -0.003207 0.000716 0.009446 -0.001832 0.006752 -0.001476
# 4 0.005175 0.005854 -0.001832 0.031978 0.010011 0.028090
# 5 0.001636 0.018601 0.006752 0.010011 0.050003 0.032716
# 6 0.011237 0.036009 -0.001476 0.028090 0.032716 0.098641
#
#
# Mechanical properties :
#
#
# Convention : Reuss Voigt Hill
#
# Bulk Modulus (GPa) = 18.13097 39.94122 29.03609
# Shear Modulus (GPa) = 18.78711 34.52815 26.65763
#
# Velocity S-wave (km/s) = 2.87058 3.89158 3.41940
# Velocity P-wave (km/s) = 4.35194 6.14094 5.32215
#
# Compressibility (1/GPa) = 0.05515426
#
# Stress axis : x y z
#
# Youngs Moduli (GPa) = 64.36039 27.65493 105.86295
#
# Poissons Ratio (x) = 0.01392 0.33955
# Poissons Ratio (y) = 0.03239 -0.07581
# Poissons Ratio (z) = 0.20644 -0.01981
#
# Static dielectric constant tensor:
#      x y z
#    x 1.844840 0.036800 0.067860 
#    y 0.036800 1.953210 0.081270 
#    z 0.067860 0.081270 1.858580 
# 
# From -- ./inp_files/217775.got.cif
#   From: 2010.05.17/outbox.cif.g08.bks.cpg/sg2_109_cif.got.tgz:217775.got - 2010.06.03 11:33:40.
