data_PCOD9012145
_publ_section_title
;
Structure prediction by ZEFSAII (Michael W. Deem and Ramdas Pophale) SiO2 
 PCOD9012145
Probable space group: P -1
;
_chemical_formula_sum "Si O2"
_cell_formula_units_Z 14
_cell_length_a 22.391796
_cell_length_b 14.428224
_cell_length_c 13.679709
_cell_angle_alpha 29.457629
_cell_angle_beta 21.646043
_cell_angle_gamma 19.757824
_cell_volume 550.808220
_symmetry_space_group_name_H-M "P -1"
_symmetry_group_IT_number 2
_symmetry_cell_setting 'triclinic'
loop_
_space_group_symop_operation_xyz
x,y,z
-x,-y,-z
loop_
_atom_site_type_symbol
_atom_site_label
_atom_site_fract_x
_atom_site_fract_y
_atom_site_fract_z
Si Si1 0.830796 0.886663 0.832347
Si Si2 0.337211 0.934015 0.708073
Si Si3 0.464472 0.273072 0.196933
Si Si4 0.317494 0.773814 0.440607
Si Si5 0.857366 0.421991 0.905587
Si Si6 0.703796 0.565254 0.333485
Si Si7 0.980539 0.758084 0.394599
O O1 0.082331 0.657108 0.712576
O O2 0.827311 0.996039 0.635555
O O3 0.735374 0.755527 0.080431
O O4 0.654855 0.136281 0.947110
O O5 0.432097 0.767939 0.816840
O O6 0.466158 0.738471 0.597672
O O7 0.415650 0.088021 0.444743
O O8 0.058713 0.173362 0.899407
O O9 0.217833 0.572509 0.268085
O O10 0.287454 0.582022 0.634672
O O11 0.589742 0.597923 0.173260
O O12 0.216489 0.935736 0.546745
O O13 0.938494 0.286559 0.798813
O O14 0.883268 0.627575 0.674617
#
# Coordination Sequence:
#
# PCOD9012145 Si02
#       7
#     2   2   2   2   2   2   2
#     4  10  21  42  69  97 139 174 220 286 337 395
#     4   9  19  38  63  90 137 170 217 283 328 389
#     4   9  17  37  66  94 121 179 225 266 336 394
#     4  12  23  42  70  98 133 180 224 277 338 404
#     4  10  22  41  67  96 135 182 221 276 341 399
#     4  10  23  40  63 102 134 173 226 280 333 405
#     4  10  21  40  68  97 131 178 230 271 337 407
#
# _framework density 25.417195
#
# number of rings (size 3 to 8) (size 9 to 14) (size 15 to 20)
#    0.000    2.000    1.429    1.714    2.000    4.000 
#    5.143    2.143    0.000    0.000    0.000    0.000 
#    0.000    0.000    0.000    0.000    0.000    0.000 
#
# Total GULP energy -78594.751947 kJ/mol
# GULP energy per Si atom -5613.910853 kJ/mol
# Density = 2.535934 g / cm^3
# Si number density = 25.417195 Si / 1000 Ang^3
#
#
#
# Elastic Constant Matrix: (Units=GPa)
#
#
# Indices 1 2 3 4 5 6 
#
# 1 109.1850 50.8678 21.0225 -10.9501 0.5580 23.6722
# 2 50.8678 109.1389 39.2503 13.4911 2.1552 25.9504
# 3 21.0225 39.2503 82.1518 -3.5056 -12.8043 34.3693
# 4 -10.9501 13.4911 -3.5056 29.1124 4.5974 11.2965
# 5 0.5580 2.1552 -12.8043 4.5974 26.1453 1.4492
# 6 23.6722 25.9504 34.3693 11.2965 1.4492 55.3095
#
#
#
# Elastic Compliance Matrix: (Units=1/GPa)
#
#
# Indices 1 2 3 4 5 6 
#
# 1 0.015239 -0.008283 0.003909 0.012973 0.000419 -0.007725
# 2 -0.008283 0.016883 -0.008540 -0.012855 -0.003339 0.003644
# 3 0.003909 -0.008540 0.023942 0.012548 0.010992 -0.015395
# 4 0.012973 -0.012855 0.012548 0.054051 -0.001561 -0.018317
# 5 0.000419 -0.003339 0.010992 -0.001561 0.044521 -0.006291
# 6 -0.007725 0.003644 -0.015395 -0.018317 -0.006291 0.033149
#
#
# Mechanical properties :
#
#
# Convention : Reuss Voigt Hill
#
# Bulk Modulus (GPa) = 33.07421 58.08410 45.57916
# Shear Modulus (GPa) = 22.35203 34.73577 28.54390
#
# Velocity S-wave (km/s) = 2.96870 3.70080 3.35478
# Velocity P-wave (km/s) = 4.97912 6.41585 5.74259
#
# Compressibility (1/GPa) = 0.03023504
#
# Stress axis : x y z
#
# Youngs Moduli (GPa) = 65.62057 59.23013 41.76783
#
# Poissons Ratio (x) = 0.49063 -0.16327
# Poissons Ratio (y) = 0.54357 0.35670
# Poissons Ratio (z) = -0.25650 0.50583
#
# Static dielectric constant tensor:
#      x y z
#    x 1.966010 0.000510 0.005750 
#    y 0.000510 1.966640 -0.050440 
#    z 0.005750 -0.050440 1.985750 
# 
# From -- ./inp_files/535362.got.cif
#   From: 2010.05.17/outbox.cif.g08.bks.cpg/sg2_268_cif.got.tgz:535362.got - 2010.06.03 11:33:40.
