data_PCOD9012165
_publ_section_title
;
Structure prediction by ZEFSAII (Michael W. Deem and Ramdas Pophale) SiO2 
 PCOD9012165
Probable space group: P -1
;
_chemical_formula_sum "Si O2"
_cell_formula_units_Z 16
_cell_length_a 19.404101
_cell_length_b 9.300152
_cell_length_c 5.070264
_cell_angle_alpha 80.230057
_cell_angle_beta 57.947342
_cell_angle_gamma 58.188911
_cell_volume 651.279389
_symmetry_space_group_name_H-M "P -1"
_symmetry_group_IT_number 2
_symmetry_cell_setting 'triclinic'
loop_
_space_group_symop_operation_xyz
x,y,z
-x,-y,-z
loop_
_atom_site_type_symbol
_atom_site_label
_atom_site_fract_x
_atom_site_fract_y
_atom_site_fract_z
Si Si1 0.439386 0.223804 0.814751
Si Si2 0.209362 0.313867 0.656276
Si Si3 0.040660 0.331497 0.296747
Si Si4 0.914915 0.180881 0.507258
Si Si5 0.802084 0.193100 0.229028
Si Si6 0.369800 0.000778 0.774890
Si Si7 0.207117 0.074296 0.381281
Si Si8 0.334113 0.450434 0.456886
O O1 0.418936 0.068950 0.860397
O O2 0.376315 0.359455 0.676191
O O3 0.548830 0.139328 0.534031
O O4 0.407061 0.326056 0.122749
O O5 0.294235 0.159292 0.699857
O O6 0.219078 0.234481 0.374824
O O7 0.235990 0.456042 0.584347
O O8 0.107850 0.350711 0.945603
O O9 0.112327 0.162031 0.373960
O O10 0.000000 0.500000 0.500000
O O11 0.956915 0.305060 0.377934
O O12 0.881541 0.164263 0.291950
O O13 0.830572 0.232099 0.876543
O O14 0.000000 0.000000 0.500000
O O15 0.702315 0.351934 0.487835
O O16 0.801373 0.018771 0.316246
O O17 0.303900 0.945537 0.073084
#
# Coordination Sequence:
#
# PCOD9012165 Si02
#       8
#     2   2   2   2   2   2   2   2
#     4  10  21  40  68  98 127 161 217 256 319 378
#     4  10  22  39  64  90 127 161 212 262 322 368
#     4  11  25  40  63  94 125 164 215 271 313 370
#     4  12  25  46  65  92 125 173 220 257 311 383
#     4  12  27  43  66  89 135 171 211 261 317 380
#     4   9  21  38  66  96 126 164 206 270 311 379
#     4  11  23  41  62  92 125 169 209 259 320 377
#     4  11  23  42  64  96 128 170 206 262 318 378
#
# _framework density 24.567032999999999
#
# number of rings (size 3 to 8) (size 9 to 14) (size 15 to 20)
#    0.000    1.250    2.500    2.625    7.000    2.000 
#    0.000    1.250    0.000    0.000    0.000    0.000 
#    0.000    0.000    0.000    0.000    0.000    0.000 
#
# Total GULP energy -89527.484104 kJ/mol
# GULP energy per Si atom -5595.467756 kJ/mol
# Density = 2.451112 g / cm^3
# Si number density = 24.567033 Si / 1000 Ang^3
#
#
#
# Elastic Constant Matrix: (Units=GPa)
#
#
# Indices 1 2 3 4 5 6 
#
# 1 50.2134 1.3497 4.6084 -4.6421 -3.9239 1.7300
# 2 1.3497 82.8113 22.6265 10.1957 -10.6909 5.3077
# 3 4.6084 22.6265 127.5882 14.7815 -13.2999 -2.8978
# 4 -4.6421 10.1957 14.7815 34.5555 -3.2437 1.6851
# 5 -3.9239 -10.6909 -13.2999 -3.2437 36.7180 4.7919
# 6 1.7300 5.3077 -2.8978 1.6851 4.7919 22.6918
#
#
#
# Elastic Compliance Matrix: (Units=1/GPa)
#
#
# Indices 1 2 3 4 5 6 
#
# 1 0.020609 -0.000034 -0.000945 0.003537 0.002485 -0.002471
# 2 -0.000034 0.013624 -0.001817 -0.002717 0.003583 -0.003971
# 3 -0.000945 -0.001817 0.008819 -0.003236 0.002093 0.001422
# 4 0.003537 -0.002717 -0.003236 0.031884 0.001590 -0.002751
# 5 0.002485 0.003583 0.002093 0.001590 0.030394 -0.007297
# 6 -0.002471 -0.003971 0.001422 -0.002751 -0.007297 0.047113
#
#
# Mechanical properties :
#
#
# Convention : Reuss Voigt Hill
#
# Bulk Modulus (GPa) = 26.69435 35.30912 31.00173
# Shear Modulus (GPa) = 29.32167 34.26160 31.79164
#
# Velocity S-wave (km/s) = 3.45851 3.73851 3.60123
# Velocity P-wave (km/s) = 5.18053 5.74796 5.47160
#
# Compressibility (1/GPa) = 0.03746111
#
# Stress axis : x y z
#
# Youngs Moduli (GPa) = 48.52259 73.39840 113.38548
#
# Poissons Ratio (x) = 0.00248 0.10717
# Poissons Ratio (y) = 0.00164 0.20599
# Poissons Ratio (z) = 0.04586 0.13335
#
# Static dielectric constant tensor:
#      x y z
#    x 1.963700 0.019830 -0.019690 
#    y 0.019830 1.948210 0.002970 
#    z -0.019690 0.002970 2.058460 
# 
# From -- ./inp_files/48669.got.cif
#   From: 2010.05.17/outbox.cif.g08.bks.cpg/sg2_25_cif.got.tgz:48669.got - 2010.06.03 11:33:40.
