data_PCOD9012723
_publ_section_title
;
Structure prediction by ZEFSAII (Michael W. Deem and Ramdas Pophale) SiO2 
 PCOD9012723
Probable space group: P -1
;
_chemical_formula_sum "Si O2"
_cell_formula_units_Z 16
_cell_length_a 17.468280
_cell_length_b 8.305494
_cell_length_c 10.846625
_cell_angle_alpha 37.733324
_cell_angle_beta 81.207521
_cell_angle_gamma 105.451875
_cell_volume 730.967364
_symmetry_space_group_name_H-M "P -1"
_symmetry_group_IT_number 2
_symmetry_cell_setting 'triclinic'
loop_
_space_group_symop_operation_xyz
x,y,z
-x,-y,-z
loop_
_atom_site_type_symbol
_atom_site_label
_atom_site_fract_x
_atom_site_fract_y
_atom_site_fract_z
Si Si1 0.736549 0.456071 0.990957
Si Si2 0.621636 0.375532 0.849816
Si Si3 0.444610 0.195076 0.437986
Si Si4 0.554622 0.076603 0.644356
Si Si5 0.268563 0.616424 0.407157
Si Si6 0.954861 0.827609 0.749126
Si Si7 0.911353 0.485683 0.581579
Si Si8 0.836726 0.165914 0.060781
O O1 0.751660 0.206924 0.069935
O O2 0.647296 0.203585 0.261452
O O3 0.704610 0.582907 0.813283
O O4 0.847413 0.745343 0.843328
O O5 0.593991 0.594725 0.664979
O O6 0.662281 0.266026 0.803010
O O7 0.523535 0.075035 0.131867
O O8 0.537304 0.311045 0.431897
O O9 0.470864 0.195436 0.289142
O O10 0.660716 0.230789 0.583471
O O11 0.188684 0.677213 0.374493
O O12 0.207219 0.211012 0.674380
O O13 0.918270 0.448376 0.969935
O O14 0.000000 0.000000 0.500000
O O15 0.036182 0.115167 0.648352
O O16 0.000000 0.500000 0.500000
O O17 0.879924 0.292563 0.836950
#
# Coordination Sequence:
#
# PCOD9012723 Si02
#       8
#     2   2   2   2   2   2   2   2
#     4   9  18  36  63  87 115 156 208 245 287 358
#     4  11  19  38  66  88 120 163 204 243 301 367
#     4  10  21  41  59  88 124 162 203 249 296 367
#     4  10  25  38  58  93 128 155 204 249 306 363
#     4  12  23  40  62  92 124 163 202 254 309 361
#     4   8  16  37  59  83 115 157 198 246 291 353
#     4  11  24  40  61  91 127 157 202 258 309 359
#     4   9  20  40  61  87 122 156 206 247 295 363
#
# _framework density 21.888804
#
# number of rings (size 3 to 8) (size 9 to 14) (size 15 to 20)
#    0.750    1.250    2.500    0.750    0.000    4.500 
#    0.000    1.250    0.000    0.000    0.000    0.000 
#    0.000    0.000    0.000    0.000    0.000    0.000 
#
# Total GULP energy -89179.886504 kJ/mol
# GULP energy per Si atom -5573.742907 kJ/mol
# Density = 2.183898 g / cm^3
# Si number density = 21.888804 Si / 1000 Ang^3
#
#
#
# Elastic Constant Matrix: (Units=GPa)
#
#
# Indices 1 2 3 4 5 6 
#
# 1 142.0633 37.1052 28.8896 22.5274 -10.7507 23.0276
# 2 37.1052 58.1301 29.8730 9.4615 -0.2071 29.6986
# 3 28.8896 29.8730 57.6165 16.8835 -18.3599 -3.8395
# 4 22.5274 9.4615 16.8835 15.8701 -0.2483 0.5436
# 5 -10.7507 -0.2071 -18.3599 -0.2483 26.3613 7.0109
# 6 23.0276 29.6986 -3.8395 0.5436 7.0109 42.6426
#
#
#
# Elastic Compliance Matrix: (Units=1/GPa)
#
#
# Indices 1 2 3 4 5 6 
#
# 1 0.011459 -0.004861 0.004514 -0.017913 0.008561 -0.003575
# 2 -0.004861 0.059662 -0.043120 0.018235 -0.020838 -0.039616
# 3 0.004514 -0.043120 0.067982 -0.053329 0.040993 0.027655
# 4 -0.017913 0.018235 -0.053329 0.133726 -0.042362 -0.002568
# 5 0.008561 -0.020838 0.040993 -0.042362 0.068660 0.002832
# 6 -0.003575 -0.039616 0.027655 -0.002568 0.002832 0.055029
#
#
# Mechanical properties :
#
#
# Convention : Reuss Voigt Hill
#
# Bulk Modulus (GPa) = 19.16869 49.94953 34.55911
# Shear Modulus (GPa) = 9.98318 27.77095 18.87706
#
# Velocity S-wave (km/s) = 2.13793 3.56579 2.93986
# Velocity P-wave (km/s) = 3.85625 6.31049 5.22939
#
# Compressibility (1/GPa) = 0.05216840
#
# Stress axis : x y z
#
# Youngs Moduli (GPa) = 87.26978 16.76096 14.70975
#
# Poissons Ratio (x) = 0.08148 -0.06639
# Poissons Ratio (y) = 0.42425 0.63428
# Poissons Ratio (z) = -0.39391 0.72273
#
# Static dielectric constant tensor:
#      x y z
#    x 1.848130 0.024740 -0.006500 
#    y 0.024740 1.824960 -0.009930 
#    z -0.006500 -0.009930 1.808840 
# 
# From -- ./inp_files/328438.got.cif
#   From: 2010.05.17/outbox.cif.g08.bks.cpg/sg2_165_cif.got.tgz:328438.got - 2010.06.03 11:33:40.
