data_PCOD9012707
_publ_section_title
;
Structure prediction by ZEFSAII (Michael W. Deem and Ramdas Pophale) SiO2 
 PCOD9012707
Probable space group: P -1
;
_chemical_formula_sum "Si O2"
_cell_formula_units_Z 16
_cell_length_a 12.135083
_cell_length_b 9.173949
_cell_length_c 15.285441
_cell_angle_alpha 74.078415
_cell_angle_beta 56.993294
_cell_angle_gamma 36.430738
_cell_volume 800.200799
_symmetry_space_group_name_H-M "P -1"
_symmetry_group_IT_number 2
_symmetry_cell_setting 'triclinic'
loop_
_space_group_symop_operation_xyz
x,y,z
-x,-y,-z
loop_
_atom_site_type_symbol
_atom_site_label
_atom_site_fract_x
_atom_site_fract_y
_atom_site_fract_z
Si Si1 0.244314 0.594069 0.405958
Si Si2 0.760307 0.150374 0.310234
Si Si3 0.121051 0.561418 0.296306
Si Si4 0.490334 0.684309 0.951022
Si Si5 0.207067 0.214863 0.188071
Si Si6 0.983932 0.137914 0.062403
Si Si7 0.691835 0.679621 0.025931
Si Si8 0.985254 0.122156 0.359956
O O1 0.508698 0.350705 0.354145
O O2 0.164355 0.534438 0.385714
O O3 0.109260 0.724352 0.533759
O O4 0.169076 0.819874 0.351904
O O5 0.886881 0.132728 0.185700
O O6 0.787383 0.224797 0.374380
O O7 0.903614 0.863902 0.313400
O O8 0.339953 0.438540 0.180204
O O9 0.114568 0.407812 0.274175
O O10 0.500000 0.500000 0.000000
O O11 0.575809 0.692493 0.996720
O O12 0.235207 0.961807 0.995802
O O13 0.098284 0.152040 0.252526
O O14 0.479606 0.948658 0.124403
O O15 0.170125 0.327341 0.090348
O O16 0.832930 0.425532 0.059871
O O17 0.000000 0.000000 0.000000
#
# Coordination Sequence:
#
# PCOD9012707 Si02
#       8
#     2   2   2   2   2   2   2   2
#     4  10  22  40  64  88 109 147 205 253 287 346
#     4  11  21  37  61  88 115 149 197 249 289 339
#     4  10  22  38  57  86 121 155 192 241 291 348
#     4  11  19  34  55  86 120 150 188 240 287 335
#     4  10  21  41  58  81 128 162 185 237 301 347
#     4  12  20  31  58  89 115 152 193 232 287 348
#     4  10  22  37  55  85 122 158 191 234 284 360
#     4  10  22  41  63  85 115 151 194 249 303 341
#
# _framework density 19.994980999999999
#
# number of rings (size 3 to 8) (size 9 to 14) (size 15 to 20)
#    0.000    1.500    2.500    3.375    1.750    0.500 
#    0.000   16.875    0.000    0.000    0.000    0.000 
#    0.000    0.000    0.000    0.000    0.000    0.000 
#
# Total GULP energy -89377.090455 kJ/mol
# GULP energy per Si atom -5586.068153 kJ/mol
# Density = 1.994947 g / cm^3
# Si number density = 19.994981 Si / 1000 Ang^3
#
#
#
# Elastic Constant Matrix: (Units=GPa)
#
#
# Indices 1 2 3 4 5 6 
#
# 1 62.7246 34.0516 21.4062 3.6259 10.2657 -5.2838
# 2 34.0516 96.0655 11.9181 8.4360 4.4065 -10.1662
# 3 21.4062 11.9181 36.0780 8.1784 14.0269 3.3133
# 4 3.6259 8.4360 8.1784 27.0255 3.9916 -5.4338
# 5 10.2657 4.4065 14.0269 3.9916 36.7654 2.7340
# 6 -5.2838 -10.1662 3.3133 -5.4338 2.7340 40.1628
#
#
#
# Elastic Compliance Matrix: (Units=1/GPa)
#
#
# Indices 1 2 3 4 5 6 
#
# 1 0.024363 -0.006986 -0.012546 0.003594 -0.001798 0.003080
# 2 -0.006986 0.013330 0.000013 -0.002895 0.000512 0.002027
# 3 -0.012546 0.000013 0.042431 -0.010697 -0.011091 -0.005840
# 4 0.003594 -0.002895 -0.010697 0.042198 -0.001636 0.006443
# 5 -0.001798 0.000512 -0.011091 -0.001636 0.032169 -0.001603
# 6 0.003080 0.002027 -0.005840 0.006443 -0.001603 0.027280
#
#
# Mechanical properties :
#
#
# Convention : Reuss Voigt Hill
#
# Bulk Modulus (GPa) = 24.33982 36.62444 30.48213
# Shear Modulus (GPa) = 21.32173 29.29022 25.30597
#
# Velocity S-wave (km/s) = 3.26905 3.83153 3.56141
# Velocity P-wave (km/s) = 5.14279 6.15879 5.67358
#
# Compressibility (1/GPa) = 0.04108493
#
# Stress axis : x y z
#
# Youngs Moduli (GPa) = 41.04581 75.02048 23.56794
#
# Poissons Ratio (x) = 0.52413 0.29568
# Poissons Ratio (y) = 0.28676 -0.00031
# Poissons Ratio (z) = 0.51495 -0.00098
#
# Static dielectric constant tensor:
#      x y z
#    x 1.705230 -0.118900 -0.033130 
#    y -0.118900 -0.446830 -1.001100 
#    z -0.033130 -1.001100 1.250240 
# 
# From -- ./inp_files/306235.got.cif
#   From: 2010.05.17/outbox.cif.g08.bks.cpg/sg2_154_cif.got.tgz:306235.got - 2010.06.03 11:33:40.
