data_PCOD9012704
_publ_section_title
;
Structure prediction by ZEFSAII (Michael W. Deem and Ramdas Pophale) SiO2 
 PCOD9012704
Probable space group: P -1
;
_chemical_formula_sum "Si O2"
_cell_formula_units_Z 16
_cell_length_a 12.492834
_cell_length_b 8.072195
_cell_length_c 13.783001
_cell_angle_alpha 42.327844
_cell_angle_beta 115.460424
_cell_angle_gamma 94.127152
_cell_volume 772.879013
_symmetry_space_group_name_H-M "P -1"
_symmetry_group_IT_number 2
_symmetry_cell_setting 'triclinic'
loop_
_space_group_symop_operation_xyz
x,y,z
-x,-y,-z
loop_
_atom_site_type_symbol
_atom_site_label
_atom_site_fract_x
_atom_site_fract_y
_atom_site_fract_z
Si Si1 0.820215 0.890033 0.996286
Si Si2 0.694707 0.364323 0.601534
Si Si3 0.866868 0.925928 0.309516
Si Si4 0.888273 0.462085 0.037165
Si Si5 0.370880 0.948586 0.972670
Si Si6 0.952354 0.387705 0.659425
Si Si7 0.512477 0.859617 0.424181
Si Si8 0.622901 0.613383 0.771386
O O1 0.834894 0.694061 0.996579
O O2 0.965136 0.777710 0.145444
O O3 0.724008 0.889831 0.045884
O O4 0.754029 0.191627 0.797245
O O5 0.821471 0.348891 0.603667
O O6 0.600232 0.671653 0.455412
O O7 0.608985 0.225830 0.578717
O O8 0.908758 0.710584 0.506798
O O9 0.951130 0.749702 0.330360
O O10 0.906190 0.180700 0.218618
O O11 0.719127 0.002189 0.180967
O O12 0.773831 0.496383 0.903178
O O13 0.000000 0.500000 0.000000
O O14 0.417319 0.632591 0.147725
O O15 0.500000 0.000000 0.000000
O O16 0.595870 0.771954 0.591930
O O17 0.453987 0.180436 0.262304
#
# Coordination Sequence:
#
# PCOD9012704 Si02
#       8
#     2   2   2   2   2   2   2   2
#     4  11  22  40  62  93 123 158 219 257 302 381
#     4  11  21  37  63  91 121 164 208 256 322 365
#     4   9  22  42  58  92 126 155 216 253 300 392
#     4  11  23  40  67  92 127 166 201 260 317 359
#     4  10  22  41  67  86 125 170 200 254 323 370
#     4  10  22  39  63  87 123 165 204 259 313 369
#     4  10  22  36  59  89 128 154 204 265 296 373
#     4  10  21  41  56  93 125 153 211 255 297 378
#
# _framework density 20.701816999999998
#
# number of rings (size 3 to 8) (size 9 to 14) (size 15 to 20)
#    0.000    1.750    2.500    1.125    3.500    0.500 
#    2.250    1.250    0.000    0.000    0.000    0.000 
#    0.000    0.000    0.000    0.000    0.000    0.000 
#
# Total GULP energy -89150.207841 kJ/mol
# GULP energy per Si atom -5571.887990 kJ/mol
# Density = 2.065470 g / cm^3
# Si number density = 20.701817 Si / 1000 Ang^3
#
#
#
# Elastic Constant Matrix: (Units=GPa)
#
#
# Indices 1 2 3 4 5 6 
#
# 1 89.0832 28.7615 20.0890 -11.3379 17.1473 22.6459
# 2 28.7615 72.4181 -2.7902 -22.0480 4.6280 -1.1710
# 3 20.0890 -2.7902 58.6564 -12.8415 5.8994 4.9823
# 4 -11.3379 -22.0480 -12.8415 33.0455 0.0071 3.6034
# 5 17.1473 4.6280 5.8994 0.0071 18.3587 4.2865
# 6 22.6459 -1.1710 4.9823 3.6034 4.2865 21.9975
#
#
#
# Elastic Compliance Matrix: (Units=1/GPa)
#
#
# Indices 1 2 3 4 5 6 
#
# 1 0.023101 -0.007845 -0.004440 0.003276 -0.013235 -0.021151
# 2 -0.007845 0.021442 0.006294 0.013419 -0.001479 0.005882
# 3 -0.004440 0.006294 0.021854 0.011286 -0.004217 -0.001071
# 4 0.003276 0.013419 0.011286 0.045957 -0.007451 -0.011291
# 5 -0.013235 -0.001479 -0.004217 -0.007451 0.067985 0.002474
# 6 -0.021151 0.005882 -0.001071 -0.011291 0.002474 0.069158
#
#
# Mechanical properties :
#
#
# Convention : Reuss Voigt Hill
#
# Bulk Modulus (GPa) = 18.37719 34.69759 26.53739
# Shear Modulus (GPa) = 17.88156 26.28682 22.08419
#
# Velocity S-wave (km/s) = 2.94218 3.56727 3.26970
# Velocity P-wave (km/s) = 4.52087 5.81070 5.20589
#
# Compressibility (1/GPa) = 0.05441528
#
# Stress axis : x y z
#
# Youngs Moduli (GPa) = 43.28845 46.63744 45.75744
#
# Poissons Ratio (x) = 0.36586 0.20316
# Poissons Ratio (y) = 0.33958 -0.28798
# Poissons Ratio (z) = 0.19220 -0.29352
#
# Static dielectric constant tensor:
#      x y z
#    x 1.752340 -0.000180 -0.032910 
#    y -0.000180 1.751220 -0.013020 
#    z -0.032910 -0.013020 1.854470 
# 
# From -- ./inp_files/338030.got.cif
#   From: 2010.05.17/outbox.cif.g08.bks.cpg/sg2_170_cif.got.tgz:338030.got - 2010.06.03 11:33:40.
