data_PCOD9012070
_publ_section_title
;
Structure prediction by ZEFSAII (Michael W. Deem and Ramdas Pophale) SiO2 
 PCOD9012070
Probable space group: P -1
;
_chemical_formula_sum "Si O2"
_cell_formula_units_Z 12
_cell_length_a 9.530277
_cell_length_b 10.852369
_cell_length_c 19.008066
_cell_angle_alpha 35.365034
_cell_angle_beta 149.560538
_cell_angle_gamma 141.051143
_cell_volume 557.483031
_symmetry_space_group_name_H-M "P -1"
_symmetry_group_IT_number 2
_symmetry_cell_setting 'triclinic'
loop_
_space_group_symop_operation_xyz
x,y,z
-x,-y,-z
loop_
_atom_site_type_symbol
_atom_site_label
_atom_site_fract_x
_atom_site_fract_y
_atom_site_fract_z
Si Si1 0.319801 0.562471 0.955895
Si Si2 0.684723 0.210084 0.564127
Si Si3 0.034589 0.091010 0.393687
Si Si4 0.549315 0.343301 0.878494
Si Si5 0.082842 0.300203 0.575856
Si Si6 0.077127 0.211105 0.120830
O O1 0.506605 0.671758 0.054591
O O2 0.120173 0.338753 0.006230
O O3 0.500000 0.500000 0.000000
O O4 0.124999 0.717931 0.774253
O O5 0.263905 0.399994 0.165814
O O6 0.848263 0.459622 0.541527
O O7 0.187139 0.993546 0.263808
O O8 0.766186 0.229722 0.506605
O O9 0.362910 0.166362 0.473504
O O10 0.885362 0.886244 0.375756
O O11 0.000000 0.000000 0.500000
O O12 0.296777 0.310694 0.729052
O O13 0.758493 0.190243 0.019811
#
# Coordination Sequence:
#
# PCOD9012070 Si02
#       6
#     2   2   2   2   2   2
#     4  10  21  40  68  94 126 176 220 268 330 394
#     4  11  25  41  69 101 137 173 223 273 334 397
#     4  12  27  46  68  95 140 180 217 279 340 393
#     4   9  21  41  64 102 125 171 226 265 331 382
#     4  11  26  41  71 102 132 177 223 279 324 404
#     4   9  20  40  69  97 134 176 212 281 327 391
#
# _framework density 21.525317999999999
#
# number of rings (size 3 to 8) (size 9 to 14) (size 15 to 20)
#    1.000    0.667    0.000    3.500    7.000    3.333 
#    0.000    1.667    0.000    6.000    0.000    0.000 
#    0.000    0.000    0.000    0.000    0.000    0.000 
#
# Total GULP energy -66978.071913 kJ/mol
# GULP energy per Si atom -5581.505993 kJ/mol
# Density = 2.147632 g / cm^3
# Si number density = 21.525318 Si / 1000 Ang^3
#
#
#
# Elastic Constant Matrix: (Units=GPa)
#
#
# Indices 1 2 3 4 5 6 
#
# 1 184.6788 77.0767 93.7900 -5.0390 13.0514 -14.7758
# 2 77.0767 101.6592 86.9768 -25.1898 7.1262 10.3950
# 3 93.7900 86.9768 191.8597 -32.6785 21.9540 -11.1036
# 4 -5.0390 -25.1898 -32.6785 53.2416 -6.6827 3.9499
# 5 13.0514 7.1262 21.9540 -6.6827 43.3621 -7.9298
# 6 -14.7758 10.3950 -11.1036 3.9499 -7.9298 20.1774
#
#
#
# Elastic Compliance Matrix: (Units=1/GPa)
#
#
# Indices 1 2 3 4 5 6 
#
# 1 0.011331 -0.010860 -0.000777 -0.005563 0.000616 0.014796
# 2 -0.010860 0.031723 -0.008916 0.010673 -0.001625 -0.031931
# 3 -0.000777 -0.008916 0.010581 0.001314 -0.001833 0.008869
# 4 -0.005563 0.010673 0.001314 0.025199 0.000666 -0.013521
# 5 0.000616 -0.001625 -0.001833 0.000666 0.026075 0.010397
# 6 0.014796 -0.031931 0.008869 -0.013521 0.010397 0.088459
#
#
# Mechanical properties :
#
#
# Convention : Reuss Voigt Hill
#
# Bulk Modulus (GPa) = 79.82770 110.43160 95.12965
# Shear Modulus (GPa) = 20.95098 38.04649 29.49874
#
# Velocity S-wave (km/s) = 3.12319 4.20875 3.70594
# Velocity P-wave (km/s) = 7.08320 8.66214 7.91215
#
# Compressibility (1/GPa) = 0.01252698
#
# Stress axis : x y z
#
# Youngs Moduli (GPa) = 88.25598 31.52271 94.50735
#
# Poissons Ratio (x) = 0.34235 0.07347
# Poissons Ratio (y) = 0.95849 0.84265
# Poissons Ratio (z) = 0.06861 0.28107
#
# Static dielectric constant tensor:
#      x y z
#    x 1.768810 0.036520 0.003150 
#    y 0.036520 1.858720 0.003490 
#    z 0.003150 0.003490 1.823640 
# 
# From -- ./inp_files/557895.got.cif
#   From: 2010.05.17/outbox.cif.g08.bks.cpg/sg2_279_cif.got.tgz:557895.got - 2010.06.03 11:33:40.
