data_PCOD9012653
_publ_section_title
;
Structure prediction by ZEFSAII (Michael W. Deem and Ramdas Pophale) SiO2 
 PCOD9012653
Probable space group: P -1
;
_chemical_formula_sum "Si O2"
_cell_formula_units_Z 14
_cell_length_a 11.505055
_cell_length_b 11.558728
_cell_length_c 11.405111
_cell_angle_alpha 27.770670
_cell_angle_beta 120.911284
_cell_angle_gamma 109.223163
_cell_volume 575.755635
_symmetry_space_group_name_H-M "P -1"
_symmetry_group_IT_number 2
_symmetry_cell_setting 'triclinic'
loop_
_space_group_symop_operation_xyz
x,y,z
-x,-y,-z
loop_
_atom_site_type_symbol
_atom_site_label
_atom_site_fract_x
_atom_site_fract_y
_atom_site_fract_z
Si Si1 0.902749 0.331350 0.557167
Si Si2 0.804249 0.302002 0.270581
Si Si3 0.900113 0.749283 0.887015
Si Si4 0.856369 0.208973 0.884343
Si Si5 0.508633 0.390765 0.922741
Si Si6 0.577710 0.221613 0.852295
Si Si7 0.612512 0.997715 0.661937
O O1 0.833353 0.380863 0.348291
O O2 0.807407 0.342282 0.613981
O O3 0.000000 0.500000 0.500000
O O4 0.017331 0.049950 0.849072
O O5 0.637198 0.354438 0.115385
O O6 0.886258 0.994411 0.574892
O O7 0.857000 0.502989 0.039730
O O8 0.771445 0.892088 0.785338
O O9 0.056652 0.648401 0.116889
O O10 0.733046 0.135770 0.951998
O O11 0.415956 0.201293 0.079094
O O12 0.584070 0.283917 0.935933
O O13 0.429806 0.700384 0.593600
O O14 0.500000 0.500000 0.500000
O O15 0.500000 0.000000 0.000000
O O16 0.500000 0.000000 0.500000
#
# Coordination Sequence:
#
# PCOD9012653 Si02
#       7
#     2   2   2   2   2   2   2
#     4  10  21  40  73 106 142 180 237 299 370 418
#     4  11  21  38  64 108 139 177 225 288 359 423
#     4  11  22  38  67 102 145 174 226 293 356 419
#     4  10  25  46  67 103 141 188 244 300 358 431
#     4  12  25  45  70 104 149 187 243 295 363 433
#     4  12  31  54  73  99 144 201 254 293 362 446
#     4  12  22  41  71 110 149 181 233 301 367 432
#
# _framework density 24.31587
#
# number of rings (size 3 to 8) (size 9 to 14) (size 15 to 20)
#    0.000    0.857    4.286    2.143    2.000    8.000 
#    0.000    3.571    0.000    0.000    0.000    0.000 
#    0.000    0.000    0.000    0.000    0.000    0.000 
#
# Total GULP energy -78283.636483 kJ/mol
# GULP energy per Si atom -5591.688320 kJ/mol
# Density = 2.426053 g / cm^3
# Si number density = 24.315870 Si / 1000 Ang^3
#
#
#
# Elastic Constant Matrix: (Units=GPa)
#
#
# Indices 1 2 3 4 5 6 
#
# 1 139.5668 45.8669 22.7318 1.9557 -17.3602 21.6147
# 2 45.8669 98.2627 39.5788 -1.0867 -7.1577 31.4087
# 3 22.7318 39.5788 124.0865 -17.0424 -21.5845 15.0727
# 4 1.9557 -1.0867 -17.0424 41.3334 18.4296 -3.4115
# 5 -17.3602 -7.1577 -21.5845 18.4296 33.5281 -0.8302
# 6 21.6147 31.4087 15.0727 -3.4115 -0.8302 44.6992
#
#
#
# Elastic Compliance Matrix: (Units=1/GPa)
#
#
# Indices 1 2 3 4 5 6 
#
# 1 0.009392 -0.003283 0.000223 -0.003357 0.006090 -0.002453
# 2 -0.003283 0.015867 -0.003653 -0.001645 0.000030 -0.008455
# 3 0.000223 -0.003653 0.010408 0.001901 0.004971 -0.000813
# 4 -0.003357 -0.001645 0.001901 0.034166 -0.019537 0.004383
# 5 0.006090 0.000030 0.004971 -0.019537 0.046794 -0.005264
# 6 -0.002453 -0.008455 -0.000813 0.004383 -0.005264 0.030010
#
#
# Mechanical properties :
#
#
# Convention : Reuss Voigt Hill
#
# Bulk Modulus (GPa) = 44.96387 64.25234 54.60810
# Shear Modulus (GPa) = 29.85481 40.82805 35.34143
#
# Velocity S-wave (km/s) = 3.50779 4.10209 3.81652
# Velocity P-wave (km/s) = 5.91082 6.99411 6.47516
#
# Compressibility (1/GPa) = 0.02224008
#
# Stress axis : x y z
#
# Youngs Moduli (GPa) = 106.47188 63.02214 96.08195
#
# Poissons Ratio (x) = 0.20692 -0.02142
# Poissons Ratio (y) = 0.34958 0.35101
# Poissons Ratio (z) = -0.02374 0.23024
#
# Static dielectric constant tensor:
#      x y z
#    x 1.982540 0.092710 -0.062980 
#    y 0.092710 2.110240 -0.043440 
#    z -0.062980 -0.043440 2.092440 
# 
# From -- ./inp_files/427287.got.cif
#   From: 2010.05.17/outbox.cif.g08.bks.cpg/sg2_214_cif.got.tgz:427287.got - 2010.06.03 11:33:40.
