data_PCOD9012615
_publ_section_title
;
Structure prediction by ZEFSAII (Michael W. Deem and Ramdas Pophale) SiO2 
 PCOD9012615
Probable space group: P -1
;
_chemical_formula_sum "Si O2"
_cell_formula_units_Z 12
_cell_length_a 9.223741
_cell_length_b 7.870596
_cell_length_c 15.557431
_cell_angle_alpha 66.951070
_cell_angle_beta 148.930190
_cell_angle_gamma 104.302291
_cell_volume 526.983824
_symmetry_space_group_name_H-M "P -1"
_symmetry_group_IT_number 2
_symmetry_cell_setting 'triclinic'
loop_
_space_group_symop_operation_xyz
x,y,z
-x,-y,-z
loop_
_atom_site_type_symbol
_atom_site_label
_atom_site_fract_x
_atom_site_fract_y
_atom_site_fract_z
Si Si1 0.819465 0.030176 0.680456
Si Si2 0.729457 0.455712 0.317961
Si Si3 0.134993 0.381145 0.385110
Si Si4 0.759976 0.341076 0.736301
Si Si5 0.845596 0.045880 0.504755
Si Si6 0.864612 0.314766 0.981378
O O1 0.810427 0.198313 0.710390
O O2 0.971622 0.070104 0.659730
O O3 0.500000 0.000000 0.500000
O O4 0.972819 0.843261 0.842828
O O5 0.661023 0.252731 0.352942
O O6 0.456395 0.614498 0.161957
O O7 0.000000 0.500000 0.500000
O O8 0.855219 0.433463 0.290112
O O9 0.425108 0.436304 0.559364
O O10 0.090198 0.486359 0.250694
O O11 0.235722 0.157047 0.480859
O O12 0.856720 0.241510 0.893974
O O13 0.000000 0.000000 0.500000
O O14 0.000000 0.500000 0.000000
#
# Coordination Sequence:
#
# PCOD9012615 Si02
#       6
#     2   2   2   2   2   2
#     4  12  24  44  70 100 141 191 237 291 356 423
#     4  11  22  44  71 102 141 183 236 289 358 419
#     4  10  21  40  72 102 135 190 232 286 356 419
#     4  11  23  43  73 103 146 185 246 287 357 428
#     4  10  22  41  70 102 135 183 234 289 354 418
#     4  12  27  44  71 110 145 186 240 297 354 427
#
# _framework density 22.771097999999999
#
# number of rings (size 3 to 8) (size 9 to 14) (size 15 to 20)
#    0.000    1.000    3.333    3.500    4.667    0.000 
#    0.000   12.500    0.000    0.000    0.000    0.000 
#    0.000    0.000    0.000    0.000    0.000    0.000 
#
# Total GULP energy -66905.941152 kJ/mol
# GULP energy per Si atom -5575.495096 kJ/mol
# Density = 2.271927 g / cm^3
# Si number density = 22.771098 Si / 1000 Ang^3
#
#
#
# Elastic Constant Matrix: (Units=GPa)
#
#
# Indices 1 2 3 4 5 6 
#
# 1 171.5133 48.5565 62.6841 -16.9159 -30.0735 1.0512
# 2 48.5565 103.9141 40.7881 -30.8018 0.9866 -3.7213
# 3 62.6841 40.7881 130.0518 -38.9368 -12.8937 1.3337
# 4 -16.9159 -30.8018 -38.9368 37.9748 9.6967 -13.0776
# 5 -30.0735 0.9866 -12.8937 9.6967 34.8048 4.3843
# 6 1.0512 -3.7213 1.3337 -13.0776 4.3843 32.1730
#
#
#
# Elastic Compliance Matrix: (Units=1/GPa)
#
#
# Indices 1 2 3 4 5 6 
#
# 1 0.010518 -0.006594 -0.005188 -0.011318 0.011394 -0.007044
# 2 -0.006594 0.019297 0.002757 0.023784 -0.013594 0.013853
# 3 -0.005188 0.002757 0.014361 0.018950 -0.005573 0.008355
# 4 -0.011318 0.023784 0.018950 0.081683 -0.031203 0.039790
# 5 0.011394 -0.013594 -0.005573 -0.031203 0.048232 -0.020970
# 6 -0.007044 0.013853 0.008355 0.039790 -0.020970 0.051599
#
#
# Mechanical properties :
#
#
# Convention : Reuss Voigt Hill
#
# Bulk Modulus (GPa) = 38.27658 78.83739 58.55698
# Shear Modulus (GPa) = 19.80598 37.88724 28.84661
#
# Velocity S-wave (km/s) = 2.95241 4.08343 3.56309
# Velocity P-wave (km/s) = 5.33555 7.54516 6.53443
#
# Compressibility (1/GPa) = 0.02612564
#
# Stress axis : x y z
#
# Youngs Moduli (GPa) = 95.07446 51.82057 69.63476
#
# Poissons Ratio (x) = 0.34168 0.36129
# Poissons Ratio (y) = 0.62688 -0.19196
# Poissons Ratio (z) = 0.49328 -0.14286
#
# Static dielectric constant tensor:
#      x y z
#    x 1.931210 -0.008480 -0.042850 
#    y -0.008480 1.962850 0.089610 
#    z -0.042850 0.089610 1.857010 
# 
# From -- ./inp_files/294396.got.cif
#   From: 2010.05.17/outbox.cif.g08.bks.cpg/sg2_148_cif.got.tgz:294396.got - 2010.06.03 11:33:40.
