data_PCOD9012637
_publ_section_title
;
Structure prediction by ZEFSAII (Michael W. Deem and Ramdas Pophale) SiO2 
 PCOD9012637
Probable space group: P -1
;
_chemical_formula_sum "Si O2"
_cell_formula_units_Z 14
_cell_length_a 12.058481
_cell_length_b 10.688084
_cell_length_c 8.326327
_cell_angle_alpha 113.406256
_cell_angle_beta 127.876508
_cell_angle_gamma 44.018980
_cell_volume 586.691263
_symmetry_space_group_name_H-M "P -1"
_symmetry_group_IT_number 2
_symmetry_cell_setting 'triclinic'
loop_
_space_group_symop_operation_xyz
x,y,z
-x,-y,-z
loop_
_atom_site_type_symbol
_atom_site_label
_atom_site_fract_x
_atom_site_fract_y
_atom_site_fract_z
Si Si1 0.560612 0.551295 0.229751
Si Si2 0.893079 0.672465 0.873910
Si Si3 0.105082 0.101709 0.764705
Si Si4 0.300213 0.748543 0.577544
Si Si5 0.510958 0.175732 0.477033
Si Si6 0.649174 0.879556 0.215298
Si Si7 0.141269 0.508129 0.718133
O O1 0.564351 0.451927 0.336397
O O2 0.459846 0.755549 0.299299
O O3 0.771302 0.450012 0.313435
O O4 0.500000 0.500000 0.000000
O O5 0.709817 0.709674 0.672664
O O6 0.029207 0.633425 0.833699
O O7 0.837764 0.843534 0.006430
O O8 0.000000 0.500000 0.000000
O O9 0.163731 0.162473 0.699262
O O10 0.888402 0.199978 0.632256
O O11 0.223307 0.890947 0.728533
O O12 0.406048 0.780237 0.566355
O O13 0.596255 0.976717 0.391714
O O14 0.691586 0.693382 0.170348
O O15 0.500000 0.000000 0.000000
O O16 0.000000 0.500000 0.500000
#
# Coordination Sequence:
#
# PCOD9012637 Si02
#       7
#     2   2   2   2   2   2   2
#     4  12  28  42  61  97 144 179 214 275 349 405
#     4  12  22  40  73 100 128 178 235 281 336 404
#     4  10  21  40  72  98 127 171 235 277 330 394
#     4  10  24  44  67  96 137 178 225 275 334 419
#     4  11  24  44  70 100 128 178 237 279 328 406
#     4  11  22  42  76 103 129 175 237 287 330 404
#     4  12  26  46  67 100 145 174 218 289 352 393
#
# _framework density 23.862635999999998
#
# number of rings (size 3 to 8) (size 9 to 14) (size 15 to 20)
#    0.000    0.857    4.286    2.143    8.000    0.571 
#    2.571    0.714    0.000    0.000    0.000    0.000 
#    0.000    0.000    0.000    0.000    0.000    0.000 
#
# Total GULP energy -78255.055274 kJ/mol
# GULP energy per Si atom -5589.646805 kJ/mol
# Density = 2.380832 g / cm^3
# Si number density = 23.862636 Si / 1000 Ang^3
#
#
#
# Elastic Constant Matrix: (Units=GPa)
#
#
# Indices 1 2 3 4 5 6 
#
# 1 85.9872 6.6693 5.8757 6.6706 8.6520 -15.8184
# 2 6.6693 70.6280 39.0941 21.0272 -7.7258 -13.3102
# 3 5.8757 39.0941 115.3169 31.5767 11.0288 -10.6773
# 4 6.6706 21.0272 31.5767 49.7788 -8.5119 -13.9782
# 5 8.6520 -7.7258 11.0288 -8.5119 36.6090 10.1019
# 6 -15.8184 -13.3102 -10.6773 -13.9782 10.1019 35.3085
#
#
#
# Elastic Compliance Matrix: (Units=1/GPa)
#
#
# Indices 1 2 3 4 5 6 
#
# 1 0.013692 -0.000867 0.001192 -0.001178 -0.006107 0.007449
# 2 -0.000867 0.019386 -0.005990 -0.002712 0.004730 0.002682
# 3 0.001192 -0.005990 0.013458 -0.006984 -0.007717 0.001789
# 4 -0.001178 -0.002712 -0.006984 0.028598 0.006889 0.005689
# 5 -0.006107 0.004730 -0.007717 0.006889 0.036739 -0.011070
# 6 0.007449 0.002682 0.001789 0.005689 -0.011070 0.038630
#
#
# Mechanical properties :
#
#
# Convention : Reuss Voigt Hill
#
# Bulk Modulus (GPa) = 28.40284 41.69004 35.04644
# Shear Modulus (GPa) = 28.80769 39.02546 33.91658
#
# Velocity S-wave (km/s) = 3.47829 4.04842 3.77414
# Velocity P-wave (km/s) = 5.29715 6.27389 5.80610
#
# Compressibility (1/GPa) = 0.03520774
#
# Stress axis : x y z
#
# Youngs Moduli (GPa) = 73.03785 51.58396 74.30748
#
# Poissons Ratio (x) = 0.04470 -0.08861
# Poissons Ratio (y) = 0.06329 0.44507
# Poissons Ratio (z) = -0.08709 0.30896
#
# Static dielectric constant tensor:
#      x y z
#    x 1.955110 0.020120 -0.010740 
#    y 0.020120 1.947730 0.021240 
#    z -0.010740 0.021240 1.917020 
# 
# From -- ./inp_files/176760.got.cif
#   From: 2010.05.17/outbox.cif.g08.bks.cpg/sg2_89_cif.got.tgz:176760.got - 2010.06.03 11:33:40.
