data_PCOD9012268
_publ_section_title
;
Structure prediction by ZEFSAII (Michael W. Deem and Ramdas Pophale) SiO2 
 PCOD9012268
Probable space group: P -1
;
_chemical_formula_sum "Si O2"
_cell_formula_units_Z 14
_cell_length_a 5.465660
_cell_length_b 5.372165
_cell_length_c 23.504261
_cell_angle_alpha 62.208295
_cell_angle_beta 64.837107
_cell_angle_gamma 82.247575
_cell_volume 550.862553
_symmetry_space_group_name_H-M "P -1"
_symmetry_group_IT_number 2
_symmetry_cell_setting 'triclinic'
loop_
_space_group_symop_operation_xyz
x,y,z
-x,-y,-z
loop_
_atom_site_type_symbol
_atom_site_label
_atom_site_fract_x
_atom_site_fract_y
_atom_site_fract_z
Si Si1 0.030285 0.953791 0.913794
Si Si2 0.394342 0.433853 0.954486
Si Si3 0.472471 0.399938 0.826490
Si Si4 0.318868 0.596106 0.453551
Si Si5 0.071279 0.906178 0.215892
Si Si6 0.047133 0.265021 0.288126
Si Si7 0.451439 0.863281 0.581407
O O1 0.217450 0.698380 0.932838
O O2 0.166660 0.270382 0.875628
O O3 0.962717 0.933875 0.855997
O O4 0.778211 0.867892 0.988666
O O5 0.569075 0.419191 0.881021
O O6 0.500000 0.500000 0.000000
O O7 0.611120 0.150141 0.806291
O O8 0.624112 0.671279 0.751698
O O9 0.500000 0.500000 0.500000
O O10 0.435008 0.441751 0.404031
O O11 0.000000 0.500000 0.500000
O O12 0.380007 0.931837 0.413434
O O13 0.950148 0.581579 0.256108
O O14 0.979171 0.063872 0.263041
O O15 0.865084 0.148370 0.370618
O O16 0.500000 0.000000 0.500000
#
# Coordination Sequence:
#
# PCOD9012268 Si02
#       7
#     2   2   2   2   2   2   2
#     4  11  23  39  64  97 127 178 227 277 337 407
#     4  11  24  40  65  96 134 171 228 281 346 393
#     4  10  23  40  65  90 138 171 225 273 344 397
#     4  10  21  40  69 104 144 181 227 291 357 423
#     4  10  24  42  67  89 138 173 223 270 338 398
#     4  10  22  44  67  95 137 178 222 281 338 413
#     4  10  21  41  73 101 139 179 233 290 355 423
#
# _framework density 25.414688999999999
#
# number of rings (size 3 to 8) (size 9 to 14) (size 15 to 20)
#    0.857    0.857    0.000    4.286    2.000    3.429 
#    0.000    8.571    3.143    0.000    0.000    0.000 
#    0.000    0.000    0.000    0.000    0.000    0.000 
#
# Total GULP energy -78110.924183 kJ/mol
# GULP energy per Si atom -5579.351727 kJ/mol
# Density = 2.535684 g / cm^3
# Si number density = 25.414689 Si / 1000 Ang^3
#
#
#
# Elastic Constant Matrix: (Units=GPa)
#
#
# Indices 1 2 3 4 5 6 
#
# 1 54.9494 20.2616 12.3078 -4.4402 -19.2693 1.4282
# 2 20.2616 161.3283 32.5180 22.1769 -8.4337 29.4889
# 3 12.3078 32.5180 171.8178 7.9206 -25.4962 12.9588
# 4 -4.4402 22.1769 7.9206 33.0425 -3.6348 -3.2572
# 5 -19.2693 -8.4337 -25.4962 -3.6348 25.4780 -12.1738
# 6 1.4282 29.4889 12.9588 -3.2572 -12.1738 31.6331
#
#
#
# Elastic Compliance Matrix: (Units=1/GPa)
#
#
# Indices 1 2 3 4 5 6 
#
# 1 0.036342 -0.009768 0.002697 0.017649 0.040896 0.023916
# 2 -0.009768 0.011756 -0.001958 -0.012064 -0.015209 -0.016811
# 3 0.002697 -0.001958 0.007232 0.001334 0.010149 0.002784
# 4 0.017649 -0.012064 0.001334 0.046263 0.029772 0.026124
# 5 0.040896 -0.015209 0.010149 0.029772 0.104053 0.051284
# 6 0.023916 -0.016811 0.002784 0.026124 0.051284 0.067490
#
#
# Mechanical properties :
#
#
# Convention : Reuss Voigt Hill
#
# Bulk Modulus (GPa) = 26.82974 57.58559 42.20767
# Shear Modulus (GPa) = 16.46800 39.56459 28.01629
#
# Velocity S-wave (km/s) = 2.54829 3.94986 3.32379
# Velocity P-wave (km/s) = 4.38612 6.59617 5.60123
#
# Compressibility (1/GPa) = 0.03727207
#
# Stress axis : x y z
#
# Youngs Moduli (GPa) = 27.51631 85.06188 138.27229
#
# Poissons Ratio (x) = 0.83085 -0.37286
# Poissons Ratio (y) = 0.26877 0.27075
# Poissons Ratio (z) = -0.07420 0.16656
#
# Static dielectric constant tensor:
#      x y z
#    x 2.065890 0.035230 -0.108010 
#    y 0.035230 2.068450 0.003610 
#    z -0.108010 0.003610 1.992470 
# 
# From -- ./inp_files/614669.got.cif
#   From: 2010.05.17/outbox.cif.g08.bks.cpg/sg2_308_cif.got.tgz:614669.got - 2010.06.03 11:33:40.
