data_PCOD9012445
_publ_section_title
;
Structure prediction by ZEFSAII (Michael W. Deem and Ramdas Pophale) SiO2 
 PCOD9012445
Probable space group: P -1
;
_chemical_formula_sum "Si O2"
_cell_formula_units_Z 16
_cell_length_a 17.587068
_cell_length_b 19.849344
_cell_length_c 9.843705
_cell_angle_alpha 35.753765
_cell_angle_beta 155.812056
_cell_angle_gamma 150.689601
_cell_volume 687.037930
_symmetry_space_group_name_H-M "P -1"
_symmetry_group_IT_number 2
_symmetry_cell_setting 'triclinic'
loop_
_space_group_symop_operation_xyz
x,y,z
-x,-y,-z
loop_
_atom_site_type_symbol
_atom_site_label
_atom_site_fract_x
_atom_site_fract_y
_atom_site_fract_z
Si Si1 0.371249 0.146552 0.604300
Si Si2 0.566570 0.438332 0.541954
Si Si3 0.428549 0.169657 0.350632
Si Si4 0.539176 0.958879 0.817546
Si Si5 0.853697 0.693438 0.742365
Si Si6 0.302318 0.549562 0.786613
Si Si7 0.133519 0.697857 0.446232
Si Si8 0.109506 0.061400 0.758905
O O1 0.540395 0.309961 0.632170
O O2 0.354441 0.114576 0.470973
O O3 0.451261 0.076449 0.952859
O O4 0.119527 0.083738 0.349070
O O5 0.799681 0.563387 0.774336
O O6 0.390051 0.360082 0.505964
O O7 0.467060 0.507035 0.175808
O O8 0.446538 0.899031 0.393902
O O9 0.586526 0.334764 0.335838
O O10 0.230625 0.124917 0.995346
O O11 0.304949 0.840092 0.565821
O O12 0.725889 0.955491 0.041116
O O13 0.932411 0.829686 0.560618
O O14 0.004414 0.708104 0.090370
O O15 0.259297 0.626824 0.712497
O O16 0.064488 0.410962 0.599215
#
# Coordination Sequence:
#
# PCOD9012445 Si02
#       8
#     2   2   2   2   2   2   2   2
#     4  12  29  45  69 102 147 187 227 286 355 413
#     4  10  21  42  68  98 138 176 233 286 342 406
#     4  12  27  48  66 105 148 181 225 292 355 414
#     4  12  26  46  72 102 139 185 240 286 337 413
#     4  10  21  40  70 105 135 171 237 297 330 403
#     4  10  22  41  69 100 140 175 226 287 349 401
#     4  10  23  40  71 109 133 176 234 295 341 400
#     4  12  25  46  72 106 131 189 241 287 336 410
#
# _framework density 23.28838
#
# number of rings (size 3 to 8) (size 9 to 14) (size 15 to 20)
#    0.000    1.000    3.750    1.500   10.500    1.500 
#    0.000    0.625    0.000    0.000    0.000    0.000 
#    0.000    0.000    0.000    0.000    0.000    0.000 
#
# Total GULP energy -89588.412661 kJ/mol
# GULP energy per Si atom -5599.275791 kJ/mol
# Density = 2.323537 g / cm^3
# Si number density = 23.288380 Si / 1000 Ang^3
#
#
#
# Elastic Constant Matrix: (Units=GPa)
#
#
# Indices 1 2 3 4 5 6 
#
# 1 50.6351 30.6939 28.4520 4.0876 -27.8303 12.6753
# 2 30.6939 140.3383 49.2899 0.2533 -7.8397 9.4378
# 3 28.4520 49.2899 123.1501 -7.0382 -22.4385 9.7240
# 4 4.0876 0.2533 -7.0382 39.7763 -2.9098 0.3675
# 5 -27.8303 -7.8397 -22.4385 -2.9098 30.7063 -2.7729
# 6 12.6753 9.4378 9.7240 0.3675 -2.7729 21.8916
#
#
#
# Elastic Compliance Matrix: (Units=1/GPa)
#
#
# Indices 1 2 3 4 5 6 
#
# 1 0.056321 -0.008340 0.000633 -0.001962 0.047089 -0.023298
# 2 -0.008340 0.009650 -0.003425 -0.000372 -0.007521 0.001244
# 3 0.000633 -0.003425 0.011142 0.002527 0.007820 -0.002891
# 4 -0.001962 -0.000372 0.002527 0.025970 0.002438 0.000047
# 5 0.047089 -0.007521 0.007820 0.002438 0.077672 -0.017699
# 6 -0.023298 0.001244 -0.002891 0.000047 -0.017699 0.057675
#
#
# Mechanical properties :
#
#
# Convention : Reuss Voigt Hill
#
# Bulk Modulus (GPa) = 18.23176 58.99946 38.61561
# Shear Modulus (GPa) = 17.92268 32.18735 25.05501
#
# Velocity S-wave (km/s) = 2.77717 3.72172 3.28359
# Velocity P-wave (km/s) = 4.25785 6.62250 5.56717
#
# Compressibility (1/GPa) = 0.05484933
#
# Stress axis : x y z
#
# Youngs Moduli (GPa) = 17.75546 103.63204 89.74764
#
# Poissons Ratio (x) = 0.86425 -0.05682
# Poissons Ratio (y) = 0.14807 0.30740
# Poissons Ratio (z) = -0.01124 0.35496
#
# Static dielectric constant tensor:
#      x y z
#    x 1.871930 -0.000700 0.008620 
#    y -0.000700 1.914000 0.006130 
#    z 0.008620 0.006130 1.886990 
# 
# From -- ./inp_files/337552.got.cif
#   From: 2010.05.17/outbox.cif.g08.bks.cpg/sg2_169_cif.got.tgz:337552.got - 2010.06.03 11:33:40.
