data_PCOD9012524
_publ_section_title
;
Structure prediction by ZEFSAII (Michael W. Deem and Ramdas Pophale) SiO2 
 PCOD9012524
Probable space group: P -1
;
_chemical_formula_sum "Si O2"
_cell_formula_units_Z 16
_cell_length_a 17.862828
_cell_length_b 7.832195
_cell_length_c 6.685040
_cell_angle_alpha 60.538380
_cell_angle_beta 115.189842
_cell_angle_gamma 128.607790
_cell_volume 626.582611
_symmetry_space_group_name_H-M "P -1"
_symmetry_group_IT_number 2
_symmetry_cell_setting 'triclinic'
loop_
_space_group_symop_operation_xyz
x,y,z
-x,-y,-z
loop_
_atom_site_type_symbol
_atom_site_label
_atom_site_fract_x
_atom_site_fract_y
_atom_site_fract_z
Si Si1 0.503325 0.024836 0.756172
Si Si2 0.644446 0.737825 0.204000
Si Si3 0.175481 0.908699 0.606161
Si Si4 0.990495 0.264556 0.197925
Si Si5 0.713813 0.405560 0.619779
Si Si6 0.540890 0.714281 0.726199
Si Si7 0.135658 0.237636 0.117605
Si Si8 0.857246 0.522831 0.395889
O O1 0.614553 0.202366 0.713765
O O2 0.442526 0.128647 0.535669
O O3 0.480423 0.790923 0.756920
O O4 0.500000 0.000000 0.000000
O O5 0.696238 0.600854 0.400759
O O6 0.532301 0.555032 0.248535
O O7 0.713230 0.976588 0.258600
O O8 0.630708 0.762389 0.938024
O O9 0.127224 0.649350 0.621993
O O10 0.116243 0.903190 0.738777
O O11 0.161450 0.053775 0.332973
O O12 0.030604 0.174433 0.120294
O O13 0.059819 0.328092 0.434266
O O14 0.000000 0.500000 0.000000
O O15 0.790962 0.526441 0.814695
O O16 0.762875 0.356508 0.519417
O O17 0.151857 0.309684 0.864830
#
# Coordination Sequence:
#
# PCOD9012524 Si02
#       8
#     2   2   2   2   2   2   2   2
#     4  10  21  40  70  98 129 177 221 268 343 399
#     4   9  20  43  65  93 133 171 224 273 334 391
#     4  11  23  43  71 101 132 184 227 277 338 403
#     4  11  23  44  68  98 144 175 225 282 333 401
#     4   9  22  43  65  96 136 170 221 280 327 400
#     4   9  20  41  66  94 130 170 219 279 330 395
#     4  10  23  43  66 100 136 180 223 278 333 400
#     4  11  24  44  68  98 137 178 224 281 336 399
#
# _framework density 25.535340999999999
#
# number of rings (size 3 to 8) (size 9 to 14) (size 15 to 20)
#    0.000    2.000    1.250    0.750    1.750    3.500 
#    9.000    6.875    0.000    0.000    0.000    0.000 
#    0.000    0.000    0.000    0.000    0.000    0.000 
#
# Total GULP energy -89548.514619 kJ/mol
# GULP energy per Si atom -5596.782164 kJ/mol
# Density = 2.547722 g / cm^3
# Si number density = 25.535341 Si / 1000 Ang^3
#
#
#
# Elastic Constant Matrix: (Units=GPa)
#
#
# Indices 1 2 3 4 5 6 
#
# 1 62.8669 12.4749 43.2551 3.2053 -16.3608 15.9372
# 2 12.4749 81.6603 29.3092 -3.5865 -11.8550 9.9926
# 3 43.2551 29.3092 217.7801 -1.5426 0.9601 10.1876
# 4 3.2053 -3.5865 -1.5426 33.0272 -6.0419 -3.3618
# 5 -16.3608 -11.8550 0.9601 -6.0419 41.7211 -5.1888
# 6 15.9372 9.9926 10.1876 -3.3618 -5.1888 34.7873
#
#
#
# Elastic Compliance Matrix: (Units=1/GPa)
#
#
# Indices 1 2 3 4 5 6 
#
# 1 0.023073 0.000084 -0.004251 -0.001840 0.007864 -0.008355
# 2 0.000084 0.013852 -0.001757 0.001856 0.003938 -0.002736
# 3 -0.004251 -0.001757 0.005661 0.000129 -0.002219 0.000476
# 4 -0.001840 0.001856 0.000129 0.031986 0.004945 0.004101
# 5 0.007864 0.003938 -0.002219 0.004945 0.029029 0.000724
# 6 -0.008355 -0.002736 0.000476 0.004101 0.000724 0.033725
#
#
# Mechanical properties :
#
#
# Convention : Reuss Voigt Hill
#
# Bulk Modulus (GPa) = 32.53302 59.15397 45.84349
# Shear Modulus (GPa) = 31.36384 40.39166 35.87775
#
# Velocity S-wave (km/s) = 3.50845 3.98149 3.75243
# Velocity P-wave (km/s) = 5.40188 6.65974 6.06352
#
# Compressibility (1/GPa) = 0.03073800
#
# Stress axis : x y z
#
# Youngs Moduli (GPa) = 43.34033 72.19360 176.64686
#
# Poissons Ratio (x) = -0.00607 0.75092
# Poissons Ratio (y) = -0.00365 0.31039
# Poissons Ratio (z) = 0.18424 0.12685
#
# Static dielectric constant tensor:
#      x y z
#    x 2.036610 0.028960 0.024520 
#    y 0.028960 2.086670 0.008310 
#    z 0.024520 0.008310 1.981770 
# 
# From -- ./inp_files/116691.got.cif
#   From: 2010.05.17/outbox.cif.g08.bks.cpg/sg2_59_cif.got.tgz:116691.got - 2010.06.03 11:33:40.
