data_PCOD9012280
_publ_section_title
;
Structure prediction by ZEFSAII (Michael W. Deem and Ramdas Pophale) SiO2 
 PCOD9012280
Probable space group: P -1
;
_chemical_formula_sum "Si O2"
_cell_formula_units_Z 14
_cell_length_a 5.419379
_cell_length_b 25.542834
_cell_length_c 7.923469
_cell_angle_alpha 39.328420
_cell_angle_beta 72.190391
_cell_angle_gamma 52.661948
_cell_volume 522.844010
_symmetry_space_group_name_H-M "P -1"
_symmetry_group_IT_number 2
_symmetry_cell_setting 'triclinic'
loop_
_space_group_symop_operation_xyz
x,y,z
-x,-y,-z
loop_
_atom_site_type_symbol
_atom_site_label
_atom_site_fract_x
_atom_site_fract_y
_atom_site_fract_z
Si Si1 0.892377 0.632226 0.297306
Si Si2 0.763170 0.571331 0.136263
Si Si3 0.139799 0.030206 0.043743
Si Si4 0.822815 0.234324 0.797494
Si Si5 0.112398 0.073450 0.446619
Si Si6 0.963277 0.252544 0.214521
Si Si7 0.855095 0.383788 0.243420
O O1 0.948604 0.578370 0.236039
O O2 0.559582 0.669231 0.360544
O O3 0.177772 0.537335 0.588259
O O4 0.818626 0.738414 0.985131
O O5 0.390087 0.665980 0.998453
O O6 0.887532 0.592884 0.891548
O O7 0.079057 0.975317 0.350391
O O8 0.917361 0.151782 0.837127
O O9 0.500000 0.000000 0.000000
O O10 0.000000 0.000000 0.000000
O O11 0.959117 0.300430 0.579218
O O12 0.938867 0.161882 0.117799
O O13 0.072195 0.137819 0.462990
O O14 0.500000 0.000000 0.500000
O O15 0.922967 0.306389 0.266086
O O16 0.500000 0.500000 0.000000
#
# Coordination Sequence:
#
# PCOD9012280 Si02
#       7
#     2   2   2   2   2   2   2
#     4  10  21  40  69 108 137 196 243 310 376 466
#     4  10  21  42  68 100 152 184 247 301 381 455
#     4  12  29  52  81 116 159 209 270 336 406 474
#     4  12  25  47  78 106 154 200 255 328 391 474
#     4  12  27  52  80 116 149 206 276 335 399 478
#     4  11  24  43  74 102 150 197 252 314 391 457
#     4  11  25  45  69 110 154 197 248 306 388 478
#
# _framework density 26.776626
#
# number of rings (size 3 to 8) (size 9 to 14) (size 15 to 20)
#    0.000    0.857    2.857    3.429    2.000    2.857 
#    5.143    0.000    0.000    0.000    0.000    0.000 
#    0.000    0.000    0.000    0.000    0.000    0.000 
#
# Total GULP energy -78153.795420 kJ/mol
# GULP energy per Si atom -5582.413959 kJ/mol
# Density = 2.671568 g / cm^3
# Si number density = 26.776626 Si / 1000 Ang^3
#
#
#
# Elastic Constant Matrix: (Units=GPa)
#
#
# Indices 1 2 3 4 5 6 
#
# 1 73.7866 32.2876 41.7305 -5.8313 -13.1623 -2.3862
# 2 32.2876 148.6276 43.7439 -25.6233 -11.6554 12.2010
# 3 41.7305 43.7439 194.7112 -5.8163 -18.8446 8.3246
# 4 -5.8313 -25.6233 -5.8163 40.5937 7.0886 -6.7213
# 5 -13.1623 -11.6554 -18.8446 7.0886 46.4858 -17.4113
# 6 -2.3862 12.2010 8.3246 -6.7213 -17.4113 47.9448
#
#
#
# Elastic Compliance Matrix: (Units=1/GPa)
#
#
# Indices 1 2 3 4 5 6 
#
# 1 0.017305 -0.002876 -0.002790 0.000112 0.004415 0.003697
# 2 -0.002876 0.008593 -0.001148 0.004653 -0.000450 -0.001641
# 3 -0.002790 -0.001148 0.006123 -0.000560 0.001296 -0.000518
# 4 0.000112 0.004653 -0.000560 0.028284 -0.002618 0.001933
# 5 0.004415 -0.000450 0.001296 -0.002618 0.027173 0.009610
# 6 0.003697 -0.001641 -0.000518 0.001933 0.009610 0.025310
#
#
# Mechanical properties :
#
#
# Convention : Reuss Voigt Hill
#
# Bulk Modulus (GPa) = 54.37397 72.51662 63.44529
# Shear Modulus (GPa) = 37.72233 46.96240 42.34236
#
# Velocity S-wave (km/s) = 3.75744 4.19245 3.98089
# Velocity P-wave (km/s) = 6.25900 7.11171 6.69894
#
# Compressibility (1/GPa) = 0.01839115
#
# Stress axis : x y z
#
# Youngs Moduli (GPa) = 57.78652 116.37845 163.33037
#
# Poissons Ratio (x) = 0.33472 0.45570
# Poissons Ratio (y) = 0.16620 0.18757
# Poissons Ratio (z) = 0.16123 0.13365
#
# Static dielectric constant tensor:
#      x y z
#    x 2.729980 0.251840 -0.019440 
#    y 0.251840 2.223840 0.136170 
#    z -0.019440 0.136170 2.167800 
# 
# From -- ./inp_files/143315.got.cif
#   From: 2010.05.17/outbox.cif.g08.bks.cpg/sg2_72_cif.got.tgz:143315.got - 2010.06.03 11:33:40.
