data_PCOD9012948
_publ_section_title
;
Structure prediction by ZEFSAII (Michael W. Deem and Ramdas Pophale) SiO2 
 PCOD9012948
Probable space group: P -1
;
_chemical_formula_sum "Si O2"
_cell_formula_units_Z 14
_cell_length_a 22.398633
_cell_length_b 18.626329
_cell_length_c 9.313835
_cell_angle_alpha 33.967491
_cell_angle_beta 148.750024
_cell_angle_gamma 163.522836
_cell_volume 570.551288
_symmetry_space_group_name_H-M "P -1"
_symmetry_group_IT_number 2
_symmetry_cell_setting 'triclinic'
loop_
_space_group_symop_operation_xyz
x,y,z
-x,-y,-z
loop_
_atom_site_type_symbol
_atom_site_label
_atom_site_fract_x
_atom_site_fract_y
_atom_site_fract_z
Si Si1 0.159131 0.401764 0.021967
Si Si2 0.043750 0.859074 0.469821
Si Si3 0.481591 0.437048 0.399503
Si Si4 0.318197 0.859115 0.077873
Si Si5 0.802100 0.461387 0.406790
Si Si6 0.850123 0.876977 0.253730
Si Si7 0.181131 0.643286 0.849783
O O1 0.306848 0.593119 0.872243
O O2 0.050740 0.403889 0.898760
O O3 0.340287 0.508471 0.321967
O O4 0.969725 0.121240 0.037694
O O5 0.873556 0.642032 0.361014
O O6 0.899821 0.802714 0.380497
O O7 0.236868 0.146415 0.340894
O O8 0.187848 0.870943 0.797957
O O9 0.500000 0.500000 0.500000
O O10 0.593349 0.639854 0.176691
O O11 0.306037 0.759663 0.359595
O O12 0.573693 0.120596 0.111838
O O13 0.205769 0.668429 0.031057
O O14 0.040120 0.635353 0.545451
O O15 0.000000 0.000000 0.500000
#
# Coordination Sequence:
#
# PCOD9012948 Si02
#       7
#     2   2   2   2   2   2   2
#     4  11  23  43  62  93 130 153 205 263 306 358
#     4  11  21  41  64  90 124 160 210 250 295 376
#     4  11  22  41  65  92 114 165 213 247 297 374
#     4  10  23  38  67  92 121 168 209 246 299 367
#     4  11  26  39  61  96 128 164 194 260 315 351
#     4  10  23  37  66  92 116 162 208 253 304 359
#     4  10  21  41  62  91 126 166 209 243 297 375
#
# _framework density 24.537671
#
# number of rings (size 3 to 8) (size 9 to 14) (size 15 to 20)
#    0.000    1.429    4.286    2.143    8.000    1.143 
#    2.571    0.714    0.000    0.000    0.000    0.000 
#    0.000    0.000    0.000    0.000    0.000    0.000 
#
# Total GULP energy -78195.203720 kJ/mol
# GULP energy per Si atom -5585.371694 kJ/mol
# Density = 2.448182 g / cm^3
# Si number density = 24.537671 Si / 1000 Ang^3
#
#
#
# Elastic Constant Matrix: (Units=GPa)
#
#
# Indices 1 2 3 4 5 6 
#
# 1 176.4721 27.6218 30.3072 -16.8237 26.0526 -15.6530
# 2 27.6218 73.9040 9.9982 -17.4206 8.7830 15.7354
# 3 30.3072 9.9982 69.3124 -19.1605 -7.3733 5.8056
# 4 -16.8237 -17.4206 -19.1605 31.7732 2.2208 -4.0756
# 5 26.0526 8.7830 -7.3733 2.2208 29.4635 -8.4353
# 6 -15.6530 15.7354 5.8056 -4.0756 -8.4353 43.1380
#
#
#
# Elastic Compliance Matrix: (Units=1/GPa)
#
#
# Indices 1 2 3 4 5 6 
#
# 1 0.008033 -0.001896 -0.003698 0.001835 -0.006755 0.002957
# 2 -0.001896 0.018845 0.000587 0.009117 -0.006803 -0.008110
# 3 -0.003698 0.000587 0.019423 0.009355 0.006684 -0.001979
# 4 0.001835 0.009117 0.009355 0.043356 -0.005526 -0.000903
# 5 -0.006755 -0.006803 0.006684 -0.005526 0.046220 0.007647
# 6 0.002957 -0.008110 -0.001979 -0.000903 0.007647 0.028889
#
#
# Mechanical properties :
#
#
# Convention : Reuss Voigt Hill
#
# Bulk Modulus (GPa) = 27.55912 50.61588 39.08750
# Shear Modulus (GPa) = 26.75599 37.65901 32.20750
#
# Velocity S-wave (km/s) = 3.30571 3.92183 3.62688
# Velocity P-wave (km/s) = 5.08193 6.41719 5.78819
#
# Compressibility (1/GPa) = 0.03628563
#
# Stress axis : x y z
#
# Youngs Moduli (GPa) = 124.48761 53.06513 51.48648
#
# Poissons Ratio (x) = 0.10062 0.19039
# Poissons Ratio (y) = 0.23606 -0.03021
# Poissons Ratio (z) = 0.46033 -0.03113
#
# Static dielectric constant tensor:
#      x y z
#    x 1.954360 0.010770 -0.048660 
#    y 0.010770 2.044280 -0.076820 
#    z -0.048660 -0.076820 2.101990 
# 
# From -- ./inp_files/337876.got.cif
#   From: 2010.05.17/outbox.cif.g08.bks.cpg/sg2_169_cif.got.tgz:337876.got - 2010.06.03 11:33:40.
