data_PCOD9012973
_publ_section_title
;
Structure prediction by ZEFSAII (Michael W. Deem and Ramdas Pophale) SiO2 
 PCOD9012973
Probable space group: P -1
;
_chemical_formula_sum "Si O2"
_cell_formula_units_Z 14
_cell_length_a 8.108102
_cell_length_b 7.351023
_cell_length_c 18.359742
_cell_angle_alpha 110.921527
_cell_angle_beta 70.424619
_cell_angle_gamma 54.384581
_cell_volume 580.867221
_symmetry_space_group_name_H-M "P -1"
_symmetry_group_IT_number 2
_symmetry_cell_setting 'triclinic'
loop_
_space_group_symop_operation_xyz
x,y,z
-x,-y,-z
loop_
_atom_site_type_symbol
_atom_site_label
_atom_site_fract_x
_atom_site_fract_y
_atom_site_fract_z
Si Si1 0.653910 0.288239 0.098873
Si Si2 0.334821 0.137281 0.892966
Si Si3 0.233173 0.233038 0.625860
Si Si4 0.304547 0.354365 0.782495
Si Si5 0.749253 0.062350 0.903396
Si Si6 0.827397 0.130543 0.468995
Si Si7 0.130101 0.723138 0.666908
O O1 0.589175 0.329689 0.028339
O O2 0.554971 0.567537 0.197710
O O3 0.405013 0.859782 0.871607
O O4 0.000000 0.000000 0.000000
O O5 0.512511 0.136107 0.912344
O O6 0.377358 0.133083 0.800984
O O7 0.000000 0.500000 0.000000
O O8 0.038612 0.581518 0.676063
O O9 0.366062 0.188515 0.675337
O O10 0.500000 0.000000 0.500000
O O11 0.107425 0.131402 0.620279
O O12 0.971700 0.720681 0.867082
O O13 0.956152 0.974928 0.796875
O O14 0.479757 0.447927 0.584041
O O15 0.908126 0.206808 0.403228
O O16 0.000000 0.000000 0.500000
#
# Coordination Sequence:
#
# PCOD9012973 Si02
#       7
#     2   2   2   2   2   2   2
#     4  10  21  41  62  92 130 170 218 268 315 386
#     4  12  23  41  68  92 129 180 219 261 325 375
#     4   9  20  41  66  92 130 165 210 270 316 382
#     4  10  23  43  62  93 131 171 212 269 321 382
#     4  10  22  40  64  95 133 168 216 266 319 384
#     4  10  21  41  71  97 124 168 217 264 327 394
#     4   9  21  42  63  96 134 164 204 274 326 375
#
# _framework density 24.101894999999999
#
# number of rings (size 3 to 8) (size 9 to 14) (size 15 to 20)
#    0.000    2.000    2.857    0.429    0.000    8.000 
#    0.000   21.429    0.000    0.000    0.000    0.000 
#    0.000    0.000    0.000    0.000    0.000    0.000 
#
# Total GULP energy -78060.343617 kJ/mol
# GULP energy per Si atom -5575.738830 kJ/mol
# Density = 2.404704 g / cm^3
# Si number density = 24.101895 Si / 1000 Ang^3
#
#
#
# Elastic Constant Matrix: (Units=GPa)
#
#
# Indices 1 2 3 4 5 6 
#
# 1 112.0533 45.8055 90.1202 -28.0060 20.7956 -6.0063
# 2 45.8055 93.3949 86.8551 -41.0717 5.0189 -16.4799
# 3 90.1202 86.8551 165.4839 -30.6748 43.0206 -4.8086
# 4 -28.0060 -41.0717 -30.6748 64.8015 -16.8911 -7.0019
# 5 20.7956 5.0189 43.0206 -16.8911 40.9532 2.5043
# 6 -6.0063 -16.4799 -4.8086 -7.0019 2.5043 49.7133
#
#
#
# Elastic Compliance Matrix: (Units=1/GPa)
#
#
# Indices 1 2 3 4 5 6 
#
# 1 0.019085 0.012775 -0.017885 0.011631 0.011971 0.005846
# 2 0.012775 0.069650 -0.048438 0.042841 0.052102 0.023356
# 3 -0.017885 -0.048438 0.047158 -0.029733 -0.045834 -0.015535
# 4 0.011631 0.042841 -0.029733 0.045216 0.037675 0.017202
# 5 0.011971 0.052102 -0.045834 0.037675 0.074674 0.015829
# 6 0.005846 0.023356 -0.015535 0.017202 0.015829 0.028687
#
#
# Mechanical properties :
#
#
# Convention : Reuss Voigt Hill
#
# Bulk Modulus (GPa) = 34.72488 90.72151 62.72319
# Shear Modulus (GPa) = 12.46375 40.97035 26.71705
#
# Velocity S-wave (km/s) = 2.27651 4.12743 3.33303
# Velocity P-wave (km/s) = 4.62048 7.77411 6.39475
#
# Compressibility (1/GPa) = 0.02879780
#
# Stress axis : x y z
#
# Youngs Moduli (GPa) = 52.39821 14.35760 21.20514
#
# Poissons Ratio (x) = -0.18343 0.37925
# Poissons Ratio (y) = -0.66941 1.02714
# Poissons Ratio (z) = 0.93712 0.69546
#
# Static dielectric constant tensor:
#      x y z
#    x 2.003010 0.052900 0.056640 
#    y 0.052900 2.264440 0.096330 
#    z 0.056640 0.096330 2.114010 
# 
# From -- ./inp_files/495425.got.cif
#   From: 2010.05.17/outbox.cif.g08.bks.cpg/sg2_248_cif.got.tgz:495425.got - 2010.06.03 11:33:40.
