data_PCOD9012485
_publ_section_title
;
Structure prediction by ZEFSAII (Michael W. Deem and Ramdas Pophale) SiO2 
 PCOD9012485
Probable space group: P -1
;
_chemical_formula_sum "Si O2"
_cell_formula_units_Z 14
_cell_length_a 7.092499
_cell_length_b 14.562446
_cell_length_c 22.292138
_cell_angle_alpha 159.269467
_cell_angle_beta 41.527870
_cell_angle_gamma 135.930764
_cell_volume 538.678111
_symmetry_space_group_name_H-M "P -1"
_symmetry_group_IT_number 2
_symmetry_cell_setting 'triclinic'
loop_
_space_group_symop_operation_xyz
x,y,z
-x,-y,-z
loop_
_atom_site_type_symbol
_atom_site_label
_atom_site_fract_x
_atom_site_fract_y
_atom_site_fract_z
Si Si1 0.151434 0.771870 0.650410
Si Si2 0.797103 0.673432 0.028743
Si Si3 0.425456 0.235408 0.990583
Si Si4 0.678785 0.794366 0.867249
Si Si5 0.679596 0.747973 0.577876
Si Si6 0.199932 0.753569 0.375837
Si Si7 0.234392 0.325198 0.682214
O O1 0.487519 0.771956 0.578832
O O2 0.000000 0.500000 0.500000
O O3 0.989205 0.787747 0.762243
O O4 0.128676 0.043550 0.786529
O O5 0.500000 0.500000 0.000000
O O6 0.780027 0.753308 0.011474
O O7 0.040769 0.487307 0.871735
O O8 0.317804 0.141371 0.024056
O O9 0.444470 0.551124 0.190047
O O10 0.644430 0.023166 0.788428
O O11 0.508300 0.519400 0.725390
O O12 0.500000 0.000000 0.000000
O O13 0.500000 0.500000 0.500000
O O14 0.997601 0.710992 0.456804
O O15 0.978033 0.712118 0.347035
O O16 0.308066 0.052074 0.523817
#
# Coordination Sequence:
#
# PCOD9012485 Si02
#       7
#     2   2   2   2   2   2   2
#     4  11  24  40  64 100 133 173 221 280 339 396
#     4  10  21  43  69  98 133 179 226 274 339 410
#     4  10  25  42  66 100 135 176 225 277 336 398
#     4  12  25  43  65  96 137 177 222 282 340 398
#     4  11  24  40  66  97 133 174 224 274 334 403
#     4  10  22  44  68  99 129 175 228 277 332 411
#     4  10  21  40  70  94 130 178 222 274 342 398
#
# _framework density 25.989550000000001
#
# number of rings (size 3 to 8) (size 9 to 14) (size 15 to 20)
#    0.000    1.429    1.429    3.429    4.000    5.714 
#    0.000    4.286    0.000    0.000    0.000    0.000 
#    0.000    0.000    0.000    0.000    0.000    0.000 
#
# Total GULP energy -78107.524227 kJ/mol
# GULP energy per Si atom -5579.108873 kJ/mol
# Density = 2.593040 g / cm^3
# Si number density = 25.989550 Si / 1000 Ang^3
#
#
#
# Elastic Constant Matrix: (Units=GPa)
#
#
# Indices 1 2 3 4 5 6 
#
# 1 103.0704 20.5764 31.9896 7.1383 -6.3509 -7.3302
# 2 20.5764 108.0478 77.5692 35.6962 7.6222 10.3725
# 3 31.9896 77.5692 217.6122 44.3860 -4.0788 5.9201
# 4 7.1383 35.6962 44.3860 52.0130 0.3757 5.6555
# 5 -6.3509 7.6222 -4.0788 0.3757 39.6019 2.3445
# 6 -7.3302 10.3725 5.9201 5.6555 2.3445 45.8916
#
#
#
# Elastic Compliance Matrix: (Units=1/GPa)
#
#
# Indices 1 2 3 4 5 6 
#
# 1 0.010602 -0.001720 -0.001046 0.000379 0.001797 0.002079
# 2 -0.001720 0.014846 -0.003711 -0.006525 -0.003325 -0.002178
# 3 -0.001046 -0.003711 0.006717 -0.003064 0.001261 0.000118
# 4 0.000379 -0.006525 -0.003064 0.026409 0.000831 -0.001367
# 5 0.001797 -0.003325 0.001261 0.000831 0.026335 -0.000572
# 6 0.002079 -0.002178 0.000118 -0.001367 -0.000572 0.022797
#
#
# Mechanical properties :
#
#
# Convention : Reuss Voigt Hill
#
# Bulk Modulus (GPa) = 52.04992 76.55566 64.30279
# Shear Modulus (GPa) = 39.34985 47.40764 43.37874
#
# Velocity S-wave (km/s) = 3.89532 4.27559 4.08987
# Velocity P-wave (km/s) = 6.34839 7.34128 6.86282
#
# Compressibility (1/GPa) = 0.01921233
#
# Stress axis : x y z
#
# Youngs Moduli (GPa) = 94.31917 67.35598 148.86919
#
# Poissons Ratio (x) = 0.11584 0.15566
# Poissons Ratio (y) = 0.16221 0.55253
# Poissons Ratio (z) = 0.09862 0.24999
#
# Static dielectric constant tensor:
#      x y z
#    x 2.201930 0.004120 0.009320 
#    y 0.004120 2.059970 -0.015130 
#    z 0.009320 -0.015130 2.313810 
# 
# From -- ./inp_files/608087.got.cif
#   From: 2010.05.17/outbox.cif.g08.bks.cpg/sg2_305_cif.got.tgz:608087.got - 2010.06.03 11:33:40.
