data_PCOD9012153
_publ_section_title
;
Structure prediction by ZEFSAII (Michael W. Deem and Ramdas Pophale) SiO2 
 PCOD9012153
Probable space group: P -1
;
_chemical_formula_sum "Si O2"
_cell_formula_units_Z 16
_cell_length_a 12.378499
_cell_length_b 8.694884
_cell_length_c 11.502568
_cell_angle_alpha 58.213059
_cell_angle_beta 127.225451
_cell_angle_gamma 90.848898
_cell_volume 748.746106
_symmetry_space_group_name_H-M "P -1"
_symmetry_group_IT_number 2
_symmetry_cell_setting 'triclinic'
loop_
_space_group_symop_operation_xyz
x,y,z
-x,-y,-z
loop_
_atom_site_type_symbol
_atom_site_label
_atom_site_fract_x
_atom_site_fract_y
_atom_site_fract_z
Si Si1 0.194789 0.895699 0.011473
Si Si2 0.020090 0.441904 0.401955
Si Si3 0.512042 0.301466 0.024427
Si Si4 0.740268 0.746063 0.995906
Si Si5 0.383816 0.239396 0.333154
Si Si6 0.864238 0.013426 0.324095
Si Si7 0.217095 0.542700 0.311407
Si Si8 0.522848 0.545822 0.301837
O O1 0.142894 0.758729 0.111243
O O2 0.370126 0.735705 0.168216
O O3 0.200795 0.092303 0.991155
O O4 0.112984 0.949283 0.811671
O O5 0.000000 0.500000 0.500000
O O6 0.125014 0.206049 0.566050
O O7 0.099331 0.531650 0.329838
O O8 0.851133 0.525753 0.206835
O O9 0.425214 0.197650 0.079955
O O10 0.691868 0.166900 0.180498
O O11 0.500000 0.500000 0.000000
O O12 0.433003 0.374260 0.817987
O O13 0.731039 0.730497 0.858532
O O14 0.289178 0.354110 0.341696
O O15 0.477895 0.366157 0.315770
O O16 0.500000 0.000000 0.500000
O O17 0.000000 0.000000 0.500000
O O18 0.355701 0.525898 0.488771
#
# Coordination Sequence:
#
# PCOD9012153 Si02
#       8
#     2   2   2   2   2   2   2   2
#     4  10  23  44  68 100 136 186 231 292 343 420
#     4  12  27  48  69 105 142 188 232 294 349 424
#     4  11  23  42  74 106 134 188 233 293 355 409
#     4  12  24  44  69  99 146 175 242 284 345 422
#     4  11  23  41  68 102 138 179 235 293 344 418
#     4  11  26  46  72 102 145 184 238 291 355 418
#     4  11  25  44  69 101 141 186 234 284 366 407
#     4  10  21  40  68  97 137 175 232 291 343 415
#
# _framework density 21.369060000000001
#
# number of rings (size 3 to 8) (size 9 to 14) (size 15 to 20)
#    0.000    1.000    2.500    4.500    7.000    2.000 
#    0.000    0.000    0.000    0.000    0.000    0.000 
#    0.000    0.000    0.000    0.000    0.000    0.000 
#
# Total GULP energy -89368.966521 kJ/mol
# GULP energy per Si atom -5585.560408 kJ/mol
# Density = 2.132042 g / cm^3
# Si number density = 21.369060 Si / 1000 Ang^3
#
#
#
# Elastic Constant Matrix: (Units=GPa)
#
#
# Indices 1 2 3 4 5 6 
#
# 1 123.9565 45.5852 31.7015 2.9855 -23.7624 -1.3105
# 2 45.5852 128.7037 60.0709 -6.6676 -9.2525 -15.1564
# 3 31.7015 60.0709 146.3729 12.2399 -19.2708 -9.2881
# 4 2.9855 -6.6676 12.2399 47.6233 -3.2463 -7.0185
# 5 -23.7624 -9.2525 -19.2708 -3.2463 30.5731 0.6437
# 6 -1.3105 -15.1564 -9.2881 -7.0185 0.6437 17.9303
#
#
#
# Elastic Compliance Matrix: (Units=1/GPa)
#
#
# Indices 1 2 3 4 5 6 
#
# 1 0.010822 -0.003763 0.000058 -0.001180 0.007248 -0.003082
# 2 -0.003763 0.012320 -0.004197 0.004366 -0.001583 0.009730
# 3 0.000058 -0.004197 0.009349 -0.002682 0.004381 0.000092
# 4 -0.001180 0.004366 -0.002682 0.024158 0.001034 0.011634
# 5 0.007248 -0.001583 0.004381 0.001034 0.040725 0.000403
# 6 -0.003082 0.009730 0.000092 0.011634 0.000403 0.068358
#
#
# Mechanical properties :
#
#
# Convention : Reuss Voigt Hill
#
# Bulk Modulus (GPa) = 59.93081 74.86093 67.39587
# Shear Modulus (GPa) = 26.72408 36.67039 31.69724
#
# Velocity S-wave (km/s) = 3.54021 4.14702 3.85557
# Velocity P-wave (km/s) = 6.69457 7.61832 7.17134
#
# Compressibility (1/GPa) = 0.01668591
#
# Stress axis : x y z
#
# Youngs Moduli (GPa) = 92.40700 81.17094 106.96779
#
# Poissons Ratio (x) = 0.30544 -0.00620
# Poissons Ratio (y) = 0.34772 0.44894
# Poissons Ratio (z) = -0.00535 0.34067
#
# Static dielectric constant tensor:
#      x y z
#    x 1.853320 0.023080 -0.002630 
#    y 0.023080 1.770800 -0.011140 
#    z -0.002630 -0.011140 1.789540 
# 
# From -- ./inp_files/419213.got.cif
#   From: 2010.05.17/outbox.cif.g08.bks.cpg/sg2_210_cif.got.tgz:419213.got - 2010.06.03 11:33:40.
