data_PCOD9012748
_publ_section_title
;
Structure prediction by ZEFSAII (Michael W. Deem and Ramdas Pophale) SiO2 
 PCOD9012748
Probable space group: P -1
;
_chemical_formula_sum "Si O2"
_cell_formula_units_Z 15
_cell_length_a 18.688691
_cell_length_b 7.589175
_cell_length_c 11.188221
_cell_angle_alpha 56.291789
_cell_angle_beta 39.389021
_cell_angle_gamma 86.240449
_cell_volume 607.695729
_symmetry_space_group_name_H-M "P -1"
_symmetry_group_IT_number 2
_symmetry_cell_setting 'triclinic'
loop_
_space_group_symop_operation_xyz
x,y,z
-x,-y,-z
loop_
_atom_site_type_symbol
_atom_site_label
_atom_site_fract_x
_atom_site_fract_y
_atom_site_fract_z
Si Si1 0.596739 0.418433 0.872783
Si Si2 0.824716 0.876019 0.953119
Si Si3 0.392682 0.087035 0.660270
Si Si4 0.829487 0.501561 0.699504
Si Si5 0.604406 0.074035 0.522729
Si Si6 0.937583 0.556981 0.951656
Si Si7 0.500000 0.000000 0.000000
Si Si8 0.773495 0.070638 0.734251
O O1 0.469563 0.061460 0.200288
O O2 0.634214 0.371994 0.713686
O O3 0.500000 0.500000 0.000000
O O4 0.735052 0.570316 0.731782
O O5 0.861656 0.688781 0.018529
O O6 0.759643 0.837418 0.917847
O O7 0.995478 0.207939 0.610197
O O8 0.701057 0.828722 0.215848
O O9 0.455327 0.156836 0.419193
O O10 0.532249 0.203343 0.525798
O O11 0.265903 0.730562 0.981404
O O12 0.815957 0.302058 0.691863
O O13 0.782404 0.241346 0.227334
O O14 0.077922 0.764223 0.602554
O O15 0.000000 0.500000 0.000000
O O16 0.372250 0.024137 0.112300
#
# Coordination Sequence:
#
# PCOD9012748 Si02
#       8
#     2   2   2   2   2   2   1   2
#     4  10  22  40  64  91 122 173 213 260 322 385
#     4  11  22  39  65  96 119 170 222 253 320 394
#     4   9  19  40  65  89 119 157 207 273 312 382
#     4   9  19  37  67  90 117 159 219 262 311 381
#     4  10  21  41  60  88 127 160 203 260 331 375
#     4  12  26  39  57  89 137 169 200 272 323 377
#     4  10  22  42  66  96 132 158 218 276 312 380
#     4  10  21  42  65  92 126 169 212 267 318 378
#
# _framework density 24.683405
#
# number of rings (size 3 to 8) (size 9 to 14) (size 15 to 20)
#    0.000    1.867    0.000    5.200    3.733    0.533 
#   12.000    1.333    0.000    0.000    0.000    0.000 
#    0.000    0.000    0.000    0.000    0.000    0.000 
#
# Total GULP energy -83521.120546 kJ/mol
# GULP energy per Si atom -5568.074703 kJ/mol
# Density = 2.462722 g / cm^3
# Si number density = 24.683405 Si / 1000 Ang^3
#
#
#
# Elastic Constant Matrix: (Units=GPa)
#
#
# Indices 1 2 3 4 5 6 
#
# 1 168.5565 30.8230 35.5963 10.0644 -38.1525 -37.2763
# 2 30.8230 49.9595 18.8276 22.8572 -5.7811 -36.0688
# 3 35.5963 18.8276 49.0902 31.4891 -10.1644 -10.2897
# 4 10.0644 22.8572 31.4891 37.7297 -7.2924 -16.1852
# 5 -38.1525 -5.7811 -10.1644 -7.2924 42.3488 5.9382
# 6 -37.2763 -36.0688 -10.2897 -16.1852 5.9382 39.9942
#
#
#
# Elastic Compliance Matrix: (Units=1/GPa)
#
#
# Indices 1 2 3 4 5 6 
#
# 1 0.013889 0.003412 -0.017289 0.017971 0.009478 0.017440
# 2 0.003412 0.067675 -0.011533 -0.007253 0.000122 0.058293
# 3 -0.017289 -0.011533 0.067707 -0.060116 -0.006704 -0.032429
# 4 0.017971 -0.007253 -0.060116 0.091505 0.012329 0.029942
# 5 0.009478 0.000122 -0.006704 0.012329 0.031629 0.007512
# 6 0.017440 0.058293 -0.032429 0.029942 0.007512 0.096488
#
#
# Mechanical properties :
#
#
# Convention : Reuss Voigt Hill
#
# Bulk Modulus (GPa) = 10.15741 48.67777 29.41759
# Shear Modulus (GPa) = 11.04897 36.17182 23.61039
#
# Velocity S-wave (km/s) = 2.11802 3.83225 3.09614
# Velocity P-wave (km/s) = 3.17889 6.27257 4.97245
#
# Compressibility (1/GPa) = 0.09845034
#
# Stress axis : x y z
#
# Youngs Moduli (GPa) = 71.99914 14.77652 14.76949
#
# Poissons Ratio (x) = -0.05042 0.25535
# Poissons Ratio (y) = -0.24569 0.17034
# Poissons Ratio (z) = 1.24481 0.17042
#
# Static dielectric constant tensor:
#      x y z
#    x 1.814880 -0.207850 -0.048180 
#    y -0.207850 1.853530 -0.245640 
#    z -0.048180 -0.245640 2.041400 
# 
# From -- ./inp_files/262198.got.cif
#   From: 2010.05.17/outbox.cif.g08.bks.cpg/sg2_132_cif.got.tgz:262198.got - 2010.06.03 11:33:40.
