data_PCOD9012420
_publ_section_title
;
Structure prediction by ZEFSAII (Michael W. Deem and Ramdas Pophale) SiO2 
 PCOD9012420
Probable space group: P -1
;
_chemical_formula_sum "Si O2"
_cell_formula_units_Z 16
_cell_length_a 7.906742
_cell_length_b 9.954731
_cell_length_c 22.576189
_cell_angle_alpha 155.497215
_cell_angle_beta 55.064934
_cell_angle_gamma 122.195418
_cell_volume 603.810983
_symmetry_space_group_name_H-M "P -1"
_symmetry_group_IT_number 2
_symmetry_cell_setting 'triclinic'
loop_
_space_group_symop_operation_xyz
x,y,z
-x,-y,-z
loop_
_atom_site_type_symbol
_atom_site_label
_atom_site_fract_x
_atom_site_fract_y
_atom_site_fract_z
Si Si1 0.663009 0.786887 0.244335
Si Si2 0.085291 0.694340 0.954445
Si Si3 0.954470 0.447632 0.558966
Si Si4 0.384103 0.187746 0.925614
Si Si5 0.072860 0.276590 0.672174
Si Si6 0.524468 0.288332 0.562893
Si Si7 0.355905 0.752882 0.662005
Si Si8 0.692728 0.672839 0.866422
O O1 0.872713 0.598450 0.127201
O O2 0.500681 0.528241 0.200422
O O3 0.644424 0.110505 0.414968
O O4 0.600049 0.899231 0.238088
O O5 0.121860 0.527137 0.816275
O O6 0.853155 0.798999 0.041706
O O7 0.225910 0.016861 0.060984
O O8 0.710658 0.521613 0.645240
O O9 0.000000 0.500000 0.500000
O O10 0.122093 0.649528 0.646914
O O11 0.973829 0.075429 0.430209
O O12 0.442595 0.843737 0.746854
O O13 0.500000 0.500000 0.000000
O O14 0.375721 0.207178 0.006081
O O15 0.279434 0.300250 0.600746
O O16 0.876437 0.420536 0.736760
O O17 0.500000 0.000000 0.500000
O O18 0.500000 0.500000 0.500000
#
# Coordination Sequence:
#
# PCOD9012420 Si02
#       8
#     2   2   2   2   2   2   2   2
#     4  12  23  45  70 104 143 181 239 297 343 414
#     4  11  24  45  71  97 141 184 242 286 347 420
#     4  11  21  42  67 102 138 182 222 289 351 411
#     4  11  25  49  72 100 144 191 235 283 357 421
#     4  10  21  43  67  99 143 179 226 290 351 411
#     4  10  21  40  70 100 140 177 223 289 360 398
#     4  12  27  45  71 110 141 184 236 288 355 427
#     4  11  25  46  72  99 139 192 234 293 347 416
#
# _framework density 26.498359000000001
#
# number of rings (size 3 to 8) (size 9 to 14) (size 15 to 20)
#    0.000    1.000    5.000    2.625    1.750    5.000 
#    2.250    0.000    0.000    0.000    0.000    0.000 
#    0.000    0.000    0.000    0.000    0.000    0.000 
#
# Total GULP energy -89420.132462 kJ/mol
# GULP energy per Si atom -5588.758279 kJ/mol
# Density = 2.643805 g / cm^3
# Si number density = 26.498359 Si / 1000 Ang^3
#
#
#
# Elastic Constant Matrix: (Units=GPa)
#
#
# Indices 1 2 3 4 5 6 
#
# 1 93.2974 -4.9460 21.0768 -4.8682 -1.2219 20.5614
# 2 -4.9460 99.5054 25.1871 13.7879 19.2779 19.2576
# 3 21.0768 25.1871 117.9103 -3.4225 19.6135 14.3381
# 4 -4.8682 13.7879 -3.4225 44.1273 -1.0896 1.1034
# 5 -1.2219 19.2779 19.6135 -1.0896 46.5259 13.1328
# 6 20.5614 19.2576 14.3381 1.1034 13.1328 44.9389
#
#
#
# Elastic Compliance Matrix: (Units=1/GPa)
#
#
# Indices 1 2 3 4 5 6 
#
# 1 0.012895 0.001930 -0.002276 0.000871 0.002418 -0.006729
# 2 0.001930 0.012718 -0.002090 -0.003883 -0.003113 -0.004661
# 3 -0.002276 -0.002090 0.009948 0.001100 -0.003275 -0.000307
# 4 0.000871 -0.003883 0.001100 0.024106 0.001789 -0.000200
# 5 0.002418 -0.003113 -0.003275 0.001789 0.026073 -0.006391
# 6 -0.006729 -0.004661 -0.000307 -0.000200 -0.006391 0.029299
#
#
# Mechanical properties :
#
#
# Convention : Reuss Voigt Hill
#
# Bulk Modulus (GPa) = 32.58383 43.70544 38.14464
# Shear Modulus (GPa) = 38.41989 45.07812 41.74900
#
# Velocity S-wave (km/s) = 3.81188 4.12899 3.97360
# Velocity P-wave (km/s) = 5.63002 6.26585 5.95643
#
# Compressibility (1/GPa) = 0.03069007
#
# Stress axis : x y z
#
# Youngs Moduli (GPa) = 77.54933 78.62899 100.51897
#
# Poissons Ratio (x) = -0.15177 0.22879
# Poissons Ratio (y) = -0.14969 0.21006
# Poissons Ratio (z) = 0.17651 0.16432
#
# Static dielectric constant tensor:
#      x y z
#    x 2.148250 -0.063670 0.026450 
#    y -0.063670 2.149900 -0.036580 
#    z 0.026450 -0.036580 2.254030 
# 
# From -- ./inp_files/617085.got.cif
#   From: 2010.05.17/outbox.cif.g08.bks.cpg/sg2_309_cif.got.tgz:617085.got - 2010.06.03 11:33:40.
