data_PCOD9012260
_publ_section_title
;
Structure prediction by ZEFSAII (Michael W. Deem and Ramdas Pophale) SiO2 
 PCOD9012260
Probable space group: P -1
;
_chemical_formula_sum "Si O2"
_cell_formula_units_Z 14
_cell_length_a 12.422623
_cell_length_b 8.851817
_cell_length_c 8.859458
_cell_angle_alpha 123.468774
_cell_angle_beta 67.766383
_cell_angle_gamma 127.976260
_cell_volume 639.472742
_symmetry_space_group_name_H-M "P -1"
_symmetry_group_IT_number 2
_symmetry_cell_setting 'triclinic'
loop_
_space_group_symop_operation_xyz
x,y,z
-x,-y,-z
loop_
_atom_site_type_symbol
_atom_site_label
_atom_site_fract_x
_atom_site_fract_y
_atom_site_fract_z
Si Si1 0.434741 0.123142 0.535070
Si Si2 0.903266 0.919541 0.860870
Si Si3 0.591009 0.577678 0.843065
Si Si4 0.111260 0.772797 0.194241
Si Si5 0.848132 0.970923 0.386385
Si Si6 0.509121 0.188595 0.193638
Si Si7 0.808533 0.506874 0.158569
O O1 0.537823 0.364156 0.660844
O O2 0.280589 0.035277 0.625958
O O3 0.432685 0.113338 0.350240
O O4 0.500000 0.000000 0.500000
O O5 0.753418 0.717896 0.862181
O O6 0.883967 0.101867 0.892898
O O7 0.998272 0.881990 0.675746
O O8 0.000000 0.000000 0.000000
O O9 0.552304 0.712437 0.830193
O O10 0.500000 0.500000 0.000000
O O11 0.953391 0.588398 0.205187
O O12 0.149052 0.945286 0.400384
O O13 0.190373 0.646705 0.059458
O O14 0.815597 0.729518 0.249543
O O15 0.667625 0.360766 0.238313
O O16 0.500000 0.000000 0.000000
#
# Coordination Sequence:
#
# PCOD9012260 Si02
#       7
#     2   2   2   2   2   2   2
#     4  12  27  47  71 106 145 185 240 297 364 434
#     4  11  24  42  70 101 142 187 232 292 361 421
#     4  12  26  45  73 105 144 189 238 295 359 426
#     4  10  23  41  72 103 140 182 244 286 357 432
#     4  11  23  46  74  99 141 185 238 294 356 431
#     4  12  25  43  75 103 142 187 243 292 365 429
#     4  10  21  40  69 103 138 182 236 292 352 421
#
# _framework density 21.893037
#
# number of rings (size 3 to 8) (size 9 to 14) (size 15 to 20)
#    0.000    0.857    1.429    6.429    6.000    1.143 
#    2.571    0.714    0.000    0.000    0.000    0.000 
#    0.000    0.000    0.000    0.000    0.000    0.000 
#
# Total GULP energy -78161.741593 kJ/mol
# GULP energy per Si atom -5582.981542 kJ/mol
# Density = 2.184321 g / cm^3
# Si number density = 21.893037 Si / 1000 Ang^3
#
#
#
# Elastic Constant Matrix: (Units=GPa)
#
#
# Indices 1 2 3 4 5 6 
#
# 1 135.5949 71.7192 54.1911 3.3515 -19.9769 16.0174
# 2 71.7192 97.9832 56.3940 -3.0535 -3.6235 18.3254
# 3 54.1911 56.3940 152.0796 8.2773 -6.1640 -17.1236
# 4 3.3515 -3.0535 8.2773 38.9347 -0.1848 -8.6018
# 5 -19.9769 -3.6235 -6.1640 -0.1848 37.7470 -1.1097
# 6 16.0174 18.3254 -17.1236 -8.6018 -1.1097 59.7777
#
#
#
# Elastic Compliance Matrix: (Units=1/GPa)
#
#
# Indices 1 2 3 4 5 6 
#
# 1 0.013716 -0.008723 -0.001481 -0.001870 0.006124 -0.001580
# 2 -0.008723 0.020627 -0.005409 0.002338 -0.003663 -0.005267
# 3 -0.001481 -0.005409 0.009722 -0.001333 0.000415 0.004656
# 4 -0.001870 0.002338 -0.001333 0.027033 -0.000754 0.003279
# 5 0.006124 -0.003663 0.000415 -0.000754 0.029447 0.000039
# 6 -0.001580 -0.005267 0.004656 0.003279 0.000039 0.020573
#
#
# Mechanical properties :
#
#
# Convention : Reuss Voigt Hill
#
# Bulk Modulus (GPa) = 77.88866 83.36293 80.62579
# Shear Modulus (GPa) = 31.92388 40.84878 36.38633
#
# Velocity S-wave (km/s) = 3.82275 4.32422 4.08119
# Velocity P-wave (km/s) = 7.42554 7.94304 7.68864
#
# Compressibility (1/GPa) = 0.01283884
#
# Stress axis : x y z
#
# Youngs Moduli (GPa) = 72.90865 48.48119 102.85489
#
# Poissons Ratio (x) = 0.42292 0.15228
# Poissons Ratio (y) = 0.63602 0.55634
# Poissons Ratio (z) = 0.10794 0.26223
#
# Static dielectric constant tensor:
#      x y z
#    x 1.808850 0.034960 0.018990 
#    y 0.034960 1.805080 -0.010500 
#    z 0.018990 -0.010500 1.838450 
# 
# From -- ./inp_files/245823.got.cif
#   From: 2010.05.17/outbox.cif.g08.bks.cpg/sg2_123_cif.got.tgz:245823.got - 2010.06.03 11:33:40.
