data_PCOD9012808
_publ_section_title
;
Structure prediction by ZEFSAII (Michael W. Deem and Ramdas Pophale) SiO2 
 PCOD9012808
Probable space group: P -1
;
_chemical_formula_sum "Si O2"
_cell_formula_units_Z 12
_cell_length_a 9.071030
_cell_length_b 8.166123
_cell_length_c 9.811852
_cell_angle_alpha 66.503959
_cell_angle_beta 82.097676
_cell_angle_gamma 47.895763
_cell_volume 485.447098
_symmetry_space_group_name_H-M "P -1"
_symmetry_group_IT_number 2
_symmetry_cell_setting 'triclinic'
loop_
_space_group_symop_operation_xyz
x,y,z
-x,-y,-z
loop_
_atom_site_type_symbol
_atom_site_label
_atom_site_fract_x
_atom_site_fract_y
_atom_site_fract_z
Si Si1 0.236432 0.929355 0.127618
Si Si2 0.779298 0.651598 0.037633
Si Si3 0.386572 0.330016 0.671496
Si Si4 0.157829 0.916476 0.842154
Si Si5 0.533172 0.807878 0.758445
Si Si6 0.134475 0.536947 0.392528
O O1 0.411447 0.741125 0.273836
O O2 0.010207 0.096954 0.163025
O O3 0.291404 0.085604 0.025935
O O4 0.228202 0.832650 0.017287
O O5 0.756351 0.579175 0.209391
O O6 0.643054 0.673497 0.931625
O O7 0.000000 0.500000 0.000000
O O8 0.264028 0.520097 0.503003
O O9 0.447634 0.079827 0.694150
O O10 0.015573 0.208137 0.750740
O O11 0.352197 0.811601 0.762986
O O12 0.702775 0.668337 0.667334
O O13 0.000000 0.500000 0.500000
#
# Coordination Sequence:
#
# PCOD9012808 Si02
#       6
#     2   2   2   2   2   2
#     4  10  21  41  61  89 126 165 200 259 302 362
#     4  11  20  39  67  95 117 161 217 252 297 367
#     4  11  21  40  65  91 124 160 208 259 303 359
#     4  11  22  41  63  89 129 162 204 251 313 363
#     4  11  21  40  66  90 121 164 208 251 304 365
#     4  12  24  39  65  96 122 162 209 253 309 369
#
# _framework density 24.719480999999998
#
# number of rings (size 3 to 8) (size 9 to 14) (size 15 to 20)
#    0.000    1.000    5.000    3.500    0.000    0.667 
#    3.000    3.333    0.000    0.000    0.000    0.000 
#    0.000    0.000    0.000    0.000    0.000    0.000 
#
# Total GULP energy -67147.861795 kJ/mol
# GULP energy per Si atom -5595.655150 kJ/mol
# Density = 2.466322 g / cm^3
# Si number density = 24.719481 Si / 1000 Ang^3
#
#
#
# Elastic Constant Matrix: (Units=GPa)
#
#
# Indices 1 2 3 4 5 6 
#
# 1 169.3282 39.8818 49.7421 8.4789 -8.8178 -36.6894
# 2 39.8818 90.5140 38.5659 28.2949 -15.5478 -28.6569
# 3 49.7421 38.5659 106.9622 21.7420 -0.0422 -8.2720
# 4 8.4789 28.2949 21.7420 36.6016 -14.6547 -11.6365
# 5 -8.8178 -15.5478 -0.0422 -14.6547 53.3893 -3.8453
# 6 -36.6894 -28.6569 -8.2720 -11.6365 -3.8453 39.6881
#
#
#
# Elastic Compliance Matrix: (Units=1/GPa)
#
#
# Indices 1 2 3 4 5 6 
#
# 1 0.009218 -0.000164 -0.004534 0.005046 0.003524 0.009279
# 2 -0.000164 0.019754 -0.004756 -0.006862 0.004671 0.011562
# 3 -0.004534 -0.004756 0.014229 -0.008060 -0.004875 -0.007495
# 4 0.005046 -0.006862 -0.008060 0.045025 0.012080 0.012401
# 5 0.003524 0.004671 -0.004875 0.012080 0.024817 0.011561
# 6 0.009279 0.011562 -0.007495 0.012401 0.011561 0.045316
#
#
# Mechanical properties :
#
#
# Convention : Reuss Voigt Hill
#
# Bulk Modulus (GPa) = 41.16199 69.24266 55.20232
# Shear Modulus (GPa) = 26.97382 41.84344 34.40863
#
# Velocity S-wave (km/s) = 3.30691 4.11874 3.73495
# Velocity P-wave (km/s) = 5.59184 7.11976 6.40155
#
# Compressibility (1/GPa) = 0.02429426
#
# Stress axis : x y z
#
# Youngs Moduli (GPa) = 108.48812 50.62159 70.27798
#
# Poissons Ratio (x) = 0.00829 0.31866
# Poissons Ratio (y) = 0.01776 0.33421
# Poissons Ratio (z) = 0.49191 0.24073
#
# Static dielectric constant tensor:
#      x y z
#    x 2.028500 0.029480 0.011980 
#    y 0.029480 2.024000 -0.033180 
#    z 0.011980 -0.033180 1.911570 
# 
# From -- ./inp_files/157298.got.cif
#   From: 2010.05.17/outbox.cif.g08.bks.cpg/sg2_79_cif.got.tgz:157298.got - 2010.06.03 11:33:40.
