data_PCOD9012502
_publ_section_title
;
Structure prediction by ZEFSAII (Michael W. Deem and Ramdas Pophale) SiO2 
 PCOD9012502
Probable space group: P -1
;
_chemical_formula_sum "Si O2"
_cell_formula_units_Z 16
_cell_length_a 13.319887
_cell_length_b 10.789146
_cell_length_c 9.073667
_cell_angle_alpha 89.739471
_cell_angle_beta 97.656796
_cell_angle_gamma 31.411202
_cell_volume 655.653003
_symmetry_space_group_name_H-M "P -1"
_symmetry_group_IT_number 2
_symmetry_cell_setting 'triclinic'
loop_
_space_group_symop_operation_xyz
x,y,z
-x,-y,-z
loop_
_atom_site_type_symbol
_atom_site_label
_atom_site_fract_x
_atom_site_fract_y
_atom_site_fract_z
Si Si1 0.855954 0.615795 0.337161
Si Si2 0.459781 0.218770 0.813629
Si Si3 0.429001 0.884201 0.862617
Si Si4 0.935808 0.691698 0.903384
Si Si5 0.226631 0.720962 0.748560
Si Si6 0.212033 0.864372 0.342869
Si Si7 0.173925 0.959471 0.994560
Si Si8 0.517987 0.340670 0.378301
O O1 0.662015 0.735387 0.326946
O O2 0.000000 0.500000 0.500000
O O3 0.975342 0.409660 0.241047
O O4 0.755249 0.839339 0.233122
O O5 0.365990 0.454443 0.787499
O O6 0.695375 0.950423 0.838985
O O7 0.433723 0.202351 0.981928
O O8 0.527708 0.724260 0.737168
O O9 0.336807 0.865529 0.934578
O O10 0.989728 0.760323 0.004914
O O11 0.000000 0.500000 0.000000
O O12 0.345007 0.702490 0.683132
O O13 0.158950 0.853683 0.891593
O O14 0.012744 0.902619 0.645488
O O15 0.320015 0.618684 0.390346
O O16 0.343562 0.828575 0.452447
O O17 0.227215 0.865089 0.170698
#
# Coordination Sequence:
#
# PCOD9012502 Si02
#       8
#     2   2   2   2   2   2   2   2
#     4  12  27  46  70  98 137 178 228 283 339 396
#     4  11  24  44  74  98 133 180 231 272 336 410
#     4  10  22  43  67  97 134 178 222 276 336 397
#     4  11  23  44  69 100 134 179 227 276 330 398
#     4  11  23  42  67 100 136 172 225 275 338 399
#     4  11  22  39  63  99 134 176 223 271 337 402
#     4  10  21  40  70  96 132 174 221 271 328 402
#     4  10  23  40  63  98 137 174 215 280 343 392
#
# _framework density 24.403154000000001
#
# number of rings (size 3 to 8) (size 9 to 14) (size 15 to 20)
#    0.000    1.250    2.500    4.125    3.500    5.000 
#    0.000    0.000    0.000    0.000    0.000    0.000 
#    0.000    0.000    0.000    0.000    0.000    0.000 
#
# Total GULP energy -89337.756431 kJ/mol
# GULP energy per Si atom -5583.609777 kJ/mol
# Density = 2.434761 g / cm^3
# Si number density = 24.403154 Si / 1000 Ang^3
#
#
#
# Elastic Constant Matrix: (Units=GPa)
#
#
# Indices 1 2 3 4 5 6 
#
# 1 68.5319 28.4913 27.9532 -19.7338 11.8992 5.9024
# 2 28.4913 141.5841 30.3032 -17.8646 10.5855 -10.0281
# 3 27.9532 30.3032 113.7963 -9.9940 9.2665 11.3854
# 4 -19.7338 -17.8646 -9.9940 46.3908 0.0259 1.8631
# 5 11.8992 10.5855 9.2665 0.0259 29.4729 0.7690
# 6 5.9024 -10.0281 11.3854 1.8631 0.7690 28.1675
#
#
#
# Elastic Compliance Matrix: (Units=1/GPa)
#
#
# Indices 1 2 3 4 5 6 
#
# 1 0.020287 -0.002403 -0.002756 0.007287 -0.006355 -0.004301
# 2 -0.002403 0.008578 -0.001832 0.001718 -0.001647 0.004229
# 3 -0.002756 -0.001832 0.010554 0.000571 -0.001435 -0.004339
# 4 0.007287 0.001718 0.000571 0.025552 -0.003690 -0.002736
# 5 -0.006355 -0.001647 -0.001435 -0.003690 0.037527 0.000545
# 6 -0.004301 0.004229 -0.004339 -0.002736 0.000545 0.039829
#
#
# Mechanical properties :
#
#
# Convention : Reuss Voigt Hill
#
# Bulk Modulus (GPa) = 39.31247 55.26753 47.29000
# Shear Modulus (GPa) = 30.34228 36.61720 33.47974
#
# Velocity S-wave (km/s) = 3.52998 3.87785 3.70799
# Velocity P-wave (km/s) = 5.72354 6.53813 6.14435
#
# Compressibility (1/GPa) = 0.02543722
#
# Stress axis : x y z
#
# Youngs Moduli (GPa) = 49.29309 116.57765 94.75454
#
# Poissons Ratio (x) = 0.28009 0.26112
# Poissons Ratio (y) = 0.11843 0.17362
# Poissons Ratio (z) = 0.13584 0.21360
#
# Static dielectric constant tensor:
#      x y z
#    x 2.080040 -0.011370 0.029880 
#    y -0.011370 1.937490 0.004890 
#    z 0.029880 0.004890 2.046450 
# 
# From -- ./inp_files/307565.got.cif
#   From: 2010.05.17/outbox.cif.g08.bks.cpg/sg2_154_cif.got.tgz:307565.got - 2010.06.03 11:33:40.
