data_PCOD9012054
_publ_section_title
;
Structure prediction by ZEFSAII (Michael W. Deem and Ramdas Pophale) SiO2 
 PCOD9012054
Probable space group: P -1
;
_chemical_formula_sum "Si O2"
_cell_formula_units_Z 14
_cell_length_a 19.480835
_cell_length_b 9.185455
_cell_length_c 12.553333
_cell_angle_alpha 42.575031
_cell_angle_beta 140.604761
_cell_angle_gamma 105.911359
_cell_volume 701.020989
_symmetry_space_group_name_H-M "P -1"
_symmetry_group_IT_number 2
_symmetry_cell_setting 'triclinic'
loop_
_space_group_symop_operation_xyz
x,y,z
-x,-y,-z
loop_
_atom_site_type_symbol
_atom_site_label
_atom_site_fract_x
_atom_site_fract_y
_atom_site_fract_z
Si Si1 0.642994 0.776585 0.864610
Si Si2 0.195516 0.354152 0.550309
Si Si3 0.348522 0.711280 0.770562
Si Si4 0.546093 0.189891 0.729300
Si Si5 0.366573 0.131167 0.685137
Si Si6 0.082704 0.348728 0.793565
Si Si7 0.832132 0.144099 0.717110
O O1 0.500000 0.000000 0.500000
O O2 0.612936 0.980616 0.817590
O O3 0.662884 0.503792 0.071284
O O4 0.792728 0.640632 0.056775
O O5 0.211285 0.368900 0.434996
O O6 0.251652 0.512830 0.573240
O O7 0.042736 0.495959 0.348272
O O8 0.317431 0.014561 0.913883
O O9 0.216831 0.913034 0.416691
O O10 0.362901 0.893489 0.767026
O O11 0.500000 0.500000 0.000000
O O12 0.500000 0.500000 0.500000
O O13 0.407930 0.236246 0.582514
O O14 0.500000 0.000000 0.000000
O O15 0.000000 0.500000 0.500000
O O16 0.176279 0.998861 0.113526
O O17 0.000000 0.000000 0.000000
#
# Coordination Sequence:
#
# PCOD9012054 Si02
#       7
#     2   2   2   2   2   2   2
#     4  12  25  38  66 102 133 167 226 282 334 391
#     4  10  21  43  63  94 131 179 224 264 331 407
#     4  12  21  43  66  94 131 175 230 275 318 405
#     4  11  23  40  64  99 136 171 219 276 340 385
#     4  10  23  39  64  93 131 176 220 271 329 393
#     4  11  22  41  68  97 132 171 220 278 336 398
#     4  10  21  40  68  93 128 175 223 265 329 405
#
# _framework density 19.970872
#
# number of rings (size 3 to 8) (size 9 to 14) (size 15 to 20)
#    0.000    1.143    4.286    2.571    6.000    0.000 
#    0.000    3.571    0.000    0.000    0.000    0.000 
#    0.000    0.000    0.000    0.000    0.000    0.000 
#
# Total GULP energy -77984.526085 kJ/mol
# GULP energy per Si atom -5570.323292 kJ/mol
# Density = 1.992542 g / cm^3
# Si number density = 19.970872 Si / 1000 Ang^3
#
#
#
# Elastic Constant Matrix: (Units=GPa)
#
#
# Indices 1 2 3 4 5 6 
#
# 1 158.3531 50.2158 32.2438 -9.3901 19.2343 25.8691
# 2 50.2158 131.0066 28.8554 -8.5500 -5.3364 15.3987
# 3 32.2438 28.8554 94.9980 5.6018 -14.6611 19.8675
# 4 -9.3901 -8.5500 5.6018 39.3228 8.5625 -7.8619
# 5 19.2343 -5.3364 -14.6611 8.5625 40.2203 -7.3704
# 6 25.8691 15.3987 19.8675 -7.8619 -7.3704 42.5811
#
#
#
# Elastic Compliance Matrix: (Units=1/GPa)
#
#
# Indices 1 2 3 4 5 6 
#
# 1 0.009463 -0.002621 -0.002823 0.002833 -0.007279 -0.004220
# 2 -0.002621 0.009194 -0.001633 0.001173 0.001539 -0.000488
# 3 -0.002823 -0.001633 0.014194 -0.005335 0.006684 -0.004145
# 4 0.002833 0.001173 -0.005335 0.029889 -0.008709 0.004355
# 5 -0.007279 0.001539 0.006684 -0.008709 0.033751 0.004981
# 6 -0.004220 -0.000488 -0.004145 0.004355 0.004981 0.029825
#
#
# Mechanical properties :
#
#
# Convention : Reuss Voigt Hill
#
# Bulk Modulus (GPa) = 53.48618 67.44309 60.46464
# Shear Modulus (GPa) = 34.08265 42.62768 38.35516
#
# Velocity S-wave (km/s) = 4.13561 4.62507 4.38717
# Velocity P-wave (km/s) = 7.04589 7.89720 7.48366
#
# Compressibility (1/GPa) = 0.01869642
#
# Stress axis : x y z
#
# Youngs Moduli (GPa) = 105.68004 108.76693 70.45322
#
# Poissons Ratio (x) = 0.28504 0.19892
# Poissons Ratio (y) = 0.27695 0.11504
# Poissons Ratio (z) = 0.29838 0.17760
#
# Static dielectric constant tensor:
#      x y z
#    x 1.792770 -0.100840 0.047180 
#    y -0.100840 2.079970 -0.281810 
#    z 0.047180 -0.281810 1.963470 
# 
# From -- ./inp_files/200917.got.cif
#   From: 2010.05.17/outbox.cif.g08.bks.cpg/sg2_101_cif.got.tgz:200917.got - 2010.06.03 11:33:40.
