data_PCOD9012788
_publ_section_title
;
Structure prediction by ZEFSAII (Michael W. Deem and Ramdas Pophale) SiO2 
 PCOD9012788
Probable space group: P -1
;
_chemical_formula_sum "Si O2"
_cell_formula_units_Z 16
_cell_length_a 7.093685
_cell_length_b 16.023694
_cell_length_c 7.674783
_cell_angle_alpha 106.096167
_cell_angle_beta 123.113922
_cell_angle_gamma 68.298310
_cell_volume 675.714568
_symmetry_space_group_name_H-M "P -1"
_symmetry_group_IT_number 2
_symmetry_cell_setting 'triclinic'
loop_
_space_group_symop_operation_xyz
x,y,z
-x,-y,-z
loop_
_atom_site_type_symbol
_atom_site_label
_atom_site_fract_x
_atom_site_fract_y
_atom_site_fract_z
Si Si1 0.076554 0.781757 0.003092
Si Si2 0.224938 0.145241 0.812500
Si Si3 0.122064 0.132823 0.379388
Si Si4 0.181274 0.928411 0.339123
Si Si5 0.404650 0.830516 0.731526
Si Si6 0.362111 0.371262 0.395084
Si Si7 0.604802 0.485663 0.779076
Si Si8 0.835845 0.405576 0.192054
O O1 0.217701 0.688129 0.942172
O O2 0.877016 0.824899 0.785241
O O3 0.210272 0.856485 0.156204
O O4 0.954504 0.773315 0.122853
O O5 0.247786 0.159898 0.627967
O O6 0.081753 0.069221 0.721618
O O7 0.456962 0.128200 0.031721
O O8 0.849763 0.164451 0.316116
O O9 0.197154 0.024833 0.343934
O O10 0.354144 0.885875 0.557533
O O11 0.536244 0.726273 0.696087
O O12 0.560980 0.394076 0.628561
O O13 0.307072 0.452746 0.275683
O O14 0.109746 0.380358 0.360354
O O15 0.340757 0.544469 0.723021
O O16 0.762395 0.466900 0.018940
#
# Coordination Sequence:
#
# PCOD9012788 Si02
#       8
#     2   2   2   2   2   2   2   2
#     4  10  21  41  61  84 124 162 196 255 305 358
#     4   9  21  38  57  86 116 161 197 250 300 353
#     4  11  22  39  59  91 121 159 211 247 301 368
#     4   9  21  38  60  85 124 161 199 257 303 351
#     4  11  20  38  63  85 121 162 201 248 310 363
#     4  11  21  40  63  91 120 161 204 249 311 374
#     4  10  24  37  64  92 117 161 201 250 316 370
#     4  11  21  43  59  88 129 153 203 260 303 371
#
# _framework density 23.678636999999998
#
# number of rings (size 3 to 8) (size 9 to 14) (size 15 to 20)
#    0.750    1.000    1.250    4.125    0.000    2.000 
#    2.250    3.125    0.000    0.000    0.000    0.000 
#    0.000    0.000    0.000    0.000    0.000    0.000 
#
# Total GULP energy -89376.502420 kJ/mol
# GULP energy per Si atom -5586.031401 kJ/mol
# Density = 2.362474 g / cm^3
# Si number density = 23.678637 Si / 1000 Ang^3
#
#
#
# Elastic Constant Matrix: (Units=GPa)
#
#
# Indices 1 2 3 4 5 6 
#
# 1 50.8936 14.9648 25.2859 4.9651 16.6205 -2.0112
# 2 14.9648 83.6428 43.5859 7.7519 5.6121 -11.6289
# 3 25.2859 43.5859 128.5883 6.1317 -2.6471 3.8225
# 4 4.9651 7.7519 6.1317 23.1068 -2.2988 -3.6851
# 5 16.6205 5.6121 -2.6471 -2.2988 36.6178 -6.8739
# 6 -2.0112 -11.6289 3.8225 -3.6851 -6.8739 11.4074
#
#
#
# Elastic Compliance Matrix: (Units=1/GPa)
#
#
# Indices 1 2 3 4 5 6 
#
# 1 0.027433 -0.001820 -0.004581 -0.006425 -0.014037 -0.006018
# 2 -0.001820 0.018648 -0.006550 -0.000526 0.001522 0.021632
# 3 -0.004581 -0.006550 0.011314 -0.001330 0.001827 -0.010605
# 4 -0.006425 -0.000526 -0.001330 0.049477 0.009897 0.020724
# 5 -0.014037 0.001522 0.001827 0.009897 0.038914 0.025111
# 6 -0.006018 0.021632 -0.010605 0.020724 0.025111 0.134032
#
#
# Mechanical properties :
#
#
# Convention : Reuss Voigt Hill
#
# Bulk Modulus (GPa) = 31.75299 47.86643 39.80971
# Shear Modulus (GPa) = 15.81182 26.17896 20.99539
#
# Velocity S-wave (km/s) = 2.58692 3.32865 2.98095
# Velocity P-wave (km/s) = 4.72885 5.91880 5.35697
#
# Compressibility (1/GPa) = 0.03149309
#
# Stress axis : x y z
#
# Youngs Moduli (GPa) = 36.45211 53.62403 88.38644
#
# Poissons Ratio (x) = 0.09761 0.40492
# Poissons Ratio (y) = 0.06635 0.57890
# Poissons Ratio (z) = 0.16700 0.35122
#
# Static dielectric constant tensor:
#      x y z
#    x 1.942710 0.010280 0.008260 
#    y 0.010280 1.855790 0.022590 
#    z 0.008260 0.022590 1.924230 
# 
# From -- ./inp_files/207999.got.cif
#   From: 2010.05.17/outbox.cif.g08.bks.cpg/sg2_104_cif.got.tgz:207999.got - 2010.06.03 11:33:40.
