data_PCOD9012576
_publ_section_title
;
Structure prediction by ZEFSAII (Michael W. Deem and Ramdas Pophale) SiO2 
 PCOD9012576
Probable space group: P -1
;
_chemical_formula_sum "Si O2"
_cell_formula_units_Z 16
_cell_length_a 11.648126
_cell_length_b 20.332432
_cell_length_c 9.756294
_cell_angle_alpha 42.662952
_cell_angle_beta 137.808856
_cell_angle_gamma 151.763486
_cell_volume 708.942946
_symmetry_space_group_name_H-M "P -1"
_symmetry_group_IT_number 2
_symmetry_cell_setting 'triclinic'
loop_
_space_group_symop_operation_xyz
x,y,z
-x,-y,-z
loop_
_atom_site_type_symbol
_atom_site_label
_atom_site_fract_x
_atom_site_fract_y
_atom_site_fract_z
Si Si1 0.262444 0.340620 0.971649
Si Si2 0.699434 0.137180 0.063122
Si Si3 0.005986 0.591438 0.256203
Si Si4 0.893993 0.432394 0.163245
Si Si5 0.280092 0.331179 0.690291
Si Si6 0.547426 0.384665 0.600065
Si Si7 0.127803 0.157192 0.373367
Si Si8 0.292886 0.850266 0.628153
O O1 0.055244 0.338300 0.816183
O O2 0.241757 0.294632 0.870297
O O3 0.500000 0.500000 0.000000
O O4 0.227791 0.232357 0.200285
O O5 0.635714 0.123257 0.188122
O O6 0.940713 0.166355 0.234851
O O7 0.764868 0.266620 0.849949
O O8 0.500000 0.000000 0.000000
O O9 0.816406 0.481883 0.129053
O O10 0.000000 0.500000 0.500000
O O11 0.718116 0.265112 0.258164
O O12 0.165183 0.514300 0.340630
O O13 0.000000 0.500000 0.000000
O O14 0.444842 0.325342 0.754659
O O15 0.459752 0.502077 0.594941
O O16 0.001906 0.235482 0.522619
O O17 0.357199 0.254048 0.532108
O O18 0.000000 0.000000 0.500000
O O19 0.500000 0.000000 0.500000
#
# Coordination Sequence:
#
# PCOD9012576 Si02
#       8
#     2   2   2   2   2   2   2   2
#     4  11  24  42  69 100 134 175 225 283 340 410
#     4  11  26  44  67  96 139 184 225 284 348 412
#     4  11  25  43  67 102 135 171 234 278 348 403
#     4  11  24  42  68 100 134 179 234 291 340 412
#     4  10  21  42  69  95 130 176 229 283 339 403
#     4  10  21  40  71  94 130 180 229 284 340 404
#     4  11  25  44  66  98 138 179 227 278 350 410
#     4  11  24  43  66  98 137 179 227 278 353 412
#
# _framework density 22.568812000000001
#
# number of rings (size 3 to 8) (size 9 to 14) (size 15 to 20)
#    0.000    1.250    3.750    1.500    8.750    0.000 
#    0.000    0.625    0.000    0.000    0.000    0.000 
#    0.000    0.000    0.000    0.000    0.000    0.000 
#
# Total GULP energy -89226.321950 kJ/mol
# GULP energy per Si atom -5576.645122 kJ/mol
# Density = 2.251744 g / cm^3
# Si number density = 22.568812 Si / 1000 Ang^3
#
#
#
# Elastic Constant Matrix: (Units=GPa)
#
#
# Indices 1 2 3 4 5 6 
#
# 1 77.9941 26.9115 45.7634 4.6179 -28.3864 -8.9103
# 2 26.9115 172.4738 73.3272 -18.0602 -25.6594 -12.9895
# 3 45.7634 73.3272 106.9020 -22.7115 -39.5583 -14.3354
# 4 4.6179 -18.0602 -22.7115 47.8678 0.5472 -4.5077
# 5 -28.3864 -25.6594 -39.5583 0.5472 53.6479 8.5886
# 6 -8.9103 -12.9895 -14.3354 -4.5077 8.5886 30.1768
#
#
#
# Elastic Compliance Matrix: (Units=1/GPa)
#
#
# Indices 1 2 3 4 5 6 
#
# 1 0.019435 0.000542 -0.008208 -0.005623 0.004558 -0.000065
# 2 0.000542 0.008245 -0.005696 0.000463 -0.000153 0.001116
# 3 -0.008208 -0.005696 0.022796 0.009819 0.008857 0.004899
# 4 -0.005623 0.000463 0.009819 0.026823 0.003204 0.006298
# 5 0.004558 -0.000153 0.008857 0.003204 0.027787 -0.001943
# 6 -0.000065 0.001116 0.004899 0.006298 -0.001943 0.037420
#
#
# Mechanical properties :
#
#
# Convention : Reuss Voigt Hill
#
# Bulk Modulus (GPa) = 42.10463 72.15268 57.12865
# Shear Modulus (GPa) = 28.22488 40.42967 34.32728
#
# Velocity S-wave (km/s) = 3.54024 4.23708 3.90424
# Velocity P-wave (km/s) = 5.95043 7.48175 6.75960
#
# Compressibility (1/GPa) = 0.02375036
#
# Stress axis : x y z
#
# Youngs Moduli (GPa) = 51.45286 121.28837 43.86803
#
# Poissons Ratio (x) = -0.06569 0.36008
# Poissons Ratio (y) = -0.02787 0.24987
# Poissons Ratio (z) = 0.42234 0.69087
#
# Static dielectric constant tensor:
#      x y z
#    x 2.139450 0.011440 -0.011340 
#    y 0.011440 1.822890 0.053660 
#    z -0.011340 0.053660 1.904260 
# 
# From -- ./inp_files/279120.got.cif
#   From: 2010.05.17/outbox.cif.g08.bks.cpg/sg2_140_cif.got.tgz:279120.got - 2010.06.03 11:33:40.
