data_PCOD9012733
_publ_section_title
;
Structure prediction by ZEFSAII (Michael W. Deem and Ramdas Pophale) SiO2 
 PCOD9012733
Probable space group: P -1
;
_chemical_formula_sum "Si O2"
_cell_formula_units_Z 16
_cell_length_a 7.902000
_cell_length_b 11.815709
_cell_length_c 12.749885
_cell_angle_alpha 59.802426
_cell_angle_beta 40.205758
_cell_angle_gamma 61.906955
_cell_volume 656.099315
_symmetry_space_group_name_H-M "P -1"
_symmetry_group_IT_number 2
_symmetry_cell_setting 'triclinic'
loop_
_space_group_symop_operation_xyz
x,y,z
-x,-y,-z
loop_
_atom_site_type_symbol
_atom_site_label
_atom_site_fract_x
_atom_site_fract_y
_atom_site_fract_z
Si Si1 0.626338 0.924720 0.307812
Si Si2 0.045854 0.693652 0.439181
Si Si3 0.166345 0.734153 0.133052
Si Si4 0.182269 0.581601 0.987328
Si Si5 0.455313 0.795943 0.662793
Si Si6 0.181962 0.967222 0.331076
Si Si7 0.381538 0.145692 0.028050
Si Si8 0.392979 0.403854 0.792724
O O1 0.510598 0.840984 0.496371
O O2 0.461769 0.933021 0.274434
O O3 0.919029 0.850514 0.176343
O O4 0.608607 0.071154 0.298681
O O5 0.075630 0.667373 0.313237
O O6 0.100637 0.844472 0.363229
O O7 0.317188 0.600965 0.394730
O O8 0.737108 0.705956 0.608678
O O9 0.230669 0.632533 0.055773
O O10 0.417111 0.803996 0.009534
O O11 0.231720 0.705092 0.832127
O O12 0.370631 0.465608 0.891642
O O13 0.888597 0.538274 0.151711
O O14 0.136638 0.103892 0.223937
O O15 0.000000 0.000000 0.500000
O O16 0.353422 0.252464 0.901448
O O17 0.500000 0.000000 0.000000
#
# Coordination Sequence:
#
# PCOD9012733 Si02
#       8
#     2   2   2   2   2   2   2   2
#     4  10  22  37  61  92 130 164 201 262 312 380
#     4  10  21  41  59  92 129 162 205 261 313 373
#     4  10  22  38  64  91 126 164 209 253 320 367
#     4  11  24  42  67  94 121 174 216 255 309 378
#     4  10  22  38  61  93 127 163 209 256 316 369
#     4  12  22  35  59  92 127 159 199 253 319 370
#     4  11  23  39  62  93 124 164 204 262 317 365
#     4  10  24  43  67  88 131 164 216 260 312 373
#
# _framework density 24.386548999999999
#
# number of rings (size 3 to 8) (size 9 to 14) (size 15 to 20)
#    0.000    1.500    3.750    1.500    3.500    3.500 
#    0.000    0.000    5.500    6.750    0.000    0.000 
#    0.000    0.000    0.000    0.000    0.000    0.000 
#
# Total GULP energy -89238.842225 kJ/mol
# GULP energy per Si atom -5577.427639 kJ/mol
# Density = 2.433104 g / cm^3
# Si number density = 24.386549 Si / 1000 Ang^3
#
#
#
# Elastic Constant Matrix: (Units=GPa)
#
#
# Indices 1 2 3 4 5 6 
#
# 1 66.2245 25.5356 -5.2144 7.8667 -10.3604 13.2770
# 2 25.5356 76.8361 7.5943 19.7981 -7.4145 23.9303
# 3 -5.2144 7.5943 51.0288 8.1365 -8.2153 4.6514
# 4 7.8667 19.7981 8.1365 30.0447 -7.0537 1.3428
# 5 -10.3604 -7.4145 -8.2153 -7.0537 38.7052 15.0275
# 6 13.2770 23.9303 4.6514 1.3428 15.0275 41.4121
#
#
#
# Elastic Compliance Matrix: (Units=1/GPa)
#
#
# Indices 1 2 3 4 5 6 
#
# 1 0.019950 -0.003234 0.004966 -0.002067 0.008551 -0.008121
# 2 -0.003234 0.021952 0.000584 -0.011589 0.006697 -0.013768
# 3 0.004966 0.000584 0.022882 -0.005661 0.008080 -0.007248
# 4 -0.002067 -0.011589 -0.005661 0.043084 0.001531 0.006043
# 5 0.008551 0.006697 0.008080 0.001531 0.039972 -0.022074
# 6 -0.008121 -0.013768 -0.007248 0.006043 -0.022074 0.043336
#
#
# Mechanical properties :
#
#
# Convention : Reuss Voigt Hill
#
# Bulk Modulus (GPa) = 14.40604 27.76893 21.08749
# Shear Modulus (GPa) = 23.84566 33.11065 28.47816
#
# Velocity S-wave (km/s) = 3.13040 3.68875 3.42099
# Velocity P-wave (km/s) = 4.35730 5.43638 4.92648
#
# Compressibility (1/GPa) = 0.06941533
#
# Stress axis : x y z
#
# Youngs Moduli (GPa) = 50.12642 45.55325 43.70337
#
# Poissons Ratio (x) = 0.14732 -0.21704
# Poissons Ratio (y) = 0.16211 -0.02550
# Poissons Ratio (z) = -0.24894 -0.02658
#
# Static dielectric constant tensor:
#      x y z
#    x 8.949010 -2.324990 0.628550 
#    y -2.324990 2.695050 -0.162330 
#    z 0.628550 -0.162330 2.015250 
# 
# From -- ./inp_files/218665.got.cif
#   From: 2010.05.17/outbox.cif.g08.bks.cpg/sg2_110_cif.got.tgz:218665.got - 2010.06.03 11:33:40.
