data_PCOD9012316
_publ_section_title
;
Structure prediction by ZEFSAII (Michael W. Deem and Ramdas Pophale) SiO2 
 PCOD9012316
Probable space group: P -1
;
_chemical_formula_sum "Si O2"
_cell_formula_units_Z 16
_cell_length_a 8.384692
_cell_length_b 20.934615
_cell_length_c 8.708034
_cell_angle_alpha 147.563991
_cell_angle_beta 88.599912
_cell_angle_gamma 92.585988
_cell_volume 818.734403
_symmetry_space_group_name_H-M "P -1"
_symmetry_group_IT_number 2
_symmetry_cell_setting 'triclinic'
loop_
_space_group_symop_operation_xyz
x,y,z
-x,-y,-z
loop_
_atom_site_type_symbol
_atom_site_label
_atom_site_fract_x
_atom_site_fract_y
_atom_site_fract_z
Si Si1 0.338419 0.477981 0.620574
Si Si2 0.052895 0.981527 0.638784
Si Si3 0.061051 0.386591 0.676686
Si Si4 0.566088 0.674663 0.978405
Si Si5 0.922485 0.379976 0.192051
Si Si6 0.110020 0.790736 0.887850
Si Si7 0.630624 0.105775 0.681689
Si Si8 0.883717 0.748198 0.304317
O O1 0.204584 0.428757 0.642561
O O2 0.491228 0.558146 0.835855
O O3 0.383693 0.377587 0.295153
O O4 0.257935 0.583744 0.740510
O O5 0.233752 0.943328 0.534853
O O6 0.954644 0.879340 0.527062
O O7 0.000000 0.000000 0.500000
O O8 0.004200 0.108023 0.963131
O O9 0.129151 0.291019 0.599566
O O10 0.912178 0.318552 0.452644
O O11 0.000000 0.500000 0.000000
O O12 0.456614 0.786031 0.176376
O O13 0.721169 0.722902 0.164369
O O14 0.956790 0.271530 0.081525
O O15 0.000000 0.500000 0.500000
O O16 0.990089 0.341880 0.952156
O O17 0.277492 0.848910 0.069793
O O18 0.500000 0.000000 0.500000
#
# Coordination Sequence:
#
# PCOD9012316 Si02
#       8
#     2   2   2   2   2   2   2   2
#     4  11  23  38  62  97 129 170 214 269 327 373
#     4  10  21  40  69  93 118 165 225 276 308 369
#     4  12  26  39  67  95 135 176 216 259 323 393
#     4  11  23  38  65  94 133 164 213 275 324 377
#     4  12  18  36  66  91 121 164 226 270 303 369
#     4  11  22  41  68  94 126 166 221 274 308 379
#     4  11  23  37  67 102 122 158 216 283 330 359
#     4  12  22  39  63  93 128 171 216 263 324 390
#
# _framework density 19.542356000000002
#
# number of rings (size 3 to 8) (size 9 to 14) (size 15 to 20)
#    0.000    0.750    7.500    1.500    1.750    1.000 
#    0.000    0.000    0.000    1.500    0.000    0.000 
#    0.000    0.000    0.000    0.000    0.000    0.000 
#
# Total GULP energy -89113.402595 kJ/mol
# GULP energy per Si atom -5569.587662 kJ/mol
# Density = 1.949788 g / cm^3
# Si number density = 19.542356 Si / 1000 Ang^3
#
#
#
# Elastic Constant Matrix: (Units=GPa)
#
#
# Indices 1 2 3 4 5 6 
#
# 1 99.0106 36.0040 44.1552 13.7607 11.4904 5.2894
# 2 36.0040 110.2131 38.8115 26.3456 8.8249 12.2568
# 3 44.1552 38.8115 105.6364 13.2262 16.0402 5.8678
# 4 13.7607 26.3456 13.2262 29.5620 1.8549 3.3025
# 5 11.4904 8.8249 16.0402 1.8549 40.0879 14.4106
# 6 5.2894 12.2568 5.8678 3.3025 14.4106 29.8698
#
#
#
# Elastic Compliance Matrix: (Units=1/GPa)
#
#
# Indices 1 2 3 4 5 6 
#
# 1 0.013276 -0.002229 -0.004217 -0.002251 -0.001686 0.000455
# 2 -0.002229 0.013337 -0.002685 -0.009258 0.000573 -0.003803
# 3 -0.004217 -0.002685 0.012879 -0.001313 -0.003750 0.001273
# 4 -0.002251 -0.009258 -0.001313 0.043742 0.001599 -0.001152
# 5 -0.001686 0.000573 -0.003750 0.001599 0.032066 -0.014847
# 6 0.000455 -0.003803 0.001273 -0.001152 -0.014847 0.041999
#
#
# Mechanical properties :
#
#
# Convention : Reuss Voigt Hill
#
# Bulk Modulus (GPa) = 47.10608 61.42239 54.26423
# Shear Modulus (GPa) = 27.37658 32.96322 30.16990
#
# Velocity S-wave (km/s) = 3.74690 4.11147 3.93341
# Velocity P-wave (km/s) = 6.54797 7.35102 6.96109
#
# Compressibility (1/GPa) = 0.02122868
#
# Stress axis : x y z
#
# Youngs Moduli (GPa) = 75.32598 74.97775 77.64640
#
# Poissons Ratio (x) = 0.16713 0.32747
# Poissons Ratio (y) = 0.16791 0.20848
# Poissons Ratio (z) = 0.31769 0.20131
#
# Static dielectric constant tensor:
#      x y z
#    x 1.756430 -0.024050 0.032860 
#    y -0.024050 1.697230 0.012140 
#    z 0.032860 0.012140 1.741810 
# 
# From -- ./inp_files/224373.got.cif
#   From: 2010.05.17/outbox.cif.g08.bks.cpg/sg2_113_cif.got.tgz:224373.got - 2010.06.03 11:33:40.
