data_PCOD9012939
_publ_section_title
;
Structure prediction by ZEFSAII (Michael W. Deem and Ramdas Pophale) SiO2 
 PCOD9012939
Probable space group: P -1
;
_chemical_formula_sum "Si O2"
_cell_formula_units_Z 16
_cell_length_a 18.513252
_cell_length_b 8.665129
_cell_length_c 5.420901
_cell_angle_alpha 60.349359
_cell_angle_beta 116.399906
_cell_angle_gamma 120.125387
_cell_volume 630.976538
_symmetry_space_group_name_H-M "P -1"
_symmetry_group_IT_number 2
_symmetry_cell_setting 'triclinic'
loop_
_space_group_symop_operation_xyz
x,y,z
-x,-y,-z
loop_
_atom_site_type_symbol
_atom_site_label
_atom_site_fract_x
_atom_site_fract_y
_atom_site_fract_z
Si Si1 0.218787 0.863071 0.832913
Si Si2 0.042682 0.227241 0.924056
Si Si3 0.975777 0.188628 0.353309
Si Si4 0.321746 0.957744 0.388375
Si Si5 0.390877 0.417169 0.694429
Si Si6 0.517232 0.782951 0.306435
Si Si7 0.625162 0.344683 0.131095
Si Si8 0.229868 0.455501 0.186064
O O1 0.123567 0.868463 0.678439
O O2 0.266284 0.919198 0.592356
O O3 0.270786 0.983660 0.052051
O O4 0.208077 0.644519 0.057305
O O5 0.032288 0.305348 0.576378
O O6 0.141497 0.291279 0.107338
O O7 0.994765 0.283010 0.036692
O O8 0.000000 0.000000 0.000000
O O9 0.000000 0.000000 0.500000
O O10 0.345887 0.770565 0.526344
O O11 0.415163 0.116751 0.457420
O O12 0.448842 0.589855 0.471456
O O13 0.420540 0.249711 0.783426
O O14 0.411874 0.506803 0.925348
O O15 0.290277 0.387070 0.513207
O O16 0.442677 0.824329 0.001041
O O17 0.708405 0.472132 0.011857
#
# Coordination Sequence:
#
# PCOD9012939 Si02
#       8
#     2   2   2   2   2   2   2   2
#     4  11  24  43  65  95 131 169 217 265 323 386
#     4  10  23  42  66  95 125 163 210 263 323 387
#     4  10  23  42  64  91 128 163 205 268 322 385
#     4  11  24  42  67  97 130 174 219 265 315 377
#     4  10  21  41  62  90 135 169 220 261 326 375
#     4  10  23  37  61  98 128 174 218 270 313 376
#     4  10  21  41  63  91 131 174 215 265 319 382
#     4  10  23  40  64  93 126 172 215 263 324 386
#
# _framework density 25.357521999999999
#
# number of rings (size 3 to 8) (size 9 to 14) (size 15 to 20)
#    0.000    1.750    1.250    1.500    3.500    5.500 
#    2.250    0.000    0.000    0.000    0.000    0.000 
#    0.000    0.000    0.000    0.000    0.000    0.000 
#
# Total GULP energy -89326.696814 kJ/mol
# GULP energy per Si atom -5582.918551 kJ/mol
# Density = 2.529981 g / cm^3
# Si number density = 25.357522 Si / 1000 Ang^3
#
#
#
# Elastic Constant Matrix: (Units=GPa)
#
#
# Indices 1 2 3 4 5 6 
#
# 1 122.7890 40.9948 42.3771 14.9816 15.2497 6.6478
# 2 40.9948 58.2791 30.5355 29.6714 8.2356 22.9529
# 3 42.3771 30.5355 130.0110 28.7447 2.2739 7.7219
# 4 14.9816 29.6714 28.7447 39.3874 -1.9181 14.9421
# 5 15.2497 8.2356 2.2739 -1.9181 47.4015 13.8019
# 6 6.6478 22.9529 7.7219 14.9421 13.8019 35.7408
#
#
#
# Elastic Compliance Matrix: (Units=1/GPa)
#
#
# Indices 1 2 3 4 5 6 
#
# 1 0.012196 -0.010186 -0.002430 0.002770 -0.003363 0.004938
# 2 -0.010186 0.041706 -0.000920 -0.020835 -0.000130 -0.015930
# 3 -0.002430 -0.000920 0.010004 -0.006312 -0.000266 0.001623
# 4 0.002770 -0.020835 -0.006312 0.048396 0.007592 -0.008936
# 5 -0.003363 -0.000130 -0.000266 0.007592 0.026164 -0.012511
# 6 0.004938 -0.015930 0.001623 -0.008936 -0.012511 0.045507
#
#
# Mechanical properties :
#
#
# Convention : Reuss Voigt Hill
#
# Bulk Modulus (GPa) = 27.14967 59.87710 43.51338
# Shear Modulus (GPa) = 22.38924 37.65071 30.01998
#
# Velocity S-wave (km/s) = 2.97466 3.85748 3.44447
# Velocity P-wave (km/s) = 4.74638 6.59581 5.74599
#
# Compressibility (1/GPa) = 0.03683286
#
# Stress axis : x y z
#
# Youngs Moduli (GPa) = 81.99699 23.97757 99.96422
#
# Poissons Ratio (x) = 0.24423 0.24290
# Poissons Ratio (y) = 0.83520 0.09201
# Poissons Ratio (z) = 0.19924 0.02207
#
# Static dielectric constant tensor:
#      x y z
#    x 1.951440 -0.063700 0.019040 
#    y -0.063700 2.057760 0.064730 
#    z 0.019040 0.064730 1.853330 
# 
# From -- ./inp_files/37774.got.cif
#   From: 2010.05.17/outbox.cif.g08.bks.cpg/sg2_19_cif.got.tgz:37774.got - 2010.06.03 11:33:40.
