data_PCOD9012307
_publ_section_title
;
Structure prediction by ZEFSAII (Michael W. Deem and Ramdas Pophale) SiO2 
 PCOD9012307
Probable space group: P -1
;
_chemical_formula_sum "Si O2"
_cell_formula_units_Z 16
_cell_length_a 9.451738
_cell_length_b 14.017855
_cell_length_c 12.582135
_cell_angle_alpha 118.224413
_cell_angle_beta 42.954566
_cell_angle_gamma 140.221468
_cell_volume 711.312115
_symmetry_space_group_name_H-M "P -1"
_symmetry_group_IT_number 2
_symmetry_cell_setting 'triclinic'
loop_
_space_group_symop_operation_xyz
x,y,z
-x,-y,-z
loop_
_atom_site_type_symbol
_atom_site_label
_atom_site_fract_x
_atom_site_fract_y
_atom_site_fract_z
Si Si1 0.783495 0.473711 0.340455
Si Si2 0.274302 0.143434 0.359835
Si Si3 0.710006 0.073985 0.249701
Si Si4 0.141755 0.920844 0.608161
Si Si5 0.312950 0.896163 0.947031
Si Si6 0.238006 0.422945 0.366806
Si Si7 0.866691 0.572902 0.126683
Si Si8 0.192696 0.438256 0.171057
O O1 0.467861 0.310508 0.391496
O O2 0.751730 0.510524 0.493767
O O3 0.875096 0.590350 0.259118
O O4 0.036762 0.474976 0.208869
O O5 0.505234 0.134472 0.218898
O O6 0.130412 0.116329 0.311085
O O7 0.000000 0.000000 0.500000
O O8 0.786083 0.023073 0.280306
O O9 0.697835 0.028169 0.110007
O O10 0.966977 0.256128 0.198548
O O11 0.419822 0.025874 0.432094
O O12 0.038521 0.758065 0.576090
O O13 0.025959 0.730339 0.062330
O O14 0.500000 0.000000 0.000000
O O15 0.530631 0.457501 0.215745
O O16 0.224528 0.488567 0.302194
O O17 0.000000 0.500000 0.000000
O O18 0.500000 0.500000 0.000000
#
# Coordination Sequence:
#
# PCOD9012307 Si02
#       8
#     2   2   2   2   2   2   2   2
#     4  12  24  40  66  98 133 168 235 277 322 407
#     4  12  23  42  68  94 132 175 219 270 338 394
#     4  10  21  42  65  90 127 169 217 266 326 403
#     4  10  21  40  69  92 124 173 217 264 333 394
#     4  12  26  41  65  97 134 172 221 280 329 394
#     4  11  24  37  68  98 127 173 220 281 327 394
#     4  12  23  43  64  96 134 178 221 270 342 395
#     4  11  22  43  66  92 132 177 215 270 347 398
#
# _framework density 22.493642000000001
#
# number of rings (size 3 to 8) (size 9 to 14) (size 15 to 20)
#    0.000    0.750    5.000    2.250    3.500    1.000 
#    0.000    0.625    0.000    0.000    0.000    0.000 
#    0.000    0.000    0.000    0.000    0.000    0.000 
#
# Total GULP energy -89282.811689 kJ/mol
# GULP energy per Si atom -5580.175731 kJ/mol
# Density = 2.244245 g / cm^3
# Si number density = 22.493642 Si / 1000 Ang^3
#
#
#
# Elastic Constant Matrix: (Units=GPa)
#
#
# Indices 1 2 3 4 5 6 
#
# 1 144.2354 6.4716 41.7444 -7.9657 31.7889 23.3427
# 2 6.4716 51.1785 43.0143 -20.2970 9.5524 19.0283
# 3 41.7444 43.0143 109.5840 -25.2522 22.4599 13.9306
# 4 -7.9657 -20.2970 -25.2522 44.1385 11.1456 5.2398
# 5 31.7889 9.5524 22.4599 11.1456 60.2480 4.2572
# 6 23.3427 19.0283 13.9306 5.2398 4.2572 29.8302
#
#
#
# Elastic Compliance Matrix: (Units=1/GPa)
#
#
# Indices 1 2 3 4 5 6 
#
# 1 0.012743 0.014166 -0.003994 0.010720 -0.008202 -0.017856
# 2 0.014166 0.063319 -0.012996 0.033985 -0.015482 -0.049167
# 3 -0.003994 -0.012996 0.016595 0.003096 -0.002841 0.003527
# 4 0.010720 0.033985 0.003096 0.051280 -0.019014 -0.037807
# 5 -0.008202 -0.015482 -0.002841 -0.019014 0.026746 0.017144
# 6 -0.017856 -0.049167 0.003527 -0.037807 0.017144 0.081406
#
#
# Mechanical properties :
#
#
# Convention : Reuss Voigt Hill
#
# Bulk Modulus (GPa) = 11.49275 54.16207 32.82741
# Shear Modulus (GPa) = 17.43746 41.09450 29.26598
#
# Velocity S-wave (km/s) = 2.78729 4.27891 3.61096
# Velocity P-wave (km/s) = 3.93435 6.96729 5.65784
#
# Compressibility (1/GPa) = 0.08701141
#
# Stress axis : x y z
#
# Youngs Moduli (GPa) = 78.47544 15.79295 60.25773
#
# Poissons Ratio (x) = -0.22373 0.24064
# Poissons Ratio (y) = -1.11172 0.78311
# Poissons Ratio (z) = 0.31339 0.20525
#
# Static dielectric constant tensor:
#      x y z
#    x -0.153140 3.784450 -0.152420 
#    y 3.784450 -4.902250 0.417200 
#    z -0.152420 0.417200 1.839350 
# 
# From -- ./inp_files/263162.got.cif
#   From: 2010.05.17/outbox.cif.g08.bks.cpg/sg2_132_cif.got.tgz:263162.got - 2010.06.03 11:33:40.
