data_PCOD9012586
_publ_section_title
;
Structure prediction by ZEFSAII (Michael W. Deem and Ramdas Pophale) SiO2 
 PCOD9012586
Probable space group: P -1
;
_chemical_formula_sum "Si O2"
_cell_formula_units_Z 14
_cell_length_a 15.955391
_cell_length_b 8.528342
_cell_length_c 12.935395
_cell_angle_alpha 135.253709
_cell_angle_beta 39.199639
_cell_angle_gamma 147.882871
_cell_volume 583.790465
_symmetry_space_group_name_H-M "P -1"
_symmetry_group_IT_number 2
_symmetry_cell_setting 'triclinic'
loop_
_space_group_symop_operation_xyz
x,y,z
-x,-y,-z
loop_
_atom_site_type_symbol
_atom_site_label
_atom_site_fract_x
_atom_site_fract_y
_atom_site_fract_z
Si Si1 0.641928 0.603786 0.252976
Si Si2 0.318202 0.904067 0.230040
Si Si3 0.857432 0.955749 0.403690
Si Si4 0.854237 0.440843 0.965001
Si Si5 0.208708 0.608356 0.751910
Si Si6 0.259962 0.384746 0.157170
Si Si7 0.464194 0.244881 0.769670
O O1 0.706399 0.793963 0.384092
O O2 0.566622 0.684052 0.278168
O O3 0.491398 0.246687 0.245366
O O4 0.813184 0.651094 0.073929
O O5 0.270651 0.837914 0.123495
O O6 0.330445 0.670775 0.155690
O O7 0.160072 0.852244 0.416768
O O8 0.820813 0.685807 0.373983
O O9 0.049013 0.150945 0.259254
O O10 0.054374 0.576721 0.828389
O O11 0.810799 0.377946 0.098943
O O12 0.396534 0.917354 0.684489
O O13 0.343615 0.507500 0.248512
O O14 0.334085 0.241887 0.969078
#
# Coordination Sequence:
#
# PCOD9012586 Si02
#       7
#     2   2   2   2   2   2   2
#     4  11  24  42  70  99 127 176 221 267 323 384
#     4  12  25  43  68  96 136 173 218 265 328 395
#     4  11  26  46  66  94 138 177 214 262 332 395
#     4  10  21  40  71  96 126 170 224 269 321 376
#     4  10  23  43  67  97 135 168 217 275 323 383
#     4  11  24  42  69  99 131 168 219 279 322 379
#     4  11  24  41  71 100 130 164 225 277 321 375
#
# _framework density 23.981206
#
# number of rings (size 3 to 8) (size 9 to 14) (size 15 to 20)
#    0.000    1.143    1.429    5.571    8.000    1.714 
#    0.000    1.429    0.000    0.000    0.000    0.000 
#    0.000    0.000    0.000    0.000    0.000    0.000 
#
# Total GULP energy -78415.185525 kJ/mol
# GULP energy per Si atom -5601.084680 kJ/mol
# Density = 2.392662 g / cm^3
# Si number density = 23.981206 Si / 1000 Ang^3
#
#
#
# Elastic Constant Matrix: (Units=GPa)
#
#
# Indices 1 2 3 4 5 6 
#
# 1 106.3837 32.9148 11.5218 9.7741 -5.5351 20.9094
# 2 32.9148 89.2788 -4.6920 4.1823 -4.0555 4.3288
# 3 11.5218 -4.6920 60.2932 5.2607 5.9747 11.0309
# 4 9.7741 4.1823 5.2607 22.5827 -2.8915 -10.0944
# 5 -5.5351 -4.0555 5.9747 -2.8915 12.1816 5.4067
# 6 20.9094 4.3288 11.0309 -10.0944 5.4067 36.3872
#
#
#
# Elastic Compliance Matrix: (Units=1/GPa)
#
#
# Indices 1 2 3 4 5 6 
#
# 1 0.014193 -0.003937 -0.001022 -0.009080 0.008433 -0.011150
# 2 -0.003937 0.012878 0.001750 -0.001033 0.001534 -0.000314
# 3 -0.001022 0.001750 0.019748 -0.008585 -0.008629 -0.006707
# 4 -0.009080 -0.001033 -0.008585 0.061838 0.003511 0.024576
# 5 0.008433 0.001534 -0.008629 0.003511 0.098643 -0.016096
# 6 -0.011150 -0.000314 -0.006707 0.024576 -0.016096 0.045169
#
#
# Mechanical properties :
#
#
# Convention : Reuss Voigt Hill
#
# Bulk Modulus (GPa) = 24.75223 37.27165 31.01194
# Shear Modulus (GPa) = 18.35837 28.64437 23.50137
#
# Velocity S-wave (km/s) = 2.76983 3.45983 3.13388
# Velocity P-wave (km/s) = 4.53576 5.61572 5.10439
#
# Compressibility (1/GPa) = 0.04040040
#
# Stress axis : x y z
#
# Youngs Moduli (GPa) = 70.45602 77.65314 50.63708
#
# Poissons Ratio (x) = 0.30575 0.05176
# Poissons Ratio (y) = 0.27741 -0.08862
# Poissons Ratio (z) = 0.07202 -0.13590
#
# Static dielectric constant tensor:
#      x y z
#    x 1.903480 0.005080 0.000200 
#    y 0.005080 1.890800 -0.030940 
#    z 0.000200 -0.030940 1.943810 
# 
# From -- ./inp_files/180034.got.cif
#   From: 2010.05.17/outbox.cif.g08.bks.cpg/sg2_91_cif.got.tgz:180034.got - 2010.06.03 11:33:40.
