data_PCOD9012890
_publ_section_title
;
Structure prediction by ZEFSAII (Michael W. Deem and Ramdas Pophale) SiO2 
 PCOD9012890
Probable space group: P -1
;
_chemical_formula_sum "Si O2"
_cell_formula_units_Z 16
_cell_length_a 17.037949
_cell_length_b 7.740965
_cell_length_c 8.240092
_cell_angle_alpha 128.331543
_cell_angle_beta 124.765882
_cell_angle_gamma 81.504848
_cell_volume 663.606737
_symmetry_space_group_name_H-M "P -1"
_symmetry_group_IT_number 2
_symmetry_cell_setting 'triclinic'
loop_
_space_group_symop_operation_xyz
x,y,z
-x,-y,-z
loop_
_atom_site_type_symbol
_atom_site_label
_atom_site_fract_x
_atom_site_fract_y
_atom_site_fract_z
Si Si1 0.127925 0.477097 0.198068
Si Si2 0.029328 0.022080 0.232571
Si Si3 0.645867 0.523431 0.466761
Si Si4 0.404224 0.711292 0.058294
Si Si5 0.060999 0.832970 0.541222
Si Si6 0.583874 0.186989 0.496283
Si Si7 0.252905 0.973067 0.036171
Si Si8 0.200256 0.862103 0.266557
O O1 0.237534 0.477862 0.390106
O O2 0.146677 0.604107 0.120009
O O3 0.080191 0.628110 0.344765
O O4 0.048859 0.225172 0.948675
O O5 0.004328 0.234128 0.410498
O O6 0.143702 0.019511 0.383807
O O7 0.000000 0.000000 0.000000
O O8 0.586124 0.344311 0.431440
O O9 0.659158 0.784825 0.690261
O O10 0.600687 0.469601 0.199898
O O11 0.409727 0.679077 0.242723
O O12 0.492490 0.949161 0.259844
O O13 0.301733 0.773908 0.947727
O O14 0.175306 0.984105 0.813069
O O15 0.000000 0.000000 0.500000
O O16 0.682898 0.104415 0.547724
O O17 0.193312 0.909549 0.097458
#
# Coordination Sequence:
#
# PCOD9012890 Si02
#       8
#     2   2   2   2   2   2   2   2
#     4  11  23  40  62  88 124 170 209 260 322 368
#     4  12  23  41  61  88 128 164 210 259 308 381
#     4  11  21  41  67  92 127 171 210 262 328 372
#     4  10  21  44  67  91 131 166 210 264 326 378
#     4  12  24  38  60  94 122 165 213 259 313 382
#     4   9  22  40  65  98 126 165 214 265 316 388
#     4  11  23  43  62  92 127 162 218 263 307 397
#     4  10  21  41  62  86 128 165 205 262 311 369
#
# _framework density 24.110665999999998
#
# number of rings (size 3 to 8) (size 9 to 14) (size 15 to 20)
#    0.000    1.250    5.000    0.750    0.000    1.000 
#    2.250    6.875    0.000    0.000    0.000    0.000 
#    0.000    0.000    0.000    0.000    0.000    0.000 
#
# Total GULP energy -89300.777481 kJ/mol
# GULP energy per Si atom -5581.298593 kJ/mol
# Density = 2.405579 g / cm^3
# Si number density = 24.110666 Si / 1000 Ang^3
#
#
#
# Elastic Constant Matrix: (Units=GPa)
#
#
# Indices 1 2 3 4 5 6 
#
# 1 96.6829 8.5703 16.0071 11.9701 3.6375 16.8275
# 2 8.5703 61.2343 15.1978 -0.2560 -4.9692 16.4471
# 3 16.0071 15.1978 103.4192 -5.8252 -19.8298 12.0106
# 4 11.9701 -0.2560 -5.8252 24.0280 -7.1219 1.6258
# 5 3.6375 -4.9692 -19.8298 -7.1219 34.6911 -2.8215
# 6 16.8275 16.4471 12.0106 1.6258 -2.8215 25.6246
#
#
#
# Elastic Compliance Matrix: (Units=1/GPa)
#
#
# Indices 1 2 3 4 5 6 
#
# 1 0.013336 0.000446 -0.002687 -0.008305 -0.005213 -0.007831
# 2 0.000446 0.020042 -0.001271 0.000903 0.001268 -0.012479
# 3 -0.002687 -0.001271 0.012646 0.007121 0.008558 -0.002856
# 4 -0.008305 0.000903 0.007121 0.052171 0.015778 -0.000036
# 5 -0.005213 0.001268 0.008558 0.015778 0.037828 0.001762
# 6 -0.007831 -0.012479 -0.002856 -0.000036 0.001762 0.053713
#
#
# Mechanical properties :
#
#
# Convention : Reuss Voigt Hill
#
# Bulk Modulus (GPa) = 25.64151 37.87631 31.75891
# Shear Modulus (GPa) = 23.83680 31.63947 27.73814
#
# Velocity S-wave (km/s) = 3.14768 3.62644 3.39551
# Velocity P-wave (km/s) = 4.88554 5.76873 5.34541
#
# Compressibility (1/GPa) = 0.03899927
#
# Stress axis : x y z
#
# Youngs Moduli (GPa) = 74.98549 49.89478 79.07758
#
# Poissons Ratio (x) = -0.02227 0.21252
# Poissons Ratio (y) = -0.03346 0.10051
# Poissons Ratio (z) = 0.20152 0.06342
#
# Static dielectric constant tensor:
#      x y z
#    x 2.231980 0.259520 -0.217640 
#    y 0.259520 2.206960 -0.258010 
#    z -0.217640 -0.258010 2.078290 
# 
# From -- ./inp_files/203393.got.cif
#   From: 2010.05.17/outbox.cif.g08.bks.cpg/sg2_102_cif.got.tgz:203393.got - 2010.06.03 11:33:40.
