data_PCOD9012852
_publ_section_title
;
Structure prediction by ZEFSAII (Michael W. Deem and Ramdas Pophale) SiO2 
 PCOD9012852
Probable space group: P -1
;
_chemical_formula_sum "Si O2"
_cell_formula_units_Z 16
_cell_length_a 12.176045
_cell_length_b 9.597737
_cell_length_c 7.295103
_cell_angle_alpha 105.897996
_cell_angle_beta 102.666550
_cell_angle_gamma 50.949346
_cell_volume 635.491645
_symmetry_space_group_name_H-M "P -1"
_symmetry_group_IT_number 2
_symmetry_cell_setting 'triclinic'
loop_
_space_group_symop_operation_xyz
x,y,z
-x,-y,-z
loop_
_atom_site_type_symbol
_atom_site_label
_atom_site_fract_x
_atom_site_fract_y
_atom_site_fract_z
Si Si1 0.448509 0.699535 0.701331
Si Si2 0.510070 0.101668 0.713717
Si Si3 0.374632 0.677470 0.267751
Si Si4 0.920447 0.744348 0.742486
Si Si5 0.835006 0.916080 0.182022
Si Si6 0.061821 0.954118 0.211183
Si Si7 0.300600 0.279991 0.231021
Si Si8 0.196097 0.373311 0.826925
O O1 0.379345 0.680971 0.491708
O O2 0.506448 0.535730 0.806271
O O3 0.588315 0.678178 0.678101
O O4 0.323235 0.896695 0.802099
O O5 0.591643 0.186405 0.735068
O O6 0.353885 0.267726 0.774029
O O7 0.500000 0.000000 0.500000
O O8 0.592416 0.939728 0.833289
O O9 0.216085 0.761690 0.186649
O O10 0.810102 0.698202 0.652354
O O11 0.077933 0.561528 0.756567
O O12 0.917219 0.893009 0.676428
O O13 0.873281 0.833231 0.961195
O O14 0.843268 0.765512 0.251955
O O15 0.948907 0.950731 0.283254
O O16 0.000000 0.000000 0.000000
O O17 0.211019 0.390480 0.057760
#
# Coordination Sequence:
#
# PCOD9012852 Si02
#       8
#     2   2   2   2   2   2   2   2
#     4  11  25  41  67  95 127 173 221 265 332 384
#     4  12  23  44  69  92 132 169 214 273 324 377
#     4  11  25  44  63  95 130 173 217 267 324 399
#     4  10  23  40  64  96 127 166 218 265 320 385
#     4  10  21  41  61  93 131 166 212 265 327 375
#     4  10  23  40  63  90 131 169 208 267 326 378
#     4  11  21  41  67  95 127 171 215 270 323 373
#     4  11  24  39  68  99 127 169 221 265 320 391
#
# _framework density 25.177357000000001
#
# number of rings (size 3 to 8) (size 9 to 14) (size 15 to 20)
#    0.000    1.250    3.750    1.875    8.750    0.500 
#    0.000    3.750    2.750    0.000    0.000    0.000 
#    0.000    0.000    0.000    0.000    0.000    0.000 
#
# Total GULP energy -89544.443329 kJ/mol
# GULP energy per Si atom -5596.527708 kJ/mol
# Density = 2.512005 g / cm^3
# Si number density = 25.177357 Si / 1000 Ang^3
#
#
#
# Elastic Constant Matrix: (Units=GPa)
#
#
# Indices 1 2 3 4 5 6 
#
# 1 121.7044 -72.9197 -55.2827 30.1927 -32.8378 18.2548
# 2 -72.9197 -178.5298 -185.3019 110.5849 -145.9342 41.9298
# 3 -55.2827 -185.3019 -51.1524 66.6908 -76.7958 26.7591
# 4 30.1927 110.5849 66.6908 -15.9567 53.2553 -13.0333
# 5 -32.8378 -145.9342 -76.7958 53.2553 -37.5132 16.6815
# 6 18.2548 41.9298 26.7591 -13.0333 16.6815 38.5340
#
#
#
# Elastic Compliance Matrix: (Units=1/GPa)
#
#
# Indices 1 2 3 4 5 6 
#
# 1 0.007099 -0.000999 0.000566 0.000951 -0.002665 -0.001193
# 2 -0.000999 0.005007 -0.002956 0.005591 -0.004256 0.000811
# 3 0.000566 -0.002956 0.014899 0.006038 -0.011162 -0.000525
# 4 0.000951 0.005591 0.006038 0.030990 0.007498 -0.003492
# 5 -0.002665 -0.004256 -0.011162 0.007498 0.027608 0.004229
# 6 -0.001193 0.000811 -0.000525 -0.003492 0.004229 0.022987
#
#
# Mechanical properties :
#
#
# Convention : Reuss Voigt Hill
#
# Bulk Modulus (GPa) = 49.43586 -81.66516 -16.11465
# Shear Modulus (GPa) = 40.94671 10.71459 25.83065
#
# Velocity S-wave (km/s) = 4.03715 2.06516 3.20652
# Velocity P-wave (km/s) = 6.43500 5.17879 2.70086
#
# Compressibility (1/GPa) = 0.02022823
#
# Stress axis : x y z
#
# Youngs Moduli (GPa) = 140.86836 199.70925 67.11677
#
# Poissons Ratio (x) = 0.19960 -0.03801
# Poissons Ratio (y) = 0.14079 0.19837
# Poissons Ratio (z) = -0.07978 0.59025
#
# Static dielectric constant tensor:
#      x y z
#    x 2.034740 0.055480 0.057090 
#    y 0.055480 1.988310 0.046640 
#    z 0.057090 0.046640 2.106620 
# 
# From -- ./inp_files/244628.got.cif
#   From: 2010.05.17/outbox.cif.g08.bks.cpg/sg2_123_cif.got.tgz:244628.got - 2010.06.03 11:33:40.
