data_PCOD9012698
_publ_section_title
;
Structure prediction by ZEFSAII (Michael W. Deem and Ramdas Pophale) SiO2 
 PCOD9012698
Probable space group: P -1
;
_chemical_formula_sum "Si O2"
_cell_formula_units_Z 16
_cell_length_a 9.579888
_cell_length_b 22.577301
_cell_length_c 14.736486
_cell_angle_alpha 150.002423
_cell_angle_beta 26.384270
_cell_angle_gamma 153.512489
_cell_volume 597.613690
_symmetry_space_group_name_H-M "P -1"
_symmetry_group_IT_number 2
_symmetry_cell_setting 'triclinic'
loop_
_space_group_symop_operation_xyz
x,y,z
-x,-y,-z
loop_
_atom_site_type_symbol
_atom_site_label
_atom_site_fract_x
_atom_site_fract_y
_atom_site_fract_z
Si Si1 0.334942 0.213743 0.957514
Si Si2 0.781162 0.574501 0.751194
Si Si3 0.851808 0.081471 0.301202
Si Si4 0.979671 0.679804 0.171479
Si Si5 0.050347 0.629957 0.862901
Si Si6 0.796187 0.922271 0.425196
Si Si7 0.194698 0.138286 0.362355
Si Si8 0.805877 0.321309 0.634571
O O1 0.571521 0.260272 0.785267
O O2 0.652488 0.283941 0.942046
O O3 0.093314 0.049336 0.908992
O O4 0.073139 0.275046 0.178340
O O5 0.367001 0.478626 0.825812
O O6 0.965705 0.512871 0.290156
O O7 0.768517 0.582993 0.879046
O O8 0.487866 0.033243 0.387940
O O9 0.048793 0.249147 0.386833
O O10 0.883262 0.096812 0.412332
O O11 0.839862 0.773254 0.420438
O O12 0.033773 0.696289 0.054673
O O13 0.422950 0.754296 0.765203
O O14 0.000000 0.500000 0.500000
O O15 0.519586 0.756152 0.354820
O O16 0.000000 0.000000 0.500000
O O17 0.118923 0.993627 0.255564
#
# Coordination Sequence:
#
# PCOD9012698 Si02
#       8
#     2   2   2   2   2   2   2   2
#     4  12  22  47  83 108 150 214 267 320 385 483
#     4  12  28  49  73 111 161 208 261 328 399 460
#     4  10  21  46  78 110 153 213 257 324 397 467
#     4  12  24  48  79 110 156 210 259 318 407 460
#     4  12  29  45  76 121 157 204 259 334 391 470
#     4  10  21  40  78 115 150 209 252 310 402 463
#     4  12  23  48  80 111 165 199 266 323 389 473
#     4  10  21  41  75 111 153 200 255 318 406 448
#
# _framework density 26.773149
#
# number of rings (size 3 to 8) (size 9 to 14) (size 15 to 20)
#    0.750    0.000    6.250    1.500    1.750    0.500 
#    2.250    1.250    2.750    0.000    0.000    0.000 
#    0.000    0.000    0.000    0.000    0.000    0.000 
#
# Total GULP energy -89296.017675 kJ/mol
# GULP energy per Si atom -5581.001105 kJ/mol
# Density = 2.671221 g / cm^3
# Si number density = 26.773149 Si / 1000 Ang^3
#
#
#
# Elastic Constant Matrix: (Units=GPa)
#
#
# Indices 1 2 3 4 5 6 
#
# 1 149.6475 21.4316 56.9194 9.0009 10.2363 13.1603
# 2 21.4316 84.6626 34.1680 19.7232 15.0938 -8.5756
# 3 56.9194 34.1680 132.3331 9.6211 -9.6155 -5.1511
# 4 9.0009 19.7232 9.6211 27.0927 -3.5333 10.3896
# 5 10.2363 15.0938 -9.6155 -3.5333 52.6369 17.9058
# 6 13.1603 -8.5756 -5.1511 10.3896 17.9058 46.7457
#
#
#
# Elastic Compliance Matrix: (Units=1/GPa)
#
#
# Indices 1 2 3 4 5 6 
#
# 1 0.008475 -0.000529 -0.003667 -0.000459 -0.001437 -0.002235
# 2 -0.000529 0.022534 -0.004450 -0.021628 -0.013279 0.013686
# 3 -0.003667 -0.004450 0.010456 0.001513 0.004197 -0.000576
# 4 -0.000459 -0.021628 0.001513 0.064620 0.019593 -0.025539
# 5 -0.001437 -0.013279 0.004197 0.019593 0.031255 -0.017896
# 6 -0.002235 0.013686 -0.000576 -0.025539 -0.017896 0.037000
#
#
# Mechanical properties :
#
#
# Convention : Reuss Voigt Hill
#
# Bulk Modulus (GPa) = 41.36944 65.74236 53.55590
# Shear Modulus (GPa) = 25.03893 42.23666 33.63779
#
# Velocity S-wave (km/s) = 3.06146 3.97618 3.54842
# Velocity P-wave (km/s) = 5.28981 6.75934 6.06922
#
# Compressibility (1/GPa) = 0.02417243
#
# Stress axis : x y z
#
# Youngs Moduli (GPa) = 117.99056 44.37763 95.64343
#
# Poissons Ratio (x) = 0.02346 0.35072
# Poissons Ratio (y) = 0.06239 0.42566
# Poissons Ratio (z) = 0.43266 0.19750
#
# Static dielectric constant tensor:
#      x y z
#    x 2.090950 -0.024010 -0.046560 
#    y -0.024010 2.199770 -0.041500 
#    z -0.046560 -0.041500 2.271170 
# 
# From -- ./inp_files/563386.got.cif
#   From: 2010.05.17/outbox.cif.g08.bks.cpg/sg2_282_cif.got.tgz:563386.got - 2010.06.03 11:33:40.
