data_PCOD9012005
_publ_section_title
;
Structure prediction by ZEFSAII (Michael W. Deem and Ramdas Pophale) SiO2 
 PCOD9012005
Probable space group: P -1
;
_chemical_formula_sum "Si O2"
_cell_formula_units_Z 16
_cell_length_a 9.230802
_cell_length_b 25.900996
_cell_length_c 5.912790
_cell_angle_alpha 92.252615
_cell_angle_beta 85.879837
_cell_angle_gamma 151.533775
_cell_volume 671.224902
_symmetry_space_group_name_H-M "P -1"
_symmetry_group_IT_number 2
_symmetry_cell_setting 'triclinic'
loop_
_space_group_symop_operation_xyz
x,y,z
-x,-y,-z
loop_
_atom_site_type_symbol
_atom_site_label
_atom_site_fract_x
_atom_site_fract_y
_atom_site_fract_z
Si Si1 0.662871 0.202335 0.802487
Si Si2 0.296955 0.884212 0.993407
Si Si3 0.139320 0.196546 0.638797
Si Si4 0.793887 0.886054 0.477163
Si Si5 0.737751 0.489573 0.541233
Si Si6 0.241303 0.686058 0.827799
Si Si7 0.911220 0.719048 0.598591
Si Si8 0.249626 0.605375 0.192973
O O1 0.411972 0.160246 0.716735
O O2 0.889816 0.250655 0.597458
O O3 0.523458 0.105867 0.901811
O O4 0.830178 0.291594 0.979251
O O5 0.136575 0.800681 0.797371
O O6 0.008011 0.816096 0.151107
O O7 0.500000 0.000000 0.000000
O O8 0.985199 0.094256 0.583099
O O9 0.152423 0.240327 0.442854
O O10 0.474331 0.282888 0.681585
O O11 0.565391 0.801337 0.696449
O O12 0.000000 0.000000 0.500000
O O13 0.431472 0.410516 0.430552
O O14 0.674700 0.430491 0.751541
O O15 0.976853 0.602930 0.652811
O O16 0.935580 0.521392 0.335831
O O17 0.253407 0.634421 0.952814
#
# Coordination Sequence:
#
# PCOD9012005 Si02
#       8
#     2   2   2   2   2   2   2   2
#     4  11  26  47  66 103 145 185 236 292 357 427
#     4  11  27  45  74  98 137 191 242 293 355 428
#     4  10  23  43  69 106 135 181 235 293 355 415
#     4  12  28  45  72 104 145 183 238 305 356 414
#     4  10  22  42  71 106 146 187 231 295 350 424
#     4  12  23  43  71 103 147 187 233 292 360 421
#     4  10  25  46  68 103 143 182 235 288 351 431
#     4  10  21  40  68 109 145 180 235 290 355 419
#
# _framework density 23.837019999999999
#
# number of rings (size 3 to 8) (size 9 to 14) (size 15 to 20)
#    0.000    1.250    2.500    1.125    7.000    5.000 
#    0.000    4.375    0.000    0.000    0.000    0.000 
#    0.000    0.000    0.000    0.000    0.000    0.000 
#
# Total GULP energy -89088.852971 kJ/mol
# GULP energy per Si atom -5568.053311 kJ/mol
# Density = 2.378277 g / cm^3
# Si number density = 23.837020 Si / 1000 Ang^3
#
#
#
# Elastic Constant Matrix: (Units=GPa)
#
#
# Indices 1 2 3 4 5 6 
#
# 1 98.6495 14.0978 26.4535 7.7985 -0.2156 -24.8639
# 2 14.0978 83.2326 32.9593 4.1139 7.6010 -19.3947
# 3 26.4535 32.9593 72.0173 1.6324 1.4948 -13.0950
# 4 7.7985 4.1139 1.6324 23.8006 -7.1491 1.0828
# 5 -0.2156 7.6010 1.4948 -7.1491 42.5450 8.0273
# 6 -24.8639 -19.3947 -13.0950 1.0828 8.0273 26.5089
#
#
#
# Elastic Compliance Matrix: (Units=1/GPa)
#
#
# Indices 1 2 3 4 5 6 
#
# 1 0.015658 0.003851 -0.004079 -0.007822 -0.005051 0.017337
# 2 0.003851 0.018954 -0.006736 -0.007080 -0.007472 0.016704
# 3 -0.004079 -0.006736 0.018428 0.001466 0.000771 0.000055
# 4 -0.007822 -0.007080 0.001466 0.050417 0.013002 -0.017789
# 5 -0.005051 -0.007472 0.000771 0.013002 0.030678 -0.019644
# 6 0.017337 0.016704 0.000055 -0.017789 -0.019644 0.072908
#
#
# Mechanical properties :
#
#
# Convention : Reuss Voigt Hill
#
# Bulk Modulus (GPa) = 25.56856 44.54673 35.05764
# Shear Modulus (GPa) = 21.36681 30.59680 25.98180
#
# Velocity S-wave (km/s) = 2.99719 3.58660 3.30506
# Velocity P-wave (km/s) = 4.76731 5.99001 5.41329
#
# Compressibility (1/GPa) = 0.03911054
#
# Stress axis : x y z
#
# Youngs Moduli (GPa) = 63.86705 52.75851 54.26640
#
# Poissons Ratio (x) = -0.20318 0.22136
# Poissons Ratio (y) = -0.24596 0.36556
# Poissons Ratio (z) = 0.26053 0.35540
#
# Static dielectric constant tensor:
#      x y z
#    x 1.934270 -0.063010 0.050670 
#    y -0.063010 2.044300 0.034960 
#    z 0.050670 0.034960 2.006090 
# 
# From -- ./inp_files/56436.got.cif
#   From: 2010.05.17/outbox.cif.g08.bks.cpg/sg2_29_cif.got.tgz:56436.got - 2010.06.03 11:33:40.
