data_PCOD9012570
_publ_section_title
;
Structure prediction by ZEFSAII (Michael W. Deem and Ramdas Pophale) SiO2 
 PCOD9012570
Probable space group: P -1
;
_chemical_formula_sum "Si O2"
_cell_formula_units_Z 16
_cell_length_a 15.359239
_cell_length_b 8.931289
_cell_length_c 18.659656
_cell_angle_alpha 138.383962
_cell_angle_beta 151.464244
_cell_angle_gamma 37.855473
_cell_volume 737.562200
_symmetry_space_group_name_H-M "P -1"
_symmetry_group_IT_number 2
_symmetry_cell_setting 'triclinic'
loop_
_space_group_symop_operation_xyz
x,y,z
-x,-y,-z
loop_
_atom_site_type_symbol
_atom_site_label
_atom_site_fract_x
_atom_site_fract_y
_atom_site_fract_z
Si Si1 0.605858 0.536211 0.371983
Si Si2 0.952933 0.111876 0.085460
Si Si3 0.432744 0.964200 0.859352
Si Si4 0.460604 0.773233 0.095745
Si Si5 0.294038 0.464059 0.335796
Si Si6 0.419520 0.085175 0.632733
Si Si7 0.990609 0.382656 0.683553
Si Si8 0.744141 0.194460 0.682868
O O1 0.559165 0.721635 0.338117
O O2 0.838793 0.424711 0.522789
O O3 0.478428 0.690689 0.402765
O O4 0.538123 0.316622 0.230447
O O5 0.958878 0.379580 0.187627
O O6 0.740794 0.143465 0.974174
O O7 0.114387 0.937731 0.196619
O O8 0.000000 0.000000 0.000000
O O9 0.547820 0.053117 0.915046
O O10 0.197059 0.141465 0.742188
O O11 0.500000 0.000000 0.000000
O O12 0.623613 0.790244 0.275637
O O13 0.500000 0.500000 0.000000
O O14 0.500000 0.500000 0.500000
O O15 0.137236 0.611431 0.335946
O O16 0.209413 0.589561 0.243056
O O17 0.378698 0.170213 0.303163
O O18 0.258492 0.998297 0.449104
#
# Coordination Sequence:
#
# PCOD9012570 Si02
#       8
#     2   2   2   2   2   2   2   2
#     4  12  23  45  74 105 142 191 245 306 368 438
#     4  12  27  46  77 114 150 194 248 306 369 443
#     4  12  30  49  70 103 152 201 245 298 374 452
#     4  12  26  50  71 104 152 198 242 302 373 444
#     4  10  21  40  71 109 142 177 236 312 360 423
#     4  11  22  44  74 102 144 184 243 304 368 429
#     4  12  24  47  70 105 146 190 248 297 365 441
#     4  11  23  42  75 110 142 186 245 307 372 427
#
# _framework density 21.693085
#
# number of rings (size 3 to 8) (size 9 to 14) (size 15 to 20)
#    0.000    0.500    5.000    4.500    5.250    0.000 
#    0.000    3.125    0.000    0.000    0.000    0.000 
#    0.000    0.000    0.000    0.000    0.000    0.000 
#
# Total GULP energy -89469.902121 kJ/mol
# GULP energy per Si atom -5591.868883 kJ/mol
# Density = 2.164371 g / cm^3
# Si number density = 21.693085 Si / 1000 Ang^3
#
#
#
# Elastic Constant Matrix: (Units=GPa)
#
#
# Indices 1 2 3 4 5 6 
#
# 1 143.2281 45.8553 44.8446 4.0333 -4.9353 28.8048
# 2 45.8553 107.6760 35.7572 13.1627 -5.4596 26.6533
# 3 44.8446 35.7572 116.3740 17.6023 -21.0296 5.2710
# 4 4.0333 13.1627 17.6023 39.9316 -0.3655 6.4230
# 5 -4.9353 -5.4596 -21.0296 -0.3655 46.0554 -5.8118
# 6 28.8048 26.6533 5.2710 6.4230 -5.8118 45.7903
#
#
#
# Elastic Compliance Matrix: (Units=1/GPa)
#
#
# Indices 1 2 3 4 5 6 
#
# 1 0.009581 -0.002056 -0.003384 0.001976 -0.001364 -0.004890
# 2 -0.002056 0.012624 -0.002668 -0.001888 -0.000659 -0.005566
# 3 -0.003384 -0.002668 0.012226 -0.004700 0.005322 0.003609
# 4 0.001976 -0.001888 -0.004700 0.028136 -0.002422 -0.003857
# 5 -0.001364 -0.000659 0.005322 -0.002422 0.024413 0.004067
# 6 -0.004890 -0.005566 0.003609 -0.003857 0.004067 0.028797
#
#
# Mechanical properties :
#
#
# Convention : Reuss Voigt Hill
#
# Bulk Modulus (GPa) = 54.90233 68.91023 61.90628
# Shear Modulus (GPa) = 36.21529 42.41019 39.31274
#
# Velocity S-wave (km/s) = 4.09031 4.42635 4.26164
# Velocity P-wave (km/s) = 6.90443 7.61304 7.26737
#
# Compressibility (1/GPa) = 0.01821416
#
# Stress axis : x y z
#
# Youngs Moduli (GPa) = 104.37730 79.21384 81.79462
#
# Poissons Ratio (x) = 0.16290 0.27678
# Poissons Ratio (y) = 0.21465 0.21822
# Poissons Ratio (z) = 0.35319 0.21133
#
# Static dielectric constant tensor:
#      x y z
#    x 1.797240 -0.005240 -0.002760 
#    y -0.005240 1.822820 -0.023450 
#    z -0.002760 -0.023450 1.860450 
# 
# From -- ./inp_files/572949.got.cif
#   From: 2010.05.17/outbox.cif.g08.bks.cpg/sg2_287_cif.got.tgz:572949.got - 2010.06.03 11:33:40.
