data_PCOD9012171
_publ_section_title
;
Structure prediction by ZEFSAII (Michael W. Deem and Ramdas Pophale) SiO2 
 PCOD9012171
Probable space group: P -1
;
_chemical_formula_sum "Si O2"
_cell_formula_units_Z 16
_cell_length_a 11.928268
_cell_length_b 17.585280
_cell_length_c 8.554605
_cell_angle_alpha 90.050021
_cell_angle_beta 141.228786
_cell_angle_gamma 61.237128
_cell_volume 720.584585
_symmetry_space_group_name_H-M "P -1"
_symmetry_group_IT_number 2
_symmetry_cell_setting 'triclinic'
loop_
_space_group_symop_operation_xyz
x,y,z
-x,-y,-z
loop_
_atom_site_type_symbol
_atom_site_label
_atom_site_fract_x
_atom_site_fract_y
_atom_site_fract_z
Si Si1 0.817247 0.340350 0.178836
Si Si2 0.534399 0.563234 0.681316
Si Si3 0.346290 0.072478 0.675752
Si Si4 0.433162 0.352006 0.598185
Si Si5 0.906472 0.547013 0.222250
Si Si6 0.247393 0.082538 0.104554
Si Si7 0.940600 0.101532 0.018096
Si Si8 0.982160 0.317053 0.706229
O O1 0.825788 0.360214 0.369625
O O2 0.117367 0.210380 0.458972
O O3 0.738351 0.432649 0.973664
O O4 0.598275 0.344054 0.912329
O O5 0.579192 0.584451 0.560065
O O6 0.233637 0.625674 0.387308
O O7 0.602761 0.610998 0.869268
O O8 0.168705 0.061793 0.393265
O O9 0.611408 0.018393 0.867060
O O10 0.500000 0.000000 0.000000
O O11 0.129738 0.436820 0.342659
O O12 0.633935 0.217852 0.757784
O O13 0.898400 0.637823 0.168181
O O14 0.000000 0.500000 0.500000
O O15 0.982337 0.143708 0.914406
O O16 0.500000 0.000000 0.500000
O O17 0.198656 0.178265 0.966183
O O18 0.000000 0.000000 0.000000
#
# Coordination Sequence:
#
# PCOD9012171 Si02
#       8
#     2   2   2   2   2   2   2   2
#     4  11  22  40  69  95 138 186 228 282 352 420
#     4  12  24  42  68 103 136 186 233 286 351 417
#     4  10  21  40  68  98 132 179 239 282 345 420
#     4  11  24  43  67  99 139 183 233 288 352 422
#     4  12  26  43  68 106 145 181 233 287 358 425
#     4  10  22  42  68  96 134 187 233 283 352 421
#     4  10  23  44  68  99 137 182 235 296 354 415
#     4  12  23  45  71  98 146 185 227 290 355 420
#
# _framework density 22.204191999999999
#
# number of rings (size 3 to 8) (size 9 to 14) (size 15 to 20)
#    0.000    1.000    5.000    1.875    0.000    3.000 
#    0.000    0.625    0.000    0.000    0.000    0.000 
#    0.000    0.000    0.000    0.000    0.000    0.000 
#
# Total GULP energy -89182.633780 kJ/mol
# GULP energy per Si atom -5573.914611 kJ/mol
# Density = 2.215365 g / cm^3
# Si number density = 22.204192 Si / 1000 Ang^3
#
#
#
# Elastic Constant Matrix: (Units=GPa)
#
#
# Indices 1 2 3 4 5 6 
#
# 1 84.0922 13.9562 4.2061 -10.2057 -8.7589 -3.7273
# 2 13.9562 95.4149 19.9101 -8.0666 -1.0170 13.1702
# 3 4.2061 19.9101 72.9722 -17.1477 -14.1864 3.5947
# 4 -10.2057 -8.0666 -17.1477 42.3517 -2.7392 -1.6819
# 5 -8.7589 -1.0170 -14.1864 -2.7392 31.8196 1.2107
# 6 -3.7273 13.1702 3.5947 -1.6819 1.2107 37.8372
#
#
#
# Elastic Compliance Matrix: (Units=1/GPa)
#
#
# Indices 1 2 3 4 5 6 
#
# 1 0.013176 -0.002137 0.001473 0.003729 0.004463 0.001925
# 2 -0.002137 0.012019 -0.003185 0.000230 -0.001451 -0.004035
# 3 0.001473 -0.003185 0.018055 0.007626 0.009025 -0.000411
# 4 0.003729 0.000230 0.007626 0.028107 0.006831 0.000594
# 5 0.004463 -0.001451 0.009025 0.006831 0.037252 -0.000801
# 6 0.001925 -0.004035 -0.000411 0.000594 -0.000801 0.028114
#
#
# Mechanical properties :
#
#
# Convention : Reuss Voigt Hill
#
# Bulk Modulus (GPa) = 28.12957 36.51380 32.32169
# Shear Modulus (GPa) = 31.99559 36.69551 34.34555
#
# Velocity S-wave (km/s) = 3.80013 4.06968 3.93721
# Velocity P-wave (km/s) = 5.65250 6.20993 5.93776
#
# Compressibility (1/GPa) = 0.03554978
#
# Stress axis : x y z
#
# Youngs Moduli (GPa) = 75.89827 83.20332 55.38664
#
# Poissons Ratio (x) = 0.17783 -0.08158
# Poissons Ratio (y) = 0.16222 0.17642
# Poissons Ratio (z) = -0.11179 0.26502
#
# Static dielectric constant tensor:
#      x y z
#    x 1.793810 -0.041340 0.069120 
#    y -0.041340 1.899780 -0.002190 
#    z 0.069120 -0.002190 1.836690 
# 
# From -- ./inp_files/277903.got.cif
#   From: 2010.05.17/outbox.cif.g08.bks.cpg/sg2_139_cif.got.tgz:277903.got - 2010.06.03 11:33:40.
