data_PCOD9012403
_publ_section_title
;
Structure prediction by ZEFSAII (Michael W. Deem and Ramdas Pophale) SiO2 
 PCOD9012403
Probable space group: P -1
;
_chemical_formula_sum "Si O2"
_cell_formula_units_Z 14
_cell_length_a 9.477129
_cell_length_b 7.917371
_cell_length_c 8.599428
_cell_angle_alpha 108.753983
_cell_angle_beta 71.609069
_cell_angle_gamma 112.906345
_cell_volume 549.242961
_symmetry_space_group_name_H-M "P -1"
_symmetry_group_IT_number 2
_symmetry_cell_setting 'triclinic'
loop_
_space_group_symop_operation_xyz
x,y,z
-x,-y,-z
loop_
_atom_site_type_symbol
_atom_site_label
_atom_site_fract_x
_atom_site_fract_y
_atom_site_fract_z
Si Si1 0.294143 0.439993 0.718345
Si Si2 0.669436 0.006438 0.881148
Si Si3 0.992039 0.247063 0.955991
Si Si4 0.161752 0.458611 0.448602
Si Si5 0.651267 0.957699 0.501052
Si Si6 0.961122 0.139453 0.278119
Si Si7 0.593193 0.599058 0.848768
O O1 0.247561 0.511972 0.595209
O O2 0.334717 0.246349 0.612389
O O3 0.455354 0.581807 0.768010
O O4 0.140228 0.402595 0.871385
O O5 0.664169 0.984767 0.690342
O O6 0.686379 0.818951 0.904265
O O7 0.814452 0.188947 0.933867
O O8 0.500000 0.000000 0.000000
O O9 0.987907 0.263404 0.148406
O O10 0.033589 0.059863 0.839628
O O11 0.290860 0.510231 0.284300
O O12 0.000000 0.500000 0.500000
O O13 0.091780 0.230106 0.389878
O O14 0.500000 0.000000 0.500000
O O15 0.796894 0.107801 0.408927
O O16 0.500000 0.500000 0.000000
#
# Coordination Sequence:
#
# PCOD9012403 Si02
#       7
#     2   2   2   2   2   2   2
#     4  11  25  46  74 101 145 189 236 300 361 427
#     4  12  26  44  71 105 143 187 243 296 360 431
#     4  10  21  43  70  99 137 180 234 290 353 421
#     4  12  26  45  72 101 142 191 244 294 361 429
#     4  11  24  40  71 104 143 181 241 294 359 426
#     4  10  21  40  69  99 133 179 231 291 350 416
#     4  12  28  48  72 105 153 191 239 303 366 428
#
# _framework density 25.489629000000001
#
# number of rings (size 3 to 8) (size 9 to 14) (size 15 to 20)
#    0.000    0.857    2.857    3.000    8.000    4.571 
#    0.000    2.143    0.000    0.000    0.000    0.000 
#    0.000    0.000    0.000    0.000    0.000    0.000 
#
# Total GULP energy -78404.979311 kJ/mol
# GULP energy per Si atom -5600.355665 kJ/mol
# Density = 2.543161 g / cm^3
# Si number density = 25.489629 Si / 1000 Ang^3
#
#
#
# Elastic Constant Matrix: (Units=GPa)
#
#
# Indices 1 2 3 4 5 6 
#
# 1 166.6097 17.8996 62.2332 -3.2952 -24.2984 13.3149
# 2 17.8996 79.7871 30.3613 -0.0642 -3.7296 5.0243
# 3 62.2332 30.3613 157.1813 -24.0510 -26.7934 5.3889
# 4 -3.2952 -0.0642 -24.0510 32.4666 13.2341 0.0744
# 5 -24.2984 -3.7296 -26.7934 13.2341 60.8751 0.3675
# 6 13.3149 5.0243 5.3889 0.0744 0.3675 46.6922
#
#
#
# Elastic Compliance Matrix: (Units=1/GPa)
#
#
# Indices 1 2 3 4 5 6 
#
# 1 0.007515 -0.000408 -0.002793 -0.002215 0.002238 -0.001791
# 2 -0.000408 0.013744 -0.002786 -0.002036 -0.000098 -0.001037
# 3 -0.002793 -0.002786 0.009157 0.005898 0.001463 0.000018
# 4 -0.002215 -0.002036 0.005898 0.037629 -0.006594 0.000162
# 5 0.002238 -0.000098 0.001463 -0.006594 0.019397 -0.000939
# 6 -0.001791 -0.001037 0.000018 0.000162 -0.000939 0.022044
#
#
# Mechanical properties :
#
#
# Convention : Reuss Voigt Hill
#
# Bulk Modulus (GPa) = 54.22044 69.39625 61.80835
# Shear Modulus (GPa) = 39.18291 47.54570 43.36431
#
# Velocity S-wave (km/s) = 3.92498 4.32359 4.12910
# Velocity P-wave (km/s) = 6.46981 7.22558 6.85811
#
# Compressibility (1/GPa) = 0.01844323
#
# Stress axis : x y z
#
# Youngs Moduli (GPa) = 133.07410 72.75864 109.20421
#
# Poissons Ratio (x) = 0.02966 0.30497
# Poissons Ratio (y) = 0.05424 0.30425
# Poissons Ratio (z) = 0.37163 0.20271
#
# Static dielectric constant tensor:
#      x y z
#    x 2.040690 -0.072660 -0.041870 
#    y -0.072660 2.099960 0.058940 
#    z -0.041870 0.058940 2.009110 
# 
# From -- ./inp_files/157528.got.cif
#   From: 2010.05.17/outbox.cif.g08.bks.cpg/sg2_79_cif.got.tgz:157528.got - 2010.06.03 11:33:40.
