data_PCOD9012534
_publ_section_title
;
Structure prediction by ZEFSAII (Michael W. Deem and Ramdas Pophale) SiO2 
 PCOD9012534
Probable space group: P -1
;
_chemical_formula_sum "Si O2"
_cell_formula_units_Z 16
_cell_length_a 7.702874
_cell_length_b 9.749307
_cell_length_c 18.344953
_cell_angle_alpha 41.093158
_cell_angle_beta 82.194604
_cell_angle_gamma 110.971672
_cell_volume 634.650831
_symmetry_space_group_name_H-M "P -1"
_symmetry_group_IT_number 2
_symmetry_cell_setting 'triclinic'
loop_
_space_group_symop_operation_xyz
x,y,z
-x,-y,-z
loop_
_atom_site_type_symbol
_atom_site_label
_atom_site_fract_x
_atom_site_fract_y
_atom_site_fract_z
Si Si1 0.561177 0.620706 0.097714
Si Si2 0.527491 0.877504 0.724360
Si Si3 0.170896 0.755374 0.036217
Si Si4 0.038723 0.150734 0.515352
Si Si5 0.235397 0.477320 0.038340
Si Si6 0.059235 0.067956 0.834681
Si Si7 0.486224 0.326199 0.503318
Si Si8 0.286712 0.676788 0.200270
O O1 0.632109 0.437710 0.181690
O O2 0.164810 0.478467 0.357324
O O3 0.407834 0.582954 0.187280
O O4 0.813947 0.951213 0.932323
O O5 0.424079 0.753731 0.861659
O O6 0.604387 0.503348 0.916431
O O7 0.799459 0.019253 0.628650
O O8 0.081124 0.524212 0.071127
O O9 0.150837 0.973608 0.924524
O O10 0.472758 0.983149 0.931370
O O11 0.098237 0.609416 0.177808
O O12 0.230301 0.167239 0.541357
O O13 0.000000 0.000000 0.500000
O O14 0.054629 0.162910 0.133951
O O15 0.497578 0.902937 0.383871
O O16 0.500000 0.500000 0.500000
O O17 0.725908 0.594348 0.334397
#
# Coordination Sequence:
#
# PCOD9012534 Si02
#       8
#     2   2   2   2   2   2   2   2
#     4  10  23  45  72 103 139 190 249 296 367 437
#     4  11  25  47  74 105 145 203 238 304 376 435
#     4  10  21  40  70  98 139 180 240 300 363 419
#     4  12  27  50  75 102 155 197 243 298 376 449
#     4  10  23  44  72 105 139 185 248 295 368 433
#     4  11  22  42  67 104 140 183 237 313 351 427
#     4  12  30  47  72 115 155 189 252 305 367 448
#     4  10  22  44  65 103 140 186 239 301 355 441
#
# _framework density 25.210711
#
# number of rings (size 3 to 8) (size 9 to 14) (size 15 to 20)
#    0.000    1.250    2.500    2.625    3.500    7.500 
#    2.250    0.000    0.000    0.000    0.000    0.000 
#    0.000    0.000    0.000    0.000    0.000    0.000 
#
# Total GULP energy -89449.997983 kJ/mol
# GULP energy per Si atom -5590.624874 kJ/mol
# Density = 2.515333 g / cm^3
# Si number density = 25.210711 Si / 1000 Ang^3
#
#
#
# Elastic Constant Matrix: (Units=GPa)
#
#
# Indices 1 2 3 4 5 6 
#
# 1 154.5887 51.7611 57.3425 3.4828 17.4347 7.2496
# 2 51.7611 112.6512 9.6434 4.8695 1.9653 0.3995
# 3 57.3425 9.6434 167.4790 -10.3557 9.9633 3.7849
# 4 3.4828 4.8695 -10.3557 24.7948 -2.3623 -0.7972
# 5 17.4347 1.9653 9.9633 -2.3623 39.4165 -8.4145
# 6 7.2496 0.3995 3.7849 -0.7972 -8.4145 40.3835
#
#
#
# Elastic Compliance Matrix: (Units=1/GPa)
#
#
# Indices 1 2 3 4 5 6 
#
# 1 0.009431 -0.003919 -0.002858 -0.002189 -0.003862 -0.002234
# 2 -0.003919 0.010657 0.000570 -0.001170 0.001150 0.000761
# 3 -0.002858 0.000570 0.007145 0.003228 -0.000416 -0.000185
# 4 -0.002189 -0.001170 0.003228 0.042563 0.003100 0.001588
# 5 -0.003862 0.001150 -0.000416 0.003100 0.028758 0.006774
# 6 -0.002234 0.000761 -0.000185 0.001588 0.006774 0.026616
#
#
# Mechanical properties :
#
#
# Convention : Reuss Voigt Hill
#
# Bulk Modulus (GPa) = 67.48267 74.69032 71.08649
# Shear Modulus (GPa) = 35.08191 41.98374 38.53282
#
# Velocity S-wave (km/s) = 3.73439 4.08525 3.91376
# Velocity P-wave (km/s) = 6.73942 7.20716 6.97721
#
# Compressibility (1/GPa) = 0.01481862
#
# Stress axis : x y z
#
# Youngs Moduli (GPa) = 106.03577 93.83917 139.95167
#
# Poissons Ratio (x) = 0.36772 0.40004
# Poissons Ratio (y) = 0.41552 -0.07979
# Poissons Ratio (z) = 0.30310 -0.05350
#
# Static dielectric constant tensor:
#      x y z
#    x 2.112740 -0.042970 -0.016000 
#    y -0.042970 2.072980 -0.039310 
#    z -0.016000 -0.039310 2.055150 
# 
# From -- ./inp_files/559774.got.cif
#   From: 2010.05.17/outbox.cif.g08.bks.cpg/sg2_280_cif.got.tgz:559774.got - 2010.06.03 11:33:40.
