data_PCOD9012480
_publ_section_title
;
Structure prediction by ZEFSAII (Michael W. Deem and Ramdas Pophale) SiO2 
 PCOD9012480
Probable space group: P -1
;
_chemical_formula_sum "Si O2"
_cell_formula_units_Z 12
_cell_length_a 16.222828
_cell_length_b 5.247744
_cell_length_c 18.289624
_cell_angle_alpha 83.810125
_cell_angle_beta 155.949619
_cell_angle_gamma 106.975437
_cell_volume 554.268035
_symmetry_space_group_name_H-M "P -1"
_symmetry_group_IT_number 2
_symmetry_cell_setting 'triclinic'
loop_
_space_group_symop_operation_xyz
x,y,z
-x,-y,-z
loop_
_atom_site_type_symbol
_atom_site_label
_atom_site_fract_x
_atom_site_fract_y
_atom_site_fract_z
Si Si1 0.413988 0.732421 0.626844
Si Si2 0.257555 0.057059 0.852704
Si Si3 0.071078 0.811341 0.009578
Si Si4 0.304567 0.392006 0.405715
Si Si5 0.228564 0.578251 0.730829
Si Si6 0.766990 0.887427 0.506194
O O1 0.318736 0.622039 0.470778
O O2 0.380034 0.425011 0.641894
O O3 0.274734 0.849608 0.559407
O O4 0.669110 0.985281 0.811492
O O5 0.236290 0.286503 0.772463
O O6 0.227246 0.773880 0.792690
O O7 0.506447 0.214921 0.088887
O O8 0.030399 0.960870 0.719877
O O9 0.926749 0.740135 0.821406
O O10 0.000000 0.500000 0.000000
O O11 0.000000 0.000000 0.000000
O O12 0.500000 0.500000 0.500000
O O13 0.325801 0.166067 0.484179
O O14 0.000000 0.500000 0.500000
#
# Coordination Sequence:
#
# PCOD9012480 Si02
#       6
#     2   2   2   2   2   2
#     4  10  22  39  56  83 118 154 201 247 304 348
#     4  10  21  41  63  95 130 157 202 256 297 378
#     4  12  23  36  59  82 108 151 209 257 297 348
#     4  10  22  39  60  79 116 158 203 248 292 353
#     4  10  21  40  70  94 123 162 203 243 310 374
#     4  10  22  41  59  84 127 158 193 251 311 340
#
# _framework density 21.650172999999999
#
# number of rings (size 3 to 8) (size 9 to 14) (size 15 to 20)
#    1.000    0.667    1.667    3.500    2.333    1.333 
#    6.000    0.000    0.000    0.000    0.000    0.000 
#    0.000    0.000    0.000    0.000    0.000    0.000 
#
# Total GULP energy -66814.639533 kJ/mol
# GULP energy per Si atom -5567.886628 kJ/mol
# Density = 2.160090 g / cm^3
# Si number density = 21.650173 Si / 1000 Ang^3
#
#
#
# Elastic Constant Matrix: (Units=GPa)
#
#
# Indices 1 2 3 4 5 6 
#
# 1 32.0784 16.1149 25.3786 5.1470 13.6486 -18.4602
# 2 16.1149 105.1657 21.0146 6.4545 -0.7262 -36.2727
# 3 25.3786 21.0146 175.2650 16.0828 -3.4736 -8.3884
# 4 5.1470 6.4545 16.0828 32.0858 1.0850 6.3509
# 5 13.6486 -0.7262 -3.4736 1.0850 45.5123 -0.4357
# 6 -18.4602 -36.2727 -8.3884 6.3509 -0.4357 39.2344
#
#
#
# Elastic Compliance Matrix: (Units=1/GPa)
#
#
# Indices 1 2 3 4 5 6 
#
# 1 0.065924 0.004372 -0.007466 -0.014082 -0.019594 0.035526
# 2 0.004372 0.015339 -0.001066 -0.006604 -0.000827 0.017070
# 3 -0.007466 -0.001066 0.006991 -0.001650 0.002769 -0.002705
# 4 -0.014082 -0.006604 -0.001650 0.039327 0.002868 -0.019418
# 5 -0.019594 -0.000827 0.002769 0.002868 0.027887 -0.009546
# 6 0.035526 0.017070 -0.002705 -0.019418 -0.009546 0.060444
#
#
# Mechanical properties :
#
#
# Convention : Reuss Voigt Hill
#
# Bulk Modulus (GPa) = 12.51004 48.61391 30.56198
# Shear Modulus (GPa) = 19.93013 40.03325 29.98169
#
# Velocity S-wave (km/s) = 3.03735 4.30478 3.72536
# Velocity P-wave (km/s) = 4.25341 6.87104 5.71413
#
# Compressibility (1/GPa) = 0.07993579
#
# Stress axis : x y z
#
# Youngs Moduli (GPa) = 15.16892 65.19299 143.03360
#
# Poissons Ratio (x) = -0.28504 1.06789
# Poissons Ratio (y) = -0.06632 0.15243
# Poissons Ratio (z) = 0.11325 0.06948
#
# Static dielectric constant tensor:
#      x y z
#    x 1.747850 -0.008220 0.098210 
#    y -0.008220 1.952710 -0.025480 
#    z 0.098210 -0.025480 1.791440 
# 
# From -- ./inp_files/483232.got.cif
#   From: 2010.05.17/outbox.cif.g08.bks.cpg/sg2_242_cif.got.tgz:483232.got - 2010.06.03 11:33:40.
