data_PCOD9012273
_publ_section_title
;
Structure prediction by ZEFSAII (Michael W. Deem and Ramdas Pophale) SiO2 
 PCOD9012273
Probable space group: P -1
;
_chemical_formula_sum "Si O2"
_cell_formula_units_Z 14
_cell_length_a 16.259622
_cell_length_b 4.991333
_cell_length_c 11.009948
_cell_angle_alpha 103.615909
_cell_angle_beta 50.607630
_cell_angle_gamma 119.904379
_cell_volume 594.211659
_symmetry_space_group_name_H-M "P -1"
_symmetry_group_IT_number 2
_symmetry_cell_setting 'triclinic'
loop_
_space_group_symop_operation_xyz
x,y,z
-x,-y,-z
loop_
_atom_site_type_symbol
_atom_site_label
_atom_site_fract_x
_atom_site_fract_y
_atom_site_fract_z
Si Si1 0.135158 0.094619 0.349890
Si Si2 0.373568 0.504890 0.266769
Si Si3 0.708575 0.723384 0.276273
Si Si4 0.465539 0.106615 0.413527
Si Si5 0.863597 0.383237 0.075844
Si Si6 0.434855 0.678083 0.959505
Si Si7 0.816348 0.433374 0.853045
O O1 0.229705 0.317276 0.387265
O O2 0.146412 0.257248 0.225731
O O3 0.162634 0.804882 0.277005
O O4 0.000000 0.000000 0.500000
O O5 0.428017 0.834637 0.319319
O O6 0.465443 0.378920 0.207431
O O7 0.382070 0.466112 0.107021
O O8 0.651558 0.843363 0.448566
O O9 0.799184 0.583403 0.209025
O O10 0.586165 0.430077 0.312854
O O11 0.778503 0.019511 0.152469
O O12 0.500000 0.000000 0.500000
O O13 0.873628 0.446031 0.929411
O O14 0.000000 0.500000 0.000000
O O15 0.323067 0.680402 0.998913
O O16 0.500000 0.000000 0.000000
#
# Coordination Sequence:
#
# PCOD9012273 Si02
#       7
#     2   2   2   2   2   2   2
#     4  11  24  48  72 105 147 191 240 303 373 450
#     4  10  24  42  68 109 147 189 243 297 381 452
#     4  11  26  48  72 107 148 196 251 312 382 432
#     4  11  25  46  73 109 152 197 248 314 385 450
#     4  12  27  50  76 107 150 201 261 310 373 457
#     4  10  21  40  69 106 143 180 239 303 375 435
#     4  11  25  45  73 106 140 190 243 309 375 432
#
# _framework density 23.56063
#
# number of rings (size 3 to 8) (size 9 to 14) (size 15 to 20)
#    0.000    1.143    2.857    1.714    4.000    2.286 
#    2.571    0.000    0.000    0.000    0.000    0.000 
#    0.000    0.000    0.000    0.000    0.000    0.000 
#
# Total GULP energy -78152.628432 kJ/mol
# GULP energy per Si atom -5582.330602 kJ/mol
# Density = 2.350701 g / cm^3
# Si number density = 23.560630 Si / 1000 Ang^3
#
#
#
# Elastic Constant Matrix: (Units=GPa)
#
#
# Indices 1 2 3 4 5 6 
#
# 1 169.4202 36.9044 47.7338 2.1457 -28.3556 15.0452
# 2 36.9044 74.2856 51.5287 24.9129 -27.4862 -5.3017
# 3 47.7338 51.5287 122.0363 12.1065 -31.6631 9.0752
# 4 2.1457 24.9129 12.1065 44.1823 -2.4523 -6.6960
# 5 -28.3556 -27.4862 -31.6631 -2.4523 43.9625 2.5209
# 6 15.0452 -5.3017 9.0752 -6.6960 2.5209 38.6444
#
#
#
# Elastic Compliance Matrix: (Units=1/GPa)
#
#
# Indices 1 2 3 4 5 6 
#
# 1 0.007454 -0.002573 -0.001009 0.001059 0.002704 -0.003011
# 2 -0.002573 0.027761 -0.007284 -0.012436 0.009543 0.003744
# 3 -0.001009 -0.007284 0.013093 0.000220 0.004463 -0.003934
# 4 0.001059 -0.012436 0.000220 0.029736 -0.005466 0.003339
# 5 0.002704 0.009543 0.004463 -0.005466 0.033592 -0.003930
# 6 -0.003011 0.003744 -0.003934 0.003339 -0.003930 0.029322
#
#
# Mechanical properties :
#
#
# Convention : Reuss Voigt Hill
#
# Bulk Modulus (GPa) = 37.62701 70.89733 54.26217
# Shear Modulus (GPa) = 29.14634 40.66286 34.90460
#
# Velocity S-wave (km/s) = 3.52103 4.15888 3.85318
# Velocity P-wave (km/s) = 5.70396 7.29510 6.54804
#
# Compressibility (1/GPa) = 0.02657666
#
# Stress axis : x y z
#
# Youngs Moduli (GPa) = 134.16248 36.02191 76.37484
#
# Poissons Ratio (x) = 0.09267 0.07704
# Poissons Ratio (y) = 0.34514 0.55634
# Poissons Ratio (z) = 0.13533 0.26240
#
# Static dielectric constant tensor:
#      x y z
#    x 1.744290 0.177780 -0.376990 
#    y 0.177780 1.720420 0.408670 
#    z -0.376990 0.408670 0.958370 
# 
# From -- ./inp_files/459257.got.cif
#   From: 2010.05.17/outbox.cif.g08.bks.cpg/sg2_230_cif.got.tgz:459257.got - 2010.06.03 11:33:40.
