data_PCOD9012436
_publ_section_title
;
Structure prediction by ZEFSAII (Michael W. Deem and Ramdas Pophale) SiO2 
 PCOD9012436
Probable space group: P -1
;
_chemical_formula_sum "Si O2"
_cell_formula_units_Z 16
_cell_length_a 9.633754
_cell_length_b 7.770109
_cell_length_c 23.714322
_cell_angle_alpha 56.496248
_cell_angle_beta 140.760160
_cell_angle_gamma 92.171465
_cell_volume 631.136388
_symmetry_space_group_name_H-M "P -1"
_symmetry_group_IT_number 2
_symmetry_cell_setting 'triclinic'
loop_
_space_group_symop_operation_xyz
x,y,z
-x,-y,-z
loop_
_atom_site_type_symbol
_atom_site_label
_atom_site_fract_x
_atom_site_fract_y
_atom_site_fract_z
Si Si1 0.654167 0.506682 0.210636
Si Si2 0.605631 0.985749 0.660601
Si Si3 0.881824 0.667638 0.175553
Si Si4 0.496021 0.409969 0.281255
Si Si5 0.458401 0.659725 0.514464
Si Si6 0.752919 0.503761 0.446462
Si Si7 0.357031 0.490964 0.013427
Si Si8 0.222075 0.162103 0.011288
O O1 0.919082 0.458678 0.270139
O O2 0.717874 0.296325 0.316851
O O3 0.463289 0.541333 0.092327
O O4 0.436851 0.823717 0.119499
O O5 0.615330 0.068710 0.585113
O O6 0.408760 0.252621 0.597495
O O7 0.465009 0.852653 0.639379
O O8 0.968944 0.758841 0.839834
O O9 0.899683 0.634198 0.120592
O O10 0.186140 0.600872 0.297722
O O11 0.500000 0.000000 0.000000
O O12 0.558966 0.540128 0.325183
O O13 0.110772 0.677245 0.093233
O O14 0.500000 0.500000 0.500000
O O15 0.186077 0.753096 0.452790
O O16 0.000000 0.500000 0.500000
O O17 0.500000 0.500000 0.000000
O O18 0.438491 0.190807 0.101791
#
# Coordination Sequence:
#
# PCOD9012436 Si02
#       8
#     2   2   2   2   2   2   2   2
#     4  11  24  38  70 100 145 181 239 296 364 426
#     4  10  26  46  73 101 147 190 244 303 351 443
#     4  10  21  40  70 103 136 187 240 293 351 428
#     4  11  24  44  66 102 143 188 236 299 368 422
#     4  10  23  44  74 103 142 192 242 292 364 431
#     4  11  25  47  70 102 143 190 241 295 368 433
#     4  11  23  42  68 107 141 187 245 301 362 428
#     4  10  21  41  66  96 138 188 232 293 356 435
#
# _framework density 25.351095999999998
#
# number of rings (size 3 to 8) (size 9 to 14) (size 15 to 20)
#    0.000    1.500    2.500    1.125    8.750    4.000 
#    2.250    0.000    0.000    0.000    0.000    0.000 
#    0.000    0.000    0.000    0.000    0.000    0.000 
#
# Total GULP energy -89307.112951 kJ/mol
# GULP energy per Si atom -5581.694559 kJ/mol
# Density = 2.529340 g / cm^3
# Si number density = 25.351096 Si / 1000 Ang^3
#
#
#
# Elastic Constant Matrix: (Units=GPa)
#
#
# Indices 1 2 3 4 5 6 
#
# 1 212.7894 39.9409 32.0933 1.0373 -4.4829 33.4522
# 2 39.9409 133.6449 22.5811 16.6270 9.2331 21.5748
# 3 32.0933 22.5811 65.6830 16.5639 10.7957 13.4374
# 4 1.0373 16.6270 16.5639 28.2560 15.1413 0.6422
# 5 -4.4829 9.2331 10.7957 15.1413 33.7969 0.6591
# 6 33.4522 21.5748 13.4374 0.6422 0.6591 51.2761
#
#
#
# Elastic Compliance Matrix: (Units=1/GPa)
#
#
# Indices 1 2 3 4 5 6 
#
# 1 0.005709 -0.001114 -0.002380 0.001181 0.001345 -0.002664
# 2 -0.001114 0.008986 -0.000774 -0.004601 -0.000240 -0.002791
# 3 -0.002380 -0.000774 0.020210 -0.010197 -0.001928 -0.003265
# 4 0.001181 -0.004601 -0.010197 0.054594 -0.019854 0.003409
# 5 0.001345 -0.000240 -0.001928 -0.019854 0.039353 -0.000528
# 6 -0.002664 -0.002791 -0.003265 0.003409 -0.000528 0.023234
#
#
# Mechanical properties :
#
#
# Convention : Reuss Voigt Hill
#
# Bulk Modulus (GPa) = 37.92527 66.81642 52.37085
# Shear Modulus (GPa) = 29.51373 43.83260 36.67316
#
# Velocity S-wave (km/s) = 3.41574 4.16266 3.80756
# Velocity P-wave (km/s) = 5.52710 7.03685 6.32717
#
# Compressibility (1/GPa) = 0.02636764
#
# Stress axis : x y z
#
# Youngs Moduli (GPa) = 175.16375 111.28832 49.47971
#
# Poissons Ratio (x) = 0.12395 0.11778
# Poissons Ratio (y) = 0.19509 0.03832
# Poissons Ratio (z) = 0.41696 0.08619
#
# Static dielectric constant tensor:
#      x y z
#    x 2.015000 0.067900 -0.019000 
#    y 0.067900 2.226520 -0.101200 
#    z -0.019000 -0.101200 2.010400 
# 
# From -- ./inp_files/606691.got.cif
#   From: 2010.05.17/outbox.cif.g08.bks.cpg/sg2_304_cif.got.tgz:606691.got - 2010.06.03 11:33:40.
