data_PCOD9012066
_publ_section_title
;
Structure prediction by ZEFSAII (Michael W. Deem and Ramdas Pophale) SiO2 
 PCOD9012066
Probable space group: P -1
;
_chemical_formula_sum "Si O2"
_cell_formula_units_Z 10
_cell_length_a 12.389552
_cell_length_b 11.349719
_cell_length_c 9.506830
_cell_angle_alpha 120.552075
_cell_angle_beta 99.599178
_cell_angle_gamma 29.946082
_cell_volume 443.144176
_symmetry_space_group_name_H-M "P -1"
_symmetry_group_IT_number 2
_symmetry_cell_setting 'triclinic'
loop_
_space_group_symop_operation_xyz
x,y,z
-x,-y,-z
loop_
_atom_site_type_symbol
_atom_site_label
_atom_site_fract_x
_atom_site_fract_y
_atom_site_fract_z
Si Si1 0.388194 0.661477 0.917907
Si Si2 0.201024 0.644763 0.691157
Si Si3 0.929136 0.161879 0.721081
Si Si4 0.850703 0.546230 0.922420
Si Si5 0.231008 0.320644 0.348549
O O1 0.421307 0.482954 0.728014
O O2 0.592073 0.550469 0.861557
O O3 0.500000 0.500000 0.000000
O O4 0.065719 0.076221 0.095946
O O5 0.271643 0.422269 0.495136
O O6 0.068823 0.907081 0.714552
O O7 0.015556 0.217163 0.791419
O O8 0.000000 0.000000 0.500000
O O9 0.855640 0.556651 0.759642
O O10 0.000000 0.500000 0.000000
O O11 0.539526 0.900379 0.139637
O O12 0.000000 0.500000 0.500000
#
# Coordination Sequence:
#
# PCOD9012066 Si02
#       5
#     2   2   2   2   2
#     4   9  21  37  63  97 128 159 225 273 325 391
#     4  10  21  40  68  94 124 174 223 272 328 396
#     4  11  22  40  64  93 130 170 216 269 330 393
#     4  11  27  45  66 102 140 175 226 280 337 406
#     4  11  25  45  69  97 137 181 225 276 343 402
#
# _framework density 22.566019000000001
#
# number of rings (size 3 to 8) (size 9 to 14) (size 15 to 20)
#    0.000    1.600    2.000    1.200    2.800    9.600 
#    0.000    0.000    0.000    0.000    0.000    0.000 
#    0.000    0.000    0.000    0.000    0.000    0.000 
#
# Total GULP energy -55723.428732 kJ/mol
# GULP energy per Si atom -5572.342873 kJ/mol
# Density = 2.251466 g / cm^3
# Si number density = 22.566019 Si / 1000 Ang^3
#
#
#
# Elastic Constant Matrix: (Units=GPa)
#
#
# Indices 1 2 3 4 5 6 
#
# 1 136.8633 34.8086 79.5266 -6.3526 40.4855 -12.7784
# 2 34.8086 56.7784 36.2794 -21.6873 12.4378 -13.0827
# 3 79.5266 36.2794 153.4793 -21.0985 30.2518 -2.7677
# 4 -6.3526 -21.6873 -21.0985 36.4975 -11.8479 14.6572
# 5 40.4855 12.4378 30.2518 -11.8479 58.3804 -7.3099
# 6 -12.7784 -13.0827 -2.7677 14.6572 -7.3099 29.5019
#
#
#
# Elastic Compliance Matrix: (Units=1/GPa)
#
#
# Indices 1 2 3 4 5 6 
#
# 1 0.014216 -0.005491 -0.005836 -0.008675 -0.006696 0.005826
# 2 -0.005491 0.027976 -0.002270 0.013641 0.002242 0.003593
# 3 -0.005836 -0.002270 0.010923 0.006020 -0.000615 -0.005653
# 4 -0.008675 0.013641 0.006020 0.047421 0.007247 -0.018908
# 5 -0.006696 0.002242 -0.000615 0.007247 0.023104 0.000161
# 6 0.005826 0.003593 -0.005653 -0.018908 0.000161 0.046916
#
#
# Mechanical properties :
#
#
# Convention : Reuss Voigt Hill
#
# Bulk Modulus (GPa) = 38.57758 72.03891 55.30824
# Shear Modulus (GPa) = 24.22594 37.97638 31.10116
#
# Velocity S-wave (km/s) = 3.28007 4.10677 3.71648
# Velocity P-wave (km/s) = 5.61050 7.38108 6.55584
#
# Compressibility (1/GPa) = 0.02592179
#
# Stress axis : x y z
#
# Youngs Moduli (GPa) = 70.34255 35.74509 91.54957
#
# Poissons Ratio (x) = 0.19627 0.53429
# Poissons Ratio (y) = 0.38624 0.20780
# Poissons Ratio (z) = 0.41052 0.08113
#
# Static dielectric constant tensor:
#      x y z
#    x 1.812340 0.143430 -0.087230 
#    y 0.143430 1.638190 -0.018070 
#    z -0.087230 -0.018070 1.894320 
# 
# From -- ./inp_files/28237.got.cif
#   From: 2010.05.17/outbox.cif.g08.bks.cpg/sg2_15_cif.got.tgz:28237.got - 2010.06.03 11:33:40.
