data_PCOD9012560
_publ_section_title
;
Structure prediction by ZEFSAII (Michael W. Deem and Ramdas Pophale) SiO2 
 PCOD9012560
Probable space group: P -1
;
_chemical_formula_sum "Si O2"
_cell_formula_units_Z 14
_cell_length_a 23.049976
_cell_length_b 5.012232
_cell_length_c 14.203620
_cell_angle_alpha 80.349398
_cell_angle_beta 161.029429
_cell_angle_gamma 103.902515
_cell_volume 508.509846
_symmetry_space_group_name_H-M "P -1"
_symmetry_group_IT_number 2
_symmetry_cell_setting 'triclinic'
loop_
_space_group_symop_operation_xyz
x,y,z
-x,-y,-z
loop_
_atom_site_type_symbol
_atom_site_label
_atom_site_fract_x
_atom_site_fract_y
_atom_site_fract_z
Si Si1 0.594146 0.247936 0.055333
Si Si2 0.337479 0.114063 0.417908
Si Si3 0.150946 0.063704 0.643679
Si Si4 0.438340 0.302155 0.208007
Si Si5 0.815959 0.084118 0.008424
Si Si6 0.078765 0.572833 0.320368
Si Si7 0.187824 0.187126 0.369957
O O1 0.748656 0.451474 0.346398
O O2 0.713856 0.125361 0.169778
O O3 0.407375 0.306057 0.723289
O O4 0.500000 0.000000 0.000000
O O5 0.492367 0.408079 0.647563
O O6 0.186473 0.158996 0.257636
O O7 0.400687 0.841746 0.567241
O O8 0.268562 0.044909 0.211251
O O9 0.011497 0.034791 0.343823
O O10 0.300078 0.316214 0.909142
O O11 0.000000 0.000000 0.500000
O O12 0.327013 0.059727 0.122822
O O13 0.884816 0.423024 0.082581
O O14 0.081897 0.390896 0.242852
O O15 0.122533 0.890015 0.337980
#
# Coordination Sequence:
#
# PCOD9012560 Si02
#       7
#     2   2   2   2   2   2   2
#     4  10  21  40  71 103 142 187 243 294 358 430
#     4  12  26  46  75 102 146 189 244 292 362 441
#     4  10  23  45  73 109 146 187 244 306 364 424
#     4  11  26  48  73 103 142 194 244 292 359 441
#     4  11  26  45  72 107 146 189 237 304 365 426
#     4  11  25  43  70 107 146 184 242 302 363 425
#     4  11  24  43  71 105 141 194 237 296 361 437
#
# _framework density 27.531426
#
# number of rings (size 3 to 8) (size 9 to 14) (size 15 to 20)
#    0.000    1.143    1.429    3.857    4.000    6.857 
#    0.000    5.000    0.000    0.000    0.000    0.000 
#    0.000    0.000    0.000    0.000    0.000    0.000 
#
# Total GULP energy -78374.646733 kJ/mol
# GULP energy per Si atom -5598.189052 kJ/mol
# Density = 2.746876 g / cm^3
# Si number density = 27.531426 Si / 1000 Ang^3
#
#
#
# Elastic Constant Matrix: (Units=GPa)
#
#
# Indices 1 2 3 4 5 6 
#
# 1 124.6025 19.1524 25.1115 4.0681 -14.5870 -5.5438
# 2 19.1524 115.5383 52.8999 25.7148 2.1479 -15.9091
# 3 25.1115 52.8999 159.6002 11.9315 -30.4453 0.6140
# 4 4.0681 25.7148 11.9315 55.3214 5.1898 2.6195
# 5 -14.5870 2.1479 -30.4453 5.1898 69.8473 3.1731
# 6 -5.5438 -15.9091 0.6140 2.6195 3.1731 33.1072
#
#
#
# Elastic Compliance Matrix: (Units=1/GPa)
#
#
# Indices 1 2 3 4 5 6 
#
# 1 0.008536 -0.000936 -0.000741 -0.000211 0.001465 0.000870
# 2 -0.000936 0.012834 -0.004200 -0.005089 -0.002348 0.006716
# 3 -0.000741 -0.004200 0.008516 -0.000062 0.003812 -0.002661
# 4 -0.000211 -0.005089 -0.000062 0.020780 -0.001277 -0.004001
# 5 0.001465 -0.002348 0.003812 -0.001277 0.016562 -0.002440
# 6 0.000870 0.006716 -0.002661 -0.004001 -0.002440 0.034178
#
#
# Mechanical properties :
#
#
# Convention : Reuss Voigt Hill
#
# Bulk Modulus (GPa) = 55.14992 66.00761 60.57877
# Shear Modulus (GPa) = 41.94482 51.82701 46.88591
#
# Velocity S-wave (km/s) = 3.90747 4.34345 4.13121
# Velocity P-wave (km/s) = 6.35869 7.01295 6.69382
#
# Compressibility (1/GPa) = 0.01813239
#
# Stress axis : x y z
#
# Youngs Moduli (GPa) = 117.15387 77.91611 117.42151
#
# Poissons Ratio (x) = 0.07295 0.08699
# Poissons Ratio (y) = 0.10968 0.49316
# Poissons Ratio (z) = 0.08679 0.32724
#
# Static dielectric constant tensor:
#      x y z
#    x 2.152530 0.064640 -0.001500 
#    y 0.064640 2.185330 -0.030230 
#    z -0.001500 -0.030230 2.159360 
# 
# From -- ./inp_files/542193.got.cif
#   From: 2010.05.17/outbox.cif.g08.bks.cpg/sg2_272_cif.got.tgz:542193.got - 2010.06.03 11:33:40.
