data_PCOD9012715
_publ_section_title
;
Structure prediction by ZEFSAII (Michael W. Deem and Ramdas Pophale) SiO2 
 PCOD9012715
Probable space group: P -1
;
_chemical_formula_sum "Si O2"
_cell_formula_units_Z 14
_cell_length_a 4.996842
_cell_length_b 13.782337
_cell_length_c 20.528213
_cell_angle_alpha 151.478588
_cell_angle_beta 72.199595
_cell_angle_gamma 116.216116
_cell_volume 594.282151
_symmetry_space_group_name_H-M "P -1"
_symmetry_group_IT_number 2
_symmetry_cell_setting 'triclinic'
loop_
_space_group_symop_operation_xyz
x,y,z
-x,-y,-z
loop_
_atom_site_type_symbol
_atom_site_label
_atom_site_fract_x
_atom_site_fract_y
_atom_site_fract_z
Si Si1 0.228120 0.301354 0.555236
Si Si2 0.915043 0.049238 0.815209
Si Si3 0.804893 0.261107 0.452479
Si Si4 0.613828 0.799405 0.373340
Si Si5 0.329425 0.470030 0.099760
Si Si6 0.996993 0.704692 0.182249
Si Si7 0.371186 0.635403 0.640264
O O1 0.451260 0.203397 0.444646
O O2 0.268176 0.261736 0.603878
O O3 0.500000 0.000000 0.500000
O O4 0.909098 0.225062 0.496343
O O5 0.934641 0.179731 0.823645
O O6 0.576349 0.887625 0.764397
O O7 0.095642 0.890690 0.691815
O O8 0.088552 0.228907 0.962440
O O9 0.012177 0.520769 0.582278
O O10 0.376145 0.553232 0.665621
O O11 0.347265 0.582729 0.235440
O O12 0.889935 0.836046 0.323156
O O13 0.674863 0.495364 0.076147
O O14 0.251451 0.632034 0.151340
O O15 0.500000 0.500000 0.500000
#
# Coordination Sequence:
#
# PCOD9012715 Si02
#       7
#     2   2   2   2   2   2   2
#     4  10  21  41  58  92 122 153 203 248 289 354
#     4  11  20  42  62  89 124 156 199 247 300 356
#     4   9  22  36  62  90 118 155 195 247 296 342
#     4  10  24  40  65  87 122 157 201 242 299 356
#     4  10  25  40  58  93 119 161 195 245 300 355
#     4  10  24  41  60  91 121 156 199 247 297 356
#     4   8  20  38  59  91 117 158 198 244 297 345
#
# _framework density 23.557832999999999
#
# number of rings (size 3 to 8) (size 9 to 14) (size 15 to 20)
#    1.714    0.571    0.000    1.714    4.000    4.000 
#    5.143    0.714    0.000    1.714    0.000    0.000 
#    0.000    0.000    0.000    0.000    0.000    0.000 
#
# Total GULP energy -78128.162615 kJ/mol
# GULP energy per Si atom -5580.583044 kJ/mol
# Density = 2.350421 g / cm^3
# Si number density = 23.557833 Si / 1000 Ang^3
#
#
#
# Elastic Constant Matrix: (Units=GPa)
#
#
# Indices 1 2 3 4 5 6 
#
# 1 94.5696 25.7731 18.2926 -3.4297 12.4438 -12.5926
# 2 25.7731 123.9865 49.5624 1.5470 9.2981 -26.1029
# 3 18.2926 49.5624 146.9578 -3.1725 34.5695 -6.6904
# 4 -3.4297 1.5470 -3.1725 26.8475 4.0133 8.7762
# 5 12.4438 9.2981 34.5695 4.0133 41.6257 -2.8577
# 6 -12.5926 -26.1029 -6.6904 8.7762 -2.8577 41.3437
#
#
#
# Elastic Compliance Matrix: (Units=1/GPa)
#
#
# Indices 1 2 3 4 5 6 
#
# 1 0.011792 -0.001835 0.000006 0.001457 -0.003129 0.001908
# 2 -0.001835 0.011346 -0.003853 -0.003927 0.002071 0.006958
# 3 0.000006 -0.003853 0.009923 0.003238 -0.007835 -0.002054
# 4 0.001457 -0.003927 0.003238 0.042728 -0.007127 -0.011075
# 5 -0.003129 0.002071 -0.007835 -0.007127 0.031883 0.002803
# 6 0.001908 0.006958 -0.002054 -0.011075 0.002803 0.031374
#
#
# Mechanical properties :
#
#
# Convention : Reuss Voigt Hill
#
# Bulk Modulus (GPa) = 46.09317 61.41892 53.75605
# Shear Modulus (GPa) = 31.71737 40.08910 35.90323
#
# Velocity S-wave (km/s) = 3.67326 4.12968 3.90814
# Velocity P-wave (km/s) = 6.13179 6.99050 6.57518
#
# Compressibility (1/GPa) = 0.02169519
#
# Stress axis : x y z
#
# Youngs Moduli (GPa) = 84.80334 88.14006 100.77714
#
# Poissons Ratio (x) = 0.16175 -0.00056
# Poissons Ratio (y) = 0.15563 0.38830
# Poissons Ratio (z) = -0.00047 0.33961
#
# Static dielectric constant tensor:
#      x y z
#    x 1.907860 0.021590 0.003560 
#    y 0.021590 1.971640 0.040620 
#    z 0.003560 0.040620 1.967170 
# 
# From -- ./inp_files/604550.got.cif
#   From: 2010.05.17/outbox.cif.g08.bks.cpg/sg2_303_cif.got.tgz:604550.got - 2010.06.03 11:33:40.
