data_PCOD9012113
_publ_section_title
;
Structure prediction by ZEFSAII (Michael W. Deem and Ramdas Pophale) SiO2 
 PCOD9012113
Probable space group: P -1
;
_chemical_formula_sum "Si O2"
_cell_formula_units_Z 10
_cell_length_a 13.159446
_cell_length_b 8.957671
_cell_length_c 9.620219
_cell_angle_alpha 60.198379
_cell_angle_beta 53.276780
_cell_angle_gamma 105.073390
_cell_volume 472.016084
_symmetry_space_group_name_H-M "P -1"
_symmetry_group_IT_number 2
_symmetry_cell_setting 'triclinic'
loop_
_space_group_symop_operation_xyz
x,y,z
-x,-y,-z
loop_
_atom_site_type_symbol
_atom_site_label
_atom_site_fract_x
_atom_site_fract_y
_atom_site_fract_z
Si Si1 0.758491 0.752825 0.767109
Si Si2 0.680675 0.342661 0.186639
Si Si3 0.202435 0.703957 0.144016
Si Si4 0.555443 0.362774 0.548513
Si Si5 0.408620 0.619381 0.170832
O O1 0.730212 0.669773 0.668484
O O2 0.629745 0.465309 0.090662
O O3 0.648095 0.812316 0.864396
O O4 0.000000 0.000000 0.500000
O O5 0.711883 0.444356 0.270105
O O6 0.500000 0.000000 0.500000
O O7 0.846212 0.433259 0.903544
O O8 0.360593 0.746295 0.076571
O O9 0.000000 0.500000 0.500000
O O10 0.332084 0.019539 0.876046
O O11 0.500000 0.500000 0.500000
O O12 0.637855 0.429462 0.606262
#
# Coordination Sequence:
#
# PCOD9012113 Si02
#       5
#     2   2   2   2   2
#     4  10  21  40  68  96 124 169 222 264 310 393
#     4   9  20  39  64  89 132 169 199 268 331 362
#     4  10  23  42  66  93 128 175 221 256 311 392
#     4  11  21  39  66  94 133 169 207 272 327 370
#     4  10  22  39  67  94 130 172 214 259 332 375
#
# _framework density 21.185718999999999
#
# number of rings (size 3 to 8) (size 9 to 14) (size 15 to 20)
#    0.000    2.000    2.000    0.600    5.600    0.000 
#    0.000    5.000    0.000    0.000    0.000    0.000 
#    0.000    0.000    0.000    0.000    0.000    0.000 
#
# Total GULP energy -55750.634353 kJ/mol
# GULP energy per Si atom -5575.063435 kJ/mol
# Density = 2.113750 g / cm^3
# Si number density = 21.185719 Si / 1000 Ang^3
#
#
#
# Elastic Constant Matrix: (Units=GPa)
#
#
# Indices 1 2 3 4 5 6 
#
# 1 83.0792 52.1130 43.5653 -8.8740 -1.7597 -15.1304
# 2 52.1130 165.5682 60.8102 48.5921 12.7620 18.2650
# 3 43.5653 60.8102 90.1411 19.4392 -1.8804 -10.1205
# 4 -8.8740 48.5921 19.4392 38.7142 -1.3368 15.7536
# 5 -1.7597 12.7620 -1.8804 -1.3368 36.1627 -0.8040
# 6 -15.1304 18.2650 -10.1205 15.7536 -0.8040 51.0330
#
#
#
# Elastic Compliance Matrix: (Units=1/GPa)
#
#
# Indices 1 2 3 4 5 6 
#
# 1 0.033072 -0.017290 -0.011001 0.033650 0.008462 0.003557
# 2 -0.017290 0.021431 -0.000412 -0.029375 -0.009600 -0.003961
# 3 -0.011001 -0.000412 0.020414 -0.014442 0.000258 0.005396
# 4 0.033650 -0.029375 -0.014442 0.081073 0.014091 -0.007179
# 5 0.008462 -0.009600 0.000258 0.014091 0.032035 0.002151
# 6 0.003557 -0.003961 0.005396 -0.007179 0.002151 0.025388
#
#
# Mechanical properties :
#
#
# Convention : Reuss Voigt Hill
#
# Bulk Modulus (GPa) = 57.10139 72.41840 64.75990
# Shear Modulus (GPa) = 18.07305 37.33531 27.70418
#
# Velocity S-wave (km/s) = 2.92392 4.20251 3.62011
# Velocity P-wave (km/s) = 6.19761 7.60296 6.93597
#
# Compressibility (1/GPa) = 0.01751271
#
# Stress axis : x y z
#
# Youngs Moduli (GPa) = 30.23700 46.66071 48.98629
#
# Poissons Ratio (x) = 0.80675 0.53889
# Poissons Ratio (y) = 0.52279 0.02017
# Poissons Ratio (z) = 0.33263 0.01921
#
# Static dielectric constant tensor:
#      x y z
#    x 1.765620 0.004250 0.014710 
#    y 0.004250 1.831770 0.020010 
#    z 0.014710 0.020010 1.798310 
# 
# From -- ./inp_files/20733.got.cif
#   From: 2010.05.17/outbox.cif.g08.bks.cpg/sg2_11_cif.got.tgz:20733.got - 2010.06.03 11:33:40.
