data_PCOD9012324
_publ_section_title
;
Structure prediction by ZEFSAII (Michael W. Deem and Ramdas Pophale) SiO2 
 PCOD9012324
Probable space group: P -1
;
_chemical_formula_sum "Si O2"
_cell_formula_units_Z 14
_cell_length_a 13.318234
_cell_length_b 9.061107
_cell_length_c 9.735074
_cell_angle_alpha 137.456602
_cell_angle_beta 58.169344
_cell_angle_gamma 125.526321
_cell_volume 635.865394
_symmetry_space_group_name_H-M "P -1"
_symmetry_group_IT_number 2
_symmetry_cell_setting 'triclinic'
loop_
_space_group_symop_operation_xyz
x,y,z
-x,-y,-z
loop_
_atom_site_type_symbol
_atom_site_label
_atom_site_fract_x
_atom_site_fract_y
_atom_site_fract_z
Si Si1 0.919836 0.733621 0.847496
Si Si2 0.327202 0.890680 0.251230
Si Si3 0.257235 0.393013 0.876195
Si Si4 0.864152 0.830325 0.444983
Si Si5 0.507770 0.664988 0.479249
Si Si6 0.638966 0.198907 0.524792
Si Si7 0.871161 0.472727 0.414832
O O1 0.895494 0.646303 0.647974
O O2 0.000691 0.579057 0.742229
O O3 0.791170 0.682163 0.988560
O O4 0.000000 0.000000 0.000000
O O5 0.311007 0.788418 0.348018
O O6 0.232227 0.026785 0.375781
O O7 0.464606 0.085124 0.295612
O O8 0.303848 0.670077 0.021522
O O9 0.144255 0.262910 0.767597
O O10 0.370624 0.317278 0.687700
O O11 0.833033 0.605414 0.409051
O O12 0.000000 0.000000 0.500000
O O13 0.500000 0.500000 0.500000
O O14 0.400306 0.610434 0.404383
O O15 0.764998 0.227996 0.365844
O O16 0.500000 0.000000 0.500000
#
# Coordination Sequence:
#
# PCOD9012324 Si02
#       7
#     2   2   2   2   2   2   2
#     4  11  25  40  69  97 136 173 223 280 340 407
#     4  10  22  41  65  93 135 174 224 277 333 398
#     4  11  23  42  67  98 133 175 230 275 338 406
#     4  11  24  40  68  94 138 177 223 284 343 398
#     4  10  23  43  68  98 137 178 224 280 340 397
#     4  10  21  40  69  93 132 184 220 272 338 395
#     4  11  24  44  64  98 138 172 225 279 342 400
#
# _framework density 22.017236
#
# number of rings (size 3 to 8) (size 9 to 14) (size 15 to 20)
#    0.000    1.429    1.429    3.429    8.000    4.571 
#    0.000    0.000    0.000    0.000    0.000    0.000 
#    0.000    0.000    0.000    0.000    0.000    0.000 
#
# Total GULP energy -77962.233934 kJ/mol
# GULP energy per Si atom -5568.730995 kJ/mol
# Density = 2.196712 g / cm^3
# Si number density = 22.017236 Si / 1000 Ang^3
#
#
#
# Elastic Constant Matrix: (Units=GPa)
#
#
# Indices 1 2 3 4 5 6 
#
# 1 92.8101 -5.5898 5.3236 -1.4367 1.4474 -19.3666
# 2 -5.5898 73.2545 3.3593 2.7020 -2.8837 -2.9342
# 3 5.3236 3.3593 74.2310 18.1268 -2.9847 -2.6261
# 4 -1.4367 2.7020 18.1268 40.4972 6.5421 0.0667
# 5 1.4474 -2.8837 -2.9847 6.5421 16.5684 -8.1339
# 6 -19.3666 -2.9342 -2.6261 0.0667 -8.1339 39.1897
#
#
#
# Elastic Compliance Matrix: (Units=1/GPa)
#
#
# Indices 1 2 3 4 5 6 
#
# 1 0.012228 0.001299 -0.000694 0.000304 0.002120 0.006533
# 2 0.001299 0.014078 -0.000098 -0.001529 0.004179 0.002559
# 3 -0.000694 -0.000098 0.015934 -0.008335 0.007309 0.002249
# 4 0.000304 -0.001529 -0.008335 0.031127 -0.015997 -0.003896
# 5 0.002120 0.004179 0.007309 -0.015997 0.077333 0.017928
# 6 0.006533 0.002559 0.002249 -0.003896 0.017928 0.032815
#
#
# Mechanical properties :
#
#
# Convention : Reuss Voigt Hill
#
# Bulk Modulus (GPa) = 23.11963 27.38688 25.25326
# Shear Modulus (GPa) = 25.39103 35.06457 30.22780
#
# Velocity S-wave (km/s) = 3.39961 3.99506 3.70931
# Velocity P-wave (km/s) = 5.09248 5.80918 5.46259
#
# Compressibility (1/GPa) = 0.04325328
#
# Stress axis : x y z
#
# Youngs Moduli (GPa) = 81.78264 71.03253 62.75723
#
# Poissons Ratio (x) = -0.09225 0.04353
# Poissons Ratio (y) = -0.10621 0.00618
# Poissons Ratio (z) = 0.05673 0.00699
#
# Static dielectric constant tensor:
#      x y z
#    x 1.876440 0.024570 0.004100 
#    y 0.024570 1.913050 0.036890 
#    z 0.004100 0.036890 1.789090 
# 
# From -- ./inp_files/296649.got.cif
#   From: 2010.05.17/outbox.cif.g08.bks.cpg/sg2_149_cif.got.tgz:296649.got - 2010.06.03 11:33:40.
