data_PCOD9012062
_publ_section_title
;
Structure prediction by ZEFSAII (Michael W. Deem and Ramdas Pophale) SiO2 
 PCOD9012062
Probable space group: P -1
;
_chemical_formula_sum "Si O2"
_cell_formula_units_Z 13
_cell_length_a 9.538075
_cell_length_b 5.300130
_cell_length_c 11.079957
_cell_angle_alpha 94.268566
_cell_angle_beta 101.683863
_cell_angle_gamma 118.311342
_cell_volume 473.372893
_symmetry_space_group_name_H-M "P -1"
_symmetry_group_IT_number 2
_symmetry_cell_setting 'triclinic'
loop_
_space_group_symop_operation_xyz
x,y,z
-x,-y,-z
loop_
_atom_site_type_symbol
_atom_site_label
_atom_site_fract_x
_atom_site_fract_y
_atom_site_fract_z
Si Si1 0.703334 0.164503 0.142282
Si Si2 0.433200 0.199514 0.224619
Si Si3 0.815744 0.398848 0.508334
Si Si4 0.500000 0.500000 0.000000
Si Si5 0.732289 0.839319 0.559009
Si Si6 0.948439 0.785811 0.756367
Si Si7 0.818416 0.452240 0.939229
O O1 0.604579 0.198745 0.234769
O O2 0.870950 0.170381 0.206408
O O3 0.597705 0.855985 0.049011
O O4 0.737342 0.423304 0.057581
O O5 0.391280 0.264162 0.353230
O O6 0.292701 0.864565 0.152475
O O7 0.455243 0.441773 0.138558
O O8 0.746980 0.608867 0.468287
O O9 0.000000 0.500000 0.500000
O O10 0.836946 0.478542 0.658182
O O11 0.708050 0.055610 0.478262
O O12 0.911772 0.986763 0.668123
O O13 0.870001 0.732153 0.872995
O O14 0.000000 0.500000 0.000000
#
# Coordination Sequence:
#
# PCOD9012062 Si02
#       7
#     2   2   2   1   2   2   2
#     4  10  22  37  54  86 125 168 206 244 296 357
#     4  11  21  35  55  83 123 162 203 245 301 357
#     4  10  21  40  68  94 114 148 204 261 314 367
#     4  10  22  32  54  80 124 168 208 232 288 354
#     4  10  22  37  66  89 120 153 200 251 312 359
#     4   9  21  37  61  87 120 159 205 257 299 358
#     4   9  17  36  55  82 119 161 207 246 287 345
#
# _framework density 27.462491
#
# number of rings (size 3 to 8) (size 9 to 14) (size 15 to 20)
#    0.923    1.231    1.538    2.308    6.462    1.231 
#    2.769    2.308    0.000    1.846    0.000    0.000 
#    0.000    0.000    0.000    0.000    0.000    0.000 
#
# Total GULP energy -72433.926849 kJ/mol
# GULP energy per Si atom -5571.840527 kJ/mol
# Density = 2.739998 g / cm^3
# Si number density = 27.462491 Si / 1000 Ang^3
#
#
#
# Elastic Constant Matrix: (Units=GPa)
#
#
# Indices 1 2 3 4 5 6 
#
# 1 111.9178 5.9598 12.2842 2.7422 -32.1075 10.6711
# 2 5.9598 85.7177 26.2854 -8.5519 -14.8838 -30.5157
# 3 12.2842 26.2854 90.7369 -16.7470 -29.1538 -7.5027
# 4 2.7422 -8.5519 -16.7470 42.1284 -3.9819 -1.6336
# 5 -32.1075 -14.8838 -29.1538 -3.9819 53.6720 2.5014
# 6 10.6711 -30.5157 -7.5027 -1.6336 2.5014 51.0987
#
#
#
# Elastic Compliance Matrix: (Units=1/GPa)
#
#
# Indices 1 2 3 4 5 6 
#
# 1 0.011207 -0.000906 0.000713 -0.000092 0.006979 -0.003122
# 2 -0.000906 0.016730 -0.002555 0.003053 0.002480 0.009781
# 3 0.000713 -0.002555 0.015699 0.006515 0.008710 0.000413
# 4 -0.000092 0.003053 0.006515 0.027672 0.006226 0.003379
# 5 0.006979 0.002480 0.008710 0.006226 0.028683 0.000098
# 6 -0.003122 0.009781 0.000413 0.003379 0.000098 0.026227
#
#
# Mechanical properties :
#
#
# Convention : Reuss Voigt Hill
#
# Bulk Modulus (GPa) = 26.21928 41.93679 34.07804
# Shear Modulus (GPa) = 34.61915 45.63603 40.12759
#
# Velocity S-wave (km/s) = 3.55434 4.08089 3.82668
# Velocity P-wave (km/s) = 5.13931 6.12443 5.65337
#
# Compressibility (1/GPa) = 0.03813987
#
# Stress axis : x y z
#
# Youngs Moduli (GPa) = 89.22875 59.77244 63.69651
#
# Poissons Ratio (x) = 0.05418 -0.04539
# Poissons Ratio (y) = 0.08088 0.16272
# Poissons Ratio (z) = -0.06358 0.15269
#
# Static dielectric constant tensor:
#      x y z
#    x 1.950210 0.119180 0.054450 
#    y 0.119180 2.006530 0.003860 
#    z 0.054450 0.003860 2.145920 
# 
# From -- ./inp_files/478566.got.cif
#   From: 2010.05.17/outbox.cif.g08.bks.cpg/sg2_240_cif.got.tgz:478566.got - 2010.06.03 11:33:40.
