data_PCOD9012786
_publ_section_title
;
Structure prediction by ZEFSAII (Michael W. Deem and Ramdas Pophale) SiO2 
 PCOD9012786
Probable space group: P -1
;
_chemical_formula_sum "Si O2"
_cell_formula_units_Z 16
_cell_length_a 28.271481
_cell_length_b 6.087082
_cell_length_c 30.374182
_cell_angle_alpha 112.491686
_cell_angle_beta 8.635274
_cell_angle_gamma 112.631754
_cell_volume 724.303609
_symmetry_space_group_name_H-M "P -1"
_symmetry_group_IT_number 2
_symmetry_cell_setting 'triclinic'
loop_
_space_group_symop_operation_xyz
x,y,z
-x,-y,-z
loop_
_atom_site_type_symbol
_atom_site_label
_atom_site_fract_x
_atom_site_fract_y
_atom_site_fract_z
Si Si1 0.747919 0.196540 0.738000
Si Si2 0.294793 0.884872 0.641231
Si Si3 0.734144 0.096680 0.566896
Si Si4 0.013753 0.127913 0.841510
Si Si5 0.097503 0.809818 0.147980
Si Si6 0.068464 0.292355 0.360700
Si Si7 0.453335 0.338821 0.766995
Si Si8 0.658906 0.599203 0.221784
O O1 0.820778 0.429239 0.718830
O O2 0.812433 0.266696 0.633079
O O3 0.373391 0.143039 0.081514
O O4 0.000000 0.000000 0.500000
O O5 0.450538 0.653946 0.459629
O O6 0.500000 0.000000 0.500000
O O7 0.273498 0.064640 0.633214
O O8 0.945294 0.800559 0.971935
O O9 0.926656 0.206910 0.438650
O O10 0.713963 0.277200 0.558068
O O11 0.383714 0.010631 0.897795
O O12 0.891629 0.866415 0.383812
O O13 0.099738 0.172828 0.714695
O O14 0.823609 0.350256 0.049941
O O15 0.779528 0.894888 0.037908
O O16 0.261841 0.560652 0.976588
O O17 0.537493 0.383558 0.641777
#
# Coordination Sequence:
#
# PCOD9012786 Si02
#       8
#     2   2   2   2   2   2   2   2
#     4  10  21  41  61  81 114 155 192 231 279 332
#     4  11  23  38  58  86 115 147 192 240 285 334
#     4  11  22  37  57  87 119 144 184 240 282 331
#     4   9  21  39  60  82 114 153 191 234 281 340
#     4  10  22  38  58  84 116 152 189 228 285 346
#     4  10  22  37  59  88 113 146 194 234 278 336
#     4   9  21  39  60  84 114 152 188 228 285 343
#     4  10  22  39  60  83 112 152 191 228 284 345
#
# _framework density 22.090185999999999
#
# number of rings (size 3 to 8) (size 9 to 14) (size 15 to 20)
#    0.000    2.000    0.000    2.250    0.000   16.000 
#    0.000    0.000    0.000    0.000    0.000    0.000 
#    0.000    0.000    0.000    0.000    0.000    0.000 
#
# Total GULP energy -89487.607393 kJ/mol
# GULP energy per Si atom -5592.975462 kJ/mol
# Density = 2.203991 g / cm^3
# Si number density = 22.090186 Si / 1000 Ang^3
#
#
#
# Elastic Constant Matrix: (Units=GPa)
#
#
# Indices 1 2 3 4 5 6 
#
# 1 120.7047 52.1605 40.4798 0.9460 -29.7030 39.8659
# 2 52.1605 86.1979 18.7787 15.3169 -25.3390 11.3472
# 3 40.4798 18.7787 95.7426 1.7183 -3.6244 15.6786
# 4 0.9460 15.3169 1.7183 27.1659 0.8502 -0.4559
# 5 -29.7030 -25.3390 -3.6244 0.8502 41.8837 -3.2605
# 6 39.8659 11.3472 15.6786 -0.4559 -3.2605 30.6118
#
#
#
# Elastic Compliance Matrix: (Units=1/GPa)
#
#
# Indices 1 2 3 4 5 6 
#
# 1 0.023447 -0.007824 -0.004063 0.003141 0.009573 -0.024488
# 2 -0.007824 0.020063 -0.000772 -0.011148 0.007039 0.003731
# 3 -0.004063 -0.000772 0.012395 -0.000151 -0.002352 -0.001024
# 4 0.003141 -0.011148 -0.000151 0.043169 -0.005392 0.000188
# 5 0.009573 0.007039 -0.002352 -0.005392 0.034025 -0.010328
# 6 -0.024488 0.003731 -0.001024 0.000188 -0.010328 0.062602
#
#
# Mechanical properties :
#
#
# Convention : Reuss Voigt Hill
#
# Bulk Modulus (GPa) = 32.69168 58.38704 45.53936
# Shear Modulus (GPa) = 21.62510 32.68070 27.15290
#
# Velocity S-wave (km/s) = 3.13221 3.85050 3.50978
# Velocity P-wave (km/s) = 5.28321 6.80125 6.08972
#
# Compressibility (1/GPa) = 0.03058882
#
# Stress axis : x y z
#
# Youngs Moduli (GPa) = 42.64965 49.84364 80.67686
#
# Poissons Ratio (x) = 0.38996 0.32777
# Poissons Ratio (y) = 0.33367 0.06225
# Poissons Ratio (z) = 0.17327 0.03846
#
# Static dielectric constant tensor:
#      x y z
#    x 1.801940 -0.056130 0.014140 
#    y -0.056130 1.823490 -0.010860 
#    z 0.014140 -0.010860 1.817450 
# 
# From -- ./inp_files/12907.got.cif
#   From: 2010.05.17/outbox.cif.g08.bks.cpg/sg2_7_cif.got.tgz:12907.got - 2010.06.03 11:33:40.
