data_PCOD9012134
_publ_section_title
;
Structure prediction by ZEFSAII (Michael W. Deem and Ramdas Pophale) SiO2 
 PCOD9012134
Probable space group: P -1
;
_chemical_formula_sum "Si O2"
_cell_formula_units_Z 13
_cell_length_a 9.175022
_cell_length_b 10.554029
_cell_length_c 8.652718
_cell_angle_alpha 86.362498
_cell_angle_beta 133.319773
_cell_angle_gamma 64.820829
_cell_volume 464.425259
_symmetry_space_group_name_H-M "P -1"
_symmetry_group_IT_number 2
_symmetry_cell_setting 'triclinic'
loop_
_space_group_symop_operation_xyz
x,y,z
-x,-y,-z
loop_
_atom_site_type_symbol
_atom_site_label
_atom_site_fract_x
_atom_site_fract_y
_atom_site_fract_z
Si Si1 0.500000 0.500000 0.000000
Si Si2 0.293532 0.828017 0.009416
Si Si3 0.417188 0.365916 0.449754
Si Si4 0.941854 0.195689 0.729011
Si Si5 0.027072 0.530010 0.697580
Si Si6 0.725424 0.861161 0.316760
Si Si7 0.377985 0.130531 0.262365
O O1 0.334000 0.681756 0.957879
O O2 0.685460 0.537860 0.058489
O O3 0.396250 0.755781 0.262778
O O4 0.494741 0.858074 0.097704
O O5 0.013545 0.014633 0.788299
O O6 0.134294 0.502969 0.315217
O O7 0.343691 0.285216 0.283999
O O8 0.634875 0.356104 0.513137
O O9 0.060463 0.200056 0.653802
O O10 0.116838 0.172435 0.001582
O O11 0.859466 0.727445 0.561244
O O12 0.000000 0.500000 0.500000
O O13 0.582637 0.037259 0.276945
O O14 0.500000 0.000000 0.500000
#
# Coordination Sequence:
#
# PCOD9012134 Si02
#       7
#     1   2   2   2   2   2   2
#     4  12  24  40  74  92 124 182 226 270 308 392
#     4  10  21  40  68  97 128 173 225 261 323 392
#     4  11  23  38  64 103 127 169 227 273 318 399
#     4  11  24  41  66 103 141 165 208 288 346 373
#     4  11  23  45  67  94 131 175 236 263 317 405
#     4  10  22  44  65 100 139 167 213 283 334 390
#     4  11  20  37  67  98 134 168 214 273 326 386
#
# _framework density 27.991584
#
# number of rings (size 3 to 8) (size 9 to 14) (size 15 to 20)
#    0.000    1.231    7.692    2.308    4.308    0.615 
#    2.769    0.769    0.000    2.769    0.000    0.000 
#    0.000    0.000    0.000    0.000    0.000    0.000 
#
# Total GULP energy -72466.696412 kJ/mol
# GULP energy per Si atom -5574.361262 kJ/mol
# Density = 2.792787 g / cm^3
# Si number density = 27.991584 Si / 1000 Ang^3
#
#
#
# Elastic Constant Matrix: (Units=GPa)
#
#
# Indices 1 2 3 4 5 6 
#
# 1 224.7859 46.3266 55.8269 22.7964 36.9899 -16.6008
# 2 46.3266 129.8872 25.1606 25.1991 2.8933 -27.4224
# 3 55.8269 25.1606 100.0250 12.7768 12.4384 4.9305
# 4 22.7964 25.1991 12.7768 48.1779 10.9255 1.3079
# 5 36.9899 2.8933 12.4384 10.9255 52.3835 -9.2243
# 6 -16.6008 -27.4224 4.9305 1.3079 -9.2243 46.4320
#
#
#
# Elastic Compliance Matrix: (Units=1/GPa)
#
#
# Indices 1 2 3 4 5 6 
#
# 1 0.006038 -0.001168 -0.002626 -0.000856 -0.003197 0.001137
# 2 -0.001168 0.011043 -0.002157 -0.005556 0.003138 0.007114
# 3 -0.002626 -0.002157 0.012449 -0.000473 -0.001559 -0.003831
# 4 -0.000856 -0.005556 -0.000473 0.025523 -0.005232 -0.005296
# 5 -0.003197 0.003138 -0.001559 -0.005232 0.023643 0.005720
# 6 0.001137 0.007114 -0.003831 -0.005296 0.005720 0.027837
#
#
# Mechanical properties :
#
#
# Convention : Reuss Voigt Hill
#
# Bulk Modulus (GPa) = 56.72447 78.81404 67.76925
# Shear Modulus (GPa) = 40.22167 51.22428 45.72298
#
# Velocity S-wave (km/s) = 3.79479 4.28248 4.04599
# Velocity P-wave (km/s) = 6.28565 7.25743 6.78895
#
# Compressibility (1/GPa) = 0.01762908
#
# Stress axis : x y z
#
# Youngs Moduli (GPa) = 165.60967 90.55265 80.33001
#
# Poissons Ratio (x) = 0.10574 0.21091
# Poissons Ratio (y) = 0.19339 0.17329
# Poissons Ratio (z) = 0.43481 0.19535
#
# Static dielectric constant tensor:
#      x y z
#    x 2.213130 -0.002480 -0.007560 
#    y -0.002480 2.292510 -0.071610 
#    z -0.007560 -0.071610 2.115010 
# 
# From -- ./inp_files/170953.got.cif
#   From: 2010.05.17/outbox.cif.g08.bks.cpg/sg2_86_cif.got.tgz:170953.got - 2010.06.03 11:33:40.
