data_PCOD9012969
_publ_section_title
;
Structure prediction by ZEFSAII (Michael W. Deem and Ramdas Pophale) SiO2 
 PCOD9012969
Probable space group: P -1
;
_chemical_formula_sum "Si O2"
_cell_formula_units_Z 14
_cell_length_a 9.493505
_cell_length_b 13.913853
_cell_length_c 11.420351
_cell_angle_alpha 148.744863
_cell_angle_beta 56.866554
_cell_angle_gamma 123.472117
_cell_volume 642.986509
_symmetry_space_group_name_H-M "P -1"
_symmetry_group_IT_number 2
_symmetry_cell_setting 'triclinic'
loop_
_space_group_symop_operation_xyz
x,y,z
-x,-y,-z
loop_
_atom_site_type_symbol
_atom_site_label
_atom_site_fract_x
_atom_site_fract_y
_atom_site_fract_z
Si Si1 0.415892 0.476934 0.385703
Si Si2 0.017632 0.374444 0.476650
Si Si3 0.138802 0.866109 0.320935
Si Si4 0.363526 0.874425 0.847028
Si Si5 0.525373 0.870036 0.133934
Si Si6 0.815704 0.025635 0.327882
Si Si7 0.975412 0.292537 0.025443
O O1 0.500000 0.500000 0.500000
O O2 0.419890 0.693061 0.572917
O O3 0.219243 0.378299 0.392931
O O4 0.494544 0.349417 0.124261
O O5 0.914695 0.164327 0.327383
O O6 0.000000 0.500000 0.500000
O O7 0.962716 0.501806 0.737187
O O8 0.341240 0.929827 0.264274
O O9 0.156212 0.851464 0.437249
O O10 0.067492 0.705459 0.090652
O O11 0.000000 0.000000 0.500000
O O12 0.345482 0.018924 0.904853
O O13 0.200272 0.791932 0.913629
O O14 0.500000 0.000000 0.000000
O O15 0.623795 0.935847 0.277979
O O16 0.900288 0.846739 0.136946
#
# Coordination Sequence:
#
# PCOD9012969 Si02
#       7
#     2   2   2   2   2   2   2
#     4  11  22  35  61  95 121 155 201 253 302 365
#     4  11  23  40  60  94 130 156 201 252 316 370
#     4  10  23  43  64  87 120 169 214 255 302 364
#     4  11  20  36  64  93 124 157 194 252 316 358
#     4  12  22  40  62  91 126 156 209 257 305 366
#     4  11  24  39  64  88 123 174 202 249 312 362
#     4  10  21  41  62  92 126 159 206 256 299 368
#
# _framework density 21.773395000000001
#
# number of rings (size 3 to 8) (size 9 to 14) (size 15 to 20)
#    0.000    1.143    2.857    4.714    0.000    2.286 
#    0.000    2.857    0.000    6.857    0.000    0.000 
#    0.000    0.000    0.000    0.000    0.000    0.000 
#
# Total GULP energy -78002.249700 kJ/mol
# GULP energy per Si atom -5571.589264 kJ/mol
# Density = 2.172384 g / cm^3
# Si number density = 21.773395 Si / 1000 Ang^3
#
#
#
# Elastic Constant Matrix: (Units=GPa)
#
#
# Indices 1 2 3 4 5 6 
#
# 1 153.0244 26.2227 53.6096 -4.7979 24.0545 0.9946
# 2 26.2227 44.5303 36.6018 5.4127 -0.3955 -3.8206
# 3 53.6096 36.6018 115.7981 4.0249 7.7092 -4.0343
# 4 -4.7979 5.4127 4.0249 28.2758 -3.7478 6.9492
# 5 24.0545 -0.3955 7.7092 -3.7478 31.1801 -6.8256
# 6 0.9946 -3.8206 -4.0343 6.9492 -6.8256 26.7139
#
#
#
# Elastic Compliance Matrix: (Units=1/GPa)
#
#
# Indices 1 2 3 4 5 6 
#
# 1 0.009458 -0.003927 -0.002894 0.002780 -0.007151 -0.003901
# 2 -0.003927 0.033365 -0.008674 -0.006693 0.006317 0.006963
# 3 -0.002894 -0.008674 0.012846 -0.000990 -0.000995 0.000811
# 4 0.002780 -0.006693 -0.000990 0.040145 0.000307 -0.011575
# 5 -0.007151 0.006317 -0.000995 0.000307 0.040418 0.011267
# 6 -0.003901 0.006963 0.000811 -0.011575 0.011267 0.044587
#
#
# Mechanical properties :
#
#
# Convention : Reuss Voigt Hill
#
# Bulk Modulus (GPa) = 40.51769 60.69123 50.60446
# Shear Modulus (GPa) = 22.72357 30.36187 26.54272
#
# Velocity S-wave (km/s) = 3.23405 3.73828 3.49527
# Velocity P-wave (km/s) = 5.70917 6.82404 6.29135
#
# Compressibility (1/GPa) = 0.02468058
#
# Stress axis : x y z
#
# Youngs Moduli (GPa) = 105.72713 29.97109 77.84550
#
# Poissons Ratio (x) = 0.11770 0.22528
# Poissons Ratio (y) = 0.41520 0.67519
# Poissons Ratio (z) = 0.30597 0.25995
#
# Static dielectric constant tensor:
#      x y z
#    x 1.842600 -0.056880 -0.020350 
#    y -0.056880 1.699510 -0.209750 
#    z -0.020350 -0.209750 1.526470 
# 
# From -- ./inp_files/305785.got.cif
#   From: 2010.05.17/outbox.cif.g08.bks.cpg/sg2_153_cif.got.tgz:305785.got - 2010.06.03 11:33:40.
