data_PCOD9012991
_publ_section_title
;
Structure prediction by ZEFSAII (Michael W. Deem and Ramdas Pophale) SiO2 
 PCOD9012991
Probable space group: P -1
;
_chemical_formula_sum "Si O2"
_cell_formula_units_Z 14
_cell_length_a 8.796565
_cell_length_b 11.297776
_cell_length_c 10.882559
_cell_angle_alpha 141.210029
_cell_angle_beta 107.083418
_cell_angle_gamma 88.781917
_cell_volume 607.436069
_symmetry_space_group_name_H-M "P -1"
_symmetry_group_IT_number 2
_symmetry_cell_setting 'triclinic'
loop_
_space_group_symop_operation_xyz
x,y,z
-x,-y,-z
loop_
_atom_site_type_symbol
_atom_site_label
_atom_site_fract_x
_atom_site_fract_y
_atom_site_fract_z
Si Si1 0.118426 0.821985 0.096662
Si Si2 0.358632 0.739103 0.489876
Si Si3 0.858719 0.600428 0.023858
Si Si4 0.910718 0.510073 0.613602
Si Si5 0.482615 0.824400 0.227597
Si Si6 0.673383 0.607833 0.240602
Si Si7 0.265406 0.239689 0.358955
O O1 0.295794 0.835450 0.212184
O O2 0.161235 0.004331 0.159166
O O3 0.968885 0.804028 0.143044
O O4 0.048899 0.618906 0.836539
O O5 0.275804 0.555155 0.225179
O O6 0.219075 0.695046 0.528671
O O7 0.536000 0.729701 0.574975
O O8 0.401052 0.962480 0.625473
O O9 0.782684 0.631708 0.161222
O O10 0.000000 0.500000 0.000000
O O11 0.799291 0.652244 0.675520
O O12 0.000000 0.500000 0.500000
O O13 0.566434 0.754977 0.307303
O O14 0.444618 0.627392 0.972268
O O15 0.761195 0.671783 0.442803
#
# Coordination Sequence:
#
# PCOD9012991 Si02
#       7
#     2   2   2   2   2   2   2
#     4  10  23  42  65  91 129 169 207 261 314 365
#     4  10  24  42  66  89 126 171 208 258 317 371
#     4  11  23  39  61  92 134 163 201 258 317 375
#     4  11  24  44  66  93 125 165 217 264 308 367
#     4  10  21  41  62  94 123 164 212 252 313 372
#     4  11  23  37  65  97 130 161 210 257 311 381
#     4  11  24  42  66  92 127 171 211 254 312 380
#
# _framework density 23.047694
#
# number of rings (size 3 to 8) (size 9 to 14) (size 15 to 20)
#    0.000    1.429    1.429    3.429    4.000    3.429 
#    0.000    7.857    0.000    0.000    0.000    0.000 
#    0.000    0.000    0.000    0.000    0.000    0.000 
#
# Total GULP energy -78279.902231 kJ/mol
# GULP energy per Si atom -5591.421588 kJ/mol
# Density = 2.299524 g / cm^3
# Si number density = 23.047694 Si / 1000 Ang^3
#
#
#
# Elastic Constant Matrix: (Units=GPa)
#
#
# Indices 1 2 3 4 5 6 
#
# 1 97.2623 44.6898 45.6736 9.9638 13.9208 28.3795
# 2 44.6898 102.3632 31.7203 19.4943 20.4564 7.5387
# 3 45.6736 31.7203 78.5878 17.7463 15.8660 16.7283
# 4 9.9638 19.4943 17.7463 45.0077 8.6203 4.8892
# 5 13.9208 20.4564 15.8660 8.6203 32.4820 -1.0558
# 6 28.3795 7.5387 16.7283 4.8892 -1.0558 55.4285
#
#
#
# Elastic Compliance Matrix: (Units=1/GPa)
#
#
# Indices 1 2 3 4 5 6 
#
# 1 0.017936 -0.005220 -0.007048 0.002114 -0.001732 -0.006566
# 2 -0.005220 0.013980 -0.001043 -0.003665 -0.005043 0.001313
# 3 -0.007048 -0.001043 0.019640 -0.004620 -0.004750 -0.001860
# 4 0.002114 -0.003665 -0.004620 0.025955 -0.003279 -0.001541
# 5 -0.001732 -0.005043 -0.004750 -0.003279 0.038025 0.004020
# 6 -0.006566 0.001313 -0.001860 -0.001541 0.004020 0.021998
#
#
# Mechanical properties :
#
#
# Convention : Reuss Voigt Hill
#
# Bulk Modulus (GPa) = 40.10287 58.04231 49.07259
# Shear Modulus (GPa) = 28.99092 36.99228 32.99160
#
# Velocity S-wave (km/s) = 3.55049 4.01063 3.78755
# Velocity P-wave (km/s) = 5.85198 6.83265 6.36124
#
# Compressibility (1/GPa) = 0.02493587
#
# Stress axis : x y z
#
# Youngs Moduli (GPa) = 55.75226 71.52963 50.91726
#
# Poissons Ratio (x) = 0.37337 0.35884
# Poissons Ratio (y) = 0.29101 0.05311
# Poissons Ratio (z) = 0.39291 0.07461
#
# Static dielectric constant tensor:
#      x y z
#    x 1.941800 0.014460 0.002530 
#    y 0.014460 1.862160 0.026490 
#    z 0.002530 0.026490 1.843860 
# 
# From -- ./inp_files/315863.got.cif
#   From: 2010.05.17/outbox.cif.g08.bks.cpg/sg2_158_cif.got.tgz:315863.got - 2010.06.03 11:33:40.
