data_PCOD9012581
_publ_section_title
;
Structure prediction by ZEFSAII (Michael W. Deem and Ramdas Pophale) SiO2 
 PCOD9012581
Probable space group: P -1
;
_chemical_formula_sum "Si O2"
_cell_formula_units_Z 16
_cell_length_a 9.121415
_cell_length_b 11.721565
_cell_length_c 13.783820
_cell_angle_alpha 45.295640
_cell_angle_beta 50.490456
_cell_angle_gamma 46.265611
_cell_volume 723.875782
_symmetry_space_group_name_H-M "P -1"
_symmetry_group_IT_number 2
_symmetry_cell_setting 'triclinic'
loop_
_space_group_symop_operation_xyz
x,y,z
-x,-y,-z
loop_
_atom_site_type_symbol
_atom_site_label
_atom_site_fract_x
_atom_site_fract_y
_atom_site_fract_z
Si Si1 0.811383 0.682828 0.597141
Si Si2 0.998087 0.283638 0.685757
Si Si3 0.166714 0.644276 0.613279
Si Si4 0.404217 0.678898 0.867720
Si Si5 0.274074 0.008737 0.868189
Si Si6 0.504248 0.231512 0.680493
Si Si7 0.188273 0.556059 0.876638
Si Si8 0.618356 0.208938 0.858400
O O1 0.823357 0.784063 0.433181
O O2 0.586902 0.695033 0.716251
O O3 0.950772 0.476985 0.629480
O O4 0.942218 0.714075 0.611186
O O5 0.787817 0.287927 0.724998
O O6 0.054099 0.159171 0.830946
O O7 0.311165 0.432696 0.652487
O O8 0.301599 0.745913 0.461206
O O9 0.152122 0.652412 0.730458
O O10 0.328638 0.841020 0.876991
O O11 0.224422 0.669325 0.880055
O O12 0.500000 0.500000 0.000000
O O13 0.430007 0.102282 0.733002
O O14 0.290588 0.948740 0.007863
O O15 0.568214 0.155752 0.807196
O O16 0.406446 0.372111 0.890444
O O17 0.000000 0.500000 0.000000
#
# Coordination Sequence:
#
# PCOD9012581 Si02
#       8
#     2   2   2   2   2   2   2   2
#     4  11  22  42  72  96 136 179 229 277 329 407
#     4  11  23  41  69 103 131 178 231 277 338 386
#     4  10  21  40  71  95 133 172 231 273 334 398
#     4  12  25  46  68  97 140 181 221 272 343 406
#     4  12  25  42  68  99 143 175 226 278 340 395
#     4  10  22  41  66 101 130 176 221 286 335 387
#     4  11  24  43  71  98 131 183 224 268 343 415
#     4  11  22  44  66  98 136 173 227 285 327 404
#
# _framework density 22.103238999999999
#
# number of rings (size 3 to 8) (size 9 to 14) (size 15 to 20)
#    0.000    1.000    5.000    1.500    1.750    0.500 
#    6.750    0.625    0.000    0.000    0.000    0.000 
#    0.000    0.000    0.000    0.000    0.000    0.000 
#
# Total GULP energy -89481.166120 kJ/mol
# GULP energy per Si atom -5592.572883 kJ/mol
# Density = 2.205293 g / cm^3
# Si number density = 22.103239 Si / 1000 Ang^3
#
#
#
# Elastic Constant Matrix: (Units=GPa)
#
#
# Indices 1 2 3 4 5 6 
#
# 1 159.9638 22.0163 52.4076 2.1547 -18.3223 27.5665
# 2 22.0163 30.2128 22.9722 -0.2027 -3.6365 19.3941
# 3 52.4076 22.9722 112.9453 14.7199 -7.3405 6.4017
# 4 2.1547 -0.2027 14.7199 29.4819 -2.7545 -6.6587
# 5 -18.3223 -3.6365 -7.3405 -2.7545 49.5054 -4.3250
# 6 27.5665 19.3941 6.4017 -6.6587 -4.3250 31.6337
#
#
#
# Elastic Compliance Matrix: (Units=1/GPa)
#
#
# Indices 1 2 3 4 5 6 
#
# 1 0.008861 0.001692 -0.003843 -0.000266 0.002143 -0.007745
# 2 0.001692 0.066894 -0.011682 -0.003027 0.000080 -0.040749
# 3 -0.003843 -0.011682 0.013265 -0.004886 0.000009 0.006799
# 4 -0.000266 -0.003027 -0.004886 0.039182 0.002150 0.011618
# 5 0.002143 0.000080 0.000009 0.002150 0.021245 0.001440
# 6 -0.007745 -0.040749 0.006799 0.011618 0.001440 0.064610
#
#
# Mechanical properties :
#
#
# Convention : Reuss Voigt Hill
#
# Bulk Modulus (GPa) = 16.29844 55.32380 35.81112
# Shear Modulus (GPa) = 19.07136 35.83925 27.45530
#
# Velocity S-wave (km/s) = 2.94058 4.03109 3.52822
# Velocity P-wave (km/s) = 4.34962 6.83742 5.73016
#
# Compressibility (1/GPa) = 0.06135555
#
# Stress axis : x y z
#
# Youngs Moduli (GPa) = 112.85153 14.94908 75.38667
#
# Poissons Ratio (x) = -0.02530 0.28971
# Poissons Ratio (y) = -0.19099 0.88064
# Poissons Ratio (z) = 0.43368 0.17463
#
# Static dielectric constant tensor:
#      x y z
#    x 1.823970 -0.014470 -0.021690 
#    y -0.014470 1.806430 -0.013320 
#    z -0.021690 -0.013320 1.907090 
# 
# From -- ./inp_files/200826.got.cif
#   From: 2010.05.17/outbox.cif.g08.bks.cpg/sg2_101_cif.got.tgz:200826.got - 2010.06.03 11:33:40.
