data_PCOD9012569
_publ_section_title
;
Structure prediction by ZEFSAII (Michael W. Deem and Ramdas Pophale) SiO2 
 PCOD9012569
Probable space group: P -1
;
_chemical_formula_sum "Si O2"
_cell_formula_units_Z 16
_cell_length_a 8.003952
_cell_length_b 9.359152
_cell_length_c 15.436634
_cell_angle_alpha 39.335388
_cell_angle_beta 95.572133
_cell_angle_gamma 89.161906
_cell_volume 722.089798
_symmetry_space_group_name_H-M "P -1"
_symmetry_group_IT_number 2
_symmetry_cell_setting 'triclinic'
loop_
_space_group_symop_operation_xyz
x,y,z
-x,-y,-z
loop_
_atom_site_type_symbol
_atom_site_label
_atom_site_fract_x
_atom_site_fract_y
_atom_site_fract_z
Si Si1 0.773456 0.378989 0.042337
Si Si2 0.592793 0.324786 0.657367
Si Si3 0.829947 0.405071 0.234046
Si Si4 0.347711 0.006283 0.554767
Si Si5 0.133300 0.893712 0.982101
Si Si6 0.455497 0.160237 0.183540
Si Si7 0.171033 0.516454 0.285633
Si Si8 0.385165 0.222311 0.854133
O O1 0.846501 0.370591 0.147749
O O2 0.900910 0.236380 0.047502
O O3 0.598993 0.264153 0.086548
O O4 0.699980 0.642439 0.895599
O O5 0.500000 0.500000 0.500000
O O6 0.779737 0.369793 0.675419
O O7 0.470232 0.350838 0.722881
O O8 0.604572 0.060663 0.757422
O O9 0.780705 0.175468 0.381088
O O10 0.677031 0.606377 0.151968
O O11 0.988371 0.485967 0.252595
O O12 0.437861 0.933461 0.683611
O O13 0.500000 0.000000 0.500000
O O14 0.257221 0.261081 0.424091
O O15 0.228093 0.105902 0.863693
O O16 0.238011 0.680837 0.139557
O O17 0.000000 0.000000 0.000000
O O18 0.500000 0.000000 0.000000
#
# Coordination Sequence:
#
# PCOD9012569 Si02
#       8
#     2   2   2   2   2   2   2   2
#     4  10  23  43  73 105 144 184 251 307 366 437
#     4  12  24  43  75 107 148 196 250 303 371 452
#     4  11  26  45  71 108 146 193 239 311 384 432
#     4  11  23  43  71  99 140 191 250 292 360 449
#     4  12  25  45  72 106 149 190 243 308 378 440
#     4  10  21  40  71 108 137 186 248 310 355 423
#     4  12  25  44  68 103 149 188 240 304 378 444
#     4  12  24  44  75 105 144 196 253 307 363 444
#
# _framework density 22.157910000000001
#
# number of rings (size 3 to 8) (size 9 to 14) (size 15 to 20)
#    0.000    0.750    5.000    2.625    3.500    0.500 
#    0.000    1.875    5.500    0.000    0.000    0.000 
#    0.000    0.000    0.000    0.000    0.000    0.000 
#
# Total GULP energy -89292.771580 kJ/mol
# GULP energy per Si atom -5580.798224 kJ/mol
# Density = 2.210748 g / cm^3
# Si number density = 22.157910 Si / 1000 Ang^3
#
#
#
# Elastic Constant Matrix: (Units=GPa)
#
#
# Indices 1 2 3 4 5 6 
#
# 1 88.1559 57.0542 30.3459 3.4696 -2.9164 22.6409
# 2 57.0542 163.9058 47.1017 -11.2876 0.6408 5.0647
# 3 30.3459 47.1017 124.1331 -6.1613 -0.8694 7.9086
# 4 3.4696 -11.2876 -6.1613 43.9107 6.7809 -6.9097
# 5 -2.9164 0.6408 -0.8694 6.7809 24.7399 -3.0527
# 6 22.6409 5.0647 7.9086 -6.9097 -3.0527 41.8227
#
#
#
# Elastic Compliance Matrix: (Units=1/GPa)
#
#
# Indices 1 2 3 4 5 6 
#
# 1 0.018675 -0.006022 -0.001903 -0.005206 0.002521 -0.009697
# 2 -0.006022 0.008889 -0.001942 0.003190 -0.001517 0.002967
# 3 -0.001903 -0.001942 0.009326 0.000926 -0.000144 -0.000356
# 4 -0.005206 0.003190 0.000926 0.026184 -0.007092 0.006065
# 5 0.002521 -0.001517 -0.000144 -0.007092 0.042794 0.000798
# 6 -0.009697 0.002967 -0.000356 0.006065 0.000798 0.029928
#
#
# Mechanical properties :
#
#
# Convention : Reuss Voigt Hill
#
# Bulk Modulus (GPa) = 58.29310 71.68870 64.99090
# Shear Modulus (GPa) = 31.00770 38.20754 34.60762
#
# Velocity S-wave (km/s) = 3.74491 4.15701 3.95633
# Velocity P-wave (km/s) = 6.71299 7.44747 7.08975
#
# Compressibility (1/GPa) = 0.01715469
#
# Stress axis : x y z
#
# Youngs Moduli (GPa) = 53.54744 112.49308 107.23117
#
# Poissons Ratio (x) = 0.67748 0.20407
# Poissons Ratio (y) = 0.32249 0.20826
# Poissons Ratio (z) = 0.10191 0.21848
#
# Static dielectric constant tensor:
#      x y z
#    x 1.927440 0.078250 -0.034810 
#    y 0.078250 1.631260 0.059670 
#    z -0.034810 0.059670 1.742790 
# 
# From -- ./inp_files/494272.got.cif
#   From: 2010.05.17/outbox.cif.g08.bks.cpg/sg2_248_cif.got.tgz:494272.got - 2010.06.03 11:33:40.
