data_PCOD9012873
_publ_section_title
;
Structure prediction by ZEFSAII (Michael W. Deem and Ramdas Pophale) SiO2 
 PCOD9012873
Probable space group: P -1
;
_chemical_formula_sum "Si O2"
_cell_formula_units_Z 16
_cell_length_a 12.292465
_cell_length_b 8.378094
_cell_length_c 14.938949
_cell_angle_alpha 73.790145
_cell_angle_beta 58.427225
_cell_angle_gamma 35.437176
_cell_volume 725.367831
_symmetry_space_group_name_H-M "P -1"
_symmetry_group_IT_number 2
_symmetry_cell_setting 'triclinic'
loop_
_space_group_symop_operation_xyz
x,y,z
-x,-y,-z
loop_
_atom_site_type_symbol
_atom_site_label
_atom_site_fract_x
_atom_site_fract_y
_atom_site_fract_z
Si Si1 0.828556 0.120773 0.168077
Si Si2 0.953149 0.221189 0.437179
Si Si3 0.769385 0.792397 0.742304
Si Si4 0.086839 0.580734 0.410284
Si Si5 0.697205 0.217912 0.018123
Si Si6 0.684295 0.830109 0.079000
Si Si7 0.051020 0.387884 0.842655
Si Si8 0.261136 0.763981 0.608154
O O1 0.682151 0.302818 0.113473
O O2 0.721851 0.259581 0.288771
O O3 0.887462 0.863701 0.171718
O O4 0.057244 0.982977 0.086236
O O5 0.798910 0.468230 0.541624
O O6 0.860926 0.268167 0.374084
O O7 0.171462 0.102370 0.351503
O O8 0.000000 0.000000 0.500000
O O9 0.767731 0.633714 0.702226
O O10 0.970301 0.559158 0.761003
O O11 0.545480 0.018392 0.858129
O O12 0.000000 0.500000 0.500000
O O13 0.894274 0.911217 0.405278
O O14 0.679648 0.036401 0.046187
O O15 0.500000 0.500000 0.000000
O O16 0.763909 0.711913 0.165057
O O17 0.855036 0.586890 0.969328
O O18 0.500000 0.500000 0.500000
#
# Coordination Sequence:
#
# PCOD9012873 Si02
#       8
#     2   2   2   2   2   2   2   2
#     4  10  22  43  66  95 141 178 220 284 336 404
#     4   9  22  43  62  92 129 169 223 276 330 407
#     4  11  20  40  69  91 130 179 216 275 340 395
#     4   9  20  43  65  93 129 170 226 276 336 412
#     4  10  22  41  66 101 136 179 221 271 344 411
#     4  10  23  39  64 100 133 170 220 266 341 401
#     4  10  21  41  61  99 136 165 222 274 317 413
#     4  11  23  44  67  96 139 177 227 291 349 405
#
# _framework density 22.057773000000001
#
# number of rings (size 3 to 8) (size 9 to 14) (size 15 to 20)
#    0.000    2.000    1.250    1.125    1.750    2.000 
#   11.250    1.250    0.000    0.000    0.000    0.000 
#    0.000    0.000    0.000    0.000    0.000    0.000 
#
# Total GULP energy -89220.715310 kJ/mol
# GULP energy per Si atom -5576.294707 kJ/mol
# Density = 2.200757 g / cm^3
# Si number density = 22.057773 Si / 1000 Ang^3
#
#
#
# Elastic Constant Matrix: (Units=GPa)
#
#
# Indices 1 2 3 4 5 6 
#
# 1 100.7593 30.2256 44.0321 0.4567 20.2906 5.2821
# 2 30.2256 61.7479 30.0340 -6.0509 5.3470 -11.8517
# 3 44.0321 30.0340 99.7324 1.0986 28.9666 1.6804
# 4 0.4567 -6.0509 1.0986 29.3709 0.8360 7.4524
# 5 20.2906 5.3470 28.9666 0.8360 48.8914 -2.4812
# 6 5.2821 -11.8517 1.6804 7.4524 -2.4812 23.5608
#
#
#
# Elastic Compliance Matrix: (Units=1/GPa)
#
#
# Indices 1 2 3 4 5 6 
#
# 1 0.014343 -0.006378 -0.003232 0.000390 -0.003687 -0.006705
# 2 -0.006378 0.024858 -0.006173 0.001704 0.004282 0.014286
# 3 -0.003232 -0.006173 0.015532 -0.000554 -0.007384 -0.004091
# 4 0.000390 0.001704 -0.000554 0.037266 -0.001221 -0.011106
# 5 -0.003687 0.004282 -0.007384 -0.001221 0.026249 0.006657
# 6 -0.006705 0.014286 -0.004091 -0.011106 0.006657 0.055639
#
#
# Mechanical properties :
#
#
# Convention : Reuss Voigt Hill
#
# Bulk Modulus (GPa) = 43.16541 52.31366 47.73953
# Shear Modulus (GPa) = 23.45497 30.89448 27.17472
#
# Velocity S-wave (km/s) = 3.26443 3.74654 3.51376
# Velocity P-wave (km/s) = 5.81553 6.51794 6.17673
#
# Compressibility (1/GPa) = 0.02316670
#
# Stress axis : x y z
#
# Youngs Moduli (GPa) = 69.72283 40.22894 64.38145
#
# Poissons Ratio (x) = 0.25658 0.20808
# Poissons Ratio (y) = 0.44470 0.39742
# Poissons Ratio (z) = 0.22535 0.24833
#
# Static dielectric constant tensor:
#      x y z
#    x 1.928740 0.043080 0.141840 
#    y 0.043080 1.898160 0.075330 
#    z 0.141840 0.075330 2.104690 
# 
# From -- ./inp_files/515523.got.cif
#   From: 2010.05.17/outbox.cif.g08.bks.cpg/sg2_258_cif.got.tgz:515523.got - 2010.06.03 11:33:40.
