data_PCOD9012406
_publ_section_title
;
Structure prediction by ZEFSAII (Michael W. Deem and Ramdas Pophale) SiO2 
 PCOD9012406
Probable space group: P -1
;
_chemical_formula_sum "Si O2"
_cell_formula_units_Z 14
_cell_length_a 5.328036
_cell_length_b 21.754994
_cell_length_c 6.003426
_cell_angle_alpha 124.820252
_cell_angle_beta 103.226542
_cell_angle_gamma 71.370160
_cell_volume 540.372217
_symmetry_space_group_name_H-M "P -1"
_symmetry_group_IT_number 2
_symmetry_cell_setting 'triclinic'
loop_
_space_group_symop_operation_xyz
x,y,z
-x,-y,-z
loop_
_atom_site_type_symbol
_atom_site_label
_atom_site_fract_x
_atom_site_fract_y
_atom_site_fract_z
Si Si1 0.660122 0.374747 0.199562
Si Si2 0.870065 0.497259 0.720434
Si Si3 0.429008 0.182460 0.394055
Si Si4 0.986690 0.136300 0.666524
Si Si5 0.306133 0.775705 0.842047
Si Si6 0.242705 0.039300 0.177536
Si Si7 0.986892 0.716051 0.265175
O O1 0.784330 0.416175 0.508809
O O2 0.392086 0.433535 0.193848
O O3 0.610219 0.294790 0.116640
O O4 0.866317 0.356751 0.997206
O O5 0.000000 0.500000 0.500000
O O6 0.000000 0.500000 0.000000
O O7 0.708456 0.144607 0.489818
O O8 0.472801 0.189758 0.158735
O O9 0.235135 0.127197 0.289990
O O10 0.290213 0.268389 0.628647
O O11 0.070694 0.214979 0.784373
O O12 0.199657 0.059081 0.477498
O O13 0.881764 0.151665 0.924800
O O14 0.181984 0.737359 0.533593
O O15 0.500000 0.000000 0.000000
O O16 0.000000 0.000000 0.000000
#
# Coordination Sequence:
#
# PCOD9012406 Si02
#       7
#     2   2   2   2   2   2   2
#     4  10  25  47  72 105 149 193 264 319 398 474
#     4  11  28  48  77 109 155 209 262 324 397 483
#     4  10  21  40  69  99 143 181 251 312 394 451
#     4   9  20  40  62  98 136 183 238 317 373 458
#     4  10  22  41  68 103 138 184 247 326 387 459
#     4  11  21  40  71  97 144 204 249 308 389 474
#     4   9  21  39  65  98 139 183 241 314 389 455
#
# _framework density 25.908065000000001
#
# number of rings (size 3 to 8) (size 9 to 14) (size 15 to 20)
#    0.000    2.000    1.429    0.000    4.000    9.143 
#    0.000    1.429    0.000    0.000    0.000    0.000 
#    0.000    0.000    0.000    0.000    0.000    0.000 
#
# Total GULP energy -78035.319043 kJ/mol
# GULP energy per Si atom -5573.951360 kJ/mol
# Density = 2.584910 g / cm^3
# Si number density = 25.908065 Si / 1000 Ang^3
#
#
#
# Elastic Constant Matrix: (Units=GPa)
#
#
# Indices 1 2 3 4 5 6 
#
# 1 120.2789 31.4799 71.4488 -0.5631 -35.3300 -6.5118
# 2 31.4799 39.4495 46.7307 -3.5981 -1.9737 -10.3591
# 3 71.4488 46.7307 218.1457 6.0292 -35.3916 -30.0647
# 4 -0.5631 -3.5981 6.0292 49.5187 -18.7263 -5.6629
# 5 -35.3300 -1.9737 -35.3916 -18.7263 66.0496 10.2421
# 6 -6.5118 -10.3591 -30.0647 -5.6629 10.2421 46.3251
#
#
#
# Elastic Compliance Matrix: (Units=1/GPa)
#
#
# Indices 1 2 3 4 5 6 
#
# 1 0.013670 -0.008844 -0.001850 0.002113 0.007052 -0.002557
# 2 -0.008844 0.041236 -0.006397 0.001534 -0.007366 0.005643
# 3 -0.001850 -0.006397 0.007279 -0.000228 0.002267 0.002505
# 4 0.002113 0.001534 -0.000228 0.023355 0.007410 0.001708
# 5 0.007052 -0.007366 0.002267 0.007410 0.022513 -0.003256
# 6 -0.002557 0.005643 0.002505 0.001708 -0.003256 0.025043
#
#
# Mechanical properties :
#
#
# Convention : Reuss Voigt Hill
#
# Bulk Modulus (GPa) = 35.70643 75.24365 55.47504
# Shear Modulus (GPa) = 28.31044 47.59300 37.95172
#
# Velocity S-wave (km/s) = 3.30923 4.29067 3.83150
# Velocity P-wave (km/s) = 5.33040 7.32476 6.40567
#
# Compressibility (1/GPa) = 0.02800616
#
# Stress axis : x y z
#
# Youngs Moduli (GPa) = 73.15133 24.25040 137.37207
#
# Poissons Ratio (x) = 0.21446 0.25408
# Poissons Ratio (y) = 0.64692 0.87874
# Poissons Ratio (z) = 0.13530 0.15512
#
# Static dielectric constant tensor:
#      x y z
#    x 2.234010 0.039680 -0.080980 
#    y 0.039680 2.063540 -0.016440 
#    z -0.080980 -0.016440 2.230850 
# 
# From -- ./inp_files/14239.got.cif
#   From: 2010.05.17/outbox.cif.g08.bks.cpg/sg2_8_cif.got.tgz:14239.got - 2010.06.03 11:33:40.
