data_PCOD9012609
_publ_section_title
;
Structure prediction by ZEFSAII (Michael W. Deem and Ramdas Pophale) SiO2 
 PCOD9012609
Probable space group: P -1
;
_chemical_formula_sum "Si O2"
_cell_formula_units_Z 14
_cell_length_a 14.063441
_cell_length_b 9.141302
_cell_length_c 9.675231
_cell_angle_alpha 43.530420
_cell_angle_beta 121.019835
_cell_angle_gamma 138.059676
_cell_volume 571.788092
_symmetry_space_group_name_H-M "P -1"
_symmetry_group_IT_number 2
_symmetry_cell_setting 'triclinic'
loop_
_space_group_symop_operation_xyz
x,y,z
-x,-y,-z
loop_
_atom_site_type_symbol
_atom_site_label
_atom_site_fract_x
_atom_site_fract_y
_atom_site_fract_z
Si Si1 0.181648 0.840360 0.345123
Si Si2 0.779607 0.084191 0.181150
Si Si3 0.640017 0.318229 0.019532
Si Si4 0.376434 0.702977 0.547979
Si Si5 0.643403 0.794917 0.011477
Si Si6 0.106313 0.562437 0.743374
Si Si7 0.641286 0.529069 0.584538
O O1 0.230008 0.653552 0.490911
O O2 0.165032 0.823339 0.509224
O O3 0.032323 0.692610 0.258917
O O4 0.300843 0.114443 0.164829
O O5 0.762759 0.038555 0.036676
O O6 0.759835 0.827021 0.405210
O O7 0.647541 0.080527 0.134755
O O8 0.908314 0.354567 0.171387
O O9 0.771465 0.466831 0.122959
O O10 0.388537 0.685954 0.404527
O O11 0.500633 0.249699 0.030778
O O12 0.674104 0.487216 0.789950
O O13 0.378355 0.472963 0.773997
O O14 0.500000 0.000000 0.500000
O O15 0.500000 0.500000 0.500000
#
# Coordination Sequence:
#
# PCOD9012609 Si02
#       7
#     2   2   2   2   2   2   2
#     4  11  25  48  64  99 147 181 237 281 351 415
#     4   9  21  40  69 102 134 179 230 276 350 403
#     4  10  21  40  72 101 134 179 232 283 346 402
#     4  11  27  43  69 107 142 181 228 296 353 404
#     4  11  23  41  73 105 132 176 240 292 336 418
#     4   9  25  47  68  93 142 198 218 287 351 419
#     4  11  21  40  71 106 140 178 227 286 347 423
#
# _framework density 24.484594000000001
#
# number of rings (size 3 to 8) (size 9 to 14) (size 15 to 20)
#    0.857    0.857    2.857    1.286    6.000    1.143 
#    5.143    2.857    0.000    0.000    0.000    0.000 
#    0.000    0.000    0.000    0.000    0.000    0.000 
#
# Total GULP energy -78233.494300 kJ/mol
# GULP energy per Si atom -5588.106736 kJ/mol
# Density = 2.442887 g / cm^3
# Si number density = 24.484594 Si / 1000 Ang^3
#
#
#
# Elastic Constant Matrix: (Units=GPa)
#
#
# Indices 1 2 3 4 5 6 
#
# 1 64.6979 31.8480 28.7456 1.6886 -1.6952 -7.6170
# 2 31.8480 93.4922 37.5828 32.4553 9.0955 3.5177
# 3 28.7456 37.5828 166.3920 16.0871 2.9554 15.5174
# 4 1.6886 32.4553 16.0871 40.4680 -7.9823 1.8007
# 5 -1.6952 9.0955 2.9554 -7.9823 44.5234 2.8545
# 6 -7.6170 3.5177 15.5174 1.8007 2.8545 29.4352
#
#
#
# Elastic Compliance Matrix: (Units=1/GPa)
#
#
# Indices 1 2 3 4 5 6 
#
# 1 0.022824 -0.010346 -0.003306 0.009164 0.004338 0.007904
# 2 -0.010346 0.021739 -0.000970 -0.018030 -0.007817 -0.002903
# 3 -0.003306 -0.000970 0.007413 -0.001926 -0.000478 -0.004483
# 4 0.009164 -0.018030 -0.001926 0.041744 0.011524 0.001870
# 5 0.004338 -0.007817 -0.000478 0.011524 0.026381 -0.000955
# 6 0.007904 -0.002903 -0.004483 0.001870 -0.000955 0.038707
#
#
# Mechanical properties :
#
#
# Convention : Reuss Voigt Hill
#
# Bulk Modulus (GPa) = 43.99350 57.88166 50.93758
# Shear Modulus (GPa) = 25.55846 37.97905 31.76875
#
# Velocity S-wave (km/s) = 3.23439 3.94272 3.60599
# Velocity P-wave (km/s) = 5.65289 6.66469 6.17953
#
# Compressibility (1/GPa) = 0.02273063
#
# Stress axis : x y z
#
# Youngs Moduli (GPa) = 43.81442 45.99971 134.89906
#
# Poissons Ratio (x) = 0.47593 0.44600
# Poissons Ratio (y) = 0.45332 0.13086
# Poissons Ratio (z) = 0.14486 0.04462
#
# Static dielectric constant tensor:
#      x y z
#    x 1.984480 0.002530 -0.052380 
#    y 0.002530 2.018760 -0.048270 
#    z -0.052380 -0.048270 1.987280 
# 
# From -- ./inp_files/464317.got.cif
#   From: 2010.05.17/outbox.cif.g08.bks.cpg/sg2_233_cif.got.tgz:464317.got - 2010.06.03 11:33:40.
