data_PCOD9012596
_publ_section_title
;
Structure prediction by ZEFSAII (Michael W. Deem and Ramdas Pophale) SiO2 
 PCOD9012596
Probable space group: P -1
;
_chemical_formula_sum "Si O2"
_cell_formula_units_Z 16
_cell_length_a 8.086873
_cell_length_b 14.925285
_cell_length_c 9.597223
_cell_angle_alpha 138.310767
_cell_angle_beta 120.693769
_cell_angle_gamma 73.654929
_cell_volume 652.335718
_symmetry_space_group_name_H-M "P -1"
_symmetry_group_IT_number 2
_symmetry_cell_setting 'triclinic'
loop_
_space_group_symop_operation_xyz
x,y,z
-x,-y,-z
loop_
_atom_site_type_symbol
_atom_site_label
_atom_site_fract_x
_atom_site_fract_y
_atom_site_fract_z
Si Si1 0.234781 0.140769 0.277274
Si Si2 0.144070 0.267253 0.663086
Si Si3 0.568563 0.393867 0.011121
Si Si4 0.862147 0.109050 0.900522
Si Si5 0.542620 0.846621 0.869909
Si Si6 0.980509 0.459920 0.154078
Si Si7 0.085091 0.180813 0.818788
Si Si8 0.248017 0.641148 0.686801
O O1 0.140043 0.226491 0.451427
O O2 0.403196 0.207278 0.322535
O O3 0.068289 0.086919 0.029779
O O4 0.289174 0.016435 0.247756
O O5 0.057431 0.408191 0.797403
O O6 0.375633 0.281070 0.810349
O O7 0.046590 0.161140 0.614542
O O8 0.765825 0.376302 0.997332
O O9 0.625906 0.435293 0.242134
O O10 0.500000 0.500000 0.000000
O O11 0.822915 0.247641 0.113578
O O12 0.904012 0.118527 0.766737
O O13 0.718969 0.854639 0.068217
O O14 0.368959 0.736052 0.731219
O O15 0.500000 0.000000 0.000000
O O16 0.106307 0.346949 0.032414
O O17 0.083707 0.531226 0.418658
#
# Coordination Sequence:
#
# PCOD9012596 Si02
#       8
#     2   2   2   2   2   2   2   2
#     4  10  22  43  69  97 132 178 225 277 342 401
#     4  11  23  46  65 102 143 177 220 287 350 400
#     4  10  23  41  66  97 141 176 217 285 344 403
#     4  10  21  40  71  98 128 176 231 281 326 406
#     4  11  24  44  69 100 138 180 232 288 331 399
#     4  11  24  42  71  98 138 184 229 273 342 416
#     4  11  24  41  67 101 141 179 228 282 342 407
#     4  12  21  44  71  98 136 182 232 281 336 408
#
# _framework density 24.527249999999999
#
# number of rings (size 3 to 8) (size 9 to 14) (size 15 to 20)
#    0.000    1.250    5.000    0.750    0.000    2.000 
#    9.000    2.500    0.000    0.000    0.000    0.000 
#    0.000    0.000    0.000    0.000    0.000    0.000 
#
# Total GULP energy -89215.342696 kJ/mol
# GULP energy per Si atom -5575.958918 kJ/mol
# Density = 2.447143 g / cm^3
# Si number density = 24.527250 Si / 1000 Ang^3
#
#
#
# Elastic Constant Matrix: (Units=GPa)
#
#
# Indices 1 2 3 4 5 6 
#
# 1 66.4626 45.3673 7.6313 -9.6727 -9.9317 13.8621
# 2 45.3673 166.9440 36.3005 -20.4955 -26.6080 3.7208
# 3 7.6313 36.3005 55.6538 3.0382 -16.8492 -9.7216
# 4 -9.6727 -20.4955 3.0382 37.8519 -4.8412 -17.7935
# 5 -9.9317 -26.6080 -16.8492 -4.8412 33.7322 -10.1705
# 6 13.8621 3.7208 -9.7216 -17.7935 -10.1705 47.7672
#
#
#
# Elastic Compliance Matrix: (Units=1/GPa)
#
#
# Indices 1 2 3 4 5 6 
#
# 1 0.019743 -0.005270 -0.000298 -0.000447 -0.000244 -0.005598
# 2 -0.005270 0.010078 -0.003367 0.007294 0.007053 0.004278
# 3 -0.000298 -0.003367 0.025652 0.001997 0.013101 0.009102
# 4 -0.000447 0.007294 0.001997 0.041555 0.018423 0.019370
# 5 -0.000244 0.007053 0.013101 0.018423 0.050281 0.019756
# 6 -0.005598 0.004278 0.009102 0.019370 0.019756 0.035501
#
#
# Mechanical properties :
#
#
# Convention : Reuss Voigt Hill
#
# Bulk Modulus (GPa) = 26.59131 51.96205 39.27668
# Shear Modulus (GPa) = 23.45057 37.18769 30.31913
#
# Velocity S-wave (km/s) = 3.09545 3.89804 3.51969
# Velocity P-wave (km/s) = 4.86218 6.44135 5.70665
#
# Compressibility (1/GPa) = 0.03760627
#
# Stress axis : x y z
#
# Youngs Moduli (GPa) = 50.65012 99.22251 38.98280
#
# Poissons Ratio (x) = 0.52287 0.01160
# Poissons Ratio (y) = 0.26691 0.13124
# Poissons Ratio (z) = 0.01507 0.33405
#
# Static dielectric constant tensor:
#      x y z
#    x 2.093160 0.016010 -0.031060 
#    y 0.016010 2.053980 0.008460 
#    z -0.031060 0.008460 1.958940 
# 
# From -- ./inp_files/209108.got.cif
#   From: 2010.05.17/outbox.cif.g08.bks.cpg/sg2_105_cif.got.tgz:209108.got - 2010.06.03 11:33:40.
