data_PCOD9012826
_publ_section_title
;
Structure prediction by ZEFSAII (Michael W. Deem and Ramdas Pophale) SiO2 
 PCOD9012826
Probable space group: P -1
;
_chemical_formula_sum "Si O2"
_cell_formula_units_Z 14
_cell_length_a 20.748753
_cell_length_b 5.631051
_cell_length_c 8.675037
_cell_angle_alpha 59.055026
_cell_angle_beta 139.842498
_cell_angle_gamma 124.731275
_cell_volume 531.215082
_symmetry_space_group_name_H-M "P -1"
_symmetry_group_IT_number 2
_symmetry_cell_setting 'triclinic'
loop_
_space_group_symop_operation_xyz
x,y,z
-x,-y,-z
loop_
_atom_site_type_symbol
_atom_site_label
_atom_site_fract_x
_atom_site_fract_y
_atom_site_fract_z
Si Si1 0.331544 0.848409 0.855411
Si Si2 0.092285 0.937494 0.098625
Si Si3 0.652809 0.736220 0.840095
Si Si4 0.318156 0.324117 0.435121
Si Si5 0.160186 0.895009 0.777723
Si Si6 0.485678 0.742741 0.773815
Si Si7 0.033706 0.343634 0.337881
O O1 0.338308 0.053127 0.652657
O O2 0.234603 0.871472 0.778217
O O3 0.318399 0.511985 0.925309
O O4 0.446188 0.967088 0.110638
O O5 0.105392 0.651582 0.300350
O O6 0.194333 0.216716 0.210378
O O7 0.044685 0.834572 0.879370
O O8 0.000000 0.000000 0.000000
O O9 0.635198 0.648565 0.660184
O O10 0.551787 0.764146 0.730849
O O11 0.753775 0.021221 0.955972
O O12 0.366703 0.604949 0.540262
O O13 0.107126 0.151200 0.578835
O O14 0.053326 0.628732 0.705863
O O15 0.500000 0.500000 0.000000
#
# Coordination Sequence:
#
# PCOD9012826 Si02
#       7
#     2   2   2   2   2   2   2
#     4  10  23  41  64  94 126 167 207 261 325 376
#     4  11  23  39  60  96 125 164 217 260 313 376
#     4  11  22  41  67  95 125 165 213 262 315 382
#     4  11  22  41  63  93 126 163 212 264 308 377
#     4  10  21  41  61  91 127 166 213 259 319 378
#     4   9  22  43  64  93 130 161 210 263 317 386
#     4  10  22  39  62  86 127 170 208 265 315 370
#
# _framework density 26.354669999999999
#
# number of rings (size 3 to 8) (size 9 to 14) (size 15 to 20)
#    0.000    1.714    1.429    2.143    2.000    2.857 
#    0.000   15.000    0.000    0.000    0.000    0.000 
#    0.000    0.000    0.000    0.000    0.000    0.000 
#
# Total GULP energy -78326.255958 kJ/mol
# GULP energy per Si atom -5594.732568 kJ/mol
# Density = 2.629469 g / cm^3
# Si number density = 26.354670 Si / 1000 Ang^3
#
#
#
# Elastic Constant Matrix: (Units=GPa)
#
#
# Indices 1 2 3 4 5 6 
#
# 1 95.3825 15.1628 28.9004 6.1596 10.5153 15.2591
# 2 15.1628 56.0225 45.2251 14.1723 16.1609 17.4515
# 3 28.9004 45.2251 134.1181 17.4537 4.2872 6.8547
# 4 6.1596 14.1723 17.4537 69.8125 5.4043 7.3572
# 5 10.5153 16.1609 4.2872 5.4043 42.1976 2.2756
# 6 15.2591 17.4515 6.8547 7.3572 2.2756 23.7572
#
#
#
# Elastic Compliance Matrix: (Units=1/GPa)
#
#
# Indices 1 2 3 4 5 6 
#
# 1 0.012838 0.002936 -0.003213 0.000322 -0.003540 -0.009236
# 2 0.002936 0.038284 -0.011666 -0.001503 -0.012670 -0.024964
# 3 -0.003213 -0.011666 0.011763 -0.001356 0.003854 0.007290
# 4 0.000322 -0.001503 -0.001356 0.015384 -0.001156 -0.003365
# 5 -0.003540 -0.012670 0.003854 -0.001156 0.028754 0.008073
# 6 -0.009236 -0.024964 0.007290 -0.003365 0.008073 0.064528
#
#
# Mechanical properties :
#
#
# Convention : Reuss Voigt Hill
#
# Bulk Modulus (GPa) = 25.64137 51.56664 38.60401
# Shear Modulus (GPa) = 23.98817 40.23577 32.11197
#
# Velocity S-wave (km/s) = 3.02023 3.91154 3.49442
# Velocity P-wave (km/s) = 4.68112 6.32528 5.56426
#
# Compressibility (1/GPa) = 0.03899947
#
# Stress axis : x y z
#
# Youngs Moduli (GPa) = 77.89372 26.12046 85.01310
#
# Poissons Ratio (x) = -0.07669 0.27316
# Poissons Ratio (y) = -0.22871 0.99175
# Poissons Ratio (z) = 0.25028 0.30472
#
# Static dielectric constant tensor:
#      x y z
#    x 2.147730 0.051590 -0.017270 
#    y 0.051590 2.082440 -0.022490 
#    z -0.017270 -0.022490 2.042980 
# 
# From -- ./inp_files/31947.got.cif
#   From: 2010.05.17/outbox.cif.g08.bks.cpg/sg2_16_cif.got.tgz:31947.got - 2010.06.03 11:33:40.
