data_PCOD9012492
_publ_section_title
;
Structure prediction by ZEFSAII (Michael W. Deem and Ramdas Pophale) SiO2 
 PCOD9012492
Probable space group: P -1
;
_chemical_formula_sum "Si O2"
_cell_formula_units_Z 14
_cell_length_a 8.455483
_cell_length_b 9.094523
_cell_length_c 15.436145
_cell_angle_alpha 131.132053
_cell_angle_beta 141.354335
_cell_angle_gamma 67.379205
_cell_volume 536.890496
_symmetry_space_group_name_H-M "P -1"
_symmetry_group_IT_number 2
_symmetry_cell_setting 'triclinic'
loop_
_space_group_symop_operation_xyz
x,y,z
-x,-y,-z
loop_
_atom_site_type_symbol
_atom_site_label
_atom_site_fract_x
_atom_site_fract_y
_atom_site_fract_z
Si Si1 0.988132 0.734484 0.738509
Si Si2 0.488959 0.504946 0.327796
Si Si3 0.542690 0.281312 0.911765
Si Si4 0.190098 0.947145 0.727915
Si Si5 0.823352 0.634260 0.344348
Si Si6 0.784266 0.164678 0.685261
Si Si7 0.007192 0.159580 0.970403
O O1 0.702703 0.606862 0.530808
O O2 0.147947 0.848545 0.766701
O O3 0.121974 0.559588 0.755290
O O4 0.955870 0.915360 0.856271
O O5 0.642493 0.553074 0.320257
O O6 0.271561 0.629593 0.287393
O O7 0.312159 0.274410 0.163516
O O8 0.323911 0.231361 0.720971
O O9 0.454821 0.113922 0.884230
O O10 0.500000 0.500000 0.000000
O O11 0.807604 0.253428 0.973971
O O12 0.101770 0.765348 0.551857
O O13 0.972869 0.072488 0.673032
O O14 0.500000 0.000000 0.500000
O O15 0.929616 0.196272 0.852078
#
# Coordination Sequence:
#
# PCOD9012492 Si02
#       7
#     2   2   2   2   2   2   2
#     4  10  24  45  72  99 130 172 231 274 331 395
#     4  11  20  37  71 100 128 167 233 275 325 385
#     4  12  26  43  65 101 139 173 222 271 336 398
#     4  10  21  40  70  95 132 174 216 274 335 391
#     4  11  23  43  68 101 132 174 221 279 332 393
#     4  11  17  35  66 101 124 166 227 276 315 385
#     4  11  23  41  68  96 134 179 220 276 326 395
#
# _framework density 26.076080000000001
#
# number of rings (size 3 to 8) (size 9 to 14) (size 15 to 20)
#    0.000    1.143    5.714    3.429    4.000    0.571 
#    5.143    1.429    3.143    0.000    0.000    0.000 
#    0.000    0.000    0.000    0.000    0.000    0.000 
#
# Total GULP energy -78416.837115 kJ/mol
# GULP energy per Si atom -5601.202651 kJ/mol
# Density = 2.601673 g / cm^3
# Si number density = 26.076080 Si / 1000 Ang^3
#
#
#
# Elastic Constant Matrix: (Units=GPa)
#
#
# Indices 1 2 3 4 5 6 
#
# 1 95.2939 34.4535 55.5318 28.5434 -5.6633 -18.8944
# 2 34.4535 132.8151 47.6652 -1.6707 1.2869 -33.8906
# 3 55.5318 47.6652 158.7703 24.3969 5.0395 5.0318
# 4 28.5434 -1.6707 24.3969 49.4688 -9.0881 -0.9117
# 5 -5.6633 1.2869 5.0395 -9.0881 39.3204 15.1139
# 6 -18.8944 -33.8906 5.0318 -0.9117 15.1139 46.3059
#
#
#
# Elastic Compliance Matrix: (Units=1/GPa)
#
#
# Indices 1 2 3 4 5 6 
#
# 1 0.017284 -0.001074 -0.004701 -0.007818 -0.001401 0.007081
# 2 -0.001074 0.011634 -0.003692 0.002426 -0.003177 0.009563
# 3 -0.004701 -0.003692 0.009583 -0.002267 -0.000131 -0.005664
# 4 -0.007818 0.002426 -0.002267 0.027048 0.006381 -0.002718
# 5 -0.001401 -0.003177 -0.000131 0.006381 0.031886 -0.013165
# 6 0.007081 0.009563 -0.005664 -0.002718 -0.013165 0.036342
#
#
# Mechanical properties :
#
#
# Convention : Reuss Voigt Hill
#
# Bulk Modulus (GPa) = 51.10918 73.57557 62.34238
# Shear Modulus (GPa) = 31.39994 43.63427 37.51710
#
# Velocity S-wave (km/s) = 3.47387 4.09509 3.79721
# Velocity P-wave (km/s) = 5.97771 7.11595 6.57152
#
# Compressibility (1/GPa) = 0.01956596
#
# Stress axis : x y z
#
# Youngs Moduli (GPa) = 57.85609 85.95175 104.34934
#
# Poissons Ratio (x) = 0.09235 0.49060
# Poissons Ratio (y) = 0.06216 0.38527
# Poissons Ratio (z) = 0.27201 0.31734
#
# Static dielectric constant tensor:
#      x y z
#    x 2.011600 0.031680 -0.047450 
#    y 0.031680 2.023970 -0.000760 
#    z -0.047450 -0.000760 2.173600 
# 
# From -- ./inp_files/495663.got.cif
#   From: 2010.05.17/outbox.cif.g08.bks.cpg/sg2_248_cif.got.tgz:495663.got - 2010.06.03 11:33:40.
