data_PCOD9012612
_publ_section_title
;
Structure prediction by ZEFSAII (Michael W. Deem and Ramdas Pophale) SiO2 
 PCOD9012612
Probable space group: P -1
;
_chemical_formula_sum "Si O2"
_cell_formula_units_Z 16
_cell_length_a 8.872667
_cell_length_b 15.404688
_cell_length_c 4.948743
_cell_angle_alpha 60.424413
_cell_angle_beta 102.293764
_cell_angle_gamma 89.073853
_cell_volume 568.894947
_symmetry_space_group_name_H-M "P -1"
_symmetry_group_IT_number 2
_symmetry_cell_setting 'triclinic'
loop_
_space_group_symop_operation_xyz
x,y,z
-x,-y,-z
loop_
_atom_site_type_symbol
_atom_site_label
_atom_site_fract_x
_atom_site_fract_y
_atom_site_fract_z
Si Si1 0.814883 0.913365 0.066761
Si Si2 0.317267 0.788332 0.218379
Si Si3 0.241034 0.411515 0.636093
Si Si4 0.592342 0.784506 0.941826
Si Si5 0.350592 0.037928 0.567820
Si Si6 0.116911 0.800754 0.624004
Si Si7 0.962147 0.411237 0.916328
Si Si8 0.482272 0.427441 0.350010
O O1 0.974206 0.877318 0.333670
O O2 0.701085 0.984255 0.119048
O O3 0.739867 0.812339 0.124828
O O4 0.796170 0.964589 0.686394
O O5 0.262224 0.811923 0.465625
O O6 0.393278 0.671624 0.446954
O O7 0.446291 0.825883 0.011596
O O8 0.163721 0.811875 0.936378
O O9 0.177616 0.530925 0.411535
O O10 0.308212 0.398254 0.373231
O O11 0.098619 0.377693 0.803128
O O12 0.386254 0.333184 0.931062
O O13 0.613811 0.845736 0.584756
O O14 0.500000 0.000000 0.500000
O O15 0.079035 0.684983 0.787750
O O16 0.000000 0.500000 0.000000
O O17 0.500000 0.500000 0.500000
O O18 0.500000 0.500000 0.000000
#
# Coordination Sequence:
#
# PCOD9012612 Si02
#       8
#     2   2   2   2   2   2   2   2
#     4  10  22  40  69  95 128 162 211 258 314 380
#     4  11  25  40  62  91 128 171 212 268 325 388
#     4  10  22  38  55  85 118 163 216 266 311 367
#     4   9  23  40  67  93 127 165 217 264 323 378
#     4  10  21  40  72 102 125 159 211 261 313 383
#     4  12  25  42  63  94 132 171 218 261 329 376
#     4  11  24  35  59  83 125 170 222 271 316 367
#     4  11  23  40  56  80 117 167 219 267 315 370
#
# _framework density 28.124701999999999
#
# number of rings (size 3 to 8) (size 9 to 14) (size 15 to 20)
#    0.750    0.750    0.000    4.875   10.500    0.000 
#    0.000    0.000    0.000    4.500    0.000    0.000 
#    0.000    0.000    0.000    0.000    0.000    0.000 
#
# Total GULP energy -89232.754368 kJ/mol
# GULP energy per Si atom -5577.047148 kJ/mol
# Density = 2.806069 g / cm^3
# Si number density = 28.124702 Si / 1000 Ang^3
#
#
#
# Elastic Constant Matrix: (Units=GPa)
#
#
# Indices 1 2 3 4 5 6 
#
# 1 97.8744 24.8743 19.7990 6.9713 -7.1639 -10.4309
# 2 24.8743 101.2782 24.6043 19.3453 -6.0354 -14.9547
# 3 19.7990 24.6043 128.2920 43.8777 -19.8660 2.0129
# 4 6.9713 19.3453 43.8777 43.3067 -4.2891 -7.0648
# 5 -7.1639 -6.0354 -19.8660 -4.2891 63.7039 -1.1439
# 6 -10.4309 -14.9547 2.0129 -7.0648 -1.1439 50.4565
#
#
#
# Elastic Compliance Matrix: (Units=1/GPa)
#
#
# Indices 1 2 3 4 5 6 
#
# 1 0.011298 -0.002291 -0.001668 0.001272 0.000653 0.001916
# 2 -0.002291 0.011699 -0.000535 -0.003863 0.000468 0.002485
# 3 -0.001668 -0.000535 0.013055 -0.012882 0.002916 -0.002762
# 4 0.001272 -0.003863 -0.012882 0.038317 -0.001571 0.004961
# 5 0.000653 0.000468 0.002916 -0.001571 0.016625 0.000314
# 6 0.001916 0.002485 -0.002762 0.004961 0.000314 0.021764
#
#
# Mechanical properties :
#
#
# Convention : Reuss Voigt Hill
#
# Bulk Modulus (GPa) = 36.94939 51.77774 44.36357
# Shear Modulus (GPa) = 38.23543 48.70457 43.47000
#
# Velocity S-wave (km/s) = 3.69113 4.16593 3.93570
# Velocity P-wave (km/s) = 5.59752 6.44903 6.03830
#
# Compressibility (1/GPa) = 0.02706404
#
# Stress axis : x y z
#
# Youngs Moduli (GPa) = 88.50917 85.47587 76.59630
#
# Poissons Ratio (x) = 0.19580 0.12779
# Poissons Ratio (y) = 0.20275 0.04101
# Poissons Ratio (z) = 0.14766 0.04577
#
# Static dielectric constant tensor:
#      x y z
#    x 2.482760 0.158550 0.030780 
#    y 0.158550 2.259240 -0.061200 
#    z 0.030780 -0.061200 2.205230 
# 
# From -- ./inp_files/50892.got.cif
#   From: 2010.05.17/outbox.cif.g08.bks.cpg/sg2_26_cif.got.tgz:50892.got - 2010.06.03 11:33:40.
