data_PCOD9012914
_publ_section_title
;
Structure prediction by ZEFSAII (Michael W. Deem and Ramdas Pophale) SiO2 
 PCOD9012914
Probable space group: P -1
;
_chemical_formula_sum "Si O2"
_cell_formula_units_Z 14
_cell_length_a 9.369350
_cell_length_b 6.622028
_cell_length_c 14.425198
_cell_angle_alpha 88.799821
_cell_angle_beta 90.473492
_cell_angle_gamma 50.026253
_cell_volume 685.446012
_symmetry_space_group_name_H-M "P -1"
_symmetry_group_IT_number 2
_symmetry_cell_setting 'triclinic'
loop_
_space_group_symop_operation_xyz
x,y,z
-x,-y,-z
loop_
_atom_site_type_symbol
_atom_site_label
_atom_site_fract_x
_atom_site_fract_y
_atom_site_fract_z
Si Si1 0.320666 0.939923 0.418617
Si Si2 0.702066 0.328680 0.885035
Si Si3 0.949209 0.551327 0.701514
Si Si4 0.343073 0.068452 0.625476
Si Si5 0.355058 0.520023 0.319633
Si Si6 0.986863 0.622595 0.097475
Si Si7 0.606974 0.097741 0.036115
O O1 0.506157 0.889091 0.386028
O O2 0.348248 0.678440 0.403743
O O3 0.145756 0.177313 0.354984
O O4 0.292654 0.031679 0.523358
O O5 0.668000 0.331030 0.776065
O O6 0.536444 0.623729 0.917592
O O7 0.888153 0.289772 0.901856
O O8 0.694989 0.136836 0.949154
O O9 0.815540 0.482383 0.678228
O O10 0.157274 0.314071 0.671405
O O11 0.949280 0.568826 0.812922
O O12 0.457396 0.783626 0.677843
O O13 0.772711 0.879007 0.105519
O O14 0.000000 0.500000 0.000000
O O15 0.500000 0.000000 0.000000
#
# Coordination Sequence:
#
# PCOD9012914 Si02
#       7
#     2   2   2   2   2   2   2
#     4  10  22  39  63  90 120 159 195 248 305 354
#     4  10  23  39  57  87 119 155 202 248 294 355
#     4  10  23  39  59  88 122 156 203 249 293 361
#     4  10  21  41  62  89 123 154 200 247 299 365
#     4  10  22  38  60  88 122 155 196 249 299 355
#     4  11  22  39  59  84 121 160 197 247 297 346
#     4  11  22  39  61  83 114 160 201 247 296 349
#
# _framework density 20.424655999999999
#
# number of rings (size 3 to 8) (size 9 to 14) (size 15 to 20)
#    0.000    1.714    1.429    2.143    2.000    4.000 
#    0.000    0.000    0.000    0.000    0.000    0.000 
#    0.000    0.000    0.000    0.000    0.000    0.000 
#
# Total GULP energy -78250.834513 kJ/mol
# GULP energy per Si atom -5589.345322 kJ/mol
# Density = 2.037817 g / cm^3
# Si number density = 20.424656 Si / 1000 Ang^3
#
#
#
# Elastic Constant Matrix: (Units=GPa)
#
#
# Indices 1 2 3 4 5 6 
#
# 1 53.1663 22.9992 32.4875 -1.6973 9.0290 -22.1018
# 2 22.9992 68.7530 16.8808 5.1664 10.8556 -19.5456
# 3 32.4875 16.8808 85.5237 -0.5950 11.9385 -4.9197
# 4 -1.6973 5.1664 -0.5950 35.9442 -3.5882 1.5395
# 5 9.0290 10.8556 11.9385 -3.5882 22.3142 -0.4112
# 6 -22.1018 -19.5456 -4.9197 1.5395 -0.4112 31.3350
#
#
#
# Elastic Compliance Matrix: (Units=1/GPa)
#
#
# Indices 1 2 3 4 5 6 
#
# 1 0.037795 -0.001894 -0.011546 0.000083 -0.007747 0.023559
# 2 -0.001894 0.020499 -0.001460 -0.004436 -0.008930 0.011322
# 3 -0.011546 -0.001460 0.016492 -0.000142 -0.003584 -0.006505
# 4 0.000083 -0.004436 -0.000142 0.029318 0.006839 -0.004081
# 5 -0.007747 -0.008930 -0.003584 0.006839 0.055104 -0.011210
# 6 0.023559 0.011322 -0.006505 -0.004081 -0.011210 0.054624
#
#
# Mechanical properties :
#
#
# Convention : Reuss Voigt Hill
#
# Bulk Modulus (GPa) = 22.22891 39.13089 30.67990
# Shear Modulus (GPa) = 19.33282 26.92371 23.12827
#
# Velocity S-wave (km/s) = 3.07993 3.63464 3.36872
# Velocity P-wave (km/s) = 4.85335 6.06748 5.49406
#
# Compressibility (1/GPa) = 0.04498646
#
# Stress axis : x y z
#
# Youngs Moduli (GPa) = 26.45828 48.78317 60.63598
#
# Poissons Ratio (x) = 0.09240 0.70011
# Poissons Ratio (y) = 0.05011 0.08851
# Poissons Ratio (z) = 0.30549 0.07121
#
# Static dielectric constant tensor:
#      x y z
#    x 1.686680 -0.007350 -0.003450 
#    y -0.007350 1.704990 -0.004820 
#    z -0.003450 -0.004820 1.764930 
# 
# From -- ./inp_files/44373.got.cif
#   From: 2010.05.17/outbox.cif.g08.bks.cpg/sg2_23_cif.got.tgz:44373.got - 2010.06.03 11:33:40.
