data_PCOD9012503
_publ_section_title
;
Structure prediction by ZEFSAII (Michael W. Deem and Ramdas Pophale) SiO2 
 PCOD9012503
Probable space group: P -1
;
_chemical_formula_sum "Si O2"
_cell_formula_units_Z 14
_cell_length_a 5.314790
_cell_length_b 14.658831
_cell_length_c 14.821914
_cell_angle_alpha 32.812042
_cell_angle_beta 111.834546
_cell_angle_gamma 119.385854
_cell_volume 543.225941
_symmetry_space_group_name_H-M "P -1"
_symmetry_group_IT_number 2
_symmetry_cell_setting 'triclinic'
loop_
_space_group_symop_operation_xyz
x,y,z
-x,-y,-z
loop_
_atom_site_type_symbol
_atom_site_label
_atom_site_fract_x
_atom_site_fract_y
_atom_site_fract_z
Si Si1 0.244970 0.336129 0.989075
Si Si2 0.753036 0.847777 0.150312
Si Si3 0.896001 0.794921 0.549030
Si Si4 0.229951 0.649085 0.846005
Si Si5 0.331684 0.855869 0.403726
Si Si6 0.347656 0.483825 0.684718
Si Si7 0.355080 0.937085 0.889702
O O1 0.305773 0.537042 0.867760
O O2 0.270640 0.356518 0.868384
O O3 0.483733 0.271744 0.121731
O O4 0.921854 0.205979 0.075055
O O5 0.757317 0.649364 0.302206
O O6 0.732478 0.910201 0.197246
O O7 0.461288 0.841209 0.064267
O O8 0.000000 0.000000 0.000000
O O9 0.069571 0.769914 0.679460
O O10 0.126306 0.885466 0.427287
O O11 0.655758 0.883947 0.460466
O O12 0.690983 0.597931 0.647356
O O13 0.000000 0.500000 0.000000
O O14 0.218955 0.642913 0.540711
O O15 0.393685 0.969079 0.226156
#
# Coordination Sequence:
#
# PCOD9012503 Si02
#       7
#     2   2   2   2   2   2   2
#     4  11  22  38  67  96 132 169 228 275 328 389
#     4  11  24  41  69  96 131 168 230 277 330 394
#     4  10  21  41  66  95 134 178 217 274 322 402
#     4  11  20  37  65 100 124 173 229 272 321 396
#     4  10  24  42  69  92 146 176 217 265 348 397
#     4  10  21  40  70  96 132 175 219 273 330 391
#     4  11  26  43  64 100 132 177 217 282 335 396
#
# _framework density 25.771965999999999
#
# number of rings (size 3 to 8) (size 9 to 14) (size 15 to 20)
#    0.857    0.571    4.286    0.857    4.000    0.571 
#    0.000    2.857    0.000    0.000    0.000    0.000 
#    0.000    0.000    0.000    0.000    0.000    0.000 
#
# Total GULP energy -78412.385729 kJ/mol
# GULP energy per Si atom -5600.884695 kJ/mol
# Density = 2.571331 g / cm^3
# Si number density = 25.771966 Si / 1000 Ang^3
#
#
#
# Elastic Constant Matrix: (Units=GPa)
#
#
# Indices 1 2 3 4 5 6 
#
# 1 85.5159 13.7198 13.9764 6.4144 -16.0931 17.4764
# 2 13.7198 96.7461 21.4460 -11.0127 4.9845 1.3864
# 3 13.9764 21.4460 91.5150 7.7131 -11.0397 10.9122
# 4 6.4144 -11.0127 7.7131 46.6663 6.9851 9.3208
# 5 -16.0931 4.9845 -11.0397 6.9851 47.8650 7.6389
# 6 17.4764 1.3864 10.9122 9.3208 7.6389 46.5070
#
#
#
# Elastic Compliance Matrix: (Units=1/GPa)
#
#
# Indices 1 2 3 4 5 6 
#
# 1 0.014770 -0.002645 0.000090 -0.002440 0.006590 -0.006086
# 2 -0.002645 0.012098 -0.003369 0.004089 -0.003717 0.001215
# 3 0.000090 -0.003369 0.012829 -0.002956 0.004258 -0.003051
# 4 -0.002440 0.004089 -0.002956 0.024496 -0.005090 -0.002585
# 5 0.006590 -0.003717 0.004258 -0.005090 0.026283 -0.006661
# 6 -0.006086 0.001215 -0.003051 -0.002585 -0.006661 0.026081
#
#
# Mechanical properties :
#
#
# Convention : Reuss Voigt Hill
#
# Bulk Modulus (GPa) = 35.90568 41.34017 38.62292
# Shear Modulus (GPa) = 36.31426 43.18332 39.74879
#
# Velocity S-wave (km/s) = 3.75782 4.09784 3.93151
# Velocity P-wave (km/s) = 5.72631 6.20204 5.96891
#
# Compressibility (1/GPa) = 0.02785075
#
# Stress axis : x y z
#
# Youngs Moduli (GPa) = 67.70428 82.66028 77.94540
#
# Poissons Ratio (x) = 0.21861 -0.00704
# Poissons Ratio (y) = 0.17905 0.26259
# Poissons Ratio (z) = -0.00611 0.27848
#
# Static dielectric constant tensor:
#      x y z
#    x 2.093300 -0.035080 0.070980 
#    y -0.035080 2.009400 -0.010040 
#    z 0.070980 -0.010040 1.990340 
# 
# From -- ./inp_files/483839.got.cif
#   From: 2010.05.17/outbox.cif.g08.bks.cpg/sg2_242_cif.got.tgz:483839.got - 2010.06.03 11:33:40.
