data_PCOD9012986
_publ_section_title
;
Structure prediction by ZEFSAII (Michael W. Deem and Ramdas Pophale) SiO2 
 PCOD9012986
Probable space group: P -1
;
_chemical_formula_sum "Si O2"
_cell_formula_units_Z 16
_cell_length_a 14.214134
_cell_length_b 17.089472
_cell_length_c 7.267172
_cell_angle_alpha 65.698801
_cell_angle_beta 135.911271
_cell_angle_gamma 140.036773
_cell_volume 749.767834
_symmetry_space_group_name_H-M "P -1"
_symmetry_group_IT_number 2
_symmetry_cell_setting 'triclinic'
loop_
_space_group_symop_operation_xyz
x,y,z
-x,-y,-z
loop_
_atom_site_type_symbol
_atom_site_label
_atom_site_fract_x
_atom_site_fract_y
_atom_site_fract_z
Si Si1 0.093695 0.097745 0.369882
Si Si2 0.880837 0.236293 0.710276
Si Si3 0.590922 0.127084 0.104027
Si Si4 0.731826 0.634605 0.650022
Si Si5 0.743541 0.469718 0.653773
Si Si6 0.669739 0.973721 0.799922
Si Si7 0.980935 0.465384 0.717031
Si Si8 0.552020 0.810584 0.447038
O O1 0.224012 0.245719 0.456243
O O2 0.235238 0.105027 0.436666
O O3 0.000000 0.000000 0.500000
O O4 0.891596 0.036144 0.051375
O O5 0.808016 0.208952 0.422635
O O6 0.855597 0.318334 0.680899
O O7 0.722756 0.097261 0.713893
O O8 0.106943 0.311929 0.010986
O O9 0.446475 0.086308 0.111778
O O10 0.587104 0.202601 0.880139
O O11 0.500000 0.000000 0.000000
O O12 0.500000 0.500000 0.500000
O O13 0.772138 0.584863 0.592093
O O14 0.878617 0.491004 0.666325
O O15 0.528335 0.321622 0.479490
O O16 0.820229 0.470869 0.958241
O O17 0.566371 0.877249 0.579499
O O18 0.000000 0.500000 0.500000
#
# Coordination Sequence:
#
# PCOD9012986 Si02
#       8
#     2   2   2   2   2   2   2   2
#     4  11  23  45  70 101 131 181 236 287 342 406
#     4  10  22  40  65  96 135 177 225 281 346 406
#     4  12  24  39  64 102 141 179 224 285 348 410
#     4  10  21  44  73  95 137 181 231 284 343 415
#     4  10  22  39  67  97 125 184 214 276 340 404
#     4  11  24  42  64 100 138 179 227 282 343 413
#     4  10  21  41  62  93 133 168 227 272 334 405
#     4  12  23  41  71  96 141 177 231 279 349 404
#
# _framework density 21.339938
#
# number of rings (size 3 to 8) (size 9 to 14) (size 15 to 20)
#    0.000    1.250    3.750    2.250    1.750    0.000 
#    6.750    0.000    0.000    3.750    0.000    0.000 
#    0.000    0.000    0.000    0.000    0.000    0.000 
#
# Total GULP energy -89260.890869 kJ/mol
# GULP energy per Si atom -5578.805679 kJ/mol
# Density = 2.129137 g / cm^3
# Si number density = 21.339938 Si / 1000 Ang^3
#
#
#
# Elastic Constant Matrix: (Units=GPa)
#
#
# Indices 1 2 3 4 5 6 
#
# 1 79.3778 41.9906 24.0185 8.4129 -9.2400 -17.2281
# 2 41.9906 136.8351 47.2372 10.6000 -11.5711 -16.1450
# 3 24.0185 47.2372 79.6617 15.3008 -5.7200 -5.0207
# 4 8.4129 10.6000 15.3008 30.7717 -0.5681 3.9968
# 5 -9.2400 -11.5711 -5.7200 -0.5681 32.9298 12.7978
# 6 -17.2281 -16.1450 -5.0207 3.9968 12.7978 35.9725
#
#
#
# Elastic Compliance Matrix: (Units=1/GPa)
#
#
# Indices 1 2 3 4 5 6 
#
# 1 0.016805 -0.003420 -0.001966 -0.003255 0.000639 0.006373
# 2 -0.003420 0.010393 -0.004835 -0.000485 0.001055 0.002030
# 3 -0.001966 -0.004835 0.017266 -0.006335 0.000741 -0.000261
# 4 -0.003255 -0.000485 -0.006335 0.037678 0.001308 -0.007312
# 5 0.000639 0.001055 0.000741 0.001308 0.035721 -0.011971
# 6 0.006373 0.002030 -0.000261 -0.007312 -0.011971 0.036797
#
#
# Mechanical properties :
#
#
# Convention : Reuss Voigt Hill
#
# Bulk Modulus (GPa) = 41.62798 58.04079 49.83438
# Shear Modulus (GPa) = 27.30614 32.11001 29.70808
#
# Velocity S-wave (km/s) = 3.58100 3.88324 3.73518
# Velocity P-wave (km/s) = 6.05372 6.88210 6.48116
#
# Compressibility (1/GPa) = 0.02402231
#
# Stress axis : x y z
#
# Youngs Moduli (GPa) = 59.50754 96.21942 57.91694
#
# Poissons Ratio (x) = 0.32907 0.11387
# Poissons Ratio (y) = 0.20352 0.28001
# Poissons Ratio (z) = 0.11699 0.46518
#
# Static dielectric constant tensor:
#      x y z
#    x 1.789660 -0.022560 0.078330 
#    y -0.022560 1.841080 -0.014530 
#    z 0.078330 -0.014530 1.886940 
# 
# From -- ./inp_files/99645.got.cif
#   From: 2010.05.17/outbox.cif.g08.bks.cpg/sg2_50_cif.got.tgz:99645.got - 2010.06.03 11:33:40.
