data_PCOD9012508
_publ_section_title
;
Structure prediction by ZEFSAII (Michael W. Deem and Ramdas Pophale) SiO2 
 PCOD9012508
Probable space group: P -1
;
_chemical_formula_sum "Si O2"
_cell_formula_units_Z 16
_cell_length_a 17.570956
_cell_length_b 9.235939
_cell_length_c 10.843181
_cell_angle_alpha 59.432028
_cell_angle_beta 144.570778
_cell_angle_gamma 128.226407
_cell_volume 801.308960
_symmetry_space_group_name_H-M "P -1"
_symmetry_group_IT_number 2
_symmetry_cell_setting 'triclinic'
loop_
_space_group_symop_operation_xyz
x,y,z
-x,-y,-z
loop_
_atom_site_type_symbol
_atom_site_label
_atom_site_fract_x
_atom_site_fract_y
_atom_site_fract_z
Si Si1 0.909164 0.307277 0.026944
Si Si2 0.088484 0.030186 0.977328
Si Si3 0.375356 0.543197 0.878696
Si Si4 0.900336 0.211309 0.551188
Si Si5 0.428468 0.962485 0.786765
Si Si6 0.375085 0.385583 0.217648
Si Si7 0.949231 0.576847 0.577683
Si Si8 0.393138 0.692155 0.302220
O O1 0.908692 0.148276 0.005214
O O2 0.987534 0.322221 0.255419
O O3 0.748050 0.287551 0.846844
O O4 0.000000 0.500000 0.000000
O O5 0.007724 0.114369 0.743151
O O6 0.246389 0.185630 0.138586
O O7 0.000000 0.000000 0.000000
O O8 0.417318 0.760583 0.822876
O O9 0.211470 0.438646 0.657295
O O10 0.500000 0.500000 0.000000
O O11 0.375373 0.484193 0.046325
O O12 0.736929 0.066753 0.407546
O O13 0.932197 0.365019 0.634248
O O14 0.935468 0.319456 0.421712
O O15 0.511603 0.125382 0.730173
O O16 0.500000 0.000000 0.000000
O O17 0.353250 0.517410 0.234574
O O18 0.517200 0.352349 0.451747
#
# Coordination Sequence:
#
# PCOD9012508 Si02
#       8
#     2   2   2   2   2   2   2   2
#     4  12  28  44  69 101 135 177 227 286 335 407
#     4  12  25  45  69  98 134 176 226 277 346 406
#     4  11  25  42  69 100 143 180 224 280 338 405
#     4  10  21  40  70  96 134 176 220 272 336 401
#     4  11  22  40  67 103 133 181 225 275 337 406
#     4  11  24  47  69 100 137 184 223 282 344 403
#     4  10  22  43  69  99 132 180 223 279 333 400
#     4  11  25  44  72 101 139 175 232 283 338 408
#
# _framework density 19.967328999999999
#
# number of rings (size 3 to 8) (size 9 to 14) (size 15 to 20)
#    0.000    1.000    2.500    3.750    5.250    4.000 
#    0.000    0.000    0.000    0.000    0.000    0.000 
#    0.000    0.000    0.000    0.000    0.000    0.000 
#
# Total GULP energy -89431.706587 kJ/mol
# GULP energy per Si atom -5589.481662 kJ/mol
# Density = 1.992188 g / cm^3
# Si number density = 19.967329 Si / 1000 Ang^3
#
#
#
# Elastic Constant Matrix: (Units=GPa)
#
#
# Indices 1 2 3 4 5 6 
#
# 1 95.0589 56.2416 55.4179 10.5481 13.0346 -12.8997
# 2 56.2416 126.6723 57.4189 14.9053 2.7448 -5.6794
# 3 55.4179 57.4189 124.9531 3.1137 16.9798 -20.1321
# 4 10.5481 14.9053 3.1137 31.4096 4.1482 1.8890
# 5 13.0346 2.7448 16.9798 4.1482 34.7314 -3.3549
# 6 -12.8997 -5.6794 -20.1321 1.8890 -3.3549 30.5382
#
#
#
# Elastic Compliance Matrix: (Units=1/GPa)
#
#
# Indices 1 2 3 4 5 6 
#
# 1 0.017272 -0.005233 -0.004190 -0.002657 -0.003379 0.003354
# 2 -0.005233 0.012350 -0.004009 -0.004016 0.003239 -0.001952
# 3 -0.004190 -0.004009 0.013116 0.002239 -0.004257 0.005525
# 4 -0.002657 -0.004016 0.002239 0.035161 -0.004273 -0.003037
# 5 -0.003379 0.003239 -0.004257 -0.004273 0.032415 0.000194
# 6 0.003354 -0.001952 0.005525 -0.003037 0.000194 0.037651
#
#
# Mechanical properties :
#
#
# Convention : Reuss Voigt Hill
#
# Bulk Modulus (GPa) = 62.99373 76.09345 69.54359
# Shear Modulus (GPa) = 27.75947 31.17625 29.46786
#
# Velocity S-wave (km/s) = 3.73264 3.95570 3.84579
# Velocity P-wave (km/s) = 7.08475 7.68473 7.39083
#
# Compressibility (1/GPa) = 0.01587460
#
# Stress axis : x y z
#
# Youngs Moduli (GPa) = 57.89783 80.97297 76.24201
#
# Poissons Ratio (x) = 0.42375 0.31944
# Poissons Ratio (y) = 0.30299 0.30563
# Poissons Ratio (z) = 0.24258 0.32459
#
# Static dielectric constant tensor:
#      x y z
#    x 1.691690 0.001020 -0.035480 
#    y 0.001020 1.672880 -0.018680 
#    z -0.035480 -0.018680 1.778130 
# 
# From -- ./inp_files/279099.got.cif
#   From: 2010.05.17/outbox.cif.g08.bks.cpg/sg2_140_cif.got.tgz:279099.got - 2010.06.03 11:33:40.
