data_PCOD9012345
_publ_section_title
;
Structure prediction by ZEFSAII (Michael W. Deem and Ramdas Pophale) SiO2 
 PCOD9012345
Probable space group: P -1
;
_chemical_formula_sum "Si O2"
_cell_formula_units_Z 15
_cell_length_a 6.287076
_cell_length_b 17.751188
_cell_length_c 8.029125
_cell_angle_alpha 117.999445
_cell_angle_beta 88.211149
_cell_angle_gamma 53.112712
_cell_volume 567.255558
_symmetry_space_group_name_H-M "P -1"
_symmetry_group_IT_number 2
_symmetry_cell_setting 'triclinic'
loop_
_space_group_symop_operation_xyz
x,y,z
-x,-y,-z
loop_
_atom_site_type_symbol
_atom_site_label
_atom_site_fract_x
_atom_site_fract_y
_atom_site_fract_z
Si Si1 0.408591 0.422705 0.271806
Si Si2 0.144607 0.820801 0.462544
Si Si3 0.196332 0.605271 0.217322
Si Si4 0.020182 0.067518 0.929647
Si Si5 0.891824 0.768767 0.880796
Si Si6 0.000000 0.000000 0.500000
Si Si7 0.663323 0.713349 0.114184
Si Si8 0.545085 0.731782 0.682284
O O1 0.264094 0.549244 0.340081
O O2 0.305225 0.400348 0.416055
O O3 0.339143 0.376950 0.072584
O O4 0.755822 0.342608 0.215602
O O5 0.138374 0.722666 0.332134
O O6 0.859266 0.956575 0.578983
O O7 0.334240 0.819809 0.311219
O O8 0.338657 0.779512 0.578699
O O9 0.907614 0.642355 0.181372
O O10 0.500000 0.500000 0.000000
O O11 0.177455 0.112460 0.017940
O O12 0.677111 0.193251 0.077190
O O13 0.118717 0.009798 0.688046
O O14 0.000000 0.000000 0.000000
O O15 0.763753 0.761158 0.042094
O O16 0.752246 0.755384 0.716536
#
# Coordination Sequence:
#
# PCOD9012345 Si02
#       8
#     2   2   2   2   2   1   2   2
#     4  10  21  40  69  95 136 179 231 287 354 425
#     4  12  26  43  68 105 145 184 245 297 355 435
#     4  12  23  41  71 105 137 187 238 301 365 422
#     4  11  23  46  73  98 143 186 239 307 351 426
#     4  10  21  42  68  97 137 189 230 285 366 416
#     4  12  24  48  72 106 138 186 236 300 360 416
#     4  11  21  40  69 105 135 181 238 294 351 437
#     4  10  24  45  65 101 144 190 231 295 364 426
#
# _framework density 26.443106
#
# number of rings (size 3 to 8) (size 9 to 14) (size 15 to 20)
#    0.000    1.067    4.000    3.600    0.000    3.200 
#    2.400    4.667    0.000    0.000    0.000    0.000 
#    0.000    0.000    0.000    0.000    0.000    0.000 
#
# Total GULP energy -83683.422607 kJ/mol
# GULP energy per Si atom -5578.894840 kJ/mol
# Density = 2.638292 g / cm^3
# Si number density = 26.443106 Si / 1000 Ang^3
#
#
#
# Elastic Constant Matrix: (Units=GPa)
#
#
# Indices 1 2 3 4 5 6 
#
# 1 104.5320 26.5808 38.0287 3.2787 31.1975 15.9737
# 2 26.5808 160.7132 18.0145 -18.9772 20.4074 35.5177
# 3 38.0287 18.0145 97.3397 -11.5206 20.4431 6.4098
# 4 3.2787 -18.9772 -11.5206 43.8942 -8.2100 5.0870
# 5 31.1975 20.4074 20.4431 -8.2100 40.8263 -0.3902
# 6 15.9737 35.5177 6.4098 5.0870 -0.3902 57.2011
#
#
#
# Elastic Compliance Matrix: (Units=1/GPa)
#
#
# Indices 1 2 3 4 5 6 
#
# 1 0.014581 -0.000516 -0.003795 -0.003782 -0.009774 -0.003056
# 2 -0.000516 0.008320 0.000112 0.003704 -0.003127 -0.005385
# 3 -0.003795 0.000112 0.012778 0.003227 -0.002913 -0.000748
# 4 -0.003782 0.003704 0.003227 0.026868 0.004788 -0.003962
# 5 -0.009774 -0.003127 -0.002913 0.004788 0.035993 0.004817
# 6 -0.003056 -0.005385 -0.000748 -0.003962 0.004817 0.022148
#
#
# Mechanical properties :
#
#
# Convention : Reuss Voigt Hill
#
# Bulk Modulus (GPa) = 36.65702 58.64811 47.65256
# Shear Modulus (GPa) = 36.18489 47.04837 41.61663
#
# Velocity S-wave (km/s) = 3.70321 4.22267 3.97144
# Velocity P-wave (km/s) = 5.67254 6.78246 6.25218
#
# Compressibility (1/GPa) = 0.02727990
#
# Stress axis : x y z
#
# Youngs Moduli (GPa) = 68.58334 120.19785 78.25884
#
# Poissons Ratio (x) = 0.06206 0.29696
# Poissons Ratio (y) = 0.03541 -0.00874
# Poissons Ratio (z) = 0.26025 -0.01342
#
# Static dielectric constant tensor:
#      x y z
#    x 2.286520 -0.811670 -0.489850 
#    y -0.811670 6.668060 2.563640 
#    z -0.489850 2.563640 3.600060 
# 
# From -- ./inp_files/139382.got.cif
#   From: 2010.05.17/outbox.cif.g08.bks.cpg/sg2_70_cif.got.tgz:139382.got - 2010.06.03 11:33:40.
