data_PCOD9012102
_publ_section_title
;
Structure prediction by ZEFSAII (Michael W. Deem and Ramdas Pophale) SiO2 
 PCOD9012102
Probable space group: P -1
;
_chemical_formula_sum "Si O2"
_cell_formula_units_Z 14
_cell_length_a 21.453753
_cell_length_b 20.291322
_cell_length_c 5.581732
_cell_angle_alpha 108.879326
_cell_angle_beta 108.943468
_cell_angle_gamma 13.120925
_cell_volume 521.410782
_symmetry_space_group_name_H-M "P -1"
_symmetry_group_IT_number 2
_symmetry_cell_setting 'triclinic'
loop_
_space_group_symop_operation_xyz
x,y,z
-x,-y,-z
loop_
_atom_site_type_symbol
_atom_site_label
_atom_site_fract_x
_atom_site_fract_y
_atom_site_fract_z
Si Si1 0.667668 0.379024 0.891744
Si Si2 0.754667 0.802749 0.980239
Si Si3 0.128061 0.153144 0.849390
Si Si4 0.925477 0.981678 0.639817
Si Si5 0.631038 0.964034 0.512304
Si Si6 0.898857 0.408861 0.363055
Si Si7 0.545467 0.612871 0.651989
O O1 0.492789 0.614931 0.810176
O O2 0.500000 0.500000 0.000000
O O3 0.901103 0.180309 0.096214
O O4 0.808303 0.178055 0.656185
O O5 0.847252 0.788597 0.052662
O O6 0.562706 0.002304 0.211367
O O7 0.000000 0.500000 0.000000
O O8 0.642591 0.905472 0.694519
O O9 0.967337 0.302795 0.576503
O O10 0.990034 0.276792 0.078086
O O11 0.423614 0.813026 0.795407
O O12 0.142940 0.722936 0.427349
O O13 0.659576 0.205757 0.595261
O O14 0.928606 0.695525 0.542395
O O15 0.416931 0.245523 0.626145
#
# Coordination Sequence:
#
# PCOD9012102 Si02
#       7
#     2   2   2   2   2   2   2
#     4  11  25  45  74 102 140 180 238 289 353 423
#     4  10  21  43  70 103 138 186 237 291 352 418
#     4  10  25  45  67 102 142 186 232 298 349 427
#     4  11  26  44  70 102 136 183 230 286 356 423
#     4  10  21  40  68  95 131 175 229 287 346 412
#     4  10  22  43  67  94 136 178 228 280 353 409
#     4  12  27  43  69 101 143 184 235 290 364 417
#
# _framework density 26.85023
#
# number of rings (size 3 to 8) (size 9 to 14) (size 15 to 20)
#    0.000    1.429    1.429    2.143    6.000    4.571 
#    2.571   17.143    0.000    0.000    0.000    0.000 
#    0.000    0.000    0.000    0.000    0.000    0.000 
#
# Total GULP energy -78379.745633 kJ/mol
# GULP energy per Si atom -5598.553260 kJ/mol
# Density = 2.678912 g / cm^3
# Si number density = 26.850230 Si / 1000 Ang^3
#
#
#
# Elastic Constant Matrix: (Units=GPa)
#
#
# Indices 1 2 3 4 5 6 
#
# 1 86.4629 31.0834 35.2235 0.0410 -7.5961 21.0139
# 2 31.0834 149.7015 43.2252 18.0890 -3.4879 39.0030
# 3 35.2235 43.2252 184.0722 2.2135 -32.3807 16.4496
# 4 0.0410 18.0890 2.2135 56.2587 -3.5520 4.4510
# 5 -7.5961 -3.4879 -32.3807 -3.5520 42.4881 2.3193
# 6 21.0139 39.0030 16.4496 4.4510 2.3193 50.5673
#
#
#
# Elastic Compliance Matrix: (Units=1/GPa)
#
#
# Indices 1 2 3 4 5 6 
#
# 1 0.013927 -0.001342 -0.001732 0.000919 0.001373 -0.004333
# 2 -0.001342 0.009173 -0.001430 -0.002461 -0.000465 -0.005814
# 3 -0.001732 -0.001430 0.007045 0.000561 0.005030 -0.000749
# 4 0.000919 -0.002461 0.000561 0.018700 0.001975 -0.000402
# 5 0.001373 -0.000465 0.005030 0.001975 0.027922 -0.003302
# 6 -0.004333 -0.005814 -0.000749 -0.000402 -0.003302 0.026492
#
#
# Mechanical properties :
#
#
# Convention : Reuss Voigt Hill
#
# Bulk Modulus (GPa) = 47.31033 71.03342 59.17188
# Shear Modulus (GPa) = 41.90704 50.57646 46.24175
#
# Velocity S-wave (km/s) = 3.95494 4.34481 4.15445
# Velocity P-wave (km/s) = 6.20595 7.18907 6.71552
#
# Compressibility (1/GPa) = 0.02113703
#
# Stress axis : x y z
#
# Youngs Moduli (GPa) = 71.80319 109.01679 141.94691
#
# Poissons Ratio (x) = 0.14627 0.24589
# Poissons Ratio (y) = 0.09634 0.20297
# Poissons Ratio (z) = 0.12438 0.15588
#
# Static dielectric constant tensor:
#      x y z
#    x 2.175980 -0.047810 0.045630 
#    y -0.047810 2.023960 0.023020 
#    z 0.045630 0.023020 2.177720 
# 
# From -- ./inp_files/10021.got.cif
#   From: 2010.05.17/outbox.cif.g08.bks.cpg/sg2_6_cif.got.tgz:10021.got - 2010.06.03 11:33:40.
