data_PCOD9012350
_publ_section_title
;
Structure prediction by ZEFSAII (Michael W. Deem and Ramdas Pophale) SiO2 
 PCOD9012350
Probable space group: P -1
;
_chemical_formula_sum "Si O2"
_cell_formula_units_Z 16
_cell_length_a 11.952039
_cell_length_b 9.703933
_cell_length_c 18.680822
_cell_angle_alpha 134.945866
_cell_angle_beta 32.400788
_cell_angle_gamma 131.015207
_cell_volume 811.423710
_symmetry_space_group_name_H-M "P -1"
_symmetry_group_IT_number 2
_symmetry_cell_setting 'triclinic'
loop_
_space_group_symop_operation_xyz
x,y,z
-x,-y,-z
loop_
_atom_site_type_symbol
_atom_site_label
_atom_site_fract_x
_atom_site_fract_y
_atom_site_fract_z
Si Si1 0.635021 0.985399 0.619935
Si Si2 0.033750 0.724674 0.538915
Si Si3 0.179515 0.073396 0.873574
Si Si4 0.670829 0.146615 0.004505
Si Si5 0.058103 0.491460 0.050088
Si Si6 0.121758 0.007637 0.726308
Si Si7 0.379338 0.262750 0.323623
Si Si8 0.649673 0.658960 0.368338
O O1 0.683558 0.888361 0.633194
O O2 0.628146 0.805850 0.499769
O O3 0.408848 0.057374 0.773878
O O4 0.799293 0.173687 0.573247
O O5 0.808576 0.753135 0.638031
O O6 0.000000 0.500000 0.500000
O O7 0.114646 0.843650 0.610083
O O8 0.164821 0.950581 0.762432
O O9 0.130766 0.287729 0.955819
O O10 0.000000 0.000000 0.000000
O O11 0.577027 0.205396 0.151716
O O12 0.741441 0.338488 0.988279
O O13 0.500000 0.000000 0.000000
O O14 0.887190 0.063581 0.870583
O O15 0.858197 0.550463 0.222636
O O16 0.000000 0.500000 0.000000
O O17 0.292567 0.193944 0.676592
O O18 0.455932 0.484513 0.393737
#
# Coordination Sequence:
#
# PCOD9012350 Si02
#       8
#     2   2   2   2   2   2   2   2
#     4  11  27  42  65  98 131 171 209 270 328 375
#     4  11  27  42  64  92 132 171 215 258 316 389
#     4  12  24  41  68  99 133 160 215 276 323 374
#     4  11  20  36  66  94 118 169 215 256 314 383
#     4  11  20  40  66  93 126 166 220 262 310 378
#     4  10  21  41  63  97 125 164 216 266 315 378
#     4  12  22  42  67  92 129 167 214 263 324 382
#     4  10  21  40  69  96 123 170 220 261 318 381
#
# _framework density 19.718426999999998
#
# number of rings (size 3 to 8) (size 9 to 14) (size 15 to 20)
#    0.000    1.000    5.000    2.250    5.250    1.000 
#    0.000    0.000    0.000    3.000    0.000    0.000 
#    0.000    0.000    0.000    0.000    0.000    0.000 
#
# Total GULP energy -89323.218105 kJ/mol
# GULP energy per Si atom -5582.701132 kJ/mol
# Density = 1.967355 g / cm^3
# Si number density = 19.718427 Si / 1000 Ang^3
#
#
#
# Elastic Constant Matrix: (Units=GPa)
#
#
# Indices 1 2 3 4 5 6 
#
# 1 59.0234 41.9351 -3.6054 -5.5885 2.3097 -14.5059
# 2 41.9351 131.4313 23.5968 -9.4428 -5.6591 3.1272
# 3 -3.6054 23.5968 64.1858 -6.0221 -4.7353 -12.4470
# 4 -5.5885 -9.4428 -6.0221 31.6209 -1.1899 -2.3995
# 5 2.3097 -5.6591 -4.7353 -1.1899 20.1820 -3.1080
# 6 -14.5059 3.1272 -12.4470 -2.3995 -3.1080 29.2023
#
#
#
# Elastic Compliance Matrix: (Units=1/GPa)
#
#
# Indices 1 2 3 4 5 6 
#
# 1 0.032940 -0.012728 0.011498 0.005930 -0.000744 0.023034
# 2 -0.012728 0.013340 -0.007647 -0.000483 0.001701 -0.010869
# 3 0.011498 -0.007647 0.023335 0.005709 0.005044 0.017482
# 4 0.005930 -0.000483 0.005709 0.034420 0.003890 0.008673
# 5 -0.000744 0.001701 0.005044 0.003890 0.052683 0.007525
# 6 0.023034 -0.010869 0.017482 0.008673 0.007525 0.055815
#
#
# Mechanical properties :
#
#
# Convention : Reuss Voigt Hill
#
# Bulk Modulus (GPa) = 19.28266 42.05482 30.66874
# Shear Modulus (GPa) = 20.19612 29.04864 24.62238
#
# Velocity S-wave (km/s) = 3.20382 3.84236 3.53753
# Velocity P-wave (km/s) = 4.84626 6.40772 5.68090
#
# Compressibility (1/GPa) = 0.05186007
#
# Stress axis : x y z
#
# Youngs Moduli (GPa) = 30.35868 74.96466 42.85459
#
# Poissons Ratio (x) = 0.95416 -0.49274
# Poissons Ratio (y) = 0.38641 0.32769
# Poissons Ratio (z) = -0.34906 0.57323
#
# Static dielectric constant tensor:
#      x y z
#    x 1.697470 0.006320 -0.002160 
#    y 0.006320 1.738970 0.027910 
#    z -0.002160 0.027910 1.731310 
# 
# From -- ./inp_files/239816.got.cif
#   From: 2010.05.17/outbox.cif.g08.bks.cpg/sg2_120_cif.got.tgz:239816.got - 2010.06.03 11:33:40.
