data_PCOD9012714
_publ_section_title
;
Structure prediction by ZEFSAII (Michael W. Deem and Ramdas Pophale) SiO2 
 PCOD9012714
Probable space group: P -1
;
_chemical_formula_sum "Si O2"
_cell_formula_units_Z 16
_cell_length_a 12.613204
_cell_length_b 16.169892
_cell_length_c 5.315666
_cell_angle_alpha 89.842719
_cell_angle_beta 58.352215
_cell_angle_gamma 61.915805
_cell_volume 769.991988
_symmetry_space_group_name_H-M "P -1"
_symmetry_group_IT_number 2
_symmetry_cell_setting 'triclinic'
loop_
_space_group_symop_operation_xyz
x,y,z
-x,-y,-z
loop_
_atom_site_type_symbol
_atom_site_label
_atom_site_fract_x
_atom_site_fract_y
_atom_site_fract_z
Si Si1 0.753992 0.403167 0.698204
Si Si2 0.615890 0.698757 0.360285
Si Si3 0.514979 0.569036 0.676766
Si Si4 0.681839 0.982554 0.024176
Si Si5 0.844531 0.706304 0.347342
Si Si6 0.538418 0.095419 0.709208
Si Si7 0.897960 0.492555 0.834910
Si Si8 0.923571 0.774838 0.758480
O O1 0.677503 0.493993 0.596668
O O2 0.814014 0.441638 0.838806
O O3 0.898223 0.299267 0.435144
O O4 0.618254 0.395675 0.959706
O O5 0.511382 0.660835 0.563912
O O6 0.683124 0.723391 0.516876
O O7 0.540194 0.790239 0.265515
O O8 0.765026 0.602794 0.064137
O O9 0.500000 0.500000 0.500000
O O10 0.642703 0.035686 0.340960
O O11 0.584784 0.932939 0.125609
O O12 0.628128 0.058093 0.858332
O O13 0.852390 0.890130 0.795878
O O14 0.874144 0.736369 0.581049
O O15 0.978325 0.591441 0.132501
O O16 0.855463 0.767118 0.105454
O O17 0.000000 0.500000 0.500000
#
# Coordination Sequence:
#
# PCOD9012714 Si02
#       8
#     2   2   2   2   2   2   2   2
#     4  10  23  40  62  88 121 171 209 249 310 369
#     4  12  22  38  62  88 128 168 208 250 307 377
#     4  11  23  43  59  87 127 168 212 253 296 368
#     4  10  21  41  58  90 126 158 201 260 314 367
#     4  11  23  36  59  98 124 164 196 246 314 377
#     4  10  23  36  61  88 125 164 202 251 313 374
#     4  11  22  37  59  93 133 158 198 257 309 380
#     4  11  22  40  67  91 127 160 204 255 316 371
#
# _framework density 20.779436
#
# number of rings (size 3 to 8) (size 9 to 14) (size 15 to 20)
#    0.000    1.250    2.500    4.125    5.250    1.000 
#    0.000    0.000    0.000    1.500    0.000    0.000 
#    0.000    0.000    0.000    0.000    0.000    0.000 
#
# Total GULP energy -89415.572537 kJ/mol
# GULP energy per Si atom -5588.473284 kJ/mol
# Density = 2.073214 g / cm^3
# Si number density = 20.779436 Si / 1000 Ang^3
#
#
#
# Elastic Constant Matrix: (Units=GPa)
#
#
# Indices 1 2 3 4 5 6 
#
# 1 46.9119 32.9551 13.5760 -7.4575 -7.7366 -12.7213
# 2 32.9551 154.6989 32.7698 -2.4045 -7.6073 -26.4366
# 3 13.5760 32.7698 69.0135 3.6082 -4.0176 -1.5556
# 4 -7.4575 -2.4045 3.6082 37.1377 -7.0553 -4.2760
# 5 -7.7366 -7.6073 -4.0176 -7.0553 22.4800 -3.1103
# 6 -12.7213 -26.4366 -1.5556 -4.2760 -3.1103 24.7023
#
#
#
# Elastic Compliance Matrix: (Units=1/GPa)
#
#
# Indices 1 2 3 4 5 6 
#
# 1 0.034245 -0.001807 -0.005111 0.012756 0.016994 0.019727
# 2 -0.001807 0.009649 -0.003891 0.002596 0.004163 0.010124
# 3 -0.005111 -0.003891 0.017280 -0.004151 -0.002218 -0.006706
# 4 0.012756 0.002596 -0.004151 0.035514 0.018096 0.017513
# 5 0.016994 0.004163 -0.002218 0.018096 0.060316 0.023794
# 6 0.019727 0.010124 -0.006706 0.017513 0.023794 0.067081
#
#
# Mechanical properties :
#
#
# Convention : Reuss Voigt Hill
#
# Bulk Modulus (GPa) = 25.28185 47.69180 36.48683
# Shear Modulus (GPa) = 19.31327 29.61889 24.46608
#
# Velocity S-wave (km/s) = 3.05198 3.77954 3.43508
# Velocity P-wave (km/s) = 4.96111 6.48443 5.77323
#
# Compressibility (1/GPa) = 0.03955406
#
# Stress axis : x y z
#
# Youngs Moduli (GPa) = 29.20109 103.64206 57.87116
#
# Poissons Ratio (x) = 0.18731 0.29580
# Poissons Ratio (y) = 0.05277 0.22518
# Poissons Ratio (z) = 0.14926 0.40328
#
# Static dielectric constant tensor:
#      x y z
#    x 1.798700 0.005760 0.035370 
#    y 0.005760 1.778910 0.029780 
#    z 0.035370 0.029780 1.802810 
# 
# From -- ./inp_files/77765.got.cif
#   From: 2010.05.17/outbox.cif.g08.bks.cpg/sg2_39_cif.got.tgz:77765.got - 2010.06.03 11:33:40.
