data_PCOD9012084
_publ_section_title
;
Structure prediction by ZEFSAII (Michael W. Deem and Ramdas Pophale) SiO2 
 PCOD9012084
Probable space group: P -1
;
_chemical_formula_sum "Si O2"
_cell_formula_units_Z 14
_cell_length_a 17.487976
_cell_length_b 7.395867
_cell_length_c 5.842153
_cell_angle_alpha 67.403280
_cell_angle_beta 107.677011
_cell_angle_gamma 126.279069
_cell_volume 559.412145
_symmetry_space_group_name_H-M "P -1"
_symmetry_group_IT_number 2
_symmetry_cell_setting 'triclinic'
loop_
_space_group_symop_operation_xyz
x,y,z
-x,-y,-z
loop_
_atom_site_type_symbol
_atom_site_label
_atom_site_fract_x
_atom_site_fract_y
_atom_site_fract_z
Si Si1 0.381938 0.073722 0.852982
Si Si2 0.451384 0.806077 0.349107
Si Si3 0.062700 0.757888 0.691277
Si Si4 0.753475 0.534836 0.546532
Si Si5 0.064108 0.154460 0.198033
Si Si6 0.761046 0.881047 0.036900
Si Si7 0.793685 0.189336 0.517591
O O1 0.291347 0.915819 0.688738
O O2 0.471921 0.227411 0.694577
O O3 0.342996 0.179638 0.948677
O O4 0.409768 0.912679 0.086153
O O5 0.357122 0.570036 0.457820
O O6 0.500000 0.000000 0.500000
O O7 0.101937 0.659337 0.580557
O O8 0.976833 0.688842 0.823479
O O9 0.054310 0.950096 0.449325
O O10 0.154922 0.889206 0.872355
O O11 0.822374 0.662048 0.763764
O O12 0.777169 0.691232 0.261816
O O13 0.772039 0.336423 0.595277
O O14 0.000000 0.000000 0.000000
O O15 0.779097 0.968568 0.751214
#
# Coordination Sequence:
#
# PCOD9012084 Si02
#       7
#     2   2   2   2   2   2   2
#     4  10  21  40  68  94 144 181 221 288 340 393
#     4  11  21  43  68  99 138 179 228 289 335 404
#     4   9  21  40  65  96 138 180 221 281 348 385
#     4  11  24  42  72 104 130 188 231 270 357 402
#     4  10  21  44  66 100 141 176 227 289 330 408
#     4  10  21  42  65  99 139 178 225 283 336 404
#     4  11  21  44  68  99 143 178 223 290 330 412
#
# _framework density 25.026273
#
# number of rings (size 3 to 8) (size 9 to 14) (size 15 to 20)
#    0.000    1.714    2.857    0.857    0.000    1.143 
#   15.429    5.714    0.000    2.571    0.000    0.000 
#    0.000    0.000    0.000    0.000    0.000    0.000 
#
# Total GULP energy -78049.968741 kJ/mol
# GULP energy per Si atom -5574.997767 kJ/mol
# Density = 2.496931 g / cm^3
# Si number density = 25.026273 Si / 1000 Ang^3
#
#
#
# Elastic Constant Matrix: (Units=GPa)
#
#
# Indices 1 2 3 4 5 6 
#
# 1 174.2969 32.4006 23.7851 8.7187 -11.4839 13.4456
# 2 32.4006 65.3780 30.6735 6.0814 -2.1622 27.6258
# 3 23.7851 30.6735 121.5981 18.3677 21.5941 21.1222
# 4 8.7187 6.0814 18.3677 27.8123 2.5562 13.4634
# 5 -11.4839 -2.1622 21.5941 2.5562 37.7235 0.5300
# 6 13.4456 27.6258 21.1222 13.4634 0.5300 40.6945
#
#
#
# Elastic Compliance Matrix: (Units=1/GPa)
#
#
# Indices 1 2 3 4 5 6 
#
# 1 0.006579 -0.002933 -0.000891 -0.001401 0.002430 0.000711
# 2 -0.002933 0.024972 -0.004377 0.005645 0.002881 -0.015616
# 3 -0.000891 -0.004377 0.011694 -0.005411 -0.006836 -0.000925
# 4 -0.001401 0.005645 -0.005411 0.046435 0.000072 -0.015924
# 5 0.002430 0.002881 -0.006836 0.000072 0.031317 0.000358
# 6 0.000711 -0.015616 -0.000925 -0.015924 0.000358 0.040684
#
#
# Mechanical properties :
#
#
# Convention : Reuss Voigt Hill
#
# Bulk Modulus (GPa) = 37.25162 59.44347 48.34754
# Shear Modulus (GPa) = 26.73368 39.54032 33.13700
#
# Velocity S-wave (km/s) = 3.27192 3.97917 3.64275
# Velocity P-wave (km/s) = 5.40289 6.70192 6.08716
#
# Compressibility (1/GPa) = 0.02684447
#
# Stress axis : x y z
#
# Youngs Moduli (GPa) = 151.99185 40.04540 85.51249
#
# Poissons Ratio (x) = 0.11744 0.07615
# Poissons Ratio (y) = 0.44573 0.37430
# Poissons Ratio (z) = 0.13536 0.17529
#
# Static dielectric constant tensor:
#      x y z
#    x 2.093070 0.043880 -0.154020 
#    y 0.043880 2.009690 -0.037660 
#    z -0.154020 -0.037660 2.059300 
# 
# From -- ./inp_files/104799.got.cif
#   From: 2010.05.17/outbox.cif.g08.bks.cpg/sg2_53_cif.got.tgz:104799.got - 2010.06.03 11:33:40.
