data_PCOD9012215
_publ_section_title
;
Structure prediction by ZEFSAII (Michael W. Deem and Ramdas Pophale) SiO2 
 PCOD9012215
Probable space group: P -1
;
_chemical_formula_sum "Si O2"
_cell_formula_units_Z 16
_cell_length_a 19.654689
_cell_length_b 8.008457
_cell_length_c 11.536351
_cell_angle_alpha 127.178430
_cell_angle_beta 137.569404
_cell_angle_gamma 36.218407
_cell_volume 723.725287
_symmetry_space_group_name_H-M "P -1"
_symmetry_group_IT_number 2
_symmetry_cell_setting 'triclinic'
loop_
_space_group_symop_operation_xyz
x,y,z
-x,-y,-z
loop_
_atom_site_type_symbol
_atom_site_label
_atom_site_fract_x
_atom_site_fract_y
_atom_site_fract_z
Si Si1 0.646590 0.896774 0.659699
Si Si2 0.123543 0.732200 0.389828
Si Si3 0.169034 0.934116 0.748515
Si Si4 0.836451 0.628924 0.202712
Si Si5 0.569974 0.741763 0.893973
Si Si6 0.880922 0.835277 0.568987
Si Si7 0.588632 0.361417 0.934301
Si Si8 0.604102 0.167709 0.481195
O O1 0.770848 0.558038 0.670062
O O2 0.500000 0.000000 0.500000
O O3 0.627326 0.075043 0.820002
O O4 0.661402 0.009253 0.608206
O O5 0.982180 0.828065 0.292429
O O6 0.185315 0.730632 0.587646
O O7 0.086408 0.999039 0.390087
O O8 0.209064 0.097893 0.807408
O O9 0.268487 0.735831 0.892707
O O10 0.854686 0.676497 0.380786
O O11 0.996275 0.363863 0.269156
O O12 0.727412 0.599102 0.026473
O O13 0.540996 0.558963 0.844877
O O14 0.485382 0.870698 0.722355
O O15 0.500000 0.000000 0.000000
O O16 0.734828 0.067026 0.537027
O O17 0.500000 0.500000 0.000000
O O18 0.500000 0.500000 0.500000
#
# Coordination Sequence:
#
# PCOD9012215 Si02
#       8
#     2   2   2   2   2   2   2   2
#     4  12  27  43  67  97 135 179 220 275 338 393
#     4  10  22  42  69 100 133 176 221 269 337 393
#     4  10  22  41  69  99 135 174 221 273 325 404
#     4  10  21  40  69 100 131 173 226 271 325 388
#     4  12  25  42  69 101 133 176 224 277 328 397
#     4  10  21  41  68  98 132 175 222 271 326 397
#     4  12  27  44  67  97 135 173 225 278 332 399
#     4  12  25  45  66  96 139 176 220 273 334 399
#
# _framework density 22.107838000000001
#
# number of rings (size 3 to 8) (size 9 to 14) (size 15 to 20)
#    0.000    1.000    2.500    3.750    7.000    2.500 
#    0.000    0.625    0.000    0.000    0.000    0.000 
#    0.000    0.000    0.000    0.000    0.000    0.000 
#
# Total GULP energy -89286.530407 kJ/mol
# GULP energy per Si atom -5580.408150 kJ/mol
# Density = 2.205752 g / cm^3
# Si number density = 22.107838 Si / 1000 Ang^3
#
#
#
# Elastic Constant Matrix: (Units=GPa)
#
#
# Indices 1 2 3 4 5 6 
#
# 1 64.9942 2.3808 18.0673 4.7358 11.5101 -7.1071
# 2 2.3808 102.3417 22.6869 13.0624 0.6703 -19.9230
# 3 18.0673 22.6869 76.9261 -4.6345 -2.5628 -19.7219
# 4 4.7358 13.0624 -4.6345 29.2125 -0.1350 -7.5483
# 5 11.5101 0.6703 -2.5628 -0.1350 27.8190 -6.0847
# 6 -7.1071 -19.9230 -19.7219 -7.5483 -6.0847 28.7972
#
#
#
# Elastic Compliance Matrix: (Units=1/GPa)
#
#
# Indices 1 2 3 4 5 6 
#
# 1 0.018651 0.001210 -0.005735 -0.004930 -0.008650 -0.001607
# 2 0.001210 0.012004 -0.002644 -0.004524 0.000179 0.005645
# 3 -0.005735 -0.002644 0.019484 0.008846 0.007329 0.013966
# 4 -0.004930 -0.004524 0.008846 0.042122 0.006246 0.014072
# 5 -0.008650 0.000179 0.007329 0.006246 0.043241 0.013782
# 6 -0.001607 0.005645 0.013966 0.014072 0.013782 0.054400
#
#
# Mechanical properties :
#
#
# Convention : Reuss Voigt Hill
#
# Bulk Modulus (GPa) = 27.93053 36.72577 32.32815
# Shear Modulus (GPa) = 23.12958 30.57422 26.85190
#
# Velocity S-wave (km/s) = 3.23804 3.72285 3.48887
# Velocity P-wave (km/s) = 5.16149 5.92686 5.55737
#
# Compressibility (1/GPa) = 0.03580311
#
# Stress axis : x y z
#
# Youngs Moduli (GPa) = 53.61612 83.30348 51.32475
#
# Poissons Ratio (x) = -0.10083 0.29433
# Poissons Ratio (y) = -0.06490 0.13570
# Poissons Ratio (z) = 0.30747 0.22025
#
# Static dielectric constant tensor:
#      x y z
#    x -0.689370 -0.384220 -0.009180 
#    y -0.384220 1.776040 0.007070 
#    z -0.009180 0.007070 1.864170 
# 
# From -- ./inp_files/209287.got.cif
#   From: 2010.05.17/outbox.cif.g08.bks.cpg/sg2_105_cif.got.tgz:209287.got - 2010.06.03 11:33:40.
