data_PCOD9012541
_publ_section_title
;
Structure prediction by ZEFSAII (Michael W. Deem and Ramdas Pophale) SiO2 
 PCOD9012541
Probable space group: P -1
;
_chemical_formula_sum "Si O2"
_cell_formula_units_Z 16
_cell_length_a 16.974248
_cell_length_b 8.991884
_cell_length_c 11.589420
_cell_angle_alpha 121.912320
_cell_angle_beta 41.388693
_cell_angle_gamma 90.798327
_cell_volume 726.229080
_symmetry_space_group_name_H-M "P -1"
_symmetry_group_IT_number 2
_symmetry_cell_setting 'triclinic'
loop_
_space_group_symop_operation_xyz
x,y,z
-x,-y,-z
loop_
_atom_site_type_symbol
_atom_site_label
_atom_site_fract_x
_atom_site_fract_y
_atom_site_fract_z
Si Si1 0.371870 0.792720 0.259064
Si Si2 0.197616 0.144923 0.064127
Si Si3 0.211829 0.958927 0.751868
Si Si4 0.180177 0.801104 0.279089
Si Si5 0.820556 0.495207 0.648278
Si Si6 0.390637 0.699654 0.799718
Si Si7 0.176038 0.607961 0.651922
Si Si8 0.566832 0.885918 0.754489
O O1 0.243144 0.887914 0.335016
O O2 0.288721 0.882613 0.511505
O O3 0.439650 0.921383 0.223073
O O4 0.500000 0.500000 0.000000
O O5 0.257586 0.248659 0.114138
O O6 0.004982 0.360016 0.354728
O O7 0.272315 0.038168 0.812140
O O8 0.228337 0.936483 0.013990
O O9 0.237447 0.735814 0.679596
O O10 0.018394 0.183716 0.044070
O O11 0.179416 0.635095 0.297019
O O12 0.321608 0.657845 0.966217
O O13 0.000000 0.000000 0.500000
O O14 0.763246 0.471099 0.580476
O O15 0.500000 0.500000 0.500000
O O16 0.479938 0.790597 0.775318
O O17 0.247048 0.370792 0.543229
O O18 0.500000 0.000000 0.000000
#
# Coordination Sequence:
#
# PCOD9012541 Si02
#       8
#     2   2   2   2   2   2   2   2
#     4  12  28  46  74 105 144 192 245 301 367 434
#     4  10  22  40  67  99 137 177 230 279 360 416
#     4  10  22  42  69 100 138 185 235 295 351 430
#     4  12  26  45  73 107 140 185 244 300 354 424
#     4  10  21  41  70  99 133 181 231 292 345 423
#     4  12  27  44  67 105 145 187 230 299 366 425
#     4  10  21  40  70  99 137 187 237 288 355 428
#     4  12  25  44  70 101 143 192 243 290 361 441
#
# _framework density 22.031614999999999
#
# number of rings (size 3 to 8) (size 9 to 14) (size 15 to 20)
#    0.000    1.000    3.750    2.250    3.500    3.500 
#    0.000    1.250    0.000    0.000    0.000    0.000 
#    0.000    0.000    0.000    0.000    0.000    0.000 
#
# Total GULP energy -89229.662881 kJ/mol
# GULP energy per Si atom -5576.853930 kJ/mol
# Density = 2.198147 g / cm^3
# Si number density = 22.031615 Si / 1000 Ang^3
#
#
#
# Elastic Constant Matrix: (Units=GPa)
#
#
# Indices 1 2 3 4 5 6 
#
# 1 99.4108 25.6925 54.1127 2.8938 24.6901 16.5055
# 2 25.6925 108.7282 67.8533 -0.6929 6.4104 5.7372
# 3 54.1127 67.8533 148.2519 3.3439 35.1463 4.5595
# 4 2.8938 -0.6929 3.3439 40.5074 -9.6090 4.2265
# 5 24.6901 6.4104 35.1463 -9.6090 43.9738 4.7421
# 6 16.5055 5.7372 4.5595 4.2265 4.7421 31.9617
#
#
#
# Elastic Compliance Matrix: (Units=1/GPa)
#
#
# Indices 1 2 3 4 5 6 
#
# 1 0.014390 -0.000508 -0.003702 -0.001217 -0.004670 -0.005958
# 2 -0.000508 0.013635 -0.007162 0.002210 0.004737 -0.002159
# 3 -0.003702 -0.007162 0.013406 -0.003329 -0.008644 0.003008
# 4 -0.001217 0.002210 -0.003329 0.027816 0.009574 -0.004392
# 5 -0.004670 0.004737 -0.008644 0.009574 0.034054 -0.003524
# 6 -0.005958 -0.002159 0.003008 -0.004392 -0.003524 0.035426
#
#
# Mechanical properties :
#
#
# Convention : Reuss Voigt Hill
#
# Bulk Modulus (GPa) = 53.51024 72.41199 62.96111
# Shear Modulus (GPa) = 29.81487 37.20407 33.50947
#
# Velocity S-wave (km/s) = 3.68268 4.11380 3.90420
# Velocity P-wave (km/s) = 6.51333 7.45004 6.99738
#
# Compressibility (1/GPa) = 0.01868801
#
# Stress axis : x y z
#
# Youngs Moduli (GPa) = 69.49066 73.33808 74.59130
#
# Poissons Ratio (x) = 0.03726 0.27615
# Poissons Ratio (y) = 0.03531 0.53422
# Poissons Ratio (z) = 0.25726 0.52524
#
# Static dielectric constant tensor:
#      x y z
#    x 1.909040 0.000440 -0.064550 
#    y 0.000440 1.807890 0.018640 
#    z -0.064550 0.018640 1.816760 
# 
# From -- ./inp_files/462426.got.cif
#   From: 2010.05.17/outbox.cif.g08.bks.cpg/sg2_232_cif.got.tgz:462426.got - 2010.06.03 11:33:40.
