data_PCOD9012069
_publ_section_title
;
Structure prediction by ZEFSAII (Michael W. Deem and Ramdas Pophale) SiO2 
 PCOD9012069
Probable space group: P -1
;
_chemical_formula_sum "Si O2"
_cell_formula_units_Z 16
_cell_length_a 18.373894
_cell_length_b 8.034662
_cell_length_c 5.208429
_cell_angle_alpha 60.880296
_cell_angle_beta 90.298310
_cell_angle_gamma 83.532879
_cell_volume 665.851954
_symmetry_space_group_name_H-M "P -1"
_symmetry_group_IT_number 2
_symmetry_cell_setting 'triclinic'
loop_
_space_group_symop_operation_xyz
x,y,z
-x,-y,-z
loop_
_atom_site_type_symbol
_atom_site_label
_atom_site_fract_x
_atom_site_fract_y
_atom_site_fract_z
Si Si1 0.934456 0.329136 0.625940
Si Si2 0.980503 0.797094 0.759620
Si Si3 0.523780 0.103318 0.174809
Si Si4 0.299422 0.418241 0.441539
Si Si5 0.199376 0.693414 0.622653
Si Si6 0.156591 0.376894 0.254577
Si Si7 0.434057 0.448579 0.707981
Si Si8 0.337308 0.745348 0.807826
O O1 0.868050 0.212327 0.622444
O O2 0.889383 0.528510 0.572840
O O3 0.979781 0.345837 0.352972
O O4 0.983195 0.238574 0.931990
O O5 0.895550 0.761774 0.772389
O O6 0.000000 0.000000 0.500000
O O7 0.610159 0.121810 0.158129
O O8 0.500000 0.000000 0.500000
O O9 0.474603 0.311775 0.024946
O O10 0.500000 0.000000 0.000000
O O11 0.251011 0.544553 0.558345
O O12 0.239968 0.299047 0.398865
O O13 0.374871 0.336733 0.641607
O O14 0.323592 0.568307 0.122845
O O15 0.255960 0.823516 0.648809
O O16 0.167029 0.562150 0.937269
O O17 0.500000 0.500000 0.500000
O O18 0.388170 0.644692 0.657535
#
# Coordination Sequence:
#
# PCOD9012069 Si02
#       8
#     2   2   2   2   2   2   2   2
#     4  11  22  42  66  94 121 168 217 258 311 376
#     4  12  26  40  62  95 135 169 205 258 326 385
#     4  12  27  41  62  98 137 166 207 269 333 385
#     4   9  20  36  68  93 121 157 228 270 310 367
#     4   9  20  38  68  97 118 159 225 271 308 361
#     4  10  21  40  68  94 125 160 218 271 311 373
#     4  11  21  40  69  93 123 175 228 266 318 392
#     4  10  21  41  67  92 125 168 219 265 319 385
#
# _framework density 24.029364000000001
#
# number of rings (size 3 to 8) (size 9 to 14) (size 15 to 20)
#    0.000    1.500    2.500    2.250    7.000    0.000 
#    0.000    2.500    0.000    0.000    0.000    0.000 
#    0.000    0.000    0.000    0.000    0.000    0.000 
#
# Total GULP energy -89356.458047 kJ/mol
# GULP energy per Si atom -5584.778628 kJ/mol
# Density = 2.397467 g / cm^3
# Si number density = 24.029364 Si / 1000 Ang^3
#
#
#
# Elastic Constant Matrix: (Units=GPa)
#
#
# Indices 1 2 3 4 5 6 
#
# 1 227.6949 52.2780 55.5926 10.5137 20.2781 73.2746
# 2 52.2780 78.7673 21.0104 6.8417 0.1843 31.6161
# 3 55.5926 21.0104 97.6689 18.8336 7.1063 16.1195
# 4 10.5137 6.8417 18.8336 32.7051 0.6107 -2.4319
# 5 20.2781 0.1843 7.1063 0.6107 45.7674 23.1168
# 6 73.2746 31.6161 16.1195 -2.4319 23.1168 54.2799
#
#
#
# Elastic Compliance Matrix: (Units=1/GPa)
#
#
# Indices 1 2 3 4 5 6 
#
# 1 0.008987 0.000057 -0.002808 -0.002279 0.002878 -0.012659
# 2 0.000057 0.019040 -0.001515 -0.004306 0.007264 -0.014003
# 3 -0.002808 -0.001515 0.013321 -0.006358 -0.001213 0.000949
# 4 -0.002279 -0.004306 -0.006358 0.036747 -0.003926 0.010791
# 5 0.002878 0.007264 -0.001213 -0.003926 0.031587 -0.021384
# 6 -0.012659 -0.014003 0.000949 0.010791 -0.021384 0.052977
#
#
# Mechanical properties :
#
#
# Convention : Reuss Voigt Hill
#
# Bulk Modulus (GPa) = 30.47508 73.54367 52.00938
# Shear Modulus (GPa) = 27.45294 44.90049 36.17671
#
# Velocity S-wave (km/s) = 3.38372 4.32738 3.88431
# Velocity P-wave (km/s) = 5.28924 7.45926 6.46593
#
# Compressibility (1/GPa) = 0.03281370
#
# Stress axis : x y z
#
# Youngs Moduli (GPa) = 111.26870 52.52182 75.07137
#
# Poissons Ratio (x) = -0.00298 0.21083
# Poissons Ratio (y) = -0.00631 0.11375
# Poissons Ratio (z) = 0.31249 0.07958
#
# Static dielectric constant tensor:
#      x y z
#    x 1.971820 0.038820 0.071940 
#    y 0.038820 2.009620 0.056040 
#    z 0.071940 0.056040 1.881710 
# 
# From -- ./inp_files/104555.got.cif
#   From: 2010.05.17/outbox.cif.g08.bks.cpg/sg2_53_cif.got.tgz:104555.got - 2010.06.03 11:33:40.
