data_PCOD9012703
_publ_section_title
;
Structure prediction by ZEFSAII (Michael W. Deem and Ramdas Pophale) SiO2 
 PCOD9012703
Probable space group: P -1
;
_chemical_formula_sum "Si O2"
_cell_formula_units_Z 16
_cell_length_a 19.697416
_cell_length_b 13.900149
_cell_length_c 14.786700
_cell_angle_alpha 19.745822
_cell_angle_beta 148.749122
_cell_angle_gamma 145.857842
_cell_volume 703.451767
_symmetry_space_group_name_H-M "P -1"
_symmetry_group_IT_number 2
_symmetry_cell_setting 'triclinic'
loop_
_space_group_symop_operation_xyz
x,y,z
-x,-y,-z
loop_
_atom_site_type_symbol
_atom_site_label
_atom_site_fract_x
_atom_site_fract_y
_atom_site_fract_z
Si Si1 0.996321 0.177540 0.430825
Si Si2 0.639713 0.199548 0.997130
Si Si3 0.159392 0.295380 0.210750
Si Si4 0.686547 0.547429 0.910566
Si Si5 0.334762 0.292902 0.062169
Si Si6 0.652333 0.308034 0.426001
Si Si7 0.586843 0.225053 0.629450
Si Si8 0.287836 0.175574 0.743899
O O1 0.149601 0.205240 0.607615
O O2 0.000000 0.000000 0.500000
O O3 0.900881 0.995944 0.554030
O O4 0.945054 0.481269 0.088673
O O5 0.696762 0.537609 0.739108
O O6 0.655595 0.252777 0.076679
O O7 0.500000 0.000000 0.000000
O O8 0.725248 0.037260 0.168191
O O9 0.187118 0.286742 0.143260
O O10 0.699529 0.522338 0.054531
O O11 0.564907 0.733341 0.593904
O O12 0.494367 0.299790 0.237109
O O13 0.289276 0.957176 0.318552
O O14 0.290612 0.409649 0.813104
O O15 0.656988 0.259225 0.581450
O O16 0.649426 0.514906 0.494315
O O17 0.618547 0.951937 0.962953
#
# Coordination Sequence:
#
# PCOD9012703 Si02
#       8
#     2   2   2   2   2   2   2   2
#     4  12  23  42  59  81 113 164 215 253 272 332
#     4  10  21  41  56  92 124 163 186 237 295 367
#     4  10  24  38  62  83 119 154 207 243 291 335
#     4   9  21  38  59  90 124 151 197 237 302 363
#     4   9  17  33  55  84 111 155 181 239 290 357
#     4   9  18  33  55  80 119 145 191 231 297 355
#     4  11  23  38  57  92 120 156 190 244 300 370
#     4  12  24  37  61  83 121 162 201 235 296 336
#
# _framework density 22.744985
#
# number of rings (size 3 to 8) (size 9 to 14) (size 15 to 20)
#    0.750    1.000    2.500    1.875    1.750    6.500 
#    0.000    0.000    0.000    0.000    0.000   17.500 
#    0.000    0.000    0.000    0.000    0.000    0.000 
#
# Total GULP energy -89115.022288 kJ/mol
# GULP energy per Si atom -5569.688893 kJ/mol
# Density = 2.269322 g / cm^3
# Si number density = 22.744985 Si / 1000 Ang^3
#
#
#
# Elastic Constant Matrix: (Units=GPa)
#
#
# Indices 1 2 3 4 5 6 
#
# 1 116.2730 8.8213 23.7120 15.1124 4.9356 -14.7387
# 2 8.8213 13.4406 7.8588 1.8207 6.3709 8.0575
# 3 23.7120 7.8588 73.1942 6.6185 -5.1580 0.0258
# 4 15.1124 1.8207 6.6185 22.7240 2.0153 3.7219
# 5 4.9356 6.3709 -5.1580 2.0153 25.0821 -2.5646
# 6 -14.7387 8.0575 0.0258 3.7219 -2.5646 42.4614
#
#
#
# Elastic Compliance Matrix: (Units=1/GPa)
#
#
# Indices 1 2 3 4 5 6 
#
# 1 0.011502 -0.009918 -0.001907 -0.007482 0.001140 0.006600
# 2 -0.009918 0.121863 -0.013136 0.008622 -0.035408 -0.029454
# 3 -0.001907 -0.013136 0.016556 -0.003608 0.007672 0.002600
# 4 -0.007482 0.008622 -0.003608 0.051416 -0.006524 -0.009132
# 5 0.001140 -0.035408 0.007672 -0.006524 0.051846 0.010813
# 6 0.006600 -0.029454 0.002600 -0.009132 0.010813 0.032883
#
#
# Mechanical properties :
#
#
# Convention : Reuss Voigt Hill
#
# Bulk Modulus (GPa) = 9.99987 31.52134 20.76060
# Shear Modulus (GPa) = 13.53831 28.88788 21.21310
#
# Velocity S-wave (km/s) = 2.44236 3.56768 3.05724
# Velocity P-wave (km/s) = 3.51562 5.55516 4.64862
#
# Compressibility (1/GPa) = 0.10000133
#
# Stress axis : x y z
#
# Youngs Moduli (GPa) = 86.93774 8.20591 60.39947
#
# Poissons Ratio (x) = 0.08138 0.11518
# Poissons Ratio (y) = 0.86222 0.79339
# Poissons Ratio (z) = 0.16579 0.10779
#
# Static dielectric constant tensor:
#      x y z
#    x 1.870330 -0.010050 0.014010 
#    y -0.010050 1.940650 0.026900 
#    z 0.014010 0.026900 1.905270 
# 
# From -- ./inp_files/538867.got.cif
#   From: 2010.05.17/outbox.cif.g08.bks.cpg/sg2_270_cif.got.tgz:538867.got - 2010.06.03 11:33:40.
