data_PCOD9012459
_publ_section_title
;
Structure prediction by ZEFSAII (Michael W. Deem and Ramdas Pophale) SiO2 
 PCOD9012459
Probable space group: P -1
;
_chemical_formula_sum "Si O2"
_cell_formula_units_Z 16
_cell_length_a 17.669853
_cell_length_b 9.531306
_cell_length_c 11.257276
_cell_angle_alpha 41.688692
_cell_angle_beta 135.184853
_cell_angle_gamma 148.810143
_cell_volume 639.162199
_symmetry_space_group_name_H-M "P -1"
_symmetry_group_IT_number 2
_symmetry_cell_setting 'triclinic'
loop_
_space_group_symop_operation_xyz
x,y,z
-x,-y,-z
loop_
_atom_site_type_symbol
_atom_site_label
_atom_site_fract_x
_atom_site_fract_y
_atom_site_fract_z
Si Si1 0.430656 0.907649 0.849158
Si Si2 0.924620 0.237689 0.677275
Si Si3 0.387896 0.634634 0.745206
Si Si4 0.107557 0.215955 0.199147
Si Si5 0.111177 0.019204 0.701865
Si Si6 0.396870 0.512948 0.450891
Si Si7 0.167247 0.689316 0.824904
Si Si8 0.395364 0.126293 0.348779
O O1 0.384636 0.649484 0.876370
O O2 0.282521 0.846166 0.744388
O O3 0.551089 0.186456 0.724631
O O4 0.500000 0.000000 0.000000
O O5 0.000000 0.500000 0.500000
O O6 0.999782 0.430163 0.757421
O O7 0.969109 0.066877 0.787777
O O8 0.750862 0.977116 0.685956
O O9 0.551346 0.780907 0.786929
O O10 0.375743 0.854236 0.535900
O O11 0.244774 0.325220 0.723741
O O12 0.225672 0.256764 0.389528
O O13 0.997080 0.189264 0.178306
O O14 0.194195 0.501974 0.035865
O O15 0.175798 0.903731 0.780330
O O16 0.000000 0.000000 0.500000
O O17 0.500000 0.500000 0.500000
O O18 0.457498 0.580905 0.607374
#
# Coordination Sequence:
#
# PCOD9012459 Si02
#       8
#     2   2   2   2   2   2   2   2
#     4  11  24  47  72 100 146 190 241 300 367 442
#     4  12  24  43  74 106 141 189 248 295 359 435
#     4  10  23  43  69 104 143 182 239 302 363 423
#     4  12  25  45  69 102 147 190 237 300 371 434
#     4  12  26  45  73 105 145 189 246 303 363 439
#     4  11  22  40  74 104 137 185 244 298 359 430
#     4  12  27  45  69 101 148 190 238 300 372 440
#     4  10  21  40  70 108 142 178 238 307 357 424
#
# _framework density 25.032769999999999
#
# number of rings (size 3 to 8) (size 9 to 14) (size 15 to 20)
#    0.000    0.750    2.500    6.000    3.500    2.000 
#    2.250    0.625    0.000    0.000    0.000    0.000 
#    0.000    0.000    0.000    0.000    0.000    0.000 
#
# Total GULP energy -89310.136437 kJ/mol
# GULP energy per Si atom -5581.883527 kJ/mol
# Density = 2.497579 g / cm^3
# Si number density = 25.032770 Si / 1000 Ang^3
#
#
#
# Elastic Constant Matrix: (Units=GPa)
#
#
# Indices 1 2 3 4 5 6 
#
# 1 145.6561 36.1887 16.4514 2.0488 -19.5849 -15.0559
# 2 36.1887 133.3268 30.5919 17.9909 -12.1119 -30.1116
# 3 16.4514 30.5919 43.0118 3.1625 -9.2159 -8.4631
# 4 2.0488 17.9909 3.1625 34.8345 -7.2883 -0.2239
# 5 -19.5849 -12.1119 -9.2159 -7.2883 30.5997 -7.0642
# 6 -15.0559 -30.1116 -8.4631 -0.2239 -7.0642 52.9253
#
#
#
# Elastic Compliance Matrix: (Units=1/GPa)
#
#
# Indices 1 2 3 4 5 6 
#
# 1 0.008192 -0.001244 -0.000764 0.001365 0.005359 0.002222
# 2 -0.001244 0.011158 -0.005625 -0.004718 0.002037 0.005347
# 3 -0.000764 -0.005625 0.029364 0.001777 0.007066 0.002229
# 4 0.001365 -0.004718 0.001777 0.032368 0.007035 -0.000936
# 5 0.005359 0.002037 0.007066 0.007035 0.042930 0.009573
# 6 0.002222 0.005347 0.002229 -0.000936 0.009573 0.024199
#
#
# Mechanical properties :
#
#
# Convention : Reuss Voigt Hill
#
# Bulk Modulus (GPa) = 29.89626 54.27317 42.08472
# Shear Modulus (GPa) = 28.63278 39.58941 34.11109
#
# Velocity S-wave (km/s) = 3.38570 3.98113 3.69542
# Velocity P-wave (km/s) = 5.22041 6.54679 5.92086
#
# Compressibility (1/GPa) = 0.03344900
#
# Stress axis : x y z
#
# Youngs Moduli (GPa) = 122.07391 89.62236 34.05522
#
# Poissons Ratio (x) = 0.11149 0.02600
# Poissons Ratio (y) = 0.15186 0.19155
# Poissons Ratio (z) = 0.09321 0.50411
#
# Static dielectric constant tensor:
#      x y z
#    x 2.033600 0.011990 -0.012600 
#    y 0.011990 2.089190 0.106780 
#    z -0.012600 0.106780 2.172530 
# 
# From -- ./inp_files/461919.got.cif
#   From: 2010.05.17/outbox.cif.g08.bks.cpg/sg2_231_cif.got.tgz:461919.got - 2010.06.03 11:33:40.
