data_PCOD9012129
_publ_section_title
;
Structure prediction by ZEFSAII (Michael W. Deem and Ramdas Pophale) SiO2 
 PCOD9012129
Probable space group: P -1
;
_chemical_formula_sum "Si O2"
_cell_formula_units_Z 14
_cell_length_a 15.476492
_cell_length_b 13.196249
_cell_length_c 9.213853
_cell_angle_alpha 132.575691
_cell_angle_beta 54.927402
_cell_angle_gamma 152.762906
_cell_volume 632.169471
_symmetry_space_group_name_H-M "P -1"
_symmetry_group_IT_number 2
_symmetry_cell_setting 'triclinic'
loop_
_space_group_symop_operation_xyz
x,y,z
-x,-y,-z
loop_
_atom_site_type_symbol
_atom_site_label
_atom_site_fract_x
_atom_site_fract_y
_atom_site_fract_z
Si Si1 0.203994 0.786370 0.050547
Si Si2 0.285764 0.421265 0.690260
Si Si3 0.280799 0.169965 0.247439
Si Si4 0.785225 0.648913 0.991957
Si Si5 0.514372 0.852703 0.364623
Si Si6 0.189287 0.041889 0.877590
Si Si7 0.430078 0.810640 0.722284
O O1 0.192105 0.933431 0.165740
O O2 0.355423 0.934620 0.180147
O O3 0.313141 0.825868 0.852433
O O4 0.000000 0.500000 0.000000
O O5 0.215313 0.229155 0.461796
O O6 0.493548 0.599900 0.719811
O O7 0.322998 0.599736 0.737725
O O8 0.169875 0.315250 0.846673
O O9 0.249124 0.147315 0.085133
O O10 0.613678 0.365666 0.839047
O O11 0.962932 0.796213 0.865246
O O12 0.745269 0.764781 0.104229
O O13 0.438821 0.747282 0.498202
O O14 0.500000 0.000000 0.500000
O O15 0.718765 0.002949 0.298297
#
# Coordination Sequence:
#
# PCOD9012129 Si02
#       7
#     2   2   2   2   2   2   2
#     4  10  23  41  66  96 130 167 211 269 327 384
#     4  10  22  41  69  96 126 170 222 271 322 381
#     4  10  21  40  68  97 124 172 220 265 327 383
#     4  11  26  44  67  98 133 175 219 270 331 385
#     4  12  26  44  70  96 135 177 216 268 330 395
#     4  11  25  44  68  96 134 173 221 270 326 392
#     4  10  24  42  65  97 130 168 217 266 327 383
#
# _framework density 22.145959999999999
#
# number of rings (size 3 to 8) (size 9 to 14) (size 15 to 20)
#    0.000    1.429    1.429    2.143   12.000    2.286 
#    2.571    0.000    0.000    0.000    0.000    0.000 
#    0.000    0.000    0.000    0.000    0.000    0.000 
#
# Total GULP energy -78333.774053 kJ/mol
# GULP energy per Si atom -5595.269575 kJ/mol
# Density = 2.209556 g / cm^3
# Si number density = 22.145960 Si / 1000 Ang^3
#
#
#
# Elastic Constant Matrix: (Units=GPa)
#
#
# Indices 1 2 3 4 5 6 
#
# 1 74.4651 35.2650 21.9558 4.9406 -17.4403 -2.7920
# 2 35.2650 95.8002 32.6583 6.5858 -13.3101 -10.5329
# 3 21.9558 32.6583 102.7767 -9.9078 -9.4090 -7.2569
# 4 4.9406 6.5858 -9.9078 30.8937 -7.9608 3.0196
# 5 -17.4403 -13.3101 -9.4090 -7.9608 39.1495 -6.9914
# 6 -2.7920 -10.5329 -7.2569 3.0196 -6.9914 32.8440
#
#
#
# Elastic Compliance Matrix: (Units=1/GPa)
#
#
# Indices 1 2 3 4 5 6 
#
# 1 0.017737 -0.004993 -0.001705 -0.000917 0.005758 0.000840
# 2 -0.004993 0.014364 -0.003339 -0.003241 0.001940 0.004155
# 3 -0.001705 -0.003339 0.011978 0.005282 0.002315 0.001438
# 4 -0.000917 -0.003241 0.005282 0.036867 0.006922 -0.001866
# 5 0.005758 0.001940 0.002315 0.006922 0.032129 0.007826
# 6 0.000840 0.004155 0.001438 -0.001866 0.007826 0.034006
#
#
# Mechanical properties :
#
#
# Convention : Reuss Voigt Hill
#
# Bulk Modulus (GPa) = 41.65705 50.31115 45.98410
# Shear Modulus (GPa) = 28.54622 32.78830 30.66726
#
# Velocity S-wave (km/s) = 3.59416 3.85197 3.72530
# Velocity P-wave (km/s) = 6.00625 6.52310 6.27001
#
# Compressibility (1/GPa) = 0.02400554
#
# Stress axis : x y z
#
# Youngs Moduli (GPa) = 56.37930 69.62014 83.48917
#
# Poissons Ratio (x) = 0.34759 0.14232
# Poissons Ratio (y) = 0.28148 0.27878
# Poissons Ratio (z) = 0.09610 0.23247
#
# Static dielectric constant tensor:
#      x y z
#    x 1.821740 0.025790 0.001990 
#    y 0.025790 1.859170 -0.012770 
#    z 0.001990 -0.012770 1.789020 
# 
# From -- ./inp_files/308490.got.cif
#   From: 2010.05.17/outbox.cif.g08.bks.cpg/sg2_155_cif.got.tgz:308490.got - 2010.06.03 11:33:40.
