data_PCOD9012032
_publ_section_title
;
Structure prediction by ZEFSAII (Michael W. Deem and Ramdas Pophale) SiO2 
 PCOD9012032
Probable space group: P -1
;
_chemical_formula_sum "Si O2"
_cell_formula_units_Z 16
_cell_length_a 12.818570
_cell_length_b 10.222034
_cell_length_c 7.668373
_cell_angle_alpha 61.125858
_cell_angle_beta 77.283741
_cell_angle_gamma 51.773196
_cell_volume 686.674945
_symmetry_space_group_name_H-M "P -1"
_symmetry_group_IT_number 2
_symmetry_cell_setting 'triclinic'
loop_
_space_group_symop_operation_xyz
x,y,z
-x,-y,-z
loop_
_atom_site_type_symbol
_atom_site_label
_atom_site_fract_x
_atom_site_fract_y
_atom_site_fract_z
Si Si1 0.374468 0.728335 0.056967
Si Si2 0.302847 0.904032 0.356380
Si Si3 0.117804 0.784178 0.508643
Si Si4 0.476958 0.309696 0.302429
Si Si5 0.796707 0.550518 0.551669
Si Si6 0.950174 0.710108 0.851050
Si Si7 0.097054 0.971234 0.829163
Si Si8 0.918369 0.707223 0.243548
O O1 0.342142 0.839592 0.179714
O O2 0.450215 0.510110 0.208854
O O3 0.459949 0.755025 0.871669
O O4 0.242075 0.793666 0.949869
O O5 0.228807 0.811809 0.500159
O O6 0.425598 0.823138 0.493013
O O7 0.194381 0.127418 0.278307
O O8 0.181635 0.628698 0.430059
O O9 0.064122 0.703912 0.711867
O O10 0.992243 0.977499 0.343203
O O11 0.336893 0.342893 0.358041
O O12 0.810670 0.667120 0.325006
O O13 0.929962 0.473786 0.663496
O O14 0.926167 0.783557 0.009171
O O15 0.000000 0.500000 0.000000
O O16 0.115028 0.135480 0.710213
O O17 0.000000 0.000000 0.000000
#
# Coordination Sequence:
#
# PCOD9012032 Si02
#       8
#     2   2   2   2   2   2   2   2
#     4  11  22  40  67  98 133 181 224 279 338 405
#     4  12  24  44  68  98 142 178 223 286 343 396
#     4  11  22  38  69 102 134 171 223 287 343 397
#     4  11  25  42  66  97 139 180 231 271 333 421
#     4  10  21  42  65  96 130 178 223 276 335 406
#     4  12  24  41  67 103 135 174 226 286 347 407
#     4  11  19  39  69  98 129 166 227 288 337 390
#     4  10  21  40  68  91 132 171 219 284 345 389
#
# _framework density 23.300688000000001
#
# number of rings (size 3 to 8) (size 9 to 14) (size 15 to 20)
#    0.000    1.000    5.000    2.250    0.000    3.000 
#    0.000    1.250    2.750    0.000    0.000    0.000 
#    0.000    0.000    0.000    0.000    0.000    0.000 
#
# Total GULP energy -89361.555254 kJ/mol
# GULP energy per Si atom -5585.097203 kJ/mol
# Density = 2.324766 g / cm^3
# Si number density = 23.300688 Si / 1000 Ang^3
#
#
#
# Elastic Constant Matrix: (Units=GPa)
#
#
# Indices 1 2 3 4 5 6 
#
# 1 70.4196 28.4963 40.6013 -3.6831 -15.5892 -24.7832
# 2 28.4963 91.9891 44.6073 -1.2335 -14.4965 -15.2462
# 3 40.6013 44.6073 136.3486 14.8213 -8.3514 -20.9584
# 4 -3.6831 -1.2335 14.8213 51.0527 -8.9963 -12.8288
# 5 -15.5892 -14.4965 -8.3514 -8.9963 36.2159 2.4773
# 6 -24.7832 -15.2462 -20.9584 -12.8288 2.4773 44.4149
#
#
#
# Elastic Compliance Matrix: (Units=1/GPa)
#
#
# Indices 1 2 3 4 5 6 
#
# 1 0.025019 -0.001319 -0.005327 0.008343 0.010208 0.012834
# 2 -0.001319 0.014478 -0.003913 0.002997 0.004866 0.002981
# 3 -0.005327 -0.003913 0.010425 -0.004041 -0.002430 -0.000428
# 4 0.008343 0.002997 -0.004041 0.025804 0.009537 0.010699
# 5 0.010208 0.004866 -0.002430 0.009537 0.035283 0.007006
# 6 0.012834 0.002981 -0.000428 0.010699 0.007006 0.033197
#
#
# Mechanical properties :
#
#
# Convention : Reuss Voigt Hill
#
# Bulk Modulus (GPa) = 34.71906 58.46300 46.59103
# Shear Modulus (GPa) = 28.58311 38.67351 33.62831
#
# Velocity S-wave (km/s) = 3.50624 4.07843 3.80311
# Velocity P-wave (km/s) = 5.59682 6.87919 6.27087
#
# Compressibility (1/GPa) = 0.02880262
#
# Stress axis : x y z
#
# Youngs Moduli (GPa) = 39.96971 69.06873 95.91966
#
# Poissons Ratio (x) = 0.09113 0.51100
# Poissons Ratio (y) = 0.05274 0.37536
# Poissons Ratio (z) = 0.21293 0.27029
#
# Static dielectric constant tensor:
#      x y z
#    x 1.851220 0.052370 0.056950 
#    y 0.052370 1.998290 0.040760 
#    z 0.056950 0.040760 1.965640 
# 
# From -- ./inp_files/261551.got.cif
#   From: 2010.05.17/outbox.cif.g08.bks.cpg/sg2_131_cif.got.tgz:261551.got - 2010.06.03 11:33:40.
