data_PCOD9012277
_publ_section_title
;
Structure prediction by ZEFSAII (Michael W. Deem and Ramdas Pophale) SiO2 
 PCOD9012277
Probable space group: P -1
;
_chemical_formula_sum "Si O2"
_cell_formula_units_Z 14
_cell_length_a 14.218346
_cell_length_b 8.391265
_cell_length_c 11.379956
_cell_angle_alpha 125.552278
_cell_angle_beta 147.936672
_cell_angle_gamma 63.304983
_cell_volume 583.420837
_symmetry_space_group_name_H-M "P -1"
_symmetry_group_IT_number 2
_symmetry_cell_setting 'triclinic'
loop_
_space_group_symop_operation_xyz
x,y,z
-x,-y,-z
loop_
_atom_site_type_symbol
_atom_site_label
_atom_site_fract_x
_atom_site_fract_y
_atom_site_fract_z
Si Si1 0.481084 0.783910 0.431812
Si Si2 0.029485 0.123526 0.781371
Si Si3 0.397599 0.301594 0.253043
Si Si4 0.611274 0.543908 0.253327
Si Si5 0.977263 0.691962 0.636723
Si Si6 0.923834 0.204871 0.961598
Si Si7 0.657335 0.162111 0.279465
O O1 0.632301 0.802196 0.698234
O O2 0.510961 0.631457 0.294789
O O3 0.500000 0.000000 0.500000
O O4 0.282538 0.766055 0.262532
O O5 0.852998 0.113616 0.507684
O O6 0.056017 0.895473 0.745552
O O7 0.995108 0.231288 0.915580
O O8 0.205621 0.248154 0.966798
O O9 0.500000 0.500000 0.500000
O O10 0.553925 0.231293 0.312235
O O11 0.768200 0.703348 0.444384
O O12 0.678831 0.342258 0.286675
O O13 0.500000 0.500000 0.000000
O O14 0.000000 0.500000 0.500000
O O15 0.039270 0.665707 0.825682
O O16 0.000000 0.000000 0.000000
O O17 0.500000 0.000000 0.000000
#
# Coordination Sequence:
#
# PCOD9012277 Si02
#       7
#     2   2   2   2   2   2   2
#     4  12  23  43  76 104 146 193 251 316 370 459
#     4  11  25  50  77 109 156 200 259 324 380 462
#     4  12  27  50  75 113 149 201 260 311 393 459
#     4  12  27  47  72 107 149 198 255 313 385 461
#     4  11  24  45  72 110 152 200 258 310 381 459
#     4  10  21  40  69 107 141 192 250 307 373 441
#     4  12  29  50  76 111 158 204 255 322 394 465
#
# _framework density 23.996400000000001
#
# number of rings (size 3 to 8) (size 9 to 14) (size 15 to 20)
#    0.000    0.571    2.857    6.000    4.000    2.286 
#    2.571    0.000    0.000    0.000    0.000    0.000 
#    0.000    0.000    0.000    0.000    0.000    0.000 
#
# Total GULP energy -78012.535739 kJ/mol
# GULP energy per Si atom -5572.323981 kJ/mol
# Density = 2.394178 g / cm^3
# Si number density = 23.996400 Si / 1000 Ang^3
#
#
#
# Elastic Constant Matrix: (Units=GPa)
#
#
# Indices 1 2 3 4 5 6 
#
# 1 57.6950 13.4600 19.5987 -4.0666 -3.8536 -20.5786
# 2 13.4600 84.8402 40.8829 7.7248 -6.4737 3.1246
# 3 19.5987 40.8829 151.0563 -15.3284 5.9823 0.0179
# 4 -4.0666 7.7248 -15.3284 42.6044 -1.2296 -0.5830
# 5 -3.8536 -6.4737 5.9823 -1.2296 62.6463 -1.8030
# 6 -20.5786 3.1246 0.0179 -0.5830 -1.8030 39.9081
#
#
#
# Elastic Compliance Matrix: (Units=1/GPa)
#
#
# Indices 1 2 3 4 5 6 
#
# 1 0.023518 -0.003321 -0.001982 0.002354 0.001699 0.012499
# 2 -0.003321 0.014940 -0.004131 -0.004507 0.001563 -0.002876
# 3 -0.001982 -0.004131 0.008406 0.003537 -0.001303 -0.000710
# 4 0.002354 -0.004507 0.003537 0.025810 -0.000096 0.001938
# 5 0.001699 0.001563 -0.001303 -0.000096 0.016394 0.001493
# 6 0.012499 -0.002876 -0.000710 0.001938 0.001493 0.031824
#
#
# Mechanical properties :
#
#
# Convention : Reuss Voigt Hill
#
# Bulk Modulus (GPa) = 35.72109 49.05276 42.38693
# Shear Modulus (GPa) = 33.53598 43.67510 38.60554
#
# Velocity S-wave (km/s) = 3.74243 4.27085 4.01534
# Velocity P-wave (km/s) = 5.79592 6.69376 6.26095
#
# Compressibility (1/GPa) = 0.02799466
#
# Stress axis : x y z
#
# Youngs Moduli (GPa) = 42.52007 66.93400 118.96253
#
# Poissons Ratio (x) = 0.22228 0.23584
# Poissons Ratio (y) = 0.14121 0.49149
# Poissons Ratio (z) = 0.08430 0.27654
#
# Static dielectric constant tensor:
#      x y z
#    x 1.974470 0.111690 -0.081110 
#    y 0.111690 2.085380 -0.016490 
#    z -0.081110 -0.016490 2.037060 
# 
# From -- ./inp_files/448274.got.cif
#   From: 2010.05.17/outbox.cif.g08.bks.cpg/sg2_225_cif.got.tgz:448274.got - 2010.06.03 11:33:40.
