data_PCOD9012400
_publ_section_title
;
Structure prediction by ZEFSAII (Michael W. Deem and Ramdas Pophale) SiO2 
 PCOD9012400
Probable space group: P -1
;
_chemical_formula_sum "Si O2"
_cell_formula_units_Z 14
_cell_length_a 8.369178
_cell_length_b 8.114485
_cell_length_c 12.776577
_cell_angle_alpha 60.611910
_cell_angle_beta 68.296692
_cell_angle_gamma 55.133370
_cell_volume 615.448841
_symmetry_space_group_name_H-M "P -1"
_symmetry_group_IT_number 2
_symmetry_cell_setting 'triclinic'
loop_
_space_group_symop_operation_xyz
x,y,z
-x,-y,-z
loop_
_atom_site_type_symbol
_atom_site_label
_atom_site_fract_x
_atom_site_fract_y
_atom_site_fract_z
Si Si1 0.072217 0.780347 0.451220
Si Si2 0.933684 0.821734 0.706290
Si Si3 0.738427 0.905025 0.326607
Si Si4 0.473259 0.604000 0.786151
Si Si5 0.094429 0.607618 0.179734
Si Si6 0.566179 0.624474 0.525916
Si Si7 0.107402 0.641916 0.936362
O O1 0.203707 0.538597 0.456964
O O2 0.053179 0.775660 0.582460
O O3 0.864987 0.884288 0.408078
O O4 0.183220 0.918927 0.354913
O O5 0.870816 0.636561 0.773568
O O6 0.029917 0.793569 0.806385
O O7 0.575874 0.832594 0.417074
O O8 0.904175 0.742673 0.255641
O O9 0.622500 0.145844 0.231675
O O10 0.698532 0.443682 0.805801
O O11 0.455803 0.640642 0.654564
O O12 0.339047 0.514237 0.897852
O O13 0.069024 0.725469 0.037715
O O14 0.500000 0.500000 0.500000
O O15 0.000000 0.500000 0.000000
#
# Coordination Sequence:
#
# PCOD9012400 Si02
#       7
#     2   2   2   2   2   2   2
#     4  11  21  41  69  96 141 172 219 276 348 394
#     4  10  21  40  69  99 130 182 219 275 340 397
#     4  12  25  44  67 105 142 179 218 280 350 399
#     4  12  25  44  68 104 135 177 236 275 335 407
#     4  11  24  45  71  95 142 180 227 273 336 405
#     4  12  26  40  67 104 142 177 224 284 340 408
#     4  10  23  45  70  96 133 185 228 278 334 395
#
# _framework density 22.747624999999999
#
# number of rings (size 3 to 8) (size 9 to 14) (size 15 to 20)
#    0.000    0.857    4.286    3.000    6.000    0.571 
#    0.000    0.000    0.000    6.857    0.000    0.000 
#    0.000    0.000    0.000    0.000    0.000    0.000 
#
# Total GULP energy -78062.872668 kJ/mol
# GULP energy per Si atom -5575.919476 kJ/mol
# Density = 2.269585 g / cm^3
# Si number density = 22.747625 Si / 1000 Ang^3
#
#
#
# Elastic Constant Matrix: (Units=GPa)
#
#
# Indices 1 2 3 4 5 6 
#
# 1 73.7431 8.5927 46.5400 9.1443 8.9278 12.9915
# 2 8.5927 51.5548 17.1112 2.4067 -4.2990 0.1758
# 3 46.5400 17.1112 163.0167 21.1754 5.2164 5.3223
# 4 9.1443 2.4067 21.1754 29.4697 3.2212 -0.6447
# 5 8.9278 -4.2990 5.2164 3.2212 30.2548 -11.3082
# 6 12.9915 0.1758 5.3223 -0.6447 -11.3082 18.1117
#
#
#
# Elastic Compliance Matrix: (Units=1/GPa)
#
#
# Indices 1 2 3 4 5 6 
#
# 1 0.023731 -0.003517 -0.004731 -0.002487 -0.016025 -0.025691
# 2 -0.003517 0.021098 -0.001663 -0.000046 0.007012 0.007184
# 3 -0.004731 -0.001663 0.008154 -0.004303 0.000696 0.001295
# 4 -0.002487 -0.000046 -0.004303 0.038013 -0.001217 0.003642
# 5 -0.016025 0.007012 0.000696 -0.001217 0.056044 0.046170
# 6 -0.025691 0.007184 0.001295 0.003642 0.046170 0.102147
#
#
# Mechanical properties :
#
#
# Convention : Reuss Voigt Hill
#
# Bulk Modulus (GPa) = 30.15811 48.08916 39.12363
# Shear Modulus (GPa) = 17.85310 29.97197 23.91254
#
# Velocity S-wave (km/s) = 2.80453 3.63380 3.24575
# Velocity P-wave (km/s) = 4.87582 6.22834 5.59311
#
# Compressibility (1/GPa) = 0.03315858
#
# Stress axis : x y z
#
# Youngs Moduli (GPa) = 42.13923 47.39892 122.63906
#
# Poissons Ratio (x) = 0.16672 0.58022
# Poissons Ratio (y) = 0.14822 0.20399
# Poissons Ratio (z) = 0.19937 0.07884
#
# Static dielectric constant tensor:
#      x y z
#    x 1.923140 0.007100 0.020140 
#    y 0.007100 1.897270 -0.013470 
#    z 0.020140 -0.013470 1.847090 
# 
# From -- ./inp_files/182833.got.cif
#   From: 2010.05.17/outbox.cif.g08.bks.cpg/sg2_92_cif.got.tgz:182833.got - 2010.06.03 11:33:40.
