data_PCOD9012306
_publ_section_title
;
Structure prediction by ZEFSAII (Michael W. Deem and Ramdas Pophale) SiO2 
 PCOD9012306
Probable space group: P -1
;
_chemical_formula_sum "Si O2"
_cell_formula_units_Z 14
_cell_length_a 13.427208
_cell_length_b 8.872198
_cell_length_c 11.093003
_cell_angle_alpha 39.361059
_cell_angle_beta 59.814128
_cell_angle_gamma 56.689812
_cell_volume 692.741381
_symmetry_space_group_name_H-M "P -1"
_symmetry_group_IT_number 2
_symmetry_cell_setting 'triclinic'
loop_
_space_group_symop_operation_xyz
x,y,z
-x,-y,-z
loop_
_atom_site_type_symbol
_atom_site_label
_atom_site_fract_x
_atom_site_fract_y
_atom_site_fract_z
Si Si1 0.461475 0.794960 0.939702
Si Si2 0.599458 0.293924 0.236162
Si Si3 0.875129 0.091542 0.169858
Si Si4 0.979262 0.095928 0.586925
Si Si5 0.746497 0.359619 0.692763
Si Si6 0.938715 0.411803 0.731201
Si Si7 0.542405 0.682862 0.450034
O O1 0.465577 0.752852 0.818146
O O2 0.454378 0.080639 0.776641
O O3 0.574751 0.592978 0.056500
O O4 0.345673 0.738302 0.108050
O O5 0.734968 0.127867 0.242753
O O6 0.546971 0.241060 0.427695
O O7 0.892115 0.309161 0.941464
O O8 0.931566 0.101112 0.259253
O O9 0.952680 0.825476 0.233330
O O10 0.844633 0.149691 0.687995
O O11 0.015215 0.352380 0.419374
O O12 0.000000 0.000000 0.500000
O O13 0.829626 0.463179 0.669168
O O14 0.667790 0.549241 0.525234
O O15 0.500000 0.500000 0.500000
#
# Coordination Sequence:
#
# PCOD9012306 Si02
#       7
#     2   2   2   2   2   2   2
#     4  10  22  43  66  94 128 159 224 266 310 371
#     4  10  22  40  65 100 117 167 220 264 306 374
#     4  10  21  40  69  92 124 166 217 260 319 365
#     4  11  26  42  63 101 134 165 208 260 327 390
#     4  10  22  42  65  95 126 172 216 263 314 370
#     4  10  22  42  69  96 124 165 219 267 313 371
#     4  11  26  42  65  95 135 174 202 258 336 380
#
# _framework density 20.209562999999999
#
# number of rings (size 3 to 8) (size 9 to 14) (size 15 to 20)
#    0.000    1.714    1.429    2.143    6.000    4.000 
#    2.571    0.000    0.000    0.000    0.000    0.000 
#    0.000    0.000    0.000    0.000    0.000    0.000 
#
# Total GULP energy -78148.556799 kJ/mol
# GULP energy per Si atom -5582.039771 kJ/mol
# Density = 2.016356 g / cm^3
# Si number density = 20.209563 Si / 1000 Ang^3
#
#
#
# Elastic Constant Matrix: (Units=GPa)
#
#
# Indices 1 2 3 4 5 6 
#
# 1 85.2759 44.9469 27.3759 -7.3892 14.2550 -12.2845
# 2 44.9469 66.4507 31.5028 10.7305 -4.9273 8.8153
# 3 27.3759 31.5028 88.1469 -10.9691 0.9431 7.0252
# 4 -7.3892 10.7305 -10.9691 34.9342 3.6443 7.1356
# 5 14.2550 -4.9273 0.9431 3.6443 26.4697 0.8133
# 6 -12.2845 8.8153 7.0252 7.1356 0.8133 30.7240
#
#
#
# Elastic Compliance Matrix: (Units=1/GPa)
#
#
# Indices 1 2 3 4 5 6 
#
# 1 0.041491 -0.037352 0.001354 0.019313 -0.032723 0.023378
# 2 -0.037352 0.055042 -0.009946 -0.026868 0.035126 -0.023143
# 3 0.001354 -0.009946 0.015855 0.009235 -0.004347 -0.002260
# 4 0.019313 -0.026868 0.009235 0.045486 -0.022096 0.003340
# 5 -0.032723 0.035126 -0.004347 -0.022096 0.065714 -0.018776
# 6 0.023378 -0.023143 -0.002260 0.003340 -0.018776 0.048773
#
#
# Mechanical properties :
#
#
# Convention : Reuss Voigt Hill
#
# Bulk Modulus (GPa) = 48.78316 49.72495 49.25406
# Shear Modulus (GPa) = 13.47412 27.49545 20.48478
#
# Velocity S-wave (km/s) = 2.58489 3.69252 3.18719
# Velocity P-wave (km/s) = 5.75326 6.54505 6.16188
#
# Compressibility (1/GPa) = 0.02049888
#
# Stress axis : x y z
#
# Youngs Moduli (GPa) = 24.10173 18.16791 63.07330
#
# Poissons Ratio (x) = 0.67861 -0.08539
# Poissons Ratio (y) = 0.90026 0.62731
# Poissons Ratio (z) = -0.03263 0.18069
#
# Static dielectric constant tensor:
#      x y z
#    x 1.756940 -0.018400 -0.024930 
#    y -0.018400 1.739200 -0.012450 
#    z -0.024930 -0.012450 1.751100 
# 
# From -- ./inp_files/390012.got.cif
#   From: 2010.05.17/outbox.cif.g08.bks.cpg/sg2_196_cif.got.tgz:390012.got - 2010.06.03 11:33:40.
