data_PCOD9012617
_publ_section_title
;
Structure prediction by ZEFSAII (Michael W. Deem and Ramdas Pophale) SiO2 
 PCOD9012617
Probable space group: P -1
;
_chemical_formula_sum "Si O2"
_cell_formula_units_Z 16
_cell_length_a 8.438550
_cell_length_b 5.123719
_cell_length_c 21.173243
_cell_angle_alpha 112.910028
_cell_angle_beta 54.101106
_cell_angle_gamma 88.316593
_cell_volume 641.064781
_symmetry_space_group_name_H-M "P -1"
_symmetry_group_IT_number 2
_symmetry_cell_setting 'triclinic'
loop_
_space_group_symop_operation_xyz
x,y,z
-x,-y,-z
loop_
_atom_site_type_symbol
_atom_site_label
_atom_site_fract_x
_atom_site_fract_y
_atom_site_fract_z
Si Si1 0.713057 0.223640 0.931089
Si Si2 0.633276 0.412122 0.524284
Si Si3 0.291095 0.027610 0.440357
Si Si4 0.872469 0.743637 0.958757
Si Si5 0.895971 0.908011 0.736136
Si Si6 0.760648 0.364385 0.695340
Si Si7 0.295835 0.858507 0.849565
Si Si8 0.313398 0.900407 0.703512
O O1 0.867563 0.415065 0.914473
O O2 0.747779 0.002091 0.961698
O O3 0.750280 0.017822 0.841558
O O4 0.500000 0.500000 0.000000
O O5 0.500000 0.500000 0.500000
O O6 0.726628 0.071722 0.492827
O O7 0.461209 0.551153 0.631633
O O8 0.783821 0.608146 0.511621
O O9 0.202699 0.837606 0.395586
O O10 0.529552 0.958609 0.352669
O O11 0.109457 0.733325 0.897754
O O12 0.760128 0.860194 0.062655
O O13 0.899520 0.576769 0.687555
O O14 0.113883 0.931028 0.710825
O O15 0.806177 0.132414 0.720707
O O16 0.522982 0.603044 0.778927
O O17 0.277893 0.964474 0.791311
#
# Coordination Sequence:
#
# PCOD9012617 Si02
#       8
#     2   2   2   2   2   2   2   2
#     4  12  24  43  58  89 129 171 219 274 339 380
#     4  10  21  40  72 105 128 160 213 269 317 379
#     4  10  22  40  69  98 127 171 214 259 311 395
#     4  11  26  39  65  87 125 172 225 279 322 379
#     4  12  26  39  64  94 134 172 215 274 333 375
#     4  12  24  41  64  95 133 171 217 266 324 389
#     4  11  23  45  64  95 123 177 226 274 322 382
#     4  10  24  41  70  97 131 166 226 266 320 391
#
# _framework density 24.958480000000002
#
# number of rings (size 3 to 8) (size 9 to 14) (size 15 to 20)
#    0.750    0.250    2.500    4.500    3.500    4.000 
#    0.000    0.000    0.000    4.500    0.000    0.000 
#    0.000    0.000    0.000    0.000    0.000    0.000 
#
# Total GULP energy -89502.025983 kJ/mol
# GULP energy per Si atom -5593.876624 kJ/mol
# Density = 2.490167 g / cm^3
# Si number density = 24.958480 Si / 1000 Ang^3
#
#
#
# Elastic Constant Matrix: (Units=GPa)
#
#
# Indices 1 2 3 4 5 6 
#
# 1 80.2367 27.5145 30.3148 -6.0219 20.5742 1.7124
# 2 27.5145 135.6828 25.0815 -12.2355 25.2444 2.9456
# 3 30.3148 25.0815 106.4043 -7.5165 3.9266 4.0711
# 4 -6.0219 -12.2355 -7.5165 28.0186 -6.8024 9.2032
# 5 20.5742 25.2444 3.9266 -6.8024 37.7462 9.3765
# 6 1.7124 2.9456 4.0711 9.2032 9.3765 36.4852
#
#
#
# Elastic Compliance Matrix: (Units=1/GPa)
#
#
# Indices 1 2 3 4 5 6 
#
# 1 0.016535 -0.001100 -0.004282 -0.000872 -0.008536 0.002204
# 2 -0.001100 0.008962 -0.001486 0.001992 -0.004946 0.000263
# 3 -0.004282 -0.001486 0.011160 0.003083 0.003360 -0.002566
# 4 -0.000872 0.001992 0.003083 0.044435 0.010393 -0.014343
# 5 -0.008536 -0.004946 0.003360 0.010393 0.039013 -0.012223
# 6 0.002204 0.000263 -0.002566 -0.014343 -0.012223 0.034329
#
#
# Mechanical properties :
#
#
# Convention : Reuss Voigt Hill
#
# Bulk Modulus (GPa) = 43.62867 54.23837 48.93352
# Shear Modulus (GPa) = 28.43968 36.41086 32.42527
#
# Velocity S-wave (km/s) = 3.37928 3.82364 3.60831
# Velocity P-wave (km/s) = 5.72228 6.42435 6.08345
#
# Compressibility (1/GPa) = 0.02292071
#
# Stress axis : x y z
#
# Youngs Moduli (GPa) = 60.47950 111.58281 89.60220
#
# Poissons Ratio (x) = 0.12270 0.38372
# Poissons Ratio (y) = 0.06650 0.13315
# Poissons Ratio (z) = 0.25900 0.16582
#
# Static dielectric constant tensor:
#      x y z
#    x 2.084270 -0.030630 -0.036630 
#    y -0.030630 1.933100 0.032500 
#    z -0.036630 0.032500 1.984020 
# 
# From -- ./inp_files/584985.got.cif
#   From: 2010.05.17/outbox.cif.g08.bks.cpg/sg2_293_cif.got.tgz:584985.got - 2010.06.03 11:33:40.
