data_PCOD9012433
_publ_section_title
;
Structure prediction by ZEFSAII (Michael W. Deem and Ramdas Pophale) SiO2 
 PCOD9012433
Probable space group: P -1
;
_chemical_formula_sum "Si O2"
_cell_formula_units_Z 13
_cell_length_a 12.627628
_cell_length_b 9.145312
_cell_length_c 11.679276
_cell_angle_alpha 57.142786
_cell_angle_beta 35.994589
_cell_angle_gamma 84.333297
_cell_volume 482.513629
_symmetry_space_group_name_H-M "P -1"
_symmetry_group_IT_number 2
_symmetry_cell_setting 'triclinic'
loop_
_space_group_symop_operation_xyz
x,y,z
-x,-y,-z
loop_
_atom_site_type_symbol
_atom_site_label
_atom_site_fract_x
_atom_site_fract_y
_atom_site_fract_z
Si Si1 0.037054 0.983270 0.222436
Si Si2 0.118539 0.747706 0.733948
Si Si3 0.146906 0.526904 0.603141
Si Si4 0.735129 0.602460 0.825769
Si Si5 0.353372 0.990460 0.778970
Si Si6 0.590026 0.627737 0.580806
Si Si7 0.000000 0.500000 0.500000
O O1 0.053995 0.201414 0.114718
O O2 0.950208 0.868031 0.473320
O O3 0.823598 0.811887 0.385065
O O4 0.240250 0.976615 0.006948
O O5 0.397508 0.955451 0.451311
O O6 0.160606 0.715385 0.579838
O O7 0.000000 0.500000 0.000000
O O8 0.345686 0.512969 0.475524
O O9 0.188416 0.575780 0.410438
O O10 0.876135 0.257961 0.975870
O O11 0.819421 0.470230 0.765493
O O12 0.500000 0.500000 0.000000
O O13 0.647229 0.545011 0.056428
O O14 0.413975 0.211374 0.567953
#
# Coordination Sequence:
#
# PCOD9012433 Si02
#       7
#     2   2   2   2   2   2   1
#     4  10  22  44  68 102 146 180 240 285 346 423
#     4  12  28  44  69 113 143 178 238 292 346 425
#     4  11  25  46  73 104 139 185 240 288 346 423
#     4  10  21  40  70 102 135 181 237 287 339 416
#     4  11  24  47  74  98 143 192 225 289 359 405
#     4  10  21  42  74 102 140 188 235 288 347 420
#     4  12  22  44  74 100 138 190 234 284 358 406
#
# _framework density 26.942243999999999
#
# number of rings (size 3 to 8) (size 9 to 14) (size 15 to 20)
#    0.000    1.231    4.615    3.692    6.462    3.692 
#    0.000    3.846    0.000    0.000    0.000    0.000 
#    0.000    0.000    0.000    0.000    0.000    0.000 
#
# Total GULP energy -72618.856042 kJ/mol
# GULP energy per Si atom -5586.065849 kJ/mol
# Density = 2.688092 g / cm^3
# Si number density = 26.942244 Si / 1000 Ang^3
#
#
#
# Elastic Constant Matrix: (Units=GPa)
#
#
# Indices 1 2 3 4 5 6 
#
# 1 44.0419 -4.2381 -7.1314 12.8360 -6.7728 -1.0843
# 2 -4.2381 106.0749 5.7971 24.8146 -19.2186 -11.7921
# 3 -7.1314 5.7971 92.5600 21.4676 -3.5349 -0.2235
# 4 12.8360 24.8146 21.4676 35.4542 -12.7290 -10.1126
# 5 -6.7728 -19.2186 -3.5349 -12.7290 50.8193 9.1256
# 6 -1.0843 -11.7921 -0.2235 -10.1126 9.1256 49.8483
#
#
#
# Elastic Compliance Matrix: (Units=1/GPa)
#
#
# Indices 1 2 3 4 5 6 
#
# 1 0.029758 0.005230 0.006223 -0.018008 0.002253 -0.002153
# 2 0.005230 0.012635 0.002271 -0.010997 0.002813 0.000367
# 3 0.006223 0.002271 0.014149 -0.013033 -0.000258 -0.001861
# 4 -0.018008 -0.010997 -0.013033 0.054046 0.004809 0.007032
# 5 0.002253 0.002813 -0.000258 0.004809 0.022670 -0.002461
# 6 -0.002153 0.000367 -0.001861 0.007032 -0.002461 0.021970
#
#
# Mechanical properties :
#
#
# Convention : Reuss Voigt Hill
#
# Bulk Modulus (GPa) = 11.90618 25.72577 18.81597
# Shear Modulus (GPa) = 32.09685 43.77432 37.93559
#
# Velocity S-wave (km/s) = 3.45530 4.03519 3.75645
# Velocity P-wave (km/s) = 4.51082 5.59281 5.08070
#
# Compressibility (1/GPa) = 0.08399002
#
# Stress axis : x y z
#
# Youngs Moduli (GPa) = 33.60408 79.14344 70.67414
#
# Poissons Ratio (x) = -0.41395 -0.43978
# Poissons Ratio (y) = -0.17576 -0.16047
# Poissons Ratio (z) = -0.20910 -0.17970
#
# Static dielectric constant tensor:
#      x y z
#    x 2.517890 -0.112090 0.042770 
#    y -0.112090 2.179460 -0.106400 
#    z 0.042770 -0.106400 2.207080 
# 
# From -- ./inp_files/445728.got.cif
#   From: 2010.05.17/outbox.cif.g08.bks.cpg/sg2_223_cif.got.tgz:445728.got - 2010.06.03 11:33:40.
