data_PCOD9012579
_publ_section_title
;
Structure prediction by ZEFSAII (Michael W. Deem and Ramdas Pophale) SiO2 
 PCOD9012579
Probable space group: P -1
;
_chemical_formula_sum "Si O2"
_cell_formula_units_Z 16
_cell_length_a 25.930631
_cell_length_b 11.577379
_cell_length_c 8.751985
_cell_angle_alpha 142.061782
_cell_angle_beta 150.193305
_cell_angle_gamma 30.465834
_cell_volume 653.466076
_symmetry_space_group_name_H-M "P -1"
_symmetry_group_IT_number 2
_symmetry_cell_setting 'triclinic'
loop_
_space_group_symop_operation_xyz
x,y,z
-x,-y,-z
loop_
_atom_site_type_symbol
_atom_site_label
_atom_site_fract_x
_atom_site_fract_y
_atom_site_fract_z
Si Si1 0.566364 0.554585 0.364482
Si Si2 0.727800 0.577348 0.587346
Si Si3 0.373328 0.794097 0.590592
Si Si4 0.040599 0.751407 0.385493
Si Si5 0.202642 0.115649 0.247448
Si Si6 0.195509 0.214691 0.779302
Si Si7 0.086022 0.536395 0.585702
Si Si8 0.446908 0.075911 0.723584
O O1 0.701286 0.453137 0.520957
O O2 0.568213 0.445793 0.421237
O O3 0.510491 0.822499 0.546251
O O4 0.500000 0.500000 0.000000
O O5 0.851713 0.412988 0.632224
O O6 0.598395 0.727920 0.315822
O O7 0.741636 0.770027 0.893702
O O8 0.285767 0.866618 0.287724
O O9 0.277638 0.972192 0.658772
O O10 0.468154 0.875224 0.900269
O O11 0.098510 0.663614 0.610544
O O12 0.000000 0.000000 0.500000
O O13 0.900616 0.801147 0.065348
O O14 0.107662 0.308357 0.327896
O O15 0.312756 0.146570 0.521136
O O16 0.184286 0.409318 0.842149
O O17 0.053731 0.296188 0.532025
#
# Coordination Sequence:
#
# PCOD9012579 Si02
#       8
#     2   2   2   2   2   2   2   2
#     4  12  26  42  67 100 137 181 231 283 335 404
#     4  12  23  44  70  99 135 182 231 275 341 411
#     4  11  25  45  67 105 138 177 233 285 341 404
#     4  12  27  43  67 104 141 177 225 283 347 411
#     4  11  24  45  70  96 136 181 227 280 347 414
#     4  10  21  40  71  95 131 177 228 275 337 405
#     4  10  21  43  66  95 130 180 221 273 341 406
#     4  12  24  45  73  97 137 186 229 280 347 403
#
# _framework density 24.484819999999999
#
# number of rings (size 3 to 8) (size 9 to 14) (size 15 to 20)
#    0.000    0.750    5.000    2.625    3.500    1.500 
#    0.000    1.250    0.000    0.000    0.000    0.000 
#    0.000    0.000    0.000    0.000    0.000    0.000 
#
# Total GULP energy -89174.406495 kJ/mol
# GULP energy per Si atom -5573.400406 kJ/mol
# Density = 2.442909 g / cm^3
# Si number density = 24.484820 Si / 1000 Ang^3
#
#
#
# Elastic Constant Matrix: (Units=GPa)
#
#
# Indices 1 2 3 4 5 6 
#
# 1 98.6699 30.1539 8.4684 -2.4902 24.0974 8.4016
# 2 30.1539 107.4451 20.0282 -12.2941 11.8075 6.6168
# 3 8.4684 20.0282 50.1713 -6.1451 7.4469 4.7019
# 4 -2.4902 -12.2941 -6.1451 16.7838 3.5281 -0.3515
# 5 24.0974 11.8075 7.4469 3.5281 26.8201 -5.9145
# 6 8.4016 6.6168 4.7019 -0.3515 -5.9145 49.0295
#
#
#
# Elastic Compliance Matrix: (Units=1/GPa)
#
#
# Indices 1 2 3 4 5 6 
#
# 1 0.014479 -0.002092 0.001296 0.003916 -0.013837 -0.003964
# 2 -0.002092 0.011853 -0.002648 0.008213 -0.003995 -0.001410
# 3 0.001296 -0.002648 0.023316 0.008462 -0.008256 -0.003036
# 4 0.003916 0.008213 0.008462 0.073414 -0.020132 -0.004493
# 5 -0.013837 -0.003995 -0.008256 -0.020132 0.058765 0.010646
# 6 -0.003964 -0.001410 -0.003036 -0.004493 0.010646 0.022809
#
#
# Mechanical properties :
#
#
# Convention : Reuss Voigt Hill
#
# Bulk Modulus (GPa) = 23.38578 41.50969 32.44774
# Shear Modulus (GPa) = 22.14583 31.70239 26.92411
#
# Velocity S-wave (km/s) = 3.01071 3.60221 3.31966
# Velocity P-wave (km/s) = 4.65378 5.85587 5.28909
#
# Compressibility (1/GPa) = 0.04276102
#
# Stress axis : x y z
#
# Youngs Moduli (GPa) = 69.06761 84.36407 42.88873
#
# Poissons Ratio (x) = 0.17651 -0.05560
# Poissons Ratio (y) = 0.14450 0.11355
# Poissons Ratio (z) = -0.08953 0.22336
#
# Static dielectric constant tensor:
#      x y z
#    x 2.022110 0.072180 -0.065180 
#    y 0.072180 1.963890 -0.006190 
#    z -0.065180 -0.006190 1.335920 
# 
# From -- ./inp_files/285759.got.cif
#   From: 2010.05.17/outbox.cif.g08.bks.cpg/sg2_143_cif.got.tgz:285759.got - 2010.06.03 11:33:40.
