data_PCOD9012167
_publ_section_title
;
Structure prediction by ZEFSAII (Michael W. Deem and Ramdas Pophale) SiO2 
 PCOD9012167
Probable space group: P -1
;
_chemical_formula_sum "Si O2"
_cell_formula_units_Z 16
_cell_length_a 18.225874
_cell_length_b 16.452759
_cell_length_c 10.639104
_cell_angle_alpha 127.734065
_cell_angle_beta 139.814121
_cell_angle_gamma 22.531643
_cell_volume 730.084582
_symmetry_space_group_name_H-M "P -1"
_symmetry_group_IT_number 2
_symmetry_cell_setting 'triclinic'
loop_
_space_group_symop_operation_xyz
x,y,z
-x,-y,-z
loop_
_atom_site_type_symbol
_atom_site_label
_atom_site_fract_x
_atom_site_fract_y
_atom_site_fract_z
Si Si1 0.825104 0.468370 0.793315
Si Si2 0.833415 0.398520 0.460660
Si Si3 0.564590 0.795355 0.372020
Si Si4 0.217943 0.705068 0.282554
Si Si5 0.422694 0.958833 0.786554
Si Si6 0.113896 0.043108 0.136134
Si Si7 0.640134 0.884939 0.769684
Si Si8 0.094676 0.863837 0.798171
O O1 0.738442 0.516376 0.582541
O O2 0.867508 0.324832 0.779661
O O3 0.617870 0.706330 0.817291
O O4 0.094636 0.308291 0.997752
O O5 0.735086 0.556449 0.375594
O O6 0.138854 0.157272 0.637776
O O7 0.761311 0.340009 0.280458
O O8 0.693513 0.777682 0.611195
O O9 0.299957 0.978541 0.266137
O O10 0.496187 0.900390 0.249178
O O11 0.500000 0.500000 0.500000
O O12 0.062206 0.937025 0.313558
O O13 0.153119 0.732999 0.077372
O O14 0.459112 0.964936 0.696403
O O15 0.500000 0.000000 0.000000
O O16 0.075118 0.060411 0.249070
O O17 0.223090 0.846892 0.037711
#
# Coordination Sequence:
#
# PCOD9012167 Si02
#       8
#     2   2   2   2   2   2   2   2
#     4  12  24  44  69  95 139 174 217 277 327 387
#     4  12  25  40  68 100 127 183 220 265 333 393
#     4  11  23  40  68  94 131 174 221 269 328 390
#     4  10  21  40  68  98 128 173 217 271 334 382
#     4  12  24  42  66  96 135 170 222 269 329 387
#     4   9  20  43  64  90 133 169 211 276 322 385
#     4  11  22  44  66  95 131 177 219 272 328 385
#     4   9  21  41  64  94 132 167 220 264 332 386
#
# _framework density 21.915271000000001
#
# number of rings (size 3 to 8) (size 9 to 14) (size 15 to 20)
#    0.750    0.500    3.750    2.625    1.750    1.500 
#    2.250    0.000    0.000    0.000    0.000    0.000 
#    0.000    0.000    0.000    0.000    0.000    0.000 
#
# Total GULP energy -89267.967845 kJ/mol
# GULP energy per Si atom -5579.247990 kJ/mol
# Density = 2.186539 g / cm^3
# Si number density = 21.915271 Si / 1000 Ang^3
#
#
#
# Elastic Constant Matrix: (Units=GPa)
#
#
# Indices 1 2 3 4 5 6 
#
# 1 70.6653 10.9674 -4.3320 -9.6868 1.3637 24.6785
# 2 10.9674 110.9550 24.0624 -2.2005 -15.8971 24.3984
# 3 -4.3320 24.0624 67.8142 9.9719 -1.5841 -1.4744
# 4 -9.6868 -2.2005 9.9719 30.6813 4.0766 -0.7764
# 5 1.3637 -15.8971 -1.5841 4.0766 20.5229 -6.6683
# 6 24.6785 24.3984 -1.4744 -0.7764 -6.6683 38.4119
#
#
#
# Elastic Compliance Matrix: (Units=1/GPa)
#
#
# Indices 1 2 3 4 5 6 
#
# 1 0.020180 0.000340 -0.000354 0.007100 -0.007159 -0.014294
# 2 0.000340 0.012557 -0.004645 0.001442 0.006727 -0.007176
# 3 -0.000354 -0.004645 0.017341 -0.006010 0.000177 0.003752
# 4 0.007100 0.001442 -0.006010 0.037988 -0.009506 -0.006591
# 5 -0.007159 0.006727 0.000177 -0.009506 0.059730 0.010510
# 6 -0.014294 -0.007176 0.003752 -0.006591 0.010510 0.041610
#
#
# Mechanical properties :
#
#
# Convention : Reuss Voigt Hill
#
# Bulk Modulus (GPa) = 24.53285 34.53667 29.53476
# Shear Modulus (GPa) = 23.55055 32.50566 28.02811
#
# Velocity S-wave (km/s) = 3.28169 3.85547 3.58009
# Velocity P-wave (km/s) = 5.05748 5.96765 5.53132
#
# Compressibility (1/GPa) = 0.04076167
#
# Stress axis : x y z
#
# Youngs Moduli (GPa) = 49.55358 79.63907 57.66665
#
# Poissons Ratio (x) = -0.02710 0.02040
# Poissons Ratio (y) = -0.01686 0.26784
# Poissons Ratio (z) = 0.01753 0.36990
#
# Static dielectric constant tensor:
#      x y z
#    x 1.805360 0.023390 0.003250 
#    y 0.023390 1.839730 0.006980 
#    z 0.003250 0.006980 1.850090 
# 
# From -- ./inp_files/472248.got.cif
#   From: 2010.05.17/outbox.cif.g08.bks.cpg/sg2_237_cif.got.tgz:472248.got - 2010.06.03 11:33:40.
