data_PCOD9012796
_publ_section_title
;
Structure prediction by ZEFSAII (Michael W. Deem and Ramdas Pophale) SiO2 
 PCOD9012796
Probable space group: P -1
;
_chemical_formula_sum "Si O2"
_cell_formula_units_Z 16
_cell_length_a 11.043058
_cell_length_b 7.325968
_cell_length_c 11.865154
_cell_angle_alpha 123.850013
_cell_angle_beta 58.373574
_cell_angle_gamma 102.912776
_cell_volume 675.599353
_symmetry_space_group_name_H-M "P -1"
_symmetry_group_IT_number 2
_symmetry_cell_setting 'triclinic'
loop_
_space_group_symop_operation_xyz
x,y,z
-x,-y,-z
loop_
_atom_site_type_symbol
_atom_site_label
_atom_site_fract_x
_atom_site_fract_y
_atom_site_fract_z
Si Si1 0.957028 0.302816 0.036426
Si Si2 0.616878 0.707087 0.854506
Si Si3 0.610105 0.253087 0.607131
Si Si4 0.538454 0.776654 0.554098
Si Si5 0.875293 0.998076 0.288965
Si Si6 0.348915 0.877337 0.893722
Si Si7 0.155991 0.359634 0.633765
Si Si8 0.912040 0.736631 0.600448
O O1 0.804506 0.215847 0.049762
O O2 0.932526 0.413318 0.208870
O O3 0.000000 0.500000 0.000000
O O4 0.081539 0.103733 0.888512
O O5 0.623972 0.441479 0.757204
O O6 0.462939 0.783934 0.901414
O O7 0.748110 0.748916 0.722504
O O8 0.647649 0.857164 0.998832
O O9 0.495434 0.308876 0.583523
O O10 0.752217 0.190200 0.441262
O O11 0.573477 0.029236 0.606889
O O12 0.415033 0.798691 0.714587
O O13 0.679659 0.630958 0.477247
O O14 0.014949 0.080601 0.304566
O O15 0.833495 0.794840 0.315045
O O16 0.082407 0.240619 0.528374
O O17 0.000000 0.500000 0.500000
#
# Coordination Sequence:
#
# PCOD9012796 Si02
#       8
#     2   2   2   2   2   2   2   2
#     4  10  22  40  63  94 125 160 208 260 312 368
#     4  11  23  39  62  94 127 165 207 261 313 362
#     4  10  22  41  63  93 129 162 204 262 314 366
#     4  10  22  41  66  92 124 165 210 256 312 375
#     4  10  21  41  61  87 128 164 203 253 312 374
#     4  11  23  40  66  92 124 167 213 257 306 379
#     4  10  22  40  64  90 119 168 210 250 311 375
#     4  12  22  39  62  92 124 163 208 259 310 366
#
# _framework density 23.682673999999999
#
# number of rings (size 3 to 8) (size 9 to 14) (size 15 to 20)
#    0.000    1.500    3.750    1.125    1.750    2.500 
#    2.250    1.250    0.000    0.000    0.000    0.000 
#    0.000    0.000    0.000    0.000    0.000    0.000 
#
# Total GULP energy -89363.899550 kJ/mol
# GULP energy per Si atom -5585.243722 kJ/mol
# Density = 2.362877 g / cm^3
# Si number density = 23.682674 Si / 1000 Ang^3
#
#
#
# Elastic Constant Matrix: (Units=GPa)
#
#
# Indices 1 2 3 4 5 6 
#
# 1 48.6551 17.0410 10.4658 -3.6803 -2.1538 16.8353
# 2 17.0410 98.4654 39.3775 14.1362 -2.7699 28.9081
# 3 10.4658 39.3775 124.4081 18.6249 2.7539 4.5544
# 4 -3.6803 14.1362 18.6249 37.2154 9.6617 1.1825
# 5 -2.1538 -2.7699 2.7539 9.6617 35.3606 4.5794
# 6 16.8353 28.9081 4.5544 1.1825 4.5794 34.4491
#
#
#
# Elastic Compliance Matrix: (Units=1/GPa)
#
#
# Indices 1 2 3 4 5 6 
#
# 1 0.025841 -0.000395 -0.002182 0.003584 0.002345 -0.012443
# 2 -0.000395 0.016808 -0.004112 -0.005177 0.004819 -0.013831
# 3 -0.002182 -0.004112 0.009946 -0.003558 -0.000700 0.003417
# 4 0.003584 -0.005177 -0.003558 0.033318 -0.009425 0.003173
# 5 0.002345 0.004819 -0.000700 -0.009425 0.032610 -0.009108
# 6 -0.012443 -0.013831 0.003417 0.003173 -0.009108 0.047366
#
#
# Mechanical properties :
#
#
# Convention : Reuss Voigt Hill
#
# Bulk Modulus (GPa) = 25.49889 45.03304 35.26597
# Shear Modulus (GPa) = 25.99578 35.04798 30.52188
#
# Velocity S-wave (km/s) = 3.31671 3.85112 3.59386
# Velocity P-wave (km/s) = 5.04556 6.23148 5.66961
#
# Compressibility (1/GPa) = 0.03921739
#
# Stress axis : x y z
#
# Youngs Moduli (GPa) = 38.69830 59.49551 100.54022
#
# Poissons Ratio (x) = 0.02350 0.21935
# Poissons Ratio (y) = 0.01529 0.41343
# Poissons Ratio (z) = 0.08443 0.24465
#
# Static dielectric constant tensor:
#      x y z
#    x 1.928020 0.004320 -0.037100 
#    y 0.004320 1.958260 0.024410 
#    z -0.037100 0.024410 1.922260 
# 
# From -- ./inp_files/278084.got.cif
#   From: 2010.05.17/outbox.cif.g08.bks.cpg/sg2_140_cif.got.tgz:278084.got - 2010.06.03 11:33:40.
