data_PCOD9012309
_publ_section_title
;
Structure prediction by ZEFSAII (Michael W. Deem and Ramdas Pophale) SiO2 
 PCOD9012309
Probable space group: P -1
;
_chemical_formula_sum "Si O2"
_cell_formula_units_Z 15
_cell_length_a 7.760746
_cell_length_b 17.863909
_cell_length_c 11.161940
_cell_angle_alpha 33.587688
_cell_angle_beta 54.658208
_cell_angle_gamma 42.450742
_cell_volume 575.089148
_symmetry_space_group_name_H-M "P -1"
_symmetry_group_IT_number 2
_symmetry_cell_setting 'triclinic'
loop_
_space_group_symop_operation_xyz
x,y,z
-x,-y,-z
loop_
_atom_site_type_symbol
_atom_site_label
_atom_site_fract_x
_atom_site_fract_y
_atom_site_fract_z
Si Si1 0.901970 0.177899 0.350928
Si Si2 0.378424 0.157817 0.113009
Si Si3 0.221726 0.742897 0.355743
Si Si4 0.289145 0.623112 0.067725
Si Si5 0.500000 0.000000 0.000000
Si Si6 0.877770 0.111613 0.045947
Si Si7 0.193374 0.493103 0.837187
Si Si8 0.417188 0.320436 0.528960
O O1 0.694167 0.226500 0.472794
O O2 0.741155 0.330209 0.120407
O O3 0.000000 0.000000 0.500000
O O4 0.174942 0.154097 0.284385
O O5 0.420177 0.078209 0.071607
O O6 0.267002 0.350748 0.903036
O O7 0.653057 0.082217 0.167294
O O8 0.097004 0.661750 0.581993
O O9 0.510667 0.635981 0.431256
O O10 0.170482 0.766570 0.204815
O O11 0.130863 0.930703 0.172026
O O12 0.556088 0.562700 0.107919
O O13 0.235973 0.487667 0.305667
O O14 0.106262 0.804043 0.956939
O O15 0.358070 0.186790 0.752992
O O16 0.000000 0.500000 0.000000
#
# Coordination Sequence:
#
# PCOD9012309 Si02
#       8
#     2   2   2   2   1   2   2   2
#     4  12  24  44  66  94 133 179 218 270 333 397
#     4  11  24  41  66  98 133 171 219 271 327 393
#     4  10  21  40  69  92 128 171 217 275 334 389
#     4  10  24  41  69  94 126 175 223 272 331 388
#     4  12  24  42  66  98 140 174 222 266 338 392
#     4  10  22  41  67  98 126 166 226 273 332 390
#     4  10  23  44  68  96 133 169 226 276 328 390
#     4  11  23  43  67  93 137 175 221 269 332 397
#
# _framework density 26.082913000000001
#
# number of rings (size 3 to 8) (size 9 to 14) (size 15 to 20)
#    0.000    1.333    2.667    2.800    1.867    2.667 
#    2.400    4.000    0.000    0.000    0.000    0.000 
#    0.000    0.000    0.000    0.000    0.000    0.000 
#
# Total GULP energy -83559.887326 kJ/mol
# GULP energy per Si atom -5570.659155 kJ/mol
# Density = 2.602355 g / cm^3
# Si number density = 26.082913 Si / 1000 Ang^3
#
#
#
# Elastic Constant Matrix: (Units=GPa)
#
#
# Indices 1 2 3 4 5 6 
#
# 1 64.4571 17.2710 19.6464 2.7391 8.3479 -12.1013
# 2 17.2710 80.3550 0.9114 -0.0804 -11.6860 17.2488
# 3 19.6464 0.9114 155.1508 -5.3116 3.7311 -0.2268
# 4 2.7391 -0.0804 -5.3116 51.0355 6.2578 -7.0473
# 5 8.3479 -11.6860 3.7311 6.2578 34.6305 -0.5036
# 6 -12.1013 17.2488 -0.2268 -7.0473 -0.5036 51.9269
#
#
#
# Elastic Compliance Matrix: (Units=1/GPa)
#
#
# Indices 1 2 3 4 5 6 
#
# 1 0.020237 -0.006824 -0.002330 0.000471 -0.006914 0.006970
# 2 -0.006824 0.016513 0.000531 -0.001444 0.007316 -0.007198
# 3 -0.002330 0.000531 0.006766 0.000765 -0.000135 -0.000587
# 4 0.000471 -0.001444 0.000765 0.020644 -0.004365 0.003352
# 5 -0.006914 0.007316 -0.000135 -0.004365 0.033752 -0.004307
# 6 0.006970 -0.007198 -0.000587 0.003352 -0.004307 0.023684
#
#
# Mechanical properties :
#
#
# Convention : Reuss Voigt Hill
#
# Bulk Modulus (GPa) = 38.06602 41.73561 39.90082
# Shear Modulus (GPa) = 33.87564 44.99417 39.43491
#
# Velocity S-wave (km/s) = 3.60775 4.15787 3.89254
# Velocity P-wave (km/s) = 5.65512 6.25191 5.96099
#
# Compressibility (1/GPa) = 0.02627015
#
# Stress axis : x y z
#
# Youngs Moduli (GPa) = 49.41509 60.55752 147.80125
#
# Poissons Ratio (x) = 0.41326 0.34436
# Poissons Ratio (y) = 0.33722 -0.07852
# Poissons Ratio (z) = 0.11513 -0.03217
#
# Static dielectric constant tensor:
#      x y z
#    x 2.209400 -0.039340 -0.045130 
#    y -0.039340 2.208700 0.053550 
#    z -0.045130 0.053550 2.014620 
# 
# From -- ./inp_files/405247.got.cif
#   From: 2010.05.17/outbox.cif.g08.bks.cpg/sg2_203_cif.got.tgz:405247.got - 2010.06.03 11:33:40.
