data_PCOD9012250
_publ_section_title
;
Structure prediction by ZEFSAII (Michael W. Deem and Ramdas Pophale) SiO2 
 PCOD9012250
Probable space group: P -1
;
_chemical_formula_sum "Si O2"
_cell_formula_units_Z 14
_cell_length_a 7.310178
_cell_length_b 10.944963
_cell_length_c 11.989207
_cell_angle_alpha 119.379960
_cell_angle_beta 120.301871
_cell_angle_gamma 107.069009
_cell_volume 501.447344
_symmetry_space_group_name_H-M "P -1"
_symmetry_group_IT_number 2
_symmetry_cell_setting 'triclinic'
loop_
_space_group_symop_operation_xyz
x,y,z
-x,-y,-z
loop_
_atom_site_type_symbol
_atom_site_label
_atom_site_fract_x
_atom_site_fract_y
_atom_site_fract_z
Si Si1 0.974335 0.652783 0.053535
Si Si2 0.649950 0.788218 0.819127
Si Si3 0.776583 0.548310 0.698664
Si Si4 0.207716 0.012536 0.656338
Si Si5 0.753831 0.223593 0.580036
Si Si6 0.540186 0.390308 0.075303
Si Si7 0.776839 0.187909 0.245125
O O1 0.191227 0.806430 0.290231
O O2 0.000000 0.500000 0.000000
O O3 0.649557 0.556510 0.954486
O O4 0.976245 0.678669 0.932458
O O5 0.602800 0.615427 0.670358
O O6 0.583266 0.735297 0.904791
O O7 0.000000 0.000000 0.000000
O O8 0.625170 0.322944 0.577880
O O9 0.995103 0.644099 0.701795
O O10 0.387673 0.777301 0.709277
O O11 0.361883 0.960896 0.611466
O O12 0.433832 0.230896 0.878291
O O13 0.000000 0.000000 0.500000
O O14 0.103676 0.412952 0.729969
O O15 0.073463 0.862281 0.654512
O O16 0.500000 0.000000 0.000000
#
# Coordination Sequence:
#
# PCOD9012250 Si02
#       7
#     2   2   2   2   2   2   2
#     4   9  20  36  66  97 140 188 238 291 349 428
#     4  11  21  39  75 106 138 188 245 291 355 433
#     4  10  21  40  69 102 138 186 245 293 354 430
#     4  12  26  42  72 111 146 186 247 302 358 438
#     4  11  22  43  73 104 144 191 238 299 365 429
#     4  11  21  42  71 101 140 197 237 286 371 426
#     4  12  22  44  73 105 143 194 238 294 368 430
#
# _framework density 27.919180999999998
#
# number of rings (size 3 to 8) (size 9 to 14) (size 15 to 20)
#    0.000    1.143    5.714    0.429    0.000    0.571 
#    0.000    0.714   15.714   18.000    0.000    0.000 
#    0.000    0.000    0.000    0.000    0.000    0.000 
#
# Total GULP energy -78335.754864 kJ/mol
# GULP energy per Si atom -5595.411062 kJ/mol
# Density = 2.785564 g / cm^3
# Si number density = 27.919181 Si / 1000 Ang^3
#
#
#
# Elastic Constant Matrix: (Units=GPa)
#
#
# Indices 1 2 3 4 5 6 
#
# 1 203.4922 67.8402 52.9214 10.2926 -18.6536 -17.4493
# 2 67.8402 168.8823 19.7946 -15.4611 -2.2975 0.5743
# 3 52.9214 19.7946 149.6103 -0.1346 -37.0610 12.3730
# 4 10.2926 -15.4611 -0.1346 18.6087 -2.4269 -5.2470
# 5 -18.6536 -2.2975 -37.0610 -2.4269 49.3135 8.0212
# 6 -17.4493 0.5743 12.3730 -5.2470 8.0212 67.7559
#
#
#
# Elastic Compliance Matrix: (Units=1/GPa)
#
#
# Indices 1 2 3 4 5 6 
#
# 1 0.006975 -0.003096 -0.002123 -0.005920 0.000329 0.001713
# 2 -0.003096 0.007913 -0.000026 0.008185 -0.000390 -0.000180
# 3 -0.002123 -0.000026 0.009363 0.001269 0.006776 -0.002960
# 4 -0.005920 0.008185 0.001269 0.064900 0.001804 0.002986
# 5 0.000329 -0.000390 0.006776 0.001804 0.026235 -0.004116
# 6 0.001713 -0.000180 -0.002960 0.002986 -0.004116 0.016461
#
#
# Mechanical properties :
#
#
# Convention : Reuss Voigt Hill
#
# Bulk Modulus (GPa) = 72.67611 89.23302 80.95457
# Shear Modulus (GPa) = 34.03091 52.56418 43.29755
#
# Velocity S-wave (km/s) = 3.49507 4.34375 3.94231
# Velocity P-wave (km/s) = 6.50959 7.56228 7.05560
#
# Compressibility (1/GPa) = 0.01375968
#
# Stress axis : x y z
#
# Youngs Moduli (GPa) = 143.36762 126.37702 106.80225
#
# Poissons Ratio (x) = 0.39131 0.22676
# Poissons Ratio (y) = 0.44392 0.00278
# Poissons Ratio (z) = 0.30440 0.00330
#
# Static dielectric constant tensor:
#      x y z
#    x 2.202390 -0.092170 0.031490 
#    y -0.092170 2.365120 -0.150540 
#    z 0.031490 -0.150540 2.254640 
# 
# From -- ./inp_files/388261.got.cif
#   From: 2010.05.17/outbox.cif.g08.bks.cpg/sg2_195_cif.got.tgz:388261.got - 2010.06.03 11:33:40.
