data_PCOD9012177
_publ_section_title
;
Structure prediction by ZEFSAII (Michael W. Deem and Ramdas Pophale) SiO2 
 PCOD9012177
Probable space group: P -1
;
_chemical_formula_sum "Si O2"
_cell_formula_units_Z 13
_cell_length_a 7.636316
_cell_length_b 12.019410
_cell_length_c 11.073381
_cell_angle_alpha 62.723381
_cell_angle_beta 115.203509
_cell_angle_gamma 138.851134
_cell_volume 588.724608
_symmetry_space_group_name_H-M "P -1"
_symmetry_group_IT_number 2
_symmetry_cell_setting 'triclinic'
loop_
_space_group_symop_operation_xyz
x,y,z
-x,-y,-z
loop_
_atom_site_type_symbol
_atom_site_label
_atom_site_fract_x
_atom_site_fract_y
_atom_site_fract_z
Si Si1 0.554262 0.823412 0.413352
Si Si2 0.229061 0.460657 0.430967
Si Si3 0.500000 0.500000 0.000000
Si Si4 0.407710 0.936569 0.868335
Si Si5 0.870507 0.566748 0.868556
Si Si6 0.768080 0.890524 0.887335
Si Si7 0.073270 0.910984 0.412054
O O1 0.304576 0.617744 0.450022
O O2 0.812738 0.863544 0.416582
O O3 0.490216 0.902375 0.260241
O O4 0.664658 0.935338 0.510793
O O5 0.500000 0.500000 0.500000
O O6 0.183833 0.474298 0.269757
O O7 0.993821 0.266167 0.507855
O O8 0.613416 0.490567 0.908942
O O9 0.666837 0.706162 0.921297
O O10 0.527901 0.864736 0.884076
O O11 0.089784 0.775922 0.841931
O O12 0.500000 0.000000 0.000000
O O13 0.000000 0.500000 0.000000
O O14 0.881691 0.014494 0.743363
O O15 0.000000 0.000000 0.000000
#
# Coordination Sequence:
#
# PCOD9012177 Si02
#       7
#     2   2   1   2   2   2   2
#     4  10  21  40  68  98 134 188 234 295 361 431
#     4  10  23  41  74 101 144 192 241 299 367 439
#     4  12  28  44  74 108 146 188 248 304 370 434
#     4  12  24  46  69 103 148 190 243 308 367 435
#     4  12  24  47  73 109 147 194 249 302 369 437
#     4  12  28  45  71 106 145 189 247 306 368 444
#     4  10  22  42  67 100 138 184 244 291 364 437
#
# _framework density 22.081631999999999
#
# number of rings (size 3 to 8) (size 9 to 14) (size 15 to 20)
#    0.000    0.923    3.077    3.692    8.615    0.615 
#    0.000    0.769    0.000    0.000    0.000    0.000 
#    0.000    0.000    0.000    0.000    0.000    0.000 
#
# Total GULP energy -72451.415974 kJ/mol
# GULP energy per Si atom -5573.185844 kJ/mol
# Density = 2.203137 g / cm^3
# Si number density = 22.081632 Si / 1000 Ang^3
#
#
#
# Elastic Constant Matrix: (Units=GPa)
#
#
# Indices 1 2 3 4 5 6 
#
# 1 41.9464 32.6816 7.4320 -8.4195 -4.1486 -3.0722
# 2 32.6816 192.4504 88.8550 -13.6970 -5.2409 -28.1742
# 3 7.4320 88.8550 173.2577 -1.0266 3.8484 -4.7789
# 4 -8.4195 -13.6970 -1.0266 38.2843 2.7958 4.9492
# 5 -4.1486 -5.2409 3.8484 2.7958 30.4501 -10.6905
# 6 -3.0722 -28.1742 -4.7789 4.9492 -10.6905 33.6212
#
#
#
# Elastic Compliance Matrix: (Units=1/GPa)
#
#
# Indices 1 2 3 4 5 6 
#
# 1 0.028794 -0.005500 0.001523 0.004525 0.001707 -0.001885
# 2 -0.005500 0.009589 -0.004548 0.000736 0.004264 0.008134
# 3 0.001523 -0.004548 0.008005 -0.000449 -0.002715 -0.003332
# 4 0.004525 0.000736 -0.000449 0.028150 -0.003265 -0.004215
# 5 0.001707 0.004264 -0.002715 -0.003265 0.040290 0.016635
# 6 -0.001885 0.008134 -0.003332 -0.004215 0.016635 0.041823
#
#
# Mechanical properties :
#
#
# Convention : Reuss Voigt Hill
#
# Bulk Modulus (GPa) = 34.08647 73.95462 54.02054
# Shear Modulus (GPa) = 27.25057 39.05018 33.15038
#
# Velocity S-wave (km/s) = 3.51676 4.20985 3.87882
# Velocity P-wave (km/s) = 5.65334 7.56271 6.67663
#
# Compressibility (1/GPa) = 0.02933715
#
# Stress axis : x y z
#
# Youngs Moduli (GPa) = 34.72889 104.28280 124.92821
#
# Poissons Ratio (x) = 0.57358 -0.19021
# Poissons Ratio (y) = 0.19102 0.56816
# Poissons Ratio (z) = -0.05288 0.47427
#
# Static dielectric constant tensor:
#      x y z
#    x 1.803180 -0.023950 -0.005060 
#    y -0.023950 1.829620 -0.023470 
#    z -0.005060 -0.023470 1.765050 
# 
# From -- ./inp_files/176819.got.cif
#   From: 2010.05.17/outbox.cif.g08.bks.cpg/sg2_89_cif.got.tgz:176819.got - 2010.06.03 11:33:40.
