data_PCOD9012109
_publ_section_title
;
Structure prediction by ZEFSAII (Michael W. Deem and Ramdas Pophale) SiO2 
 PCOD9012109
Probable space group: P -1
;
_chemical_formula_sum "Si O2"
_cell_formula_units_Z 12
_cell_length_a 11.180611
_cell_length_b 14.288260
_cell_length_c 8.547509
_cell_angle_alpha 151.192149
_cell_angle_beta 46.562477
_cell_angle_gamma 134.319996
_cell_volume 459.370829
_symmetry_space_group_name_H-M "P -1"
_symmetry_group_IT_number 2
_symmetry_cell_setting 'triclinic'
loop_
_space_group_symop_operation_xyz
x,y,z
-x,-y,-z
loop_
_atom_site_type_symbol
_atom_site_label
_atom_site_fract_x
_atom_site_fract_y
_atom_site_fract_z
Si Si1 0.311708 0.177257 0.498528
Si Si2 0.628647 0.435899 0.403070
Si Si3 0.522963 0.156344 0.568863
Si Si4 0.167239 0.822792 0.894583
Si Si5 0.218784 0.555812 0.038288
Si Si6 0.084167 0.351872 0.370433
O O1 0.500745 0.266328 0.375502
O O2 0.367119 0.172452 0.622581
O O3 0.195356 0.319679 0.749306
O O4 0.208900 0.958432 0.207835
O O5 0.500000 0.500000 0.500000
O O6 0.749171 0.380640 0.078728
O O7 0.743063 0.639398 0.681893
O O8 0.665081 0.101764 0.251333
O O9 0.500000 0.000000 0.500000
O O10 0.618535 0.362004 0.872082
O O11 0.144278 0.584841 0.596063
O O12 0.998007 0.810241 0.924888
O O13 0.069797 0.643136 0.367053
#
# Coordination Sequence:
#
# PCOD9012109 Si02
#       6
#     2   2   2   2   2   2
#     4  11  22  41  66  94 129 166 219 263 310 379
#     4  10  21  40  68  96 123 167 211 264 313 378
#     4  11  22  38  65  98 125 171 219 263 312 376
#     4  10  22  39  67  89 124 175 209 255 323 370
#     4  10  23  39  64  97 130 166 208 264 326 368
#     4  10  21  41  66  91 133 166 211 256 326 381
#
# _framework density 26.122686000000002
#
# number of rings (size 3 to 8) (size 9 to 14) (size 15 to 20)
#    0.000    1.667    1.667    2.500    2.333    0.667 
#    0.000    3.333    0.000    0.000    0.000    0.000 
#    0.000    0.000    0.000    0.000    0.000    0.000 
#
# Total GULP energy -67043.791135 kJ/mol
# GULP energy per Si atom -5586.982595 kJ/mol
# Density = 2.606323 g / cm^3
# Si number density = 26.122686 Si / 1000 Ang^3
#
#
#
# Elastic Constant Matrix: (Units=GPa)
#
#
# Indices 1 2 3 4 5 6 
#
# 1 134.4773 22.1395 30.5087 6.7289 30.7112 11.0800
# 2 22.1395 96.2751 10.0191 -16.2117 -0.5610 -13.3398
# 3 30.5087 10.0191 57.5248 15.1809 30.3469 0.9510
# 4 6.7289 -16.2117 15.1809 30.1873 3.6764 3.2743
# 5 30.7112 -0.5610 30.3469 3.6764 47.2175 4.4299
# 6 11.0800 -13.3398 0.9510 3.2743 4.4299 52.3932
#
#
#
# Elastic Compliance Matrix: (Units=1/GPa)
#
#
# Indices 1 2 3 4 5 6 
#
# 1 0.009638 -0.002751 -0.001385 -0.002080 -0.005046 -0.002157
# 2 -0.002751 0.013881 -0.006327 0.010307 0.004920 0.003171
# 3 -0.001385 -0.006327 0.034577 -0.018130 -0.020068 0.000884
# 4 -0.002080 0.010307 -0.018130 0.047125 0.009491 -0.000354
# 5 -0.005046 0.004920 -0.020068 0.009491 0.036774 -0.001018
# 6 -0.002157 0.003171 0.000884 -0.000354 -0.001018 0.020442
#
#
# Mechanical properties :
#
#
# Convention : Reuss Voigt Hill
#
# Bulk Modulus (GPa) = 26.90328 45.95686 36.43007
# Shear Modulus (GPa) = 25.54237 41.00029 33.27133
#
# Velocity S-wave (km/s) = 3.13035 3.96602 3.57270
# Velocity P-wave (km/s) = 4.83597 6.21316 5.56731
#
# Compressibility (1/GPa) = 0.03717018
#
# Stress axis : x y z
#
# Youngs Moduli (GPa) = 103.76015 72.03900 28.92068
#
# Poissons Ratio (x) = 0.19815 0.04007
# Poissons Ratio (y) = 0.28540 0.18298
# Poissons Ratio (z) = 0.14376 0.45579
#
# Static dielectric constant tensor:
#      x y z
#    x 2.283570 -0.042920 0.056640 
#    y -0.042920 2.247810 -0.013030 
#    z 0.056640 -0.013030 2.269490 
# 
# From -- ./inp_files/155083.got.cif
#   From: 2010.05.17/outbox.cif.g08.bks.cpg/sg2_78_cif.got.tgz:155083.got - 2010.06.03 11:33:40.
