data_PCOD9012222
_publ_section_title
;
Structure prediction by ZEFSAII (Michael W. Deem and Ramdas Pophale) SiO2 
 PCOD9012222
Probable space group: P -1
;
_chemical_formula_sum "Si O2"
_cell_formula_units_Z 16
_cell_length_a 20.767061
_cell_length_b 26.324650
_cell_length_c 13.525826
_cell_angle_alpha 164.358260
_cell_angle_beta 157.369230
_cell_angle_gamma 17.747992
_cell_volume 606.184759
_symmetry_space_group_name_H-M "P -1"
_symmetry_group_IT_number 2
_symmetry_cell_setting 'triclinic'
loop_
_space_group_symop_operation_xyz
x,y,z
-x,-y,-z
loop_
_atom_site_type_symbol
_atom_site_label
_atom_site_fract_x
_atom_site_fract_y
_atom_site_fract_z
Si Si1 0.662970 0.024952 0.220618
Si Si2 0.762154 0.144501 0.397548
Si Si3 0.038170 0.500262 0.804309
Si Si4 0.853639 0.422412 0.698038
Si Si5 0.597693 0.692616 0.181932
Si Si6 0.320203 0.776500 0.789180
Si Si7 0.795065 0.024055 0.705965
Si Si8 0.686945 0.471800 0.330713
O O1 0.895463 0.790088 0.137706
O O2 0.668824 0.041437 0.140134
O O3 0.552103 0.301029 0.603363
O O4 0.500000 0.000000 0.000000
O O5 0.651530 0.429492 0.781294
O O6 0.764965 0.093742 0.190973
O O7 0.000000 0.000000 0.500000
O O8 0.170233 0.427138 0.957550
O O9 0.178987 0.386571 0.692336
O O10 0.865490 0.458035 0.496332
O O11 0.818783 0.244267 0.369761
O O12 0.733240 0.493912 0.555604
O O13 0.101668 0.241008 0.680447
O O14 0.443110 0.839809 0.146200
O O15 0.429309 0.859513 0.340585
O O16 0.500000 0.500000 0.500000
O O17 0.723588 0.227991 0.909056
O O18 0.000000 0.000000 0.000000
#
# Coordination Sequence:
#
# PCOD9012222 Si02
#       8
#     2   2   2   2   2   2   2   2
#     4  10  20  34  53  81 115 144 179 227 284 325
#     4  11  18  31  54  81 110 137 189 229 272 314
#     4  11  22  34  57  87 112 137 188 241 269 316
#     4  11  19  36  57  86 109 142 189 232 266 331
#     4  11  19  34  55  81 111 143 186 227 270 333
#     4  10  17  29  55  79 107 137 184 230 267 313
#     4  10  20  35  59  77 113 151 184 217 282 337
#     4  10  20  36  56  80 113 150 176 224 289 326
#
# _framework density 26.394590999999998
#
# number of rings (size 3 to 8) (size 9 to 14) (size 15 to 20)
#    0.000    1.500    7.500    1.125    0.000    0.000 
#    0.000    3.125    0.000    0.000    0.000    6.125 
#    0.000    0.000    0.000    0.000    0.000    0.000 
#
# Total GULP energy -89096.504224 kJ/mol
# GULP energy per Si atom -5568.531514 kJ/mol
# Density = 2.633452 g / cm^3
# Si number density = 26.394591 Si / 1000 Ang^3
#
#
#
# Elastic Constant Matrix: (Units=GPa)
#
#
# Indices 1 2 3 4 5 6 
#
# 1 183.2496 62.8129 10.4396 -8.9048 33.0554 -13.4916
# 2 62.8129 117.3092 16.7016 14.3090 -2.5038 -0.5877
# 3 10.4396 16.7016 41.8647 10.3299 2.4924 2.0787
# 4 -8.9048 14.3090 10.3299 25.8989 -5.4385 1.2495
# 5 33.0554 -2.5038 2.4924 -5.4385 32.1925 8.6058
# 6 -13.4916 -0.5877 2.0787 1.2495 8.6058 62.4924
#
#
#
# Elastic Compliance Matrix: (Units=1/GPa)
#
#
# Indices 1 2 3 4 5 6 
#
# 1 0.010009 -0.006029 -0.000762 0.004628 -0.010849 0.003531
# 2 -0.006029 0.013053 -0.002320 -0.006854 0.006733 -0.001892
# 3 -0.000762 -0.002320 0.027873 -0.010759 -0.003253 -0.000450
# 4 0.004628 -0.006854 -0.010759 0.049112 0.003906 -0.000227
# 5 -0.010849 0.006733 -0.003253 0.003906 0.045931 -0.008574
# 6 0.003531 -0.001892 -0.000450 -0.000227 -0.008574 0.017947
#
#
# Mechanical properties :
#
#
# Convention : Reuss Voigt Hill
#
# Bulk Modulus (GPa) = 30.56843 58.03685 44.30264
# Shear Modulus (GPa) = 25.89995 40.94807 33.42401
#
# Velocity S-wave (km/s) = 3.13591 3.94303 3.56240
# Velocity P-wave (km/s) = 4.97175 6.53956 5.80880
#
# Compressibility (1/GPa) = 0.03271349
#
# Stress axis : x y z
#
# Youngs Moduli (GPa) = 99.91032 76.60859 35.87748
#
# Poissons Ratio (x) = 0.46189 0.02733
# Poissons Ratio (y) = 0.60238 0.08323
# Poissons Ratio (z) = 0.07612 0.17771
#
# Static dielectric constant tensor:
#      x y z
#    x 2.337060 -0.064440 0.029300 
#    y -0.064440 2.147820 -0.004270 
#    z 0.029300 -0.004270 2.246120 
# 
# From -- ./inp_files/541875.got.cif
#   From: 2010.05.17/outbox.cif.g08.bks.cpg/sg2_271_cif.got.tgz:541875.got - 2010.06.03 11:33:40.
