data_PCOD9012862
_publ_section_title
;
Structure prediction by ZEFSAII (Michael W. Deem and Ramdas Pophale) SiO2 
 PCOD9012862
Probable space group: P -1
;
_chemical_formula_sum "Si O2"
_cell_formula_units_Z 16
_cell_length_a 11.034450
_cell_length_b 8.501979
_cell_length_c 14.389910
_cell_angle_alpha 47.876753
_cell_angle_beta 115.130047
_cell_angle_gamma 130.408285
_cell_volume 762.303585
_symmetry_space_group_name_H-M "P -1"
_symmetry_group_IT_number 2
_symmetry_cell_setting 'triclinic'
loop_
_space_group_symop_operation_xyz
x,y,z
-x,-y,-z
loop_
_atom_site_type_symbol
_atom_site_label
_atom_site_fract_x
_atom_site_fract_y
_atom_site_fract_z
Si Si1 0.687167 0.611475 0.531421
Si Si2 0.120493 0.325790 0.157875
Si Si3 0.051129 0.428254 0.288305
Si Si4 0.695482 0.647152 0.310133
Si Si5 0.137640 0.616167 0.575532
Si Si6 0.323385 0.936232 0.963909
Si Si7 0.072323 0.877254 0.013443
Si Si8 0.666181 0.831172 0.621486
O O1 0.500000 0.500000 0.500000
O O2 0.769792 0.469893 0.655862
O O3 0.753128 0.685938 0.420020
O O4 0.725852 0.805528 0.549528
O O5 0.032936 0.269629 0.251950
O O6 0.240867 0.232972 0.247718
O O7 0.006155 0.192564 0.086655
O O8 0.213065 0.628826 0.048327
O O9 0.933681 0.335564 0.374369
O O10 0.031139 0.637747 0.153788
O O11 0.806388 0.579865 0.315058
O O12 0.518352 0.393328 0.344334
O O13 0.685113 0.886302 0.186276
O O14 0.000000 0.500000 0.500000
O O15 0.282722 0.880230 0.475270
O O16 0.260712 0.015632 0.001145
O O17 0.500000 0.000000 0.000000
O O18 0.000000 0.000000 0.000000
#
# Coordination Sequence:
#
# PCOD9012862 Si02
#       8
#     2   2   2   2   2   2   2   2
#     4   9  20  37  62  93 124 171 215 265 321 384
#     4  10  23  44  70  95 129 179 218 272 325 392
#     4  10  21  41  61  94 132 171 221 262 324 390
#     4  11  22  42  67  95 134 172 215 274 330 385
#     4  12  25  40  64 100 135 173 215 272 332 389
#     4  11  22  42  70  98 131 174 226 266 321 400
#     4  11  25  42  68  99 135 172 218 276 337 386
#     4  10  23  41  66  92 135 169 221 266 331 391
#
# _framework density 20.989014000000001
#
# number of rings (size 3 to 8) (size 9 to 14) (size 15 to 20)
#    0.000    1.500    2.500    2.625    5.250    4.000 
#    0.000    0.625    2.750    0.000    0.000    0.000 
#    0.000    0.000    0.000    0.000    0.000    0.000 
#
# Total GULP energy -89087.052987 kJ/mol
# GULP energy per Si atom -5567.940812 kJ/mol
# Density = 2.094124 g / cm^3
# Si number density = 20.989014 Si / 1000 Ang^3
#
#
#
# Elastic Constant Matrix: (Units=GPa)
#
#
# Indices 1 2 3 4 5 6 
#
# 1 143.2965 42.7546 41.6829 13.6560 10.7386 -3.9004
# 2 42.7546 64.8110 55.6578 1.1495 2.8547 10.3140
# 3 41.6829 55.6578 125.7720 18.1384 18.7682 1.8436
# 4 13.6560 1.1495 18.1384 21.4305 -2.1350 -0.0205
# 5 10.7386 2.8547 18.7682 -2.1350 43.4130 -2.2819
# 6 -3.9004 10.3140 1.8436 -0.0205 -2.2819 21.0098
#
#
#
# Elastic Compliance Matrix: (Units=1/GPa)
#
#
# Indices 1 2 3 4 5 6 
#
# 1 0.010320 -0.009515 0.002362 -0.008362 -0.003042 0.006041
# 2 -0.009515 0.039518 -0.018069 0.019972 0.007564 -0.018740
# 3 0.002362 -0.018069 0.018734 -0.017181 -0.007984 0.006781
# 4 -0.008362 0.019972 -0.017181 0.066549 0.011004 -0.008589
# 5 -0.003042 0.007564 -0.007984 0.011004 0.027250 -0.000607
# 6 0.006041 -0.018740 0.006781 -0.008589 -0.000607 0.057249
#
#
# Mechanical properties :
#
#
# Convention : Reuss Voigt Hill
#
# Bulk Modulus (GPa) = 55.16454 68.23000 61.69727
# Shear Modulus (GPa) = 18.10897 30.08963 24.09930
#
# Velocity S-wave (km/s) = 2.94050 3.79038 3.39217
# Velocity P-wave (km/s) = 6.15373 7.19264 6.69337
#
# Compressibility (1/GPa) = 0.01812759
#
# Stress axis : x y z
#
# Youngs Moduli (GPa) = 96.90156 25.30477 53.37955
#
# Poissons Ratio (x) = 0.24078 -0.12608
# Poissons Ratio (y) = 0.92203 0.96451
# Poissons Ratio (z) = -0.22887 0.45723
#
# Static dielectric constant tensor:
#      x y z
#    x 1.867490 -0.004920 0.006980 
#    y -0.004920 1.790730 -0.033990 
#    z 0.006980 -0.033990 1.790680 
# 
# From -- ./inp_files/512810.got.cif
#   From: 2010.05.17/outbox.cif.g08.bks.cpg/sg2_257_cif.got.tgz:512810.got - 2010.06.03 11:33:40.
