data_PCOD9012498
_publ_section_title
;
Structure prediction by ZEFSAII (Michael W. Deem and Ramdas Pophale) SiO2 
 PCOD9012498
Probable space group: P -1
;
_chemical_formula_sum "Si O2"
_cell_formula_units_Z 14
_cell_length_a 17.612697
_cell_length_b 9.168235
_cell_length_c 11.383296
_cell_angle_alpha 75.563479
_cell_angle_beta 30.730106
_cell_angle_gamma 54.904884
_cell_volume 622.880152
_symmetry_space_group_name_H-M "P -1"
_symmetry_group_IT_number 2
_symmetry_cell_setting 'triclinic'
loop_
_space_group_symop_operation_xyz
x,y,z
-x,-y,-z
loop_
_atom_site_type_symbol
_atom_site_label
_atom_site_fract_x
_atom_site_fract_y
_atom_site_fract_z
Si Si1 0.045846 0.079183 0.813498
Si Si2 0.898300 0.371187 0.739078
Si Si3 0.955024 0.433837 0.404168
Si Si4 0.329988 0.025480 0.850944
Si Si5 0.492771 0.689031 0.881217
Si Si6 0.829621 0.757674 0.210123
Si Si7 0.558552 0.297530 0.795620
O O1 0.248535 0.859738 0.519139
O O2 0.094208 0.202685 0.788643
O O3 0.899815 0.239386 0.862263
O O4 0.000000 0.000000 0.000000
O O5 0.952467 0.315033 0.539027
O O6 0.055419 0.390162 0.566613
O O7 0.652548 0.612157 0.004798
O O8 0.744408 0.556919 0.580284
O O9 0.179012 0.256691 0.071679
O O10 0.205661 0.099490 0.879226
O O11 0.342866 0.873254 0.946532
O O12 0.582895 0.880768 0.528384
O O13 0.504674 0.506946 0.864792
O O14 0.402756 0.800307 0.107420
O O15 0.000000 0.500000 0.000000
#
# Coordination Sequence:
#
# PCOD9012498 Si02
#       7
#     2   2   2   2   2   2   2
#     4  12  27  41  64  95 135 177 214 266 322 396
#     4  10  22  42  65  95 129 167 213 278 326 387
#     4  10  21  40  70  96 123 164 223 274 328 379
#     4  11  22  39  70  90 123 171 219 266 320 384
#     4  10  22  41  69  96 128 169 212 277 321 395
#     4  11  26  44  62  95 133 173 223 266 316 391
#     4  10  24  43  63  97 134 166 216 266 337 379
#
# _framework density 22.476234000000002
#
# number of rings (size 3 to 8) (size 9 to 14) (size 15 to 20)
#    0.000    1.429    0.000    4.286    6.000    1.714 
#    0.000   10.000    0.000    0.000    0.000    0.000 
#    0.000    0.000    0.000    0.000    0.000    0.000 
#
# Total GULP energy -78027.851154 kJ/mol
# GULP energy per Si atom -5573.417940 kJ/mol
# Density = 2.242508 g / cm^3
# Si number density = 22.476234 Si / 1000 Ang^3
#
#
#
# Elastic Constant Matrix: (Units=GPa)
#
#
# Indices 1 2 3 4 5 6 
#
# 1 115.9739 41.8049 28.4288 -2.0855 6.4025 -26.0536
# 2 41.8049 85.9692 14.3813 -4.6951 7.3721 -45.0573
# 3 28.4288 14.3813 106.8597 1.9633 30.3251 -10.3995
# 4 -2.0855 -4.6951 1.9633 14.0694 1.5208 0.9874
# 5 6.4025 7.3721 30.3251 1.5208 37.5980 -7.5644
# 6 -26.0536 -45.0573 -10.3995 0.9874 -7.5644 55.2397
#
#
#
# Elastic Compliance Matrix: (Units=1/GPa)
#
#
# Indices 1 2 3 4 5 6 
#
# 1 0.011061 -0.004313 -0.002612 0.000323 0.001334 0.001384
# 2 -0.004313 0.022630 -0.000306 0.005865 -0.000433 0.016203
# 3 -0.002612 -0.000306 0.012895 -0.001188 -0.009926 -0.000392
# 4 0.000323 0.005865 -0.001188 0.073314 -0.002599 0.003046
# 5 0.001334 -0.000433 -0.009926 -0.002599 0.035226 0.003277
# 6 0.001384 0.016203 -0.000392 0.003046 0.003277 0.032292
#
#
# Mechanical properties :
#
#
# Convention : Reuss Voigt Hill
#
# Bulk Modulus (GPa) = 31.13021 53.11474 42.12248
# Shear Modulus (GPa) = 23.51970 36.32728 29.92349
#
# Velocity S-wave (km/s) = 3.23836 4.02463 3.65271
# Velocity P-wave (km/s) = 5.27854 6.72901 6.04742
#
# Compressibility (1/GPa) = 0.03212314
#
# Stress axis : x y z
#
# Youngs Moduli (GPa) = 90.41031 44.18905 77.55068
#
# Poissons Ratio (x) = 0.19059 0.20256
# Poissons Ratio (y) = 0.38995 0.02374
# Poissons Ratio (z) = 0.23615 0.01353
#
# Static dielectric constant tensor:
#      x y z
#    x 1.813440 -0.054520 0.027720 
#    y -0.054520 1.910700 -0.064890 
#    z 0.027720 -0.064890 1.845990 
# 
# From -- ./inp_files/405710.got.cif
#   From: 2010.05.17/outbox.cif.g08.bks.cpg/sg2_203_cif.got.tgz:405710.got - 2010.06.03 11:33:40.
