data_PCOD9012146
_publ_section_title
;
Structure prediction by ZEFSAII (Michael W. Deem and Ramdas Pophale) SiO2 
 PCOD9012146
Probable space group: P -1
;
_chemical_formula_sum "Si O2"
_cell_formula_units_Z 16
_cell_length_a 11.435838
_cell_length_b 8.090190
_cell_length_c 17.535333
_cell_angle_alpha 131.039051
_cell_angle_beta 43.642885
_cell_angle_gamma 137.253651
_cell_volume 732.361594
_symmetry_space_group_name_H-M "P -1"
_symmetry_group_IT_number 2
_symmetry_cell_setting 'triclinic'
loop_
_space_group_symop_operation_xyz
x,y,z
-x,-y,-z
loop_
_atom_site_type_symbol
_atom_site_label
_atom_site_fract_x
_atom_site_fract_y
_atom_site_fract_z
Si Si1 0.036214 0.416335 0.874156
Si Si2 0.468170 0.511357 0.709132
Si Si3 0.749611 0.270656 0.624471
Si Si4 0.648529 0.012436 0.870201
Si Si5 0.966598 0.192574 0.122797
Si Si6 0.651763 0.417123 0.870930
Si Si7 0.822803 0.530626 0.508429
Si Si8 0.369187 0.965380 0.651596
O O1 0.863332 0.139303 0.846188
O O2 0.014103 0.597919 0.880854
O O3 0.256581 0.472297 0.777393
O O4 0.000000 0.500000 0.000000
O O5 0.655645 0.603396 0.592616
O O6 0.559528 0.729388 0.795854
O O7 0.415532 0.229692 0.672694
O O8 0.645530 0.333520 0.761425
O O9 0.811756 0.473066 0.587259
O O10 0.949806 0.284917 0.561330
O O11 0.580723 0.008950 0.589470
O O12 0.645437 0.193681 0.858918
O O13 0.500000 0.000000 0.000000
O O14 0.138400 0.332402 0.144468
O O15 0.762495 0.072527 0.224735
O O16 0.000000 0.000000 0.000000
O O17 0.500000 0.500000 0.000000
O O18 0.750188 0.269511 0.418472
#
# Coordination Sequence:
#
# PCOD9012146 Si02
#       8
#     2   2   2   2   2   2   2   2
#     4  11  24  43  64  94 135 177 215 270 343 394
#     4  11  24  41  67  95 131 177 217 269 337 384
#     4  10  21  40  68  97 132 169 224 271 328 381
#     4  11  26  42  63  97 140 168 221 269 332 410
#     4  11  24  41  65 101 133 168 224 278 327 403
#     4  11  25  41  68 100 131 175 219 276 338 387
#     4  10  23  44  67 101 133 174 230 271 324 401
#     4  11  23  42  71  99 132 169 233 275 322 396
#
# _framework density 21.847132999999999
#
# number of rings (size 3 to 8) (size 9 to 14) (size 15 to 20)
#    0.000    1.250    2.500    3.000    8.750    5.000 
#    0.000    1.250    2.750    0.000    0.000    0.000 
#    0.000    0.000    0.000    0.000    0.000    0.000 
#
# Total GULP energy -89294.533363 kJ/mol
# GULP energy per Si atom -5580.908335 kJ/mol
# Density = 2.179741 g / cm^3
# Si number density = 21.847133 Si / 1000 Ang^3
#
#
#
# Elastic Constant Matrix: (Units=GPa)
#
#
# Indices 1 2 3 4 5 6 
#
# 1 76.5291 35.3518 33.9318 -1.7116 -5.9415 38.3421
# 2 35.3518 74.0237 29.2367 -6.4496 -7.6909 42.9770
# 3 33.9318 29.2367 119.6491 -10.1166 -1.9395 14.3681
# 4 -1.7116 -6.4496 -10.1166 38.9862 6.1373 0.4141
# 5 -5.9415 -7.6909 -1.9395 6.1373 36.8496 -12.2661
# 6 38.3421 42.9770 14.3681 0.4141 -12.2661 41.7906
#
#
#
# Elastic Compliance Matrix: (Units=1/GPa)
#
#
# Indices 1 2 3 4 5 6 
#
# 1 0.028869 0.008357 -0.005943 0.002405 -0.005896 -0.034792
# 2 0.008357 0.040567 -0.005797 0.007417 -0.008341 -0.049915
# 3 -0.005943 -0.005797 0.010625 0.001321 0.000831 0.007992
# 4 0.002405 0.007417 0.001321 0.028553 -0.006948 -0.012611
# 5 -0.005896 -0.008341 0.000831 -0.006948 0.033504 0.023604
# 6 -0.034792 -0.049915 0.007992 -0.012611 0.023604 0.111488
#
#
# Mechanical properties :
#
#
# Convention : Reuss Voigt Hill
#
# Bulk Modulus (GPa) = 13.64339 51.91582 32.77960
# Shear Modulus (GPa) = 17.55589 34.97072 26.26331
#
# Velocity S-wave (km/s) = 2.83782 4.00522 3.47095
# Velocity P-wave (km/s) = 4.12264 6.72338 5.57674
#
# Compressibility (1/GPa) = 0.07329558
#
# Stress axis : x y z
#
# Youngs Moduli (GPa) = 34.63911 24.65047 94.11578
#
# Poissons Ratio (x) = -0.20601 0.55936
# Poissons Ratio (y) = -0.28949 0.54557
# Poissons Ratio (z) = 0.20587 0.14289
#
# Static dielectric constant tensor:
#      x y z
#    x 1.882380 0.043220 -0.041940 
#    y 0.043220 1.809420 -0.015560 
#    z -0.041940 -0.015560 1.798760 
# 
# From -- ./inp_files/567040.got.cif
#   From: 2010.05.17/outbox.cif.g08.bks.cpg/sg2_284_cif.got.tgz:567040.got - 2010.06.03 11:33:40.
