data_PCOD9012910
_publ_section_title
;
Structure prediction by ZEFSAII (Michael W. Deem and Ramdas Pophale) SiO2 
 PCOD9012910
Probable space group: P -1
;
_chemical_formula_sum "Si O2"
_cell_formula_units_Z 14
_cell_length_a 10.902154
_cell_length_b 7.937470
_cell_length_c 9.250437
_cell_angle_alpha 51.097598
_cell_angle_beta 90.162087
_cell_angle_gamma 81.472253
_cell_volume 611.261578
_symmetry_space_group_name_H-M "P -1"
_symmetry_group_IT_number 2
_symmetry_cell_setting 'triclinic'
loop_
_space_group_symop_operation_xyz
x,y,z
-x,-y,-z
loop_
_atom_site_type_symbol
_atom_site_label
_atom_site_fract_x
_atom_site_fract_y
_atom_site_fract_z
Si Si1 0.218164 0.762591 0.846421
Si Si2 0.453557 0.827710 0.984318
Si Si3 0.974712 0.802048 0.432880
Si Si4 0.196891 0.489276 0.514697
Si Si5 0.385742 0.571160 0.673414
Si Si6 0.596118 0.975762 0.645151
Si Si7 0.177473 0.382346 0.255409
O O1 0.313449 0.858645 0.903381
O O2 0.300737 0.674907 0.753087
O O3 0.100166 0.950558 0.703089
O O4 0.171332 0.564003 0.035131
O O5 0.542348 0.842163 0.839980
O O6 0.490991 0.583046 0.182927
O O7 0.500000 0.000000 0.000000
O O8 0.899241 0.678408 0.383181
O O9 0.947787 0.687862 0.645826
O O10 0.118218 0.729559 0.429470
O O11 0.310471 0.424267 0.657259
O O12 0.230022 0.473210 0.354860
O O13 0.401841 0.769957 0.460231
O O14 0.728836 0.838197 0.672087
O O15 0.500000 0.000000 0.500000
#
# Coordination Sequence:
#
# PCOD9012910 Si02
#       7
#     2   2   2   2   2   2   2
#     4  12  22  40  64  90 124 161 202 256 301 360
#     4  12  27  40  60  95 125 159 204 252 304 367
#     4   9  20  44  64  86 126 160 201 253 306 351
#     4   9  22  42  64  90 123 161 204 253 297 365
#     4  12  23  40  63  92 124 160 204 248 306 359
#     4  12  23  41  63  86 127 167 199 249 307 358
#     4  10  21  41  62  89 118 165 204 243 308 355
#
# _framework density 22.903454
#
# number of rings (size 3 to 8) (size 9 to 14) (size 15 to 20)
#    0.857    0.286    4.286    2.143    4.000    1.714 
#    0.000    0.714    0.000    0.000    0.000    0.000 
#    0.000    0.000    0.000    0.000    0.000    0.000 
#
# Total GULP energy -78190.008571 kJ/mol
# GULP energy per Si atom -5585.000612 kJ/mol
# Density = 2.285132 g / cm^3
# Si number density = 22.903454 Si / 1000 Ang^3
#
#
#
# Elastic Constant Matrix: (Units=GPa)
#
#
# Indices 1 2 3 4 5 6 
#
# 1 42.5448 15.2652 21.9491 -1.4364 4.7442 4.7239
# 2 15.2652 59.0902 15.2633 -11.6340 -0.3644 -3.7366
# 3 21.9491 15.2633 80.2428 -19.4445 -14.5113 -8.3862
# 4 -1.4364 -11.6340 -19.4445 33.7700 5.9569 8.1937
# 5 4.7442 -0.3644 -14.5113 5.9569 12.2572 2.6766
# 6 4.7239 -3.7366 -8.3862 8.1937 2.6766 35.5328
#
#
#
# Elastic Compliance Matrix: (Units=1/GPa)
#
#
# Indices 1 2 3 4 5 6 
#
# 1 0.038618 -0.006949 -0.016384 -0.002987 -0.031645 -0.006659
# 2 -0.006949 0.020114 -0.000359 0.006126 -0.000459 0.001576
# 3 -0.016384 -0.000359 0.024799 0.006936 0.031441 0.004026
# 4 -0.002987 0.006126 0.006936 0.038326 -0.007861 -0.005567
# 5 -0.031645 -0.000459 0.031441 -0.007861 0.134145 0.003287
# 6 -0.006659 0.001576 0.004026 -0.005567 0.003287 0.031180
#
#
# Mechanical properties :
#
#
# Convention : Reuss Voigt Hill
#
# Bulk Modulus (GPa) = 27.66465 31.87035 29.76750
# Shear Modulus (GPa) = 14.42517 24.93866 19.68192
#
# Velocity S-wave (km/s) = 2.51235 3.30337 2.93463
# Velocity P-wave (km/s) = 4.53000 5.33807 4.95055
#
# Compressibility (1/GPa) = 0.03614721
#
# Stress axis : x y z
#
# Youngs Moduli (GPa) = 25.89469 49.71642 40.32350
#
# Poissons Ratio (x) = 0.34547 0.66067
# Poissons Ratio (y) = 0.17994 0.01448
# Poissons Ratio (z) = 0.42426 0.01785
#
# Static dielectric constant tensor:
#      x y z
#    x 0.095260 -3.410450 -2.178430 
#    y -3.410450 -4.669370 -4.107890 
#    z -2.178430 -4.107890 -0.665280 
# 
# From -- ./inp_files/242053.got.cif
#   From: 2010.05.17/outbox.cif.g08.bks.cpg/sg2_122_cif.got.tgz:242053.got - 2010.06.03 11:33:40.
