data_PCOD9012141
_publ_section_title
;
Structure prediction by ZEFSAII (Michael W. Deem and Ramdas Pophale) SiO2 
 PCOD9012141
Probable space group: P -1
;
_chemical_formula_sum "Si O2"
_cell_formula_units_Z 16
_cell_length_a 22.197615
_cell_length_b 16.357859
_cell_length_c 8.542061
_cell_angle_alpha 145.117742
_cell_angle_beta 29.493945
_cell_angle_gamma 156.338355
_cell_volume 608.657191
_symmetry_space_group_name_H-M "P -1"
_symmetry_group_IT_number 2
_symmetry_cell_setting 'triclinic'
loop_
_space_group_symop_operation_xyz
x,y,z
-x,-y,-z
loop_
_atom_site_type_symbol
_atom_site_label
_atom_site_fract_x
_atom_site_fract_y
_atom_site_fract_z
Si Si1 0.127126 0.008960 0.326816
Si Si2 0.384882 0.236148 0.363167
Si Si3 0.452225 0.380147 0.758719
Si Si4 0.635815 0.247945 0.617287
Si Si5 0.916994 0.811605 0.772604
Si Si6 0.634132 0.260936 0.288075
Si Si7 0.252557 0.872572 0.610760
Si Si8 0.125313 0.788048 0.429552
O O1 0.004837 0.823021 0.432690
O O2 0.253296 0.186386 0.449195
O O3 0.240905 0.004212 0.950502
O O4 0.000000 0.000000 0.500000
O O5 0.456736 0.402626 0.594249
O O6 0.266816 0.017439 0.385392
O O7 0.534140 0.274982 0.996203
O O8 0.574153 0.342353 0.445024
O O9 0.500000 0.500000 0.000000
O O10 0.243238 0.233265 0.005981
O O11 0.667245 0.334123 0.508089
O O12 0.783542 0.290003 0.449667
O O13 0.500000 0.000000 0.500000
O O14 0.936771 0.688821 0.644223
O O15 0.000000 0.000000 0.000000
O O16 0.449612 0.018340 0.326995
O O17 0.796316 0.299975 0.932181
O O18 0.133310 0.798091 0.614200
#
# Coordination Sequence:
#
# PCOD9012141 Si02
#       8
#     2   2   2   2   2   2   2   2
#     4  11  20  29  52  88 119 149 183 245 306 349
#     4  11  19  34  56  86 120 148 195 246 296 348
#     4  12  26  42  59  83 123 171 205 236 293 369
#     4  10  17  29  54  89 122 139 186 256 308 342
#     4  11  21  38  59  88 120 151 199 256 304 352
#     4  11  19  35  58  87 123 154 200 244 300 352
#     4  11  18  29  54  92 125 139 185 249 316 343
#     4  11  19  32  61  94 114 150 191 258 301 345
#
# _framework density 26.287375999999998
#
# number of rings (size 3 to 8) (size 9 to 14) (size 15 to 20)
#    0.000    1.000    8.750    3.375    0.000    0.000 
#    0.000    1.250    0.000    0.000    0.000    3.500 
#    0.000    0.000    0.000    0.000    0.000    0.000 
#
# Total GULP energy -89197.173912 kJ/mol
# GULP energy per Si atom -5574.823370 kJ/mol
# Density = 2.622754 g / cm^3
# Si number density = 26.287376 Si / 1000 Ang^3
#
#
#
# Elastic Constant Matrix: (Units=GPa)
#
#
# Indices 1 2 3 4 5 6 
#
# 1 212.1573 41.9165 40.1950 8.7935 -3.1557 61.1567
# 2 41.9165 55.0176 14.8998 3.7635 -4.6566 24.4627
# 3 40.1950 14.8998 143.9803 -6.7731 4.2714 15.4566
# 4 8.7935 3.7635 -6.7731 27.9879 10.7490 0.0100
# 5 -3.1557 -4.6566 4.2714 10.7490 63.9565 -0.7883
# 6 61.1567 24.4627 15.4566 0.0100 -0.7883 48.5075
#
#
#
# Elastic Compliance Matrix: (Units=1/GPa)
#
#
# Indices 1 2 3 4 5 6 
#
# 1 0.007922 -0.001518 -0.001266 -0.002872 0.000739 -0.008806
# 2 -0.001518 0.024634 -0.001307 -0.004056 0.002364 -0.010054
# 3 -0.001266 -0.001307 0.007624 0.002860 -0.001150 -0.000193
# 4 -0.002872 -0.004056 0.002860 0.040715 -0.007414 0.004626
# 5 0.000739 0.002364 -0.001150 -0.007414 0.017149 -0.001477
# 6 -0.008806 -0.010054 -0.000193 0.004626 -0.001477 0.036824
#
#
# Mechanical properties :
#
#
# Convention : Reuss Voigt Hill
#
# Bulk Modulus (GPa) = 31.25311 67.24197 49.24754
# Shear Modulus (GPa) = 32.52753 49.03331 40.78042
#
# Velocity S-wave (km/s) = 3.52146 4.32357 3.94297
# Velocity P-wave (km/s) = 5.33377 7.11052 6.28524
#
# Compressibility (1/GPa) = 0.03199681
#
# Stress axis : x y z
#
# Youngs Moduli (GPa) = 126.23578 40.59387 131.17334
#
# Poissons Ratio (x) = 0.06162 0.16608
# Poissons Ratio (y) = 0.19164 0.17146
# Poissons Ratio (z) = 0.15983 0.05306
#
# Static dielectric constant tensor:
#      x y z
#    x 2.116810 -0.146880 0.032770 
#    y -0.146880 2.426220 -0.052300 
#    z 0.032770 -0.052300 2.070660 
# 
# From -- ./inp_files/349737.got.cif
#   From: 2010.05.17/outbox.cif.g08.bks.cpg/sg2_175_cif.got.tgz:349737.got - 2010.06.03 11:33:40.
