data_PCOD9012295
_publ_section_title
;
Structure prediction by ZEFSAII (Michael W. Deem and Ramdas Pophale) SiO2 
 PCOD9012295
Probable space group: P -1
;
_chemical_formula_sum "Si O2"
_cell_formula_units_Z 14
_cell_length_a 9.237755
_cell_length_b 9.846567
_cell_length_c 14.059331
_cell_angle_alpha 64.300104
_cell_angle_beta 98.147787
_cell_angle_gamma 44.310909
_cell_volume 560.171015
_symmetry_space_group_name_H-M "P -1"
_symmetry_group_IT_number 2
_symmetry_cell_setting 'triclinic'
loop_
_space_group_symop_operation_xyz
x,y,z
-x,-y,-z
loop_
_atom_site_type_symbol
_atom_site_label
_atom_site_fract_x
_atom_site_fract_y
_atom_site_fract_z
Si Si1 0.075075 0.896665 0.366162
Si Si2 0.195975 0.086083 0.412186
Si Si3 0.422985 0.614659 0.088811
Si Si4 0.721189 0.846860 0.798777
Si Si5 0.330166 0.298765 0.927174
Si Si6 0.784078 0.101505 0.816295
Si Si7 0.821204 0.812865 0.409433
O O1 0.731322 0.255854 0.207357
O O2 0.249208 0.779874 0.321540
O O3 0.180188 0.920537 0.448731
O O4 0.045644 0.748931 0.430329
O O5 0.358361 0.004897 0.358096
O O6 0.289796 0.054430 0.533670
O O7 0.867469 0.451411 0.252458
O O8 0.453033 0.758589 0.008018
O O9 0.135169 0.790165 0.968725
O O10 0.372818 0.678011 0.177609
O O11 0.069433 0.495603 0.919265
O O12 0.694755 0.008919 0.819409
O O13 0.477617 0.935322 0.758267
O O14 0.500000 0.000000 0.000000
O O15 0.000000 0.500000 0.500000
#
# Coordination Sequence:
#
# PCOD9012295 Si02
#       7
#     2   2   2   2   2   2   2
#     4  10  22  43  67  92 127 177 223 269 326 397
#     4   8  20  44  64  88 133 174 217 267 318 391
#     4  10  21  40  69  90 135 171 218 268 336 396
#     4   9  22  40  65  93 136 166 221 272 328 389
#     4   9  20  39  68  97 130 168 210 271 335 385
#     4  10  21  42  65  99 126 174 222 267 326 410
#     4  12  25  41  65  97 133 175 223 278 331 382
#
# _framework density 24.992367999999999
#
# number of rings (size 3 to 8) (size 9 to 14) (size 15 to 20)
#    0.857    1.429    1.429    1.286    4.000    3.429 
#    5.143    2.857    0.000    0.000    0.000    0.000 
#    0.000    0.000    0.000    0.000    0.000    0.000 
#
# Total GULP energy -78303.794665 kJ/mol
# GULP energy per Si atom -5593.128190 kJ/mol
# Density = 2.493548 g / cm^3
# Si number density = 24.992368 Si / 1000 Ang^3
#
#
#
# Elastic Constant Matrix: (Units=GPa)
#
#
# Indices 1 2 3 4 5 6 
#
# 1 130.5197 45.7308 24.9234 4.6776 10.4011 33.4347
# 2 45.7308 149.1636 42.9497 7.4420 -5.0642 16.0767
# 3 24.9234 42.9497 61.3377 4.8894 14.5649 16.6940
# 4 4.6776 7.4420 4.8894 43.5644 5.9587 2.5307
# 5 10.4011 -5.0642 14.5649 5.9587 42.2192 -0.3352
# 6 33.4347 16.0767 16.6940 2.5307 -0.3352 51.7686
#
#
#
# Elastic Compliance Matrix: (Units=1/GPa)
#
#
# Indices 1 2 3 4 5 6 
#
# 1 0.010318 -0.002606 -0.000100 0.000082 -0.002878 -0.005845
# 2 -0.002606 0.009577 -0.006852 -0.001239 0.004337 0.001008
# 3 -0.000100 -0.006852 0.025005 0.000015 -0.009473 -0.005933
# 4 0.000082 -0.001239 0.000015 0.023687 -0.003524 -0.000854
# 5 -0.002878 0.004337 -0.009473 -0.003524 0.028712 0.003925
# 6 -0.005845 0.001008 -0.005933 -0.000854 0.003925 0.024759
#
#
# Mechanical properties :
#
#
# Convention : Reuss Voigt Hill
#
# Bulk Modulus (GPa) = 38.78626 63.13654 50.96140
# Shear Modulus (GPa) = 33.38523 42.67157 38.02840
#
# Velocity S-wave (km/s) = 3.65885 4.13653 3.90500
# Velocity P-wave (km/s) = 5.77949 6.93770 6.38491
#
# Compressibility (1/GPa) = 0.02578233
#
# Stress axis : x y z
#
# Youngs Moduli (GPa) = 96.92253 104.42199 39.99272
#
# Poissons Ratio (x) = 0.27215 0.00399
# Poissons Ratio (y) = 0.25261 0.27403
# Poissons Ratio (z) = 0.00967 0.71550
#
# Static dielectric constant tensor:
#      x y z
#    x 2.022250 -0.055340 -0.031700 
#    y -0.055340 1.903270 0.022750 
#    z -0.031700 0.022750 2.088170 
# 
# From -- ./inp_files/492548.got.cif
#   From: 2010.05.17/outbox.cif.g08.bks.cpg/sg2_247_cif.got.tgz:492548.got - 2010.06.03 11:33:40.
