data_PCOD9012663
_publ_section_title
;
Structure prediction by ZEFSAII (Michael W. Deem and Ramdas Pophale) SiO2 
 PCOD9012663
Probable space group: P -1
;
_chemical_formula_sum "Si O2"
_cell_formula_units_Z 14
_cell_length_a 7.080547
_cell_length_b 11.281365
_cell_length_c 8.303171
_cell_angle_alpha 74.860925
_cell_angle_beta 73.160433
_cell_angle_gamma 116.437756
_cell_volume 506.101328
_symmetry_space_group_name_H-M "P -1"
_symmetry_group_IT_number 2
_symmetry_cell_setting 'triclinic'
loop_
_space_group_symop_operation_xyz
x,y,z
-x,-y,-z
loop_
_atom_site_type_symbol
_atom_site_label
_atom_site_fract_x
_atom_site_fract_y
_atom_site_fract_z
Si Si1 0.295117 0.933918 0.900507
Si Si2 0.912791 0.779051 0.800563
Si Si3 0.541567 0.569783 0.205875
Si Si4 0.691512 0.735195 0.452212
Si Si5 0.214791 0.694948 0.555838
Si Si6 0.853026 0.365875 0.779867
Si Si7 0.769804 0.987040 0.769298
O O1 0.096036 0.905539 0.837071
O O2 0.855185 0.324597 0.607962
O O3 0.558044 0.996359 0.745405
O O4 0.205028 0.770010 0.047742
O O5 0.083633 0.756492 0.659231
O O6 0.770545 0.849310 0.750770
O O7 0.735683 0.629653 0.997006
O O8 0.662722 0.663871 0.306618
O O9 0.395622 0.398290 0.352523
O O10 0.353707 0.605249 0.179162
O O11 0.495807 0.775133 0.484664
O O12 0.963259 0.868933 0.363178
O O13 0.096192 0.523082 0.702848
O O14 0.300077 0.027842 0.017569
#
# Coordination Sequence:
#
# PCOD9012663 Si02
#       7
#     2   2   2   2   2   2   2
#     4  11  24  43  76 104 136 193 238 286 351 432
#     4  12  24  47  71 109 143 182 236 304 345 414
#     4  10  21  40  73  99 141 179 242 289 348 407
#     4  10  22  42  66 105 138 191 228 287 353 428
#     4  10  25  42  72 103 148 180 236 296 361 407
#     4  10  22  46  70 105 136 190 239 287 352 434
#     4  11  25  44  71 105 146 186 237 287 355 426
#
# _framework density 27.662448000000001
#
# number of rings (size 3 to 8) (size 9 to 14) (size 15 to 20)
#    0.000    1.429    2.857    1.286    6.000    4.571 
#    2.571    1.429    0.000    0.000    0.000    0.000 
#    0.000    0.000    0.000    0.000    0.000    0.000 
#
# Total GULP energy -78684.957769 kJ/mol
# GULP energy per Si atom -5620.354126 kJ/mol
# Density = 2.759949 g / cm^3
# Si number density = 27.662448 Si / 1000 Ang^3
#
#
#
# Elastic Constant Matrix: (Units=GPa)
#
#
# Indices 1 2 3 4 5 6 
#
# 1 126.4865 38.0682 56.5244 -1.2147 -27.2033 -32.0223
# 2 38.0682 105.2892 50.4851 1.7463 -12.8946 -32.7531
# 3 56.5244 50.4851 166.2706 -12.1403 -40.0338 -20.1705
# 4 -1.2147 1.7463 -12.1403 59.1301 -7.7028 -13.9631
# 5 -27.2033 -12.8946 -40.0338 -7.7028 48.8638 -2.9076
# 6 -32.0223 -32.7531 -20.1705 -13.9631 -2.9076 50.5388
#
#
#
# Elastic Compliance Matrix: (Units=1/GPa)
#
#
# Indices 1 2 3 4 5 6 
#
# 1 0.012030 -0.000570 -0.001205 0.002723 0.006459 0.007896
# 2 -0.000570 0.013529 -0.002398 0.001215 0.001950 0.007898
# 3 -0.001205 -0.002398 0.009509 0.003624 0.007230 0.002895
# 4 0.002723 0.001215 0.003624 0.021260 0.008772 0.010337
# 5 0.006459 0.001950 0.007230 0.008772 0.032628 0.012543
# 6 0.007896 0.007898 0.002895 0.010337 0.012543 0.034641
#
#
# Mechanical properties :
#
#
# Convention : Reuss Voigt Hill
#
# Bulk Modulus (GPa) = 37.42103 76.46686 56.94394
# Shear Modulus (GPa) = 35.49895 48.57112 42.03503
#
# Velocity S-wave (km/s) = 3.58619 4.19483 3.90240
# Velocity P-wave (km/s) = 5.54119 7.15297 6.39804
#
# Compressibility (1/GPa) = 0.02672294
#
# Stress axis : x y z
#
# Youngs Moduli (GPa) = 83.12396 73.91637 105.16841
#
# Poissons Ratio (x) = 0.04211 0.12672
# Poissons Ratio (y) = 0.04735 0.25217
# Poissons Ratio (z) = 0.10016 0.17723
#
# Static dielectric constant tensor:
#      x y z
#    x 2.126710 0.045860 0.031090 
#    y 0.045860 2.132580 -0.014950 
#    z 0.031090 -0.014950 2.171220 
# 
# From -- ./inp_files/387056.got.cif
#   From: 2010.05.17/outbox.cif.g08.bks.cpg/sg2_194_cif.got.tgz:387056.got - 2010.06.03 11:33:40.
