data_PCOD9012940
_publ_section_title
;
Structure prediction by ZEFSAII (Michael W. Deem and Ramdas Pophale) SiO2 
 PCOD9012940
Probable space group: P -1
;
_chemical_formula_sum "Si O2"
_cell_formula_units_Z 16
_cell_length_a 18.686375
_cell_length_b 5.591674
_cell_length_c 11.866258
_cell_angle_alpha 68.651989
_cell_angle_beta 142.823295
_cell_angle_gamma 91.218537
_cell_volume 613.101181
_symmetry_space_group_name_H-M "P -1"
_symmetry_group_IT_number 2
_symmetry_cell_setting 'triclinic'
loop_
_space_group_symop_operation_xyz
x,y,z
-x,-y,-z
loop_
_atom_site_type_symbol
_atom_site_label
_atom_site_fract_x
_atom_site_fract_y
_atom_site_fract_z
Si Si1 0.297393 0.806002 0.353107
Si Si2 0.632199 0.420018 0.296224
Si Si3 0.948486 0.591184 0.046482
Si Si4 0.445301 0.288693 0.202297
Si Si5 0.271689 0.249480 0.815326
Si Si6 0.814193 0.902425 0.476486
Si Si7 0.242545 0.681397 0.071170
Si Si8 0.988498 0.160416 0.577284
O O1 0.310942 0.581128 0.507311
O O2 0.412341 0.891195 0.522772
O O3 0.323632 0.687093 0.281149
O O4 0.145209 0.064716 0.120767
O O5 0.482689 0.480609 0.128502
O O6 0.662457 0.615636 0.215447
O O7 0.700949 0.086495 0.392780
O O8 0.082795 0.437795 0.316957
O O9 0.848417 0.467029 0.980644
O O10 0.000000 0.500000 0.000000
O O11 0.337403 0.496510 0.120895
O O12 0.377555 0.134949 0.069848
O O13 0.241719 0.050170 0.727655
O O14 0.123739 0.500244 0.628377
O O15 0.910568 0.047598 0.582106
O O16 0.138338 0.010528 0.842623
O O17 0.000000 0.000000 0.500000
#
# Coordination Sequence:
#
# PCOD9012940 Si02
#       8
#     2   2   2   2   2   2   2   2
#     4  10  23  40  61  88 119 159 204 237 299 357
#     4   9  22  39  60  92 120 152 208 243 289 368
#     4  11  22  40  60  89 124 151 201 252 290 359
#     4  10  22  42  60  89 122 156 208 242 289 369
#     4  11  21  40  65  88 123 158 193 255 304 341
#     4  10  22  39  62  92 118 154 202 247 304 349
#     4  11  23  41  63  87 121 161 195 248 303 347
#     4  10  21  41  62  91 121 152 203 249 294 365
#
# _framework density 26.096838000000002
#
# number of rings (size 3 to 8) (size 9 to 14) (size 15 to 20)
#    0.750    1.000    2.500    1.500    1.750    2.000 
#    2.250    3.750    0.000    0.000    0.000    0.000 
#    0.000    0.000    0.000    0.000    0.000    0.000 
#
# Total GULP energy -89428.879092 kJ/mol
# GULP energy per Si atom -5589.304943 kJ/mol
# Density = 2.603744 g / cm^3
# Si number density = 26.096838 Si / 1000 Ang^3
#
#
#
# Elastic Constant Matrix: (Units=GPa)
#
#
# Indices 1 2 3 4 5 6 
#
# 1 140.1681 25.6340 30.9715 -0.8235 20.9693 -26.4496
# 2 25.6340 41.3394 41.1652 9.5738 2.0966 -26.4954
# 3 30.9715 41.1652 141.7906 26.4023 -0.2010 -22.7266
# 4 -0.8235 9.5738 26.4023 43.7989 -8.1322 -3.7974
# 5 20.9693 2.0966 -0.2010 -8.1322 37.0982 1.6156
# 6 -26.4496 -26.4954 -22.7266 -3.7974 1.6156 44.9453
#
#
#
# Elastic Compliance Matrix: (Units=1/GPa)
#
#
# Indices 1 2 3 4 5 6 
#
# 1 0.009247 -0.002239 -0.000853 0.000561 -0.005153 0.003923
# 2 -0.002239 0.052173 -0.010053 -0.003972 -0.003660 0.024152
# 3 -0.000853 -0.010053 0.010754 -0.004382 0.000207 -0.001368
# 4 0.000561 -0.003972 -0.004382 0.027272 0.005955 -0.002137
# 5 -0.005153 -0.003660 0.000207 0.005955 0.031630 -0.005719
# 6 0.003923 0.024152 -0.001368 -0.002137 -0.005719 0.038129
#
#
# Mechanical properties :
#
#
# Convention : Reuss Voigt Hill
#
# Bulk Modulus (GPa) = 21.79294 57.64884 39.72089
# Shear Modulus (GPa) = 23.72042 40.20366 31.96204
#
# Velocity S-wave (km/s) = 3.01813 3.92925 3.50344
# Velocity P-wave (km/s) = 4.52928 6.53633 5.62308
#
# Compressibility (1/GPa) = 0.04588643
#
# Stress axis : x y z
#
# Youngs Moduli (GPa) = 108.14877 19.16691 92.98523
#
# Poissons Ratio (x) = 0.04291 0.07929
# Poissons Ratio (y) = 0.24210 0.93474
# Poissons Ratio (z) = 0.09222 0.19268
#
# Static dielectric constant tensor:
#      x y z
#    x 2.092950 0.093070 -0.026500 
#    y 0.093070 2.102240 -0.022400 
#    z -0.026500 -0.022400 2.093570 
# 
# From -- ./inp_files/468120.got.cif
#   From: 2010.05.17/outbox.cif.g08.bks.cpg/sg2_235_cif.got.tgz:468120.got - 2010.06.03 11:33:40.
