data_PCOD9012375
_publ_section_title
;
Structure prediction by ZEFSAII (Michael W. Deem and Ramdas Pophale) SiO2 
 PCOD9012375
Probable space group: P -1
;
_chemical_formula_sum "Si O2"
_cell_formula_units_Z 16
_cell_length_a 14.534636
_cell_length_b 5.027083
_cell_length_c 11.918681
_cell_angle_alpha 95.169073
_cell_angle_beta 52.497492
_cell_angle_gamma 79.518230
_cell_volume 656.444608
_symmetry_space_group_name_H-M "P -1"
_symmetry_group_IT_number 2
_symmetry_cell_setting 'triclinic'
loop_
_space_group_symop_operation_xyz
x,y,z
-x,-y,-z
loop_
_atom_site_type_symbol
_atom_site_label
_atom_site_fract_x
_atom_site_fract_y
_atom_site_fract_z
Si Si1 0.361209 0.671534 0.242703
Si Si2 0.603533 0.909004 0.580240
Si Si3 0.291024 0.398865 0.948466
Si Si4 0.354611 0.967436 0.701027
Si Si5 0.404397 0.839629 0.971113
Si Si6 0.173854 0.611038 0.531433
Si Si7 0.115037 0.983800 0.796902
Si Si8 0.014577 0.428058 0.172487
O O1 0.367842 0.821590 0.126610
O O2 0.225392 0.664898 0.375316
O O3 0.401102 0.846031 0.318633
O O4 0.456924 0.360371 0.151699
O O5 0.481235 0.810924 0.661566
O O6 0.718330 0.649140 0.513154
O O7 0.616362 0.013860 0.449889
O O8 0.322499 0.269015 0.796845
O O9 0.323690 0.680527 0.957016
O O10 0.151020 0.430058 0.076351
O O11 0.369788 0.155828 0.965116
O O12 0.229753 0.886775 0.790516
O O13 0.047152 0.556243 0.656929
O O14 0.165247 0.868577 0.631065
O O15 0.064385 0.312797 0.832154
O O16 0.992458 0.158133 0.118689
#
# Coordination Sequence:
#
# PCOD9012375 Si02
#       8
#     2   2   2   2   2   2   2   2
#     4  11  23  45  72  97 138 171 227 274 342 399
#     4  11  21  41  65 104 134 175 217 281 334 402
#     4  12  26  47  66 101 139 177 224 277 327 399
#     4  11  22  39  67 101 139 171 220 276 338 398
#     4  11  28  45  70 101 131 180 224 276 336 395
#     4  10  21  40  69  97 134 175 223 268 336 390
#     4  10  21  41  62 101 130 179 217 266 330 395
#     4  10  22  43  67  92 140 176 228 264 328 400
#
# _framework density 24.373726000000001
#
# number of rings (size 3 to 8) (size 9 to 14) (size 15 to 20)
#    0.750    0.500    3.750    1.500    1.750    4.500 
#    2.250    1.250    0.000    0.000    0.000    0.000 
#    0.000    0.000    0.000    0.000    0.000    0.000 
#
# Total GULP energy -89484.898970 kJ/mol
# GULP energy per Si atom -5592.806186 kJ/mol
# Density = 2.431825 g / cm^3
# Si number density = 24.373726 Si / 1000 Ang^3
#
#
#
# Elastic Constant Matrix: (Units=GPa)
#
#
# Indices 1 2 3 4 5 6 
#
# 1 61.6576 -0.3450 37.1531 -4.0253 -9.9669 17.8805
# 2 -0.3450 61.7598 3.5938 -2.4623 3.8698 -3.1307
# 3 37.1531 3.5938 138.0712 -9.4402 0.5975 6.2718
# 4 -4.0253 -2.4623 -9.4402 28.7800 0.3545 -5.0594
# 5 -9.9669 3.8698 0.5975 0.3545 50.3699 -10.8810
# 6 17.8805 -3.1307 6.2718 -5.0594 -10.8810 33.8986
#
#
#
# Elastic Compliance Matrix: (Units=1/GPa)
#
#
# Indices 1 2 3 4 5 6 
#
# 1 0.023078 -0.000236 -0.005778 -0.000552 0.002402 -0.010437
# 2 -0.000236 0.016414 -0.000326 0.001562 -0.000964 0.001625
# 3 -0.005778 -0.000326 0.008906 0.002346 -0.000934 0.001420
# 4 -0.000552 0.001562 0.002346 0.036564 0.000714 0.005688
# 5 0.002402 -0.000964 -0.000934 0.000714 0.021679 0.005882
# 6 -0.010437 0.001625 0.001420 0.005688 0.005882 0.037629
#
#
# Mechanical properties :
#
#
# Convention : Reuss Voigt Hill
#
# Bulk Modulus (GPa) = 27.99823 38.03250 33.01536
# Shear Modulus (GPa) = 29.61084 37.34880 33.47982
#
# Velocity S-wave (km/s) = 3.48928 3.91876 3.71024
# Velocity P-wave (km/s) = 5.26739 6.00943 5.65061
#
# Compressibility (1/GPa) = 0.03571655
#
# Stress axis : x y z
#
# Youngs Moduli (GPa) = 43.33160 60.92184 112.28601
#
# Poissons Ratio (x) = 0.01441 0.64877
# Poissons Ratio (y) = 0.01025 0.03666
# Poissons Ratio (z) = 0.25036 0.01989
#
# Static dielectric constant tensor:
#      x y z
#    x 1.921420 0.023540 -0.021220 
#    y 0.023540 1.921630 -0.056340 
#    z -0.021220 -0.056340 2.057670 
# 
# From -- ./inp_files/80496.got.cif
#   From: 2010.05.17/outbox.cif.g08.bks.cpg/sg2_41_cif.got.tgz:80496.got - 2010.06.03 11:33:40.
