data_PCOD9012626
_publ_section_title
;
Structure prediction by ZEFSAII (Michael W. Deem and Ramdas Pophale) SiO2 
 PCOD9012626
Probable space group: P -1
;
_chemical_formula_sum "Si O2"
_cell_formula_units_Z 14
_cell_length_a 9.247911
_cell_length_b 8.198593
_cell_length_c 10.696127
_cell_angle_alpha 122.218505
_cell_angle_beta 66.580343
_cell_angle_gamma 84.606126
_cell_volume 578.643069
_symmetry_space_group_name_H-M "P -1"
_symmetry_group_IT_number 2
_symmetry_cell_setting 'triclinic'
loop_
_space_group_symop_operation_xyz
x,y,z
-x,-y,-z
loop_
_atom_site_type_symbol
_atom_site_label
_atom_site_fract_x
_atom_site_fract_y
_atom_site_fract_z
Si Si1 0.211400 0.432793 0.122157
Si Si2 0.672880 0.498174 0.496730
Si Si3 0.406967 0.163067 0.736309
Si Si4 0.673716 0.858009 0.808379
Si Si5 0.857574 0.439624 0.156433
Si Si6 0.261969 0.898287 0.543622
Si Si7 0.867593 0.155071 0.800823
O O1 0.213332 0.325596 0.209198
O O2 0.216386 0.659897 0.195974
O O3 0.042490 0.450764 0.109087
O O4 0.372380 0.269790 0.925401
O O5 0.500000 0.500000 0.500000
O O6 0.645995 0.726695 0.648789
O O7 0.809501 0.411606 0.303316
O O8 0.718132 0.334994 0.528257
O O9 0.291533 0.345982 0.754191
O O10 0.602340 0.090075 0.598767
O O11 0.326888 0.989620 0.679765
O O12 0.774702 0.997754 0.787013
O O13 0.500000 0.000000 0.000000
O O14 0.862021 0.264532 0.983389
O O15 0.064810 0.037101 0.645134
#
# Coordination Sequence:
#
# PCOD9012626 Si02
#       7
#     2   2   2   2   2   2   2
#     4  11  24  47  76 109 152 190 249 302 360 443
#     4  12  27  47  73 104 142 191 253 310 363 449
#     4  10  21  40  72 116 142 193 248 292 353 437
#     4  12  31  50  72 107 149 196 248 311 380 434
#     4  11  21  44  78 108 146 196 247 295 354 444
#     4  11  22  40  75 112 146 191 251 291 364 431
#     4  11  24  48  77 113 150 195 243 304 372 429
#
# _framework density 24.194535999999999
#
# number of rings (size 3 to 8) (size 9 to 14) (size 15 to 20)
#    0.000    0.857    4.286    2.571    6.000    4.000 
#    2.571    1.429    0.000    0.000    0.000    0.000 
#    0.000    0.000    0.000    0.000    0.000    0.000 
#
# Total GULP energy -78443.228505 kJ/mol
# GULP energy per Si atom -5603.087750 kJ/mol
# Density = 2.413947 g / cm^3
# Si number density = 24.194536 Si / 1000 Ang^3
#
#
#
# Elastic Constant Matrix: (Units=GPa)
#
#
# Indices 1 2 3 4 5 6 
#
# 1 117.2173 67.0622 67.1767 7.1021 -0.0264 19.4468
# 2 67.0622 158.5008 41.5906 11.0616 13.5240 18.7254
# 3 67.1767 41.5906 107.0757 12.5355 -13.7181 18.2730
# 4 7.1021 11.0616 12.5355 39.9999 10.1900 9.4617
# 5 -0.0264 13.5240 -13.7181 10.1900 43.4069 -5.7729
# 6 19.4468 18.7254 18.2730 9.4617 -5.7729 45.6119
#
#
#
# Elastic Compliance Matrix: (Units=1/GPa)
#
#
# Indices 1 2 3 4 5 6 
#
# 1 0.016176 -0.004258 -0.008615 0.002141 -0.002211 -0.002421
# 2 -0.004258 0.008837 -0.000839 -0.000164 -0.003229 -0.001850
# 3 -0.008615 -0.000839 0.016623 -0.004933 0.006563 -0.000788
# 4 0.002141 -0.000164 -0.004933 0.030100 -0.009411 -0.006304
# 5 -0.002211 -0.003229 0.006563 -0.009411 0.029026 0.005265
# 6 -0.002421 -0.001850 -0.000788 -0.006304 0.005265 0.026006
#
#
# Mechanical properties :
#
#
# Convention : Reuss Voigt Hill
#
# Bulk Modulus (GPa) = 70.37324 81.60588 75.98956
# Shear Modulus (GPa) = 31.46028 39.60136 35.53082
#
# Velocity S-wave (km/s) = 3.60989 4.05011 3.83632
# Velocity P-wave (km/s) = 6.82089 7.46147 7.14836
#
# Compressibility (1/GPa) = 0.01420995
#
# Stress axis : x y z
#
# Youngs Moduli (GPa) = 61.81883 113.16507 60.15726
#
# Poissons Ratio (x) = 0.48190 0.51828
# Poissons Ratio (y) = 0.26325 0.05049
# Poissons Ratio (z) = 0.53259 0.09499
#
# Static dielectric constant tensor:
#      x y z
#    x 1.915680 -0.037650 0.016410 
#    y -0.037650 1.975130 -0.031700 
#    z 0.016410 -0.031700 1.960870 
# 
# From -- ./inp_files/377282.got.cif
#   From: 2010.05.17/outbox.cif.g08.bks.cpg/sg2_189_cif.got.tgz:377282.got - 2010.06.03 11:33:40.
