data_PCOD9012240
_publ_section_title
;
Structure prediction by ZEFSAII (Michael W. Deem and Ramdas Pophale) SiO2 
 PCOD9012240
Probable space group: P -1
;
_chemical_formula_sum "Si O2"
_cell_formula_units_Z 13
_cell_length_a 6.891442
_cell_length_b 7.228134
_cell_length_c 15.554887
_cell_angle_alpha 87.616412
_cell_angle_beta 133.184017
_cell_angle_gamma 113.413220
_cell_volume 486.764864
_symmetry_space_group_name_H-M "P -1"
_symmetry_group_IT_number 2
_symmetry_cell_setting 'triclinic'
loop_
_space_group_symop_operation_xyz
x,y,z
-x,-y,-z
loop_
_atom_site_type_symbol
_atom_site_label
_atom_site_fract_x
_atom_site_fract_y
_atom_site_fract_z
Si Si1 0.936912 0.760217 0.480555
Si Si2 0.992771 0.218538 0.917049
Si Si3 0.555625 0.937514 0.926433
Si Si4 0.629470 0.870030 0.668476
Si Si5 0.899342 0.643293 0.661552
Si Si6 0.920274 0.709391 0.288840
Si Si7 0.500000 0.500000 0.000000
O O1 0.266454 0.771794 0.568854
O O2 0.802530 0.662569 0.534940
O O3 0.777221 0.666535 0.341922
O O4 0.000000 0.000000 0.500000
O O5 0.135805 0.452563 0.918680
O O6 0.338486 0.240509 0.022273
O O7 0.835090 0.139395 0.960874
O O8 0.783608 0.020819 0.795446
O O9 0.256011 0.832490 0.779133
O O10 0.500000 0.000000 0.000000
O O11 0.725603 0.694578 0.682092
O O12 0.809729 0.043020 0.643969
O O13 0.911233 0.427166 0.671444
O O14 0.667741 0.648744 0.139720
#
# Coordination Sequence:
#
# PCOD9012240 Si02
#       7
#     2   2   2   2   2   2   1
#     4  12  26  49  73 103 145 192 242 303 370 432
#     4  10  21  40  69 101 145 187 238 301 359 432
#     4  11  21  39  68 104 141 193 242 291 363 435
#     4  11  24  46  72 102 143 191 240 302 365 436
#     4  12  24  45  73 104 144 191 243 298 365 436
#     4  11  25  46  72 107 146 184 244 303 357 442
#     4  10  22  44  72 106 150 182 242 306 362 428
#
# _framework density 26.706939999999999
#
# number of rings (size 3 to 8) (size 9 to 14) (size 15 to 20)
#    0.000    0.923    6.154    0.923    0.000    0.615 
#    2.769    0.769    0.000    0.000    0.000    0.000 
#    0.000    0.000    0.000    0.000    0.000    0.000 
#
# Total GULP energy -72658.583362 kJ/mol
# GULP energy per Si atom -5589.121797 kJ/mol
# Density = 2.664615 g / cm^3
# Si number density = 26.706940 Si / 1000 Ang^3
#
#
#
# Elastic Constant Matrix: (Units=GPa)
#
#
# Indices 1 2 3 4 5 6 
#
# 1 135.0801 35.1541 35.0403 5.4674 -25.7554 8.6064
# 2 35.1541 82.2490 11.2363 5.6536 -8.9075 -1.7099
# 3 35.0403 11.2363 146.2604 14.1737 -25.5571 14.7635
# 4 5.4674 5.6536 14.1737 39.4692 8.7656 2.5874
# 5 -25.7554 -8.9075 -25.5571 8.7656 42.8697 -3.9183
# 6 8.6064 -1.7099 14.7635 2.5874 -3.9183 56.1704
#
#
#
# Elastic Compliance Matrix: (Units=1/GPa)
#
#
# Indices 1 2 3 4 5 6 
#
# 1 0.009537 -0.003356 -0.000977 -0.001466 0.004666 -0.000913
# 2 -0.003356 0.013892 0.000056 -0.001929 0.001400 0.001109
# 3 -0.000977 0.000056 0.008511 -0.003976 0.005171 -0.001542
# 4 -0.001466 -0.001929 -0.003976 0.029463 -0.009752 -0.000826
# 5 0.004666 0.001400 0.005171 -0.009752 0.031554 0.000619
# 6 -0.000913 0.001109 -0.001542 -0.000826 0.000619 0.018463
#
#
# Mechanical properties :
#
#
# Convention : Reuss Voigt Hill
#
# Bulk Modulus (GPa) = 42.75910 58.49457 50.62683
# Shear Modulus (GPa) = 39.13281 46.51246 42.82263
#
# Velocity S-wave (km/s) = 3.83203 4.17776 4.00863
# Velocity P-wave (km/s) = 5.96863 6.72469 6.35791
#
# Compressibility (1/GPa) = 0.02338683
#
# Stress axis : x y z
#
# Youngs Moduli (GPa) = 104.85448 71.98411 117.48840
#
# Poissons Ratio (x) = 0.24155 0.11484
# Poissons Ratio (y) = 0.35185 -0.00661
# Poissons Ratio (z) = 0.10249 -0.00405
#
# Static dielectric constant tensor:
#      x y z
#    x 2.154710 0.067240 -0.013990 
#    y 0.067240 2.275740 -0.069260 
#    z -0.013990 -0.069260 2.092970 
# 
# From -- ./inp_files/479267.got.cif
#   From: 2010.05.17/outbox.cif.g08.bks.cpg/sg2_240_cif.got.tgz:479267.got - 2010.06.03 11:33:40.
