data_PCOD9012252
_publ_section_title
;
Structure prediction by ZEFSAII (Michael W. Deem and Ramdas Pophale) SiO2 
 PCOD9012252
Probable space group: P -1
;
_chemical_formula_sum "Si O2"
_cell_formula_units_Z 15
_cell_length_a 7.196971
_cell_length_b 8.445261
_cell_length_c 27.250738
_cell_angle_alpha 30.378861
_cell_angle_beta 50.369019
_cell_angle_gamma 54.728616
_cell_volume 643.535746
_symmetry_space_group_name_H-M "P -1"
_symmetry_group_IT_number 2
_symmetry_cell_setting 'triclinic'
loop_
_space_group_symop_operation_xyz
x,y,z
-x,-y,-z
loop_
_atom_site_type_symbol
_atom_site_label
_atom_site_fract_x
_atom_site_fract_y
_atom_site_fract_z
Si Si1 0.511057 0.870168 0.899042
Si Si2 0.921102 0.176359 0.187633
Si Si3 0.277166 0.309029 0.451149
Si Si4 0.294555 0.244092 0.744180
Si Si5 0.000000 0.000000 0.500000
Si Si6 0.384946 0.239225 0.915065
Si Si7 0.180197 0.326768 0.282659
Si Si8 0.957245 0.925105 0.353544
O O1 0.796247 0.924145 0.841803
O O2 0.407409 0.012448 0.828151
O O3 0.363141 0.038046 0.923475
O O4 0.500000 0.500000 0.000000
O O5 0.851704 0.540893 0.088829
O O6 0.874847 0.124433 0.267080
O O7 0.767106 0.945910 0.243336
O O8 0.518202 0.489404 0.365014
O O9 0.229716 0.098176 0.468980
O O10 0.234128 0.129945 0.556996
O O11 0.058367 0.582547 0.410301
O O12 0.041512 0.415286 0.758183
O O13 0.121986 0.149571 0.389804
O O14 0.577868 0.496939 0.803460
O O15 0.500000 0.000000 0.000000
O O16 0.170487 0.087152 0.302928
#
# Coordination Sequence:
#
# PCOD9012252 Si02
#       8
#     2   2   2   2   1   2   2   2
#     4  12  28  48  74 106 142 188 241 295 361 427
#     4  12  26  47  76 103 146 191 235 298 357 425
#     4  10  21  40  69 102 143 184 234 293 353 426
#     4  12  24  45  75 102 143 189 237 297 357 426
#     4  10  22  42  72 104 144 190 240 292 358 430
#     4  12  28  47  74 108 144 188 242 298 356 429
#     4  11  24  43  71 105 148 185 243 297 356 429
#     4  10  22  41  65 104 141 183 233 292 352 421
#
# _framework density 23.308730000000001
#
# number of rings (size 3 to 8) (size 9 to 14) (size 15 to 20)
#    0.000    0.800    2.667    4.000    3.733    5.333 
#    0.000    0.000    0.000    0.000    0.000    0.000 
#    0.000    0.000    0.000    0.000    0.000    0.000 
#
# Total GULP energy -83760.413919 kJ/mol
# GULP energy per Si atom -5584.027595 kJ/mol
# Density = 2.325568 g / cm^3
# Si number density = 23.308730 Si / 1000 Ang^3
#
#
#
# Elastic Constant Matrix: (Units=GPa)
#
#
# Indices 1 2 3 4 5 6 
#
# 1 97.4068 21.7125 21.4056 6.2865 3.5988 8.6793
# 2 21.7125 45.0523 7.3080 -8.3992 13.0107 -13.3239
# 3 21.4056 7.3080 67.9049 -8.2998 16.7637 19.7188
# 4 6.2865 -8.3992 -8.2998 24.4741 1.4340 9.2268
# 5 3.5988 13.0107 16.7637 1.4340 49.5001 -4.3396
# 6 8.6793 -13.3239 19.7188 9.2268 -4.3396 31.2535
#
#
#
# Elastic Compliance Matrix: (Units=1/GPa)
#
#
# Indices 1 2 3 4 5 6 
#
# 1 0.013736 -0.008764 -0.004288 -0.007280 0.002765 -0.002312
# 2 -0.008764 0.034977 -0.003369 0.007266 -0.006182 0.016467
# 3 -0.004288 -0.003369 0.029646 0.020762 -0.011786 -0.026716
# 4 -0.007280 0.007266 0.020762 0.063788 -0.012765 -0.028584
# 5 0.002765 -0.006182 -0.011786 -0.012765 0.027000 0.011551
# 6 -0.002312 0.016467 -0.026716 -0.028584 0.011551 0.066557
#
#
# Mechanical properties :
#
#
# Convention : Reuss Voigt Hill
#
# Bulk Modulus (GPa) = 21.96998 34.57957 28.27478
# Shear Modulus (GPa) = 17.62315 31.70806 24.66561
#
# Velocity S-wave (km/s) = 2.75267 3.69230 3.25655
# Velocity P-wave (km/s) = 4.42142 5.74848 5.12806
#
# Compressibility (1/GPa) = 0.04551665
#
# Stress axis : x y z
#
# Youngs Moduli (GPa) = 72.80284 28.59059 33.73130
#
# Poissons Ratio (x) = 0.25056 0.14463
# Poissons Ratio (y) = 0.63804 0.11364
# Poissons Ratio (z) = 0.31217 0.09633
#
# Static dielectric constant tensor:
#      x y z
#    x 1.849240 -0.042200 -0.015070 
#    y -0.042200 1.937540 -0.032000 
#    z -0.015070 -0.032000 1.857820 
# 
# From -- ./inp_files/49451.got.cif
#   From: 2010.05.17/outbox.cif.g08.bks.cpg/sg2_25_cif.got.tgz:49451.got - 2010.06.03 11:33:40.
