data_PCOD9012292
_publ_section_title
;
Structure prediction by ZEFSAII (Michael W. Deem and Ramdas Pophale) SiO2 
 PCOD9012292
Probable space group: P -1
;
_chemical_formula_sum "Si O2"
_cell_formula_units_Z 14
_cell_length_a 10.245923
_cell_length_b 11.829647
_cell_length_c 16.319888
_cell_angle_alpha 148.836040
_cell_angle_beta 145.045132
_cell_angle_gamma 47.185304
_cell_volume 584.894239
_symmetry_space_group_name_H-M "P -1"
_symmetry_group_IT_number 2
_symmetry_cell_setting 'triclinic'
loop_
_space_group_symop_operation_xyz
x,y,z
-x,-y,-z
loop_
_atom_site_type_symbol
_atom_site_label
_atom_site_fract_x
_atom_site_fract_y
_atom_site_fract_z
Si Si1 0.189288 0.174999 0.622225
Si Si2 0.636053 0.315160 0.192030
Si Si3 0.368247 0.286353 0.265622
Si Si4 0.897126 0.399226 0.058443
Si Si5 0.342315 0.891468 0.102591
Si Si6 0.471434 0.259392 0.657997
Si Si7 0.755454 0.028955 0.216305
O O1 0.100863 0.365300 0.751180
O O2 0.390114 0.073740 0.713116
O O3 0.319532 0.274673 0.670996
O O4 0.978791 0.025065 0.384342
O O5 0.636684 0.578363 0.362551
O O6 0.797346 0.179296 0.249660
O O7 0.682637 0.252035 0.082339
O O8 0.382242 0.203669 0.011681
O O9 0.500000 0.500000 0.500000
O O10 0.560738 0.157803 0.241139
O O11 0.151835 0.342105 0.136020
O O12 0.268653 0.129480 0.189938
O O13 0.785416 0.230210 0.963942
O O14 0.722650 0.370885 0.876301
O O15 0.500000 0.000000 0.500000
#
# Coordination Sequence:
#
# PCOD9012292 Si02
#       7
#     2   2   2   2   2   2   2
#     4  11  21  43  69  98 122 169 223 264 325 389
#     4  10  21  43  61  92 135 170 210 266 328 388
#     4  11  23  38  61  98 130 165 212 267 316 385
#     4  11  21  43  67  96 131 162 220 271 319 382
#     4  10  21  40  69  90 125 171 214 266 323 377
#     4  11  24  41  67  97 130 169 221 273 325 377
#     4  10  24  39  65  95 133 173 211 261 331 392
#
# _framework density 23.935950999999999
#
# number of rings (size 3 to 8) (size 9 to 14) (size 15 to 20)
#    0.000    1.429    4.286    1.286    0.000    9.714 
#    2.571    1.429    0.000    0.000    0.000    0.000 
#    0.000    0.000    0.000    0.000    0.000    0.000 
#
# Total GULP energy -78235.590390 kJ/mol
# GULP energy per Si atom -5588.256456 kJ/mol
# Density = 2.388147 g / cm^3
# Si number density = 23.935951 Si / 1000 Ang^3
#
#
#
# Elastic Constant Matrix: (Units=GPa)
#
#
# Indices 1 2 3 4 5 6 
#
# 1 52.8826 19.4609 6.4178 -2.6941 -3.0000 -4.4951
# 2 19.4609 90.3924 21.6468 13.6568 -2.1100 3.3014
# 3 6.4178 21.6468 70.7484 0.3184 2.7863 -1.1003
# 4 -2.6941 13.6568 0.3184 52.8906 -8.0887 11.7229
# 5 -3.0000 -2.1100 2.7863 -8.0887 21.9934 -8.4833
# 6 -4.4951 3.3014 -1.1003 11.7229 -8.4833 30.4491
#
#
#
# Elastic Compliance Matrix: (Units=1/GPa)
#
#
# Indices 1 2 3 4 5 6 
#
# 1 0.021523 -0.004856 -0.000607 0.002178 0.004980 0.004231
# 2 -0.004856 0.013557 -0.003683 -0.003575 -0.000643 -0.001123
# 3 -0.000607 -0.003683 0.015402 0.000477 -0.002183 0.000074
# 4 0.002178 -0.003575 0.000477 0.022185 0.005645 -0.006242
# 5 0.004980 -0.000643 -0.002183 0.005645 0.053645 0.013499
# 6 0.004231 -0.001123 0.000074 -0.006242 0.013499 0.039755
#
#
# Mechanical properties :
#
#
# Convention : Reuss Voigt Hill
#
# Bulk Modulus (GPa) = 31.06609 34.34161 32.70385
# Shear Modulus (GPa) = 25.62936 32.16647 28.89792
#
# Velocity S-wave (km/s) = 3.27578 3.66984 3.47839
# Velocity P-wave (km/s) = 5.22634 5.68642 5.46123
#
# Compressibility (1/GPa) = 0.03218944
#
# Stress axis : x y z
#
# Youngs Moduli (GPa) = 46.46087 73.76513 64.92809
#
# Poissons Ratio (x) = 0.35819 0.03940
# Poissons Ratio (y) = 0.22561 0.23916
# Poissons Ratio (z) = 0.02819 0.27171
#
# Static dielectric constant tensor:
#      x y z
#    x 1.950250 0.045800 0.011970 
#    y 0.045800 1.951340 0.015910 
#    z 0.011970 0.015910 1.943980 
# 
# From -- ./inp_files/238023.got.cif
#   From: 2010.05.17/outbox.cif.g08.bks.cpg/sg2_120_cif.got.tgz:238023.got - 2010.06.03 11:33:40.
