data_PCOD9012555
_publ_section_title
;
Structure prediction by ZEFSAII (Michael W. Deem and Ramdas Pophale) SiO2 
 PCOD9012555
Probable space group: P -1
;
_chemical_formula_sum "Si O2"
_cell_formula_units_Z 16
_cell_length_a 5.453082
_cell_length_b 11.154376
_cell_length_c 17.698548
_cell_angle_alpha 138.410845
_cell_angle_beta 66.800047
_cell_angle_gamma 116.164866
_cell_volume 637.630441
_symmetry_space_group_name_H-M "P -1"
_symmetry_group_IT_number 2
_symmetry_cell_setting 'triclinic'
loop_
_space_group_symop_operation_xyz
x,y,z
-x,-y,-z
loop_
_atom_site_type_symbol
_atom_site_label
_atom_site_fract_x
_atom_site_fract_y
_atom_site_fract_z
Si Si1 0.201558 0.063879 0.332263
Si Si2 0.235841 0.333741 0.595379
Si Si3 0.442181 0.195422 0.878254
Si Si4 0.318011 0.108864 0.025406
Si Si5 0.807065 0.524465 0.767261
Si Si6 0.751450 0.715511 0.255990
Si Si7 0.082197 0.445916 0.059325
Si Si8 0.280694 0.437039 0.427798
O O1 0.198462 0.171118 0.462418
O O2 0.218141 0.214900 0.335285
O O3 0.463139 0.972755 0.252804
O O4 0.923615 0.902681 0.286880
O O5 0.160509 0.270410 0.659963
O O6 0.548541 0.452654 0.610023
O O7 0.044742 0.474343 0.665859
O O8 0.672995 0.376939 0.909548
O O9 0.448260 0.153886 0.947287
O O10 0.158426 0.261213 0.931365
O O11 0.312025 0.301561 0.159009
O O12 0.500000 0.000000 0.000000
O O13 0.000000 0.000000 0.000000
O O14 0.574716 0.336794 0.723844
O O15 0.926682 0.586705 0.865314
O O16 0.823977 0.536494 0.121720
O O17 0.500000 0.500000 0.500000
O O18 0.000000 0.500000 0.500000
#
# Coordination Sequence:
#
# PCOD9012555 Si02
#       8
#     2   2   2   2   2   2   2   2
#     4  10  22  43  65 105 137 187 245 292 354 430
#     4  10  23  42  69  98 143 190 234 295 355 426
#     4   9  19  42  68  96 136 180 229 297 351 421
#     4  11  27  47  71 105 141 186 242 291 356 435
#     4  10  23  41  71 101 141 187 234 300 360 424
#     4  10  21  40  71 101 139 186 239 297 360 420
#     4   8  18  41  65  98 135 174 235 285 373 408
#     4  10  24  46  65  91 135 184 232 286 342 410
#
# _framework density 25.092905999999999
#
# number of rings (size 3 to 8) (size 9 to 14) (size 15 to 20)
#    0.000    2.250    0.000    0.375   10.500    0.500 
#   18.000    5.625    0.000    0.000    0.000    0.000 
#    0.000    0.000    0.000    0.000    0.000    0.000 
#
# Total GULP energy -89438.816275 kJ/mol
# GULP energy per Si atom -5589.926017 kJ/mol
# Density = 2.503579 g / cm^3
# Si number density = 25.092906 Si / 1000 Ang^3
#
#
#
# Elastic Constant Matrix: (Units=GPa)
#
#
# Indices 1 2 3 4 5 6 
#
# 1 104.0499 33.6501 54.6194 1.5584 -27.2479 5.5634
# 2 33.6501 123.0750 44.9560 18.4807 -17.0520 6.2898
# 3 54.6194 44.9560 202.7755 1.3814 -30.5378 -3.4462
# 4 1.5584 18.4807 1.3814 38.2095 -0.5320 0.4773
# 5 -27.2479 -17.0520 -30.5378 -0.5320 47.3833 -6.6380
# 6 5.5634 6.2898 -3.4462 0.4773 -6.6380 54.9683
#
#
#
# Elastic Compliance Matrix: (Units=1/GPa)
#
#
# Indices 1 2 3 4 5 6 
#
# 1 0.012808 -0.002038 -0.002243 0.000623 0.005110 -0.000592
# 2 -0.002038 0.010169 -0.001483 -0.004752 0.001360 -0.000845
# 3 -0.002243 -0.001483 0.006232 0.000603 0.002349 0.001066
# 4 0.000623 -0.004752 0.000603 0.028412 -0.000617 0.000197
# 5 0.005110 0.001360 0.002349 -0.000617 0.026414 0.002670
# 6 -0.000592 -0.000845 0.001066 0.000197 0.002670 0.018736
#
#
# Mechanical properties :
#
#
# Convention : Reuss Voigt Hill
#
# Bulk Modulus (GPa) = 56.55311 77.37238 66.96274
# Shear Modulus (GPa) = 41.60012 47.89054 44.74533
#
# Velocity S-wave (km/s) = 4.07608 4.37341 4.22736
# Velocity P-wave (km/s) = 6.68872 7.51023 7.11135
#
# Compressibility (1/GPa) = 0.01768250
#
# Stress axis : x y z
#
# Youngs Moduli (GPa) = 78.07800 98.33671 160.45657
#
# Poissons Ratio (x) = 0.20039 0.35987
# Poissons Ratio (y) = 0.15911 0.23791
# Poissons Ratio (z) = 0.17511 0.14581
#
# Static dielectric constant tensor:
#      x y z
#    x 2.101790 -0.054780 0.031030 
#    y -0.054780 2.013860 -0.022920 
#    z 0.031030 -0.022920 1.977750 
# 
# From -- ./inp_files/583077.got.cif
#   From: 2010.05.17/outbox.cif.g08.bks.cpg/sg2_292_cif.got.tgz:583077.got - 2010.06.03 11:33:40.
