data_PCOD9012587
_publ_section_title
;
Structure prediction by ZEFSAII (Michael W. Deem and Ramdas Pophale) SiO2 
 PCOD9012587
Probable space group: P -1
;
_chemical_formula_sum "Si O2"
_cell_formula_units_Z 14
_cell_length_a 11.276351
_cell_length_b 7.661343
_cell_length_c 9.004206
_cell_angle_alpha 69.626981
_cell_angle_beta 106.454617
_cell_angle_gamma 138.190708
_cell_volume 485.792589
_symmetry_space_group_name_H-M "P -1"
_symmetry_group_IT_number 2
_symmetry_cell_setting 'triclinic'
loop_
_space_group_symop_operation_xyz
x,y,z
-x,-y,-z
loop_
_atom_site_type_symbol
_atom_site_label
_atom_site_fract_x
_atom_site_fract_y
_atom_site_fract_z
Si Si1 0.743541 0.210451 0.913438
Si Si2 0.795708 0.588514 0.477693
Si Si3 0.296023 0.137148 0.770490
Si Si4 0.249562 0.480571 0.930258
Si Si5 0.467490 0.164146 0.299200
Si Si6 0.285496 0.308047 0.269000
Si Si7 0.058592 0.598731 0.697161
O O1 0.933131 0.472669 0.836941
O O2 0.615750 0.080109 0.764560
O O3 0.741738 0.003108 0.044780
O O4 0.689904 0.291556 0.000368
O O5 0.612840 0.296280 0.439455
O O6 0.784062 0.672572 0.612055
O O7 0.941405 0.584150 0.540821
O O8 0.814962 0.795588 0.322459
O O9 0.229478 0.912847 0.693928
O O10 0.504421 0.404668 0.744680
O O11 0.416132 0.598368 0.855883
O O12 0.121844 0.453126 0.779389
O O13 0.190715 0.268021 0.094423
O O14 0.305964 0.108106 0.325609
#
# Coordination Sequence:
#
# PCOD9012587 Si02
#       7
#     2   2   2   2   2   2   2
#     4  11  23  42  70 104 131 179 226 273 337 391
#     4  11  25  45  69 100 141 173 222 277 345 394
#     4  10  21  40  71  96 128 179 224 271 325 397
#     4  11  22  42  72  96 135 175 228 273 327 400
#     4  11  24  42  70 103 133 173 229 282 326 399
#     4  11  23  44  72 102 128 180 229 279 329 392
#     4  11  25  43  66 101 139 183 214 273 345 402
#
# _framework density 28.818881000000001
#
# number of rings (size 3 to 8) (size 9 to 14) (size 15 to 20)
#    0.000    1.143    2.857    4.714    4.000    1.143 
#    0.000    9.286    0.000    0.000    0.000    0.000 
#    0.000    0.000    0.000    0.000    0.000    0.000 
#
# Total GULP energy -78359.327398 kJ/mol
# GULP energy per Si atom -5597.094814 kJ/mol
# Density = 2.875329 g / cm^3
# Si number density = 28.818881 Si / 1000 Ang^3
#
#
#
# Elastic Constant Matrix: (Units=GPa)
#
#
# Indices 1 2 3 4 5 6 
#
# 1 165.2757 19.7503 63.7801 6.9579 16.2371 -22.0089
# 2 19.7503 57.4904 24.6551 6.9899 2.9054 10.8346
# 3 63.7801 24.6551 216.3878 10.6694 35.3189 -3.2373
# 4 6.9579 6.9899 10.6694 43.6180 6.5840 2.3652
# 5 16.2371 2.9054 35.3189 6.5840 70.5216 3.6397
# 6 -22.0089 10.8346 -3.2373 2.3652 3.6397 26.9471
#
#
#
# Elastic Compliance Matrix: (Units=1/GPa)
#
#
# Indices 1 2 3 4 5 6 
#
# 1 0.008397 -0.003586 -0.001699 -0.000603 -0.001308 0.008326
# 2 -0.003586 0.021808 -0.001769 -0.002088 0.001624 -0.011946
# 3 -0.001699 -0.001769 0.005744 -0.000511 -0.002384 0.000381
# 4 -0.000603 -0.002088 -0.000511 0.023819 -0.001661 -0.001581
# 5 -0.001308 0.001624 -0.002384 -0.001661 0.015971 -0.004019
# 6 0.008326 -0.011946 0.000381 -0.001581 -0.004019 0.049440
#
#
# Mechanical properties :
#
#
# Convention : Reuss Voigt Hill
#
# Bulk Modulus (GPa) = 45.78356 72.83612 59.30984
# Shear Modulus (GPa) = 34.11452 50.28190 42.19821
#
# Velocity S-wave (km/s) = 3.44431 4.18156 3.83071
# Velocity P-wave (km/s) = 5.63372 6.97442 6.33961
#
# Compressibility (1/GPa) = 0.02184190
#
# Stress axis : x y z
#
# Youngs Moduli (GPa) = 119.08838 45.85557 174.10585
#
# Poissons Ratio (x) = 0.16443 0.29574
# Poissons Ratio (y) = 0.42703 0.30795
# Poissons Ratio (z) = 0.20229 0.08111
#
# Static dielectric constant tensor:
#      x y z
#    x 2.245250 -0.013720 0.068300 
#    y -0.013720 2.343100 -0.038610 
#    z 0.068300 -0.038610 2.268100 
# 
# From -- ./inp_files/297959.got.cif
#   From: 2010.05.17/outbox.cif.g08.bks.cpg/sg2_149_cif.got.tgz:297959.got - 2010.06.03 11:33:40.
