data_PCOD9012965
_publ_section_title
;
Structure prediction by ZEFSAII (Michael W. Deem and Ramdas Pophale) SiO2 
 PCOD9012965
Probable space group: P -1
;
_chemical_formula_sum "Si O2"
_cell_formula_units_Z 8
_cell_length_a 7.006696
_cell_length_b 10.790595
_cell_length_c 10.425333
_cell_angle_alpha 27.817877
_cell_angle_beta 96.233858
_cell_angle_gamma 107.174758
_cell_volume 330.213304
_symmetry_space_group_name_H-M "P -1"
_symmetry_group_IT_number 2
_symmetry_cell_setting 'triclinic'
loop_
_space_group_symop_operation_xyz
x,y,z
-x,-y,-z
loop_
_atom_site_type_symbol
_atom_site_label
_atom_site_fract_x
_atom_site_fract_y
_atom_site_fract_z
Si Si1 0.275756 0.327997 0.499999
Si Si2 0.282623 0.155849 0.930133
Si Si3 0.953222 0.253074 0.327914
Si Si4 0.340928 0.734411 0.510217
O O1 0.461106 0.650621 0.251662
O O2 0.109088 0.358911 0.365197
O O3 0.410017 0.178971 0.572157
O O4 0.186573 0.154671 0.784404
O O5 0.260161 0.868673 0.264531
O O6 0.237308 0.380136 0.814506
O O7 0.723669 0.163525 0.457033
O O8 0.000000 0.000000 0.500000
O O9 0.000000 0.500000 0.000000
#
# Coordination Sequence:
#
# PCOD9012965 Si02
#       4
#     2   2   2   2
#     4   9  23  40  66  88 126 146 201 251 299 359
#     4   9  20  40  67  94 113 152 195 254 315 340
#     4  12  28  41  58  89 123 167 205 234 288 360
#     4  10  21  41  62  92 118 156 197 248 306 341
#
# _framework density 24.226765
#
# number of rings (size 3 to 8) (size 9 to 14) (size 15 to 20)
#    1.500    0.500    0.000    2.250    3.500    4.000 
#    0.000    0.000    0.000    0.000    0.000    0.000 
#    0.000    0.000    0.000    0.000    0.000    0.000 
#
# Total GULP energy -44711.546926 kJ/mol
# GULP energy per Si atom -5588.943366 kJ/mol
# Density = 2.417162 g / cm^3
# Si number density = 24.226765 Si / 1000 Ang^3
#
#
#
# Elastic Constant Matrix: (Units=GPa)
#
#
# Indices 1 2 3 4 5 6 
#
# 1 70.0121 30.1229 25.5639 12.5852 21.8762 -10.1676
# 2 30.1229 97.6856 28.0696 12.1234 3.8247 -39.0143
# 3 25.5639 28.0696 125.0129 14.6077 27.4476 -9.6600
# 4 12.5852 12.1234 14.6077 49.9453 1.9256 6.4866
# 5 21.8762 3.8247 27.4476 1.9256 28.4164 3.9583
# 6 -10.1676 -39.0143 -9.6600 6.4866 3.9583 63.4417
#
#
#
# Elastic Compliance Matrix: (Units=1/GPa)
#
#
# Indices 1 2 3 4 5 6 
#
# 1 0.022860 -0.005255 0.001140 -0.004407 -0.017998 0.002179
# 2 -0.005255 0.016399 -0.002150 -0.003317 0.002876 0.009075
# 3 0.001140 -0.002150 0.011211 -0.002807 -0.011445 0.001569
# 4 -0.004407 -0.003317 -0.002807 0.023304 0.005796 -0.005918
# 5 -0.017998 0.002876 -0.011445 0.005796 0.060327 -0.007215
# 6 0.002179 0.009075 0.001569 -0.005918 -0.007215 0.022986
#
#
# Mechanical properties :
#
#
# Convention : Reuss Voigt Hill
#
# Bulk Modulus (GPa) = 26.35732 51.13593 38.74663
# Shear Modulus (GPa) = 27.43293 42.29096 34.86194
#
# Velocity S-wave (km/s) = 3.36868 4.18261 3.79751
# Velocity P-wave (km/s) = 5.10232 6.66923 5.93769
#
# Compressibility (1/GPa) = 0.03794012
#
# Stress axis : x y z
#
# Youngs Moduli (GPa) = 43.74399 60.98113 89.19922
#
# Poissons Ratio (x) = 0.32045 -0.10170
# Poissons Ratio (y) = 0.22987 0.19178
# Poissons Ratio (z) = -0.04988 0.13111
#
# Static dielectric constant tensor:
#      x y z
#    x 2.024510 -0.016480 -0.035770 
#    y -0.016480 1.943700 -0.016170 
#    z -0.035770 -0.016170 1.848970 
# 
# From -- ./inp_files/306.got.cif
#   From: 2010.05.17/outbox.cif.g08.bks.cpg/sg2_1_cif.got.tgz:306.got - 2010.06.03 11:33:40.
