data_PCOD9012242
_publ_section_title
;
Structure prediction by ZEFSAII (Michael W. Deem and Ramdas Pophale) SiO2 
 PCOD9012242
Probable space group: P -1
;
_chemical_formula_sum "Si O2"
_cell_formula_units_Z 14
_cell_length_a 6.817343
_cell_length_b 10.099289
_cell_length_c 11.521811
_cell_angle_alpha 57.945632
_cell_angle_beta 92.682436
_cell_angle_gamma 124.674364
_cell_volume 514.558882
_symmetry_space_group_name_H-M "P -1"
_symmetry_group_IT_number 2
_symmetry_cell_setting 'triclinic'
loop_
_space_group_symop_operation_xyz
x,y,z
-x,-y,-z
loop_
_atom_site_type_symbol
_atom_site_label
_atom_site_fract_x
_atom_site_fract_y
_atom_site_fract_z
Si Si1 0.898612 0.753026 0.731161
Si Si2 0.252645 0.782468 0.546011
Si Si3 0.102515 0.826645 0.109797
Si Si4 0.483929 0.767075 0.176231
Si Si5 0.584075 0.474668 0.322239
Si Si6 0.170685 0.002827 0.266027
Si Si7 0.702585 0.397313 0.017851
O O1 0.682746 0.700865 0.661865
O O2 0.013017 0.967815 0.687422
O O3 0.752773 0.605918 0.905929
O O4 0.062433 0.711924 0.683243
O O5 0.316212 0.639415 0.573296
O O6 0.500000 0.000000 0.500000
O O7 0.146403 0.830307 0.415361
O O8 0.248329 0.756636 0.208666
O O9 0.814569 0.631550 0.164497
O O10 0.089423 0.943919 0.158719
O O11 0.276599 0.990646 0.938728
O O12 0.530666 0.622541 0.304101
O O13 0.400476 0.693293 0.073649
O O14 0.476342 0.207651 0.177240
O O15 0.000000 0.500000 0.000000
#
# Coordination Sequence:
#
# PCOD9012242 Si02
#       7
#     2   2   2   2   2   2   2
#     4  11  24  44  69  97 132 174 230 274 337 397
#     4  12  25  45  71  96 135 181 221 278 336 399
#     4  10  22  44  64  97 137 177 218 280 329 397
#     4   9  21  42  68  96 137 178 221 270 338 400
#     4  11  22  41  70  93 127 181 222 263 340 393
#     4  11  24  43  64 102 138 170 226 281 325 399
#     4  10  21  40  69 102 129 170 227 285 327 381
#
# _framework density 27.207771999999999
#
# number of rings (size 3 to 8) (size 9 to 14) (size 15 to 20)
#    0.000    1.429    1.429    3.857    2.000    0.571 
#   10.286    1.429    0.000    0.000    0.000    0.000 
#    0.000    0.000    0.000    0.000    0.000    0.000 
#
# Total GULP energy -78119.315466 kJ/mol
# GULP energy per Si atom -5579.951105 kJ/mol
# Density = 2.714585 g / cm^3
# Si number density = 27.207772 Si / 1000 Ang^3
#
#
#
# Elastic Constant Matrix: (Units=GPa)
#
#
# Indices 1 2 3 4 5 6 
#
# 1 148.0914 9.0516 37.1013 -13.4123 19.7169 -20.4533
# 2 9.0516 40.6217 5.3881 -10.2341 -8.7062 -6.9850
# 3 37.1013 5.3881 104.0598 -14.8513 8.4688 -6.4969
# 4 -13.4123 -10.2341 -14.8513 22.6291 -8.9972 5.5567
# 5 19.7169 -8.7062 8.4688 -8.9972 52.5350 -17.7111
# 6 -20.4533 -6.9850 -6.4969 5.5567 -17.7111 43.2472
#
#
#
# Elastic Compliance Matrix: (Units=1/GPa)
#
#
# Indices 1 2 3 4 5 6 
#
# 1 0.008104 -0.001098 -0.002327 0.001483 -0.001792 0.002382
# 2 -0.001098 0.032739 0.000706 0.017267 0.011110 0.007206
# 3 -0.002327 0.000706 0.011303 0.006469 0.000274 -0.000007
# 4 0.001483 0.017267 0.006469 0.061645 0.012360 0.001603
# 5 -0.001792 0.011110 0.000274 0.012360 0.027170 0.010527
# 6 0.002382 0.007206 -0.000007 0.001603 0.010527 0.029517
#
#
# Mechanical properties :
#
#
# Convention : Reuss Voigt Hill
#
# Bulk Modulus (GPa) = 21.40879 43.98391 32.69635
# Shear Modulus (GPa) = 26.11159 39.76439 32.93799
#
# Velocity S-wave (km/s) = 3.10128 3.82712 3.48316
# Velocity P-wave (km/s) = 4.55078 5.97747 5.31224
#
# Compressibility (1/GPa) = 0.04670979
#
# Stress axis : x y z
#
# Youngs Moduli (GPa) = 123.39043 30.54480 88.46926
#
# Poissons Ratio (x) = 0.03354 0.20583
# Poissons Ratio (y) = 0.13551 -0.06249
# Poissons Ratio (z) = 0.28707 -0.02158
#
# Static dielectric constant tensor:
#      x y z
#    x 2.213550 -0.031590 0.045110 
#    y -0.031590 2.152840 -0.076640 
#    z 0.045110 -0.076640 2.188710 
# 
# From -- ./inp_files/482028.got.cif
#   From: 2010.05.17/outbox.cif.g08.bks.cpg/sg2_242_cif.got.tgz:482028.got - 2010.06.03 11:33:40.
