data_PCOD9012801
_publ_section_title
;
Structure prediction by ZEFSAII (Michael W. Deem and Ramdas Pophale) SiO2 
 PCOD9012801
Probable space group: P -1
;
_chemical_formula_sum "Si O2"
_cell_formula_units_Z 16
_cell_length_a 19.467580
_cell_length_b 19.356835
_cell_length_c 9.052055
_cell_angle_alpha 52.875899
_cell_angle_beta 140.323068
_cell_angle_gamma 158.623457
_cell_volume 693.635863
_symmetry_space_group_name_H-M "P -1"
_symmetry_group_IT_number 2
_symmetry_cell_setting 'triclinic'
loop_
_space_group_symop_operation_xyz
x,y,z
-x,-y,-z
loop_
_atom_site_type_symbol
_atom_site_label
_atom_site_fract_x
_atom_site_fract_y
_atom_site_fract_z
Si Si1 0.462649 0.378985 0.673003
Si Si2 0.721109 0.287911 0.400754
Si Si3 0.402336 0.515581 0.897890
Si Si4 0.291015 0.073333 0.814233
Si Si5 0.246825 0.959855 0.579091
Si Si6 0.001932 0.792599 0.964064
Si Si7 0.513400 0.950370 0.407027
Si Si8 0.182232 0.066499 0.128661
O O1 0.500000 0.500000 0.500000
O O2 0.252845 0.145410 0.610285
O O3 0.739173 0.540505 0.862904
O O4 0.499636 0.419018 0.856366
O O5 0.550305 0.079392 0.326535
O O6 0.000000 0.500000 0.500000
O O7 0.731241 0.273098 0.613546
O O8 0.546188 0.243685 0.125400
O O9 0.573586 0.714327 0.841597
O O10 0.079802 0.294467 0.644343
O O11 0.500000 0.500000 0.000000
O O12 0.316210 0.029999 0.771613
O O13 0.047553 0.861984 0.786777
O O14 0.427574 0.027315 0.695354
O O15 0.296524 0.086153 0.413297
O O16 0.238816 0.911656 0.273507
O O17 0.003706 0.878006 0.963728
O O18 0.000000 0.000000 0.000000
#
# Coordination Sequence:
#
# PCOD9012801 Si02
#       8
#     2   2   2   2   2   2   2   2
#     4  12  26  39  62  92 128 170 219 261 308 375
#     4  10  21  41  72  93 120 164 213 260 323 398
#     4  12  24  41  63  90 123 181 219 252 315 374
#     4  11  26  41  62  97 128 166 211 264 328 372
#     4  11  25  40  63  93 136 164 210 270 311 379
#     4  10  21  41  61  88 128 165 209 264 312 382
#     4   9  20  41  65  93 123 164 205 260 328 370
#     4  11  21  38  62  84 123 172 219 257 308 368
#
# _framework density 23.066856999999999
#
# number of rings (size 3 to 8) (size 9 to 14) (size 15 to 20)
#    0.000    1.250    5.000    0.750    5.250    1.000 
#    0.000    0.625    0.000    0.000    0.000    0.000 
#    0.000    0.000    0.000    0.000    0.000    0.000 
#
# Total GULP energy -89272.090961 kJ/mol
# GULP energy per Si atom -5579.505685 kJ/mol
# Density = 2.301436 g / cm^3
# Si number density = 23.066857 Si / 1000 Ang^3
#
#
#
# Elastic Constant Matrix: (Units=GPa)
#
#
# Indices 1 2 3 4 5 6 
#
# 1 146.7585 23.3687 8.7997 -14.9041 -22.2047 15.6800
# 2 23.3687 129.0481 29.6898 -26.1406 -8.8886 33.0278
# 3 8.7997 29.6898 43.4451 -22.3241 -10.8080 1.1535
# 4 -14.9041 -26.1406 -22.3241 34.2647 4.8676 2.5648
# 5 -22.2047 -8.8886 -10.8080 4.8676 38.2176 -10.3983
# 6 15.6800 33.0278 1.1535 2.5648 -10.3983 41.9630
#
#
#
# Elastic Compliance Matrix: (Units=1/GPa)
#
#
# Indices 1 2 3 4 5 6 
#
# 1 0.007978 -0.000188 0.001588 0.003959 0.003954 -0.002139
# 2 -0.000188 0.013354 -0.005437 0.007794 -0.002641 -0.011422
# 3 0.001588 -0.005437 0.039081 0.020443 0.009090 0.003614
# 4 0.003959 0.007794 0.020443 0.050960 0.000356 -0.011202
# 5 0.003954 -0.002641 0.009090 0.000356 0.032666 0.008424
# 6 -0.002139 -0.011422 0.003614 -0.011202 0.008424 0.036292
#
#
# Mechanical properties :
#
#
# Convention : Reuss Voigt Hill
#
# Bulk Modulus (GPa) = 19.10647 49.21865 34.16256
# Shear Modulus (GPa) = 24.28930 40.04864 32.16897
#
# Velocity S-wave (km/s) = 3.24851 4.17129 3.73848
# Velocity P-wave (km/s) = 4.72985 6.67707 5.78596
#
# Compressibility (1/GPa) = 0.05233829
#
# Stress axis : x y z
#
# Youngs Moduli (GPa) = 125.35248 74.88397 25.58761
#
# Poissons Ratio (x) = 0.01409 -0.04062
# Poissons Ratio (y) = 0.02359 0.13911
# Poissons Ratio (z) = -0.19901 0.40713
#
# Static dielectric constant tensor:
#      x y z
#    x 2.035270 0.060910 0.134670 
#    y 0.060910 1.947640 0.080850 
#    z 0.134670 0.080850 2.063470 
# 
# From -- ./inp_files/217249.got.cif
#   From: 2010.05.17/outbox.cif.g08.bks.cpg/sg2_109_cif.got.tgz:217249.got - 2010.06.03 11:33:40.
