data_PCOD9012824
_publ_section_title
;
Structure prediction by ZEFSAII (Michael W. Deem and Ramdas Pophale) SiO2 
 PCOD9012824
Probable space group: P -1
;
_chemical_formula_sum "Si O2"
_cell_formula_units_Z 16
_cell_length_a 7.352727
_cell_length_b 9.093670
_cell_length_c 19.518913
_cell_angle_alpha 143.306739
_cell_angle_beta 119.178253
_cell_angle_gamma 75.937164
_cell_volume 652.933384
_symmetry_space_group_name_H-M "P -1"
_symmetry_group_IT_number 2
_symmetry_cell_setting 'triclinic'
loop_
_space_group_symop_operation_xyz
x,y,z
-x,-y,-z
loop_
_atom_site_type_symbol
_atom_site_label
_atom_site_fract_x
_atom_site_fract_y
_atom_site_fract_z
Si Si1 0.949207 0.726199 0.533866
Si Si2 0.775886 0.479705 0.683187
Si Si3 0.269862 0.013990 0.178667
Si Si4 0.595365 0.962367 0.115252
Si Si5 0.031249 0.860241 0.205304
Si Si6 0.232247 0.009076 0.579277
Si Si7 0.148859 0.610958 0.901445
Si Si8 0.582464 0.486571 0.264689
O O1 0.775326 0.602195 0.397804
O O2 0.000000 0.500000 0.500000
O O3 0.866127 0.907901 0.637452
O O4 0.163923 0.903069 0.602326
O O5 0.764382 0.707066 0.715053
O O6 0.693909 0.203958 0.530001
O O7 0.635451 0.510418 0.734438
O O8 0.016256 0.533674 0.778673
O O9 0.507565 0.042140 0.201873
O O10 0.203152 0.852979 0.175175
O O11 0.122800 0.861632 0.031478
O O12 0.829546 0.923378 0.152717
O O13 0.584452 0.192019 0.147985
O O14 0.407050 0.700177 0.968761
O O15 0.933542 0.615056 0.143250
O O16 0.618116 0.703817 0.294499
O O17 0.000000 0.000000 0.500000
#
# Coordination Sequence:
#
# PCOD9012824 Si02
#       8
#     2   2   2   2   2   2   2   2
#     4  11  22  40  63  91 128 164 208 255 310 379
#     4  11  21  43  65  89 127 165 201 264 320 364
#     4   9  23  39  65  92 126 162 209 259 316 367
#     4   9  22  40  65  91 129 163 210 262 308 374
#     4  12  21  43  65  90 128 171 205 263 316 365
#     4  10  22  38  62  92 124 162 207 256 305 380
#     4  10  22  41  64  92 125 164 214 258 311 374
#     4  10  21  41  61  91 126 162 207 260 312 371
#
# _framework density 24.504797
#
# number of rings (size 3 to 8) (size 9 to 14) (size 15 to 20)
#    0.750    1.000    1.250    3.750    1.750    0.000 
#    4.500    5.000    0.000    0.000    0.000    0.000 
#    0.000    0.000    0.000    0.000    0.000    0.000 
#
# Total GULP energy -89442.492465 kJ/mol
# GULP energy per Si atom -5590.155779 kJ/mol
# Density = 2.444902 g / cm^3
# Si number density = 24.504797 Si / 1000 Ang^3
#
#
#
# Elastic Constant Matrix: (Units=GPa)
#
#
# Indices 1 2 3 4 5 6 
#
# 1 49.5391 29.7715 4.5091 8.7366 11.6350 13.4862
# 2 29.7715 89.3596 31.9482 16.6097 12.0224 16.9059
# 3 4.5091 31.9482 95.0857 13.6253 -10.0144 5.7389
# 4 8.7366 16.6097 13.6253 33.0916 6.0609 1.2810
# 5 11.6350 12.0224 -10.0144 6.0609 32.7923 10.6722
# 6 13.4862 16.9059 5.7389 1.2810 10.6722 37.8127
#
#
#
# Elastic Compliance Matrix: (Units=1/GPa)
#
#
# Indices 1 2 3 4 5 6 
#
# 1 0.027617 -0.007593 0.001578 -0.003153 -0.004191 -0.005405
# 2 -0.007593 0.017314 -0.005083 -0.003835 -0.003471 -0.003152
# 3 0.001578 -0.005083 0.013705 -0.004720 0.007080 -0.002209
# 4 -0.003153 -0.003835 -0.004720 0.036031 -0.006977 0.004304
# 5 -0.004191 -0.003471 0.007080 -0.006977 0.039628 -0.008976
# 6 -0.005405 -0.003152 -0.002209 0.004304 -0.008976 0.032506
#
#
# Mechanical properties :
#
#
# Convention : Reuss Voigt Hill
#
# Bulk Modulus (GPa) = 27.44179 40.71578 34.07878
# Shear Modulus (GPa) = 24.85787 31.92302 28.39044
#
# Velocity S-wave (km/s) = 3.18843 3.61324 3.40747
# Velocity P-wave (km/s) = 4.97772 5.83600 5.42386
#
# Compressibility (1/GPa) = 0.03644078
#
# Stress axis : x y z
#
# Youngs Moduli (GPa) = 36.20902 57.75706 72.96515
#
# Poissons Ratio (x) = 0.43854 -0.11515
# Poissons Ratio (y) = 0.27493 0.37089
# Poissons Ratio (z) = -0.05714 0.29359
#
# Static dielectric constant tensor:
#      x y z
#    x 2.016250 -0.009020 -0.006260 
#    y -0.009020 1.942330 0.014510 
#    z -0.006260 0.014510 1.972740 
# 
# From -- ./inp_files/588226.got.cif
#   From: 2010.05.17/outbox.cif.g08.bks.cpg/sg2_295_cif.got.tgz:588226.got - 2010.06.03 11:33:40.
