data_PCOD9012665
_publ_section_title
;
Structure prediction by ZEFSAII (Michael W. Deem and Ramdas Pophale) SiO2 
 PCOD9012665
Probable space group: P -1
;
_chemical_formula_sum "Si O2"
_cell_formula_units_Z 12
_cell_length_a 13.553057
_cell_length_b 7.132062
_cell_length_c 13.869328
_cell_angle_alpha 110.633205
_cell_angle_beta 30.137895
_cell_angle_gamma 129.552029
_cell_volume 445.726404
_symmetry_space_group_name_H-M "P -1"
_symmetry_group_IT_number 2
_symmetry_cell_setting 'triclinic'
loop_
_space_group_symop_operation_xyz
x,y,z
-x,-y,-z
loop_
_atom_site_type_symbol
_atom_site_label
_atom_site_fract_x
_atom_site_fract_y
_atom_site_fract_z
Si Si1 0.112277 0.400567 0.185035
Si Si2 0.360504 0.113871 0.263632
Si Si3 0.192039 0.016067 0.017423
Si Si4 0.779438 0.583042 0.683422
Si Si5 0.360966 0.387459 0.491267
Si Si6 0.505105 0.110196 0.617261
O O1 0.212576 0.402488 0.205731
O O2 0.808172 0.270686 0.428283
O O3 0.333196 0.707361 0.003195
O O4 0.101089 0.179351 0.097253
O O5 0.280451 0.248288 0.288490
O O6 0.379097 0.204464 0.375349
O O7 0.101040 0.774400 0.414869
O O8 0.510946 0.257692 0.826742
O O9 0.231992 0.888912 0.873363
O O10 0.960685 0.793739 0.249679
O O11 0.500000 0.500000 0.500000
O O12 0.491272 0.652329 0.364436
O O13 0.500000 0.000000 0.500000
#
# Coordination Sequence:
#
# PCOD9012665 Si02
#       6
#     2   2   2   2   2   2
#     4  11  23  43  74 100 138 179 223 285 343 400
#     4  10  21  40  74 103 136 177 228 277 341 413
#     4  11  24  47  73  96 142 179 227 284 340 406
#     4  10  21  41  74 106 132 182 225 275 353 406
#     4  12  26  45  72 100 136 188 229 277 347 401
#     4  12  29  46  67 103 137 185 236 280 338 404
#
# _framework density 26.922346000000001
#
# number of rings (size 3 to 8) (size 9 to 14) (size 15 to 20)
#    0.000    1.000    5.000    3.000    4.667    4.000 
#    0.000    1.667    0.000    0.000    0.000    0.000 
#    0.000    0.000    0.000    0.000    0.000    0.000 
#
# Total GULP energy -67152.334080 kJ/mol
# GULP energy per Si atom -5596.027840 kJ/mol
# Density = 2.686107 g / cm^3
# Si number density = 26.922346 Si / 1000 Ang^3
#
#
#
# Elastic Constant Matrix: (Units=GPa)
#
#
# Indices 1 2 3 4 5 6 
#
# 1 120.1072 18.5408 34.8538 5.2231 -1.9775 16.6173
# 2 18.5408 63.0945 11.3026 -5.0844 6.9293 17.1296
# 3 34.8538 11.3026 163.5132 4.3518 29.1022 8.2667
# 4 5.2231 -5.0844 4.3518 46.4651 -1.3566 5.2271
# 5 -1.9775 6.9293 29.1022 -1.3566 48.7526 5.9018
# 6 16.6173 17.1296 8.2667 5.2271 5.9018 31.3233
#
#
#
# Elastic Compliance Matrix: (Units=1/GPa)
#
#
# Indices 1 2 3 4 5 6 
#
# 1 0.009855 -0.001707 -0.002194 -0.000559 0.002430 -0.004080
# 2 -0.001707 0.019558 -0.000335 0.003452 -0.001340 -0.010025
# 3 -0.002194 -0.000335 0.007412 -0.000656 -0.004527 0.000353
# 4 -0.000559 0.003452 -0.000656 0.022667 0.001165 -0.005420
# 5 0.002430 -0.001340 -0.004527 0.001165 0.024030 -0.004084
# 6 -0.004080 -0.010025 0.000353 -0.005420 -0.004084 0.041153
#
#
# Mechanical properties :
#
#
# Convention : Reuss Voigt Hill
#
# Bulk Modulus (GPa) = 35.26969 52.90102 44.08536
# Shear Modulus (GPa) = 35.06380 44.10938 39.58659
#
# Velocity S-wave (km/s) = 3.61280 4.05210 3.83874
# Velocity P-wave (km/s) = 5.52558 6.44863 6.00487
#
# Compressibility (1/GPa) = 0.02835295
#
# Stress axis : x y z
#
# Youngs Moduli (GPa) = 101.47183 51.13028 134.91989
#
# Poissons Ratio (x) = 0.08729 0.29602
# Poissons Ratio (y) = 0.17323 0.04515
# Poissons Ratio (z) = 0.22263 0.01711
#
# Static dielectric constant tensor:
#      x y z
#    x 2.148300 0.088200 0.022590 
#    y 0.088200 2.230300 0.079340 
#    z 0.022590 0.079340 2.123090 
# 
# From -- ./inp_files/502264.got.cif
#   From: 2010.05.17/outbox.cif.g08.bks.cpg/sg2_252_cif.got.tgz:502264.got - 2010.06.03 11:33:40.
