data_PCOD9012196
_publ_section_title
;
Structure prediction by ZEFSAII (Michael W. Deem and Ramdas Pophale) SiO2 
 PCOD9012196
Probable space group: P -1
;
_chemical_formula_sum "Si O2"
_cell_formula_units_Z 16
_cell_length_a 14.540592
_cell_length_b 8.794140
_cell_length_c 9.033965
_cell_angle_alpha 125.234476
_cell_angle_beta 115.755089
_cell_angle_gamma 96.782938
_cell_volume 735.322879
_symmetry_space_group_name_H-M "P -1"
_symmetry_group_IT_number 2
_symmetry_cell_setting 'triclinic'
loop_
_space_group_symop_operation_xyz
x,y,z
-x,-y,-z
loop_
_atom_site_type_symbol
_atom_site_label
_atom_site_fract_x
_atom_site_fract_y
_atom_site_fract_z
Si Si1 0.438469 0.390555 0.745812
Si Si2 0.390679 0.354471 0.240985
Si Si3 0.810962 0.532584 0.792703
Si Si4 0.778572 0.529504 0.421372
Si Si5 0.250343 0.911438 0.342344
Si Si6 0.242613 0.892443 0.971641
Si Si7 0.987595 0.290577 0.450956
Si Si8 0.971600 0.155076 0.673332
O O1 0.552701 0.530888 0.805948
O O2 0.330662 0.428332 0.641382
O O3 0.376475 0.131402 0.563716
O O4 0.500000 0.500000 0.000000
O O5 0.500000 0.500000 0.500000
O O6 0.279764 0.382100 0.206513
O O7 0.353777 0.110865 0.114990
O O8 0.815112 0.514935 0.607424
O O9 0.760447 0.302998 0.712029
O O10 0.930490 0.703704 0.056771
O O11 0.746662 0.309643 0.189902
O O12 0.896020 0.711448 0.522019
O O13 0.153821 0.939417 0.386214
O O14 0.224577 0.882700 0.130917
O O15 0.132925 0.889155 0.806942
O O16 0.978684 0.309880 0.630703
O O17 0.000000 0.500000 0.500000
O O18 0.000000 0.000000 0.500000
#
# Coordination Sequence:
#
# PCOD9012196 Si02
#       8
#     2   2   2   2   2   2   2   2
#     4  12  30  46  70  97 142 184 241 288 339 415
#     4  12  26  50  66  99 139 186 240 283 344 409
#     4  12  26  44  75 103 144 180 232 290 345 417
#     4  11  24  47  71 105 137 186 229 287 356 410
#     4  12  26  46  71 108 138 183 233 288 349 411
#     4  11  24  45  75 100 142 182 231 289 348 417
#     4  10  21  40  68  99 134 170 218 275 343 410
#     4  12  26  44  73 107 141 179 226 288 353 416
#
# _framework density 21.759148
#
# number of rings (size 3 to 8) (size 9 to 14) (size 15 to 20)
#    0.000    0.500    2.500    5.625    8.750    2.000 
#    0.000    3.750    0.000    0.000    0.000    0.000 
#    0.000    0.000    0.000    0.000    0.000    0.000 
#
# Total GULP energy -89286.762270 kJ/mol
# GULP energy per Si atom -5580.422642 kJ/mol
# Density = 2.170962 g / cm^3
# Si number density = 21.759148 Si / 1000 Ang^3
#
#
#
# Elastic Constant Matrix: (Units=GPa)
#
#
# Indices 1 2 3 4 5 6 
#
# 1 46.8455 -0.2402 -1.5173 3.4657 -15.3545 18.0246
# 2 -0.2402 66.5421 32.2384 10.9362 -13.6111 14.7541
# 3 -1.5173 32.2384 123.9769 -12.9605 -11.9745 19.9822
# 4 3.4657 10.9362 -12.9605 41.2305 5.3261 -7.8337
# 5 -15.3545 -13.6111 -11.9745 5.3261 35.3338 -7.9775
# 6 18.0246 14.7541 19.9822 -7.8337 -7.9775 53.9405
#
#
#
# Elastic Compliance Matrix: (Units=1/GPa)
#
#
# Indices 1 2 3 4 5 6 
#
# 1 0.031534 0.006620 0.001165 -0.008237 0.015244 -0.011721
# 2 0.006620 0.022723 -0.004896 -0.010693 0.010075 -0.006676
# 3 0.001165 -0.004896 0.010197 0.003873 0.001015 -0.002115
# 4 -0.008237 -0.010693 0.003873 0.031637 -0.009476 0.007435
# 5 0.015244 0.010075 0.001015 -0.009476 0.039738 -0.003724
# 6 -0.011721 -0.006676 -0.002115 0.007435 -0.003724 0.025594
#
#
# Mechanical properties :
#
#
# Convention : Reuss Voigt Hill
#
# Bulk Modulus (GPa) = 14.23857 33.14734 23.69295
# Shear Modulus (GPa) = 27.92418 39.89320 33.90869
#
# Velocity S-wave (km/s) = 3.58625 4.28647 3.95190
# Velocity P-wave (km/s) = 4.86890 6.30597 5.63344
#
# Compressibility (1/GPa) = 0.07023179
#
# Stress axis : x y z
#
# Youngs Moduli (GPa) = 31.71157 44.00900 98.06530
#
# Poissons Ratio (x) = -0.29134 -0.11424
# Poissons Ratio (y) = -0.20993 0.48015
# Poissons Ratio (z) = -0.03694 0.21548
#
# Static dielectric constant tensor:
#      x y z
#    x 1.780390 -0.080880 -0.011710 
#    y -0.080880 1.840230 0.089760 
#    z -0.011710 0.089760 1.892070 
# 
# From -- ./inp_files/299583.got.cif
#   From: 2010.05.17/outbox.cif.g08.bks.cpg/sg2_150_cif.got.tgz:299583.got - 2010.06.03 11:33:40.
