data_PCOD9012398
_publ_section_title
;
Structure prediction by ZEFSAII (Michael W. Deem and Ramdas Pophale) SiO2 
 PCOD9012398
Probable space group: P -1
;
_chemical_formula_sum "Si O2"
_cell_formula_units_Z 16
_cell_length_a 12.627904
_cell_length_b 7.923364
_cell_length_c 9.159444
_cell_angle_alpha 97.340203
_cell_angle_beta 98.984224
_cell_angle_gamma 47.211978
_cell_volume 664.010179
_symmetry_space_group_name_H-M "P -1"
_symmetry_group_IT_number 2
_symmetry_cell_setting 'triclinic'
loop_
_space_group_symop_operation_xyz
x,y,z
-x,-y,-z
loop_
_atom_site_type_symbol
_atom_site_label
_atom_site_fract_x
_atom_site_fract_y
_atom_site_fract_z
Si Si1 0.575957 0.975344 0.730690
Si Si2 0.405408 0.485592 0.867598
Si Si3 0.825142 0.839165 0.939433
Si Si4 0.215428 0.822533 0.612187
Si Si5 0.102294 0.720286 0.341117
Si Si6 0.689951 0.911368 0.422977
Si Si7 0.067015 0.417909 0.765362
Si Si8 0.833712 0.213073 0.946398
O O1 0.487352 0.239645 0.786014
O O2 0.456801 0.955116 0.688657
O O3 0.704911 0.833952 0.859639
O O4 0.648530 0.912094 0.579457
O O5 0.335014 0.670989 0.743859
O O6 0.500000 0.500000 0.000000
O O7 0.263803 0.578784 0.938821
O O8 0.972381 0.656239 0.857539
O O9 0.773720 0.083913 0.920376
O O10 0.858366 0.771448 0.108707
O O11 0.208410 0.673906 0.482896
O O12 0.249595 0.961849 0.553345
O O13 0.050799 0.012519 0.657482
O O14 0.170592 0.689998 0.197590
O O15 0.050652 0.583018 0.331236
O O16 0.813627 0.669149 0.339743
O O17 0.000000 0.000000 0.000000
#
# Coordination Sequence:
#
# PCOD9012398 Si02
#       8
#     2   2   2   2   2   2   2   2
#     4  11  26  45  64  94 138 180 217 268 334 401
#     4  12  26  44  66 100 138 178 220 272 336 395
#     4  11  23  42  65  99 135 167 221 275 330 395
#     4  10  22  43  67  97 132 170 224 273 326 394
#     4  10  21  40  69  99 127 169 221 280 327 380
#     4  10  24  46  66  95 132 177 221 271 328 395
#     4  10  23  42  68  99 128 171 224 276 328 387
#     4  12  21  41  69  97 132 172 219 276 322 391
#
# _framework density 24.096017
#
# number of rings (size 3 to 8) (size 9 to 14) (size 15 to 20)
#    0.000    1.250    3.750    1.500    1.750    3.500 
#    2.250    0.000    0.000    0.000    0.000    0.000 
#    0.000    0.000    0.000    0.000    0.000    0.000 
#
# Total GULP energy -89525.050387 kJ/mol
# GULP energy per Si atom -5595.315649 kJ/mol
# Density = 2.404117 g / cm^3
# Si number density = 24.096017 Si / 1000 Ang^3
#
#
#
# Elastic Constant Matrix: (Units=GPa)
#
#
# Indices 1 2 3 4 5 6 
#
# 1 77.8490 30.3362 36.7923 2.7464 13.4686 -11.1631
# 2 30.3362 76.4419 36.2615 23.1527 -16.3075 -23.0857
# 3 36.7923 36.2615 111.7241 15.6793 7.1811 -17.2054
# 4 2.7464 23.1527 15.6793 38.9201 -19.8023 -1.2677
# 5 13.4686 -16.3075 7.1811 -19.8023 49.2471 1.4542
# 6 -11.1631 -23.0857 -17.2054 -1.2677 1.4542 25.8718
#
#
#
# Elastic Compliance Matrix: (Units=1/GPa)
#
#
# Indices 1 2 3 4 5 6 
#
# 1 0.018462 -0.007724 -0.003462 0.001332 -0.006543 -0.000795
# 2 -0.007724 0.027766 -0.002450 -0.010962 0.006698 0.018901
# 3 -0.003462 -0.002450 0.012589 -0.005221 -0.003937 0.004658
# 4 0.001332 -0.010962 -0.005221 0.040707 0.013473 -0.011442
# 5 -0.006543 0.006698 -0.003937 0.013473 0.030320 -0.000509
# 6 -0.000795 0.018901 0.004658 -0.011442 -0.000509 0.057740
#
#
# Mechanical properties :
#
#
# Convention : Reuss Voigt Hill
#
# Bulk Modulus (GPa) = 31.69927 52.53279 42.11603
# Shear Modulus (GPa) = 22.18564 33.64946 27.91755
#
# Velocity S-wave (km/s) = 3.03763 3.74100 3.40751
# Velocity P-wave (km/s) = 5.04845 6.36466 5.74438
#
# Compressibility (1/GPa) = 0.03154647
#
# Stress axis : x y z
#
# Youngs Moduli (GPa) = 54.16416 36.01470 79.43542
#
# Poissons Ratio (x) = 0.27818 0.27498
# Poissons Ratio (y) = 0.41837 0.19460
# Poissons Ratio (z) = 0.18750 0.08823
#
# Static dielectric constant tensor:
#      x y z
#    x 2.017300 -0.011910 0.074860 
#    y -0.011910 1.950830 0.036150 
#    z 0.074860 0.036150 1.921570 
# 
# From -- ./inp_files/244644.got.cif
#   From: 2010.05.17/outbox.cif.g08.bks.cpg/sg2_123_cif.got.tgz:244644.got - 2010.06.03 11:33:40.
