data_PCOD9012891
_publ_section_title
;
Structure prediction by ZEFSAII (Michael W. Deem and Ramdas Pophale) SiO2 
 PCOD9012891
Probable space group: P -1
;
_chemical_formula_sum "Si O2"
_cell_formula_units_Z 12
_cell_length_a 15.770291
_cell_length_b 15.771866
_cell_length_c 10.721528
_cell_angle_alpha 50.944847
_cell_angle_beta 129.059062
_cell_angle_gamma 160.870010
_cell_volume 672.242335
_symmetry_space_group_name_H-M "P -1"
_symmetry_group_IT_number 2
_symmetry_cell_setting 'triclinic'
loop_
_space_group_symop_operation_xyz
x,y,z
-x,-y,-z
loop_
_atom_site_type_symbol
_atom_site_label
_atom_site_fract_x
_atom_site_fract_y
_atom_site_fract_z
Si Si1 0.433351 0.568164 0.385462
Si Si2 0.580006 0.419472 0.926537
Si Si3 0.094329 0.904233 0.507464
Si Si4 0.680068 0.318821 0.303871
Si Si5 0.187692 0.811131 0.483327
Si Si6 0.990318 0.010489 0.129064
O O1 0.500000 0.500000 0.500000
O O2 0.409598 0.590144 0.202660
O O3 0.164991 0.337262 0.425821
O O4 0.665921 0.837758 0.425270
O O5 0.793123 0.704309 0.895843
O O6 0.637064 0.363627 0.111007
O O7 0.294343 0.204956 0.896153
O O8 0.154709 0.846086 0.548149
O O9 0.047684 0.951921 0.312122
O O10 0.744900 0.255365 0.376396
O O11 0.921473 0.575798 0.375253
O O12 0.421659 0.075981 0.374258
O O13 0.000000 0.000000 0.000000
#
# Coordination Sequence:
#
# PCOD9012891 Si02
#       6
#     2   2   2   2   2   2
#     4  12  23  40  57  82 122 164 188 232 283 346
#     4  12  23  38  58  85 116 154 193 230 290 342
#     4  12  22  39  59  86 116 154 201 228 289 343
#     4  10  21  41  62  87 117 150 191 237 301 339
#     4  10  22  40  64  86 116 152 188 245 291 344
#     4  12  23  35  58  87 117 144 188 247 289 341
#
# _framework density 17.850705999999999
#
# number of rings (size 3 to 8) (size 9 to 14) (size 15 to 20)
#    0.000    0.667    3.333    6.000    0.000    0.000 
#    0.000    1.667    0.000    0.000    0.000    0.000 
#    0.000    0.000    0.000    0.000    0.000    0.000 
#
# Total GULP energy -67141.335065 kJ/mol
# GULP energy per Si atom -5595.111255 kJ/mol
# Density = 1.781008 g / cm^3
# Si number density = 17.850706 Si / 1000 Ang^3
#
#
#
# Elastic Constant Matrix: (Units=GPa)
#
#
# Indices 1 2 3 4 5 6 
#
# 1 106.4051 175.3825 54.7515 -60.6682 -60.0622 -164.1409
# 2 175.3825 -252.5599 -29.6049 281.6978 86.2227 700.0125
# 3 54.7515 -29.6049 58.1989 46.9196 -11.0191 105.2831
# 4 -60.6682 281.6978 46.9196 -149.9688 -72.1106 -447.0796
# 5 -60.0622 86.2227 -11.0191 -72.1106 2.2030 -177.5424
# 6 -164.1409 700.0125 105.2831 -447.0796 -177.5424-1080.4675
#
#
#
# Elastic Compliance Matrix: (Units=1/GPa)
#
#
# Indices 1 2 3 4 5 6 
#
# 1 0.011851 -0.002656 -0.001326 -0.003277 0.009005 -0.003774
# 2 -0.002656 0.006515 -0.001590 0.002118 0.001653 0.003321
# 3 -0.001326 -0.001590 0.024391 -0.003169 0.019293 -0.000311
# 4 -0.003277 0.002118 -0.003169 0.030233 -0.005676 -0.010016
# 5 0.009005 0.001653 0.019293 -0.005676 0.060542 -0.006017
# 6 -0.003774 0.003321 -0.000311 -0.010016 -0.006017 0.006902
#
#
# Mechanical properties :
#
#
# Convention : Reuss Voigt Hill
#
# Bulk Modulus (GPa) = 31.63291 34.78913 33.21102
# Shear Modulus (GPa) = 30.84219 -264.87899 -117.01840
#
# Velocity S-wave (km/s) = 4.16117 -12.19458 -8.10532
# Velocity P-wave (km/s) = 6.39112 13.36959 8.30360
#
# Compressibility (1/GPa) = 0.03161265
#
# Stress axis : x y z
#
# Youngs Moduli (GPa) = 84.38431 153.50190 40.99811
#
# Poissons Ratio (x) = 0.40763 0.05436
# Poissons Ratio (y) = 0.22409 0.06520
# Poissons Ratio (z) = 0.11189 0.24413
#
# Static dielectric constant tensor:
#      x y z
#    x 1.586610 0.001080 0.008420 
#    y 0.001080 1.592510 -0.001460 
#    z 0.008420 -0.001460 1.584360 
# 
# From -- ./inp_files/19050.got.cif
#   From: 2010.05.17/outbox.cif.g08.bks.cpg/sg2_10_cif.got.tgz:19050.got - 2010.06.03 11:33:40.
