data_PCOD9012344
_publ_section_title
;
Structure prediction by ZEFSAII (Michael W. Deem and Ramdas Pophale) SiO2 
 PCOD9012344
Probable space group: P -1
;
_chemical_formula_sum "Si O2"
_cell_formula_units_Z 16
_cell_length_a 19.810907
_cell_length_b 10.866767
_cell_length_c 19.041094
_cell_angle_alpha 39.326526
_cell_angle_beta 20.526001
_cell_angle_gamma 29.366371
_cell_volume 682.841421
_symmetry_space_group_name_H-M "P -1"
_symmetry_group_IT_number 2
_symmetry_cell_setting 'triclinic'
loop_
_space_group_symop_operation_xyz
x,y,z
-x,-y,-z
loop_
_atom_site_type_symbol
_atom_site_label
_atom_site_fract_x
_atom_site_fract_y
_atom_site_fract_z
Si Si1 0.747052 0.439367 0.324224
Si Si2 0.058733 0.185767 0.519148
Si Si3 0.729564 0.915690 0.110979
Si Si4 0.454107 0.641811 0.319946
Si Si5 0.001551 0.823524 0.021123
Si Si6 0.230236 0.714261 0.370856
Si Si7 0.755304 0.748411 0.399732
Si Si8 0.159997 0.258130 0.526797
O O1 0.500000 0.500000 0.500000
O O2 0.722458 0.687327 0.231131
O O3 0.727358 0.388453 0.447590
O O4 0.031225 0.204254 0.120447
O O5 0.826999 0.243408 0.675089
O O6 0.032319 0.432393 0.422165
O O7 0.061775 0.164557 0.609267
O O8 0.328234 0.925633 0.342241
O O9 0.433453 0.155799 0.276044
O O10 0.788116 0.980876 0.099542
O O11 0.734430 0.392645 0.180122
O O12 0.458060 0.632517 0.235457
O O13 0.962589 0.659928 0.178710
O O14 0.000000 0.000000 0.000000
O O15 0.231336 0.485344 0.490272
O O16 0.000000 0.000000 0.500000
O O17 0.797649 0.834133 0.393834
O O18 0.500000 0.000000 0.500000
#
# Coordination Sequence:
#
# PCOD9012344 Si02
#       8
#     2   2   2   2   2   2   2   2
#     4  11  23  41  68 104 138 178 220 286 362 418
#     4   9  21  41  69  90 127 188 225 279 344 404
#     4  11  24  41  68 103 140 179 227 287 356 427
#     4  11  22  41  67  92 137 175 230 284 341 418
#     4  12  26  38  62 106 144 181 230 286 359 429
#     4   9  20  41  67  91 128 184 228 281 345 412
#     4  11  21  39  66 100 134 176 226 287 358 412
#     4  10  21  40  69  95 135 174 230 283 343 414
#
# _framework density 23.431501999999998
#
# number of rings (size 3 to 8) (size 9 to 14) (size 15 to 20)
#    0.000    1.500    2.500    2.250    5.250    1.000 
#    0.000    6.250   13.750    0.000    0.000    0.000 
#    0.000    0.000    0.000    0.000    0.000    0.000 
#
# Total GULP energy -89233.525266 kJ/mol
# GULP energy per Si atom -5577.095329 kJ/mol
# Density = 2.337817 g / cm^3
# Si number density = 23.431502 Si / 1000 Ang^3
#
#
#
# Elastic Constant Matrix: (Units=GPa)
#
#
# Indices 1 2 3 4 5 6 
#
# 1 163.3685 23.4998 17.8208 1.3399 -9.6581 -3.8363
# 2 23.4998 125.9911 37.8970 13.0685 -6.4338 7.3422
# 3 17.8208 37.8970 85.9806 11.2688 12.8885 1.1931
# 4 1.3399 13.0685 11.2688 16.8584 4.1599 -5.0136
# 5 -9.6581 -6.4338 12.8885 4.1599 32.8909 3.3465
# 6 -3.8363 7.3422 1.1931 -5.0136 3.3465 37.3896
#
#
#
# Elastic Compliance Matrix: (Units=1/GPa)
#
#
# Indices 1 2 3 4 5 6 
#
# 1 0.006532 -0.000803 -0.001433 0.000764 0.002146 0.000784
# 2 -0.000803 0.010570 -0.004170 -0.007551 0.004774 -0.003465
# 3 -0.001433 -0.004170 0.015457 -0.005334 -0.006625 0.000056
# 4 0.000764 -0.007551 -0.005334 0.074889 -0.009922 0.012661
# 5 0.002146 0.004774 -0.006625 -0.009922 0.036336 -0.005089
# 6 0.000784 -0.003465 0.000056 0.012661 -0.005089 0.029658
#
#
# Mechanical properties :
#
#
# Convention : Reuss Voigt Hill
#
# Bulk Modulus (GPa) = 50.64029 59.30838 54.97433
# Shear Modulus (GPa) = 25.92875 37.16928 31.54902
#
# Velocity S-wave (km/s) = 3.33013 3.98715 3.67336
# Velocity P-wave (km/s) = 6.03700 6.82370 6.44237
#
# Compressibility (1/GPa) = 0.01974712
#
# Stress axis : x y z
#
# Youngs Moduli (GPa) = 153.09477 94.60656 64.69586
#
# Poissons Ratio (x) = 0.07595 0.09269
# Poissons Ratio (y) = 0.12290 0.26981
# Poissons Ratio (z) = 0.21935 0.39455
#
# Static dielectric constant tensor:
#      x y z
#    x 2.058380 -0.043510 -0.049580 
#    y -0.043510 1.914850 0.018450 
#    z -0.049580 0.018450 1.907910 
# 
# From -- ./inp_files/601419.got.cif
#   From: 2010.05.17/outbox.cif.g08.bks.cpg/sg2_301_cif.got.tgz:601419.got - 2010.06.03 11:33:40.
