data_PCOD9012912
_publ_section_title
;
Structure prediction by ZEFSAII (Michael W. Deem and Ramdas Pophale) SiO2 
 PCOD9012912
Probable space group: P -1
;
_chemical_formula_sum "Si O2"
_cell_formula_units_Z 16
_cell_length_a 8.385175
_cell_length_b 17.170383
_cell_length_c 17.119487
_cell_angle_alpha 157.302843
_cell_angle_beta 74.892444
_cell_angle_gamma 91.044256
_cell_volume 736.936922
_symmetry_space_group_name_H-M "P -1"
_symmetry_group_IT_number 2
_symmetry_cell_setting 'triclinic'
loop_
_space_group_symop_operation_xyz
x,y,z
-x,-y,-z
loop_
_atom_site_type_symbol
_atom_site_label
_atom_site_fract_x
_atom_site_fract_y
_atom_site_fract_z
Si Si1 0.544647 0.545485 0.852348
Si Si2 0.257310 0.006123 0.424535
Si Si3 0.176059 0.500869 0.831544
Si Si4 0.144389 0.524516 0.679828
Si Si5 0.132146 0.956002 0.558869
Si Si6 0.212971 0.461651 0.329154
Si Si7 0.101047 0.994255 0.063685
Si Si8 0.537059 0.713051 0.705916
O O1 0.363936 0.521877 0.830641
O O2 0.726487 0.280006 0.621223
O O3 0.629923 0.598177 0.814648
O O4 0.449049 0.773847 0.137583
O O5 0.261950 0.936595 0.449721
O O6 0.229920 0.265404 0.657713
O O7 0.053605 0.048897 0.453675
O O8 0.146333 0.452053 0.701074
O O9 0.976264 0.770895 0.135147
O O10 0.340321 0.304007 0.401624
O O11 0.934006 0.613864 0.746971
O O12 0.153912 0.759360 0.890581
O O13 0.326753 0.359753 0.302292
O O14 0.053797 0.759744 0.639649
O O15 0.309897 0.955672 0.977690
O O16 0.000000 0.000000 0.000000
O O17 0.500000 0.500000 0.500000
#
# Coordination Sequence:
#
# PCOD9012912 Si02
#       8
#     2   2   2   2   2   2   2   2
#     4  11  24  40  66  97 133 170 216 270 326 386
#     4  10  23  43  67  97 131 171 215 267 327 394
#     4  11  24  41  65  98 132 171 217 270 325 387
#     4  11  24  42  62  92 128 165 219 264 320 383
#     4  10  22  44  68  95 132 170 215 269 327 390
#     4  12  24  42  63  91 129 167 216 266 322 380
#     4  11  23  41  65  87 122 169 210 267 324 374
#     4  10  21  41  62  89 122 162 211 261 312 380
#
# _framework density 21.711490999999999
#
# number of rings (size 3 to 8) (size 9 to 14) (size 15 to 20)
#    0.000    1.250    2.500    4.125    0.000    7.000 
#    0.000    0.000    0.000    0.000    0.000    0.000 
#    0.000    0.000    0.000    0.000    0.000    0.000 
#
# Total GULP energy -89539.865511 kJ/mol
# GULP energy per Si atom -5596.241594 kJ/mol
# Density = 2.166207 g / cm^3
# Si number density = 21.711491 Si / 1000 Ang^3
#
#
#
# Elastic Constant Matrix: (Units=GPa)
#
#
# Indices 1 2 3 4 5 6 
#
# 1 57.1726 0.0633 17.8633 -7.8939 1.7352 3.2474
# 2 0.0633 54.1107 12.9328 -14.9930 9.0624 8.6218
# 3 17.8633 12.9328 116.9656 -16.6009 -1.0325 20.5335
# 4 -7.8939 -14.9930 -16.6009 43.9687 5.1345 -2.9482
# 5 1.7352 9.0624 -1.0325 5.1345 25.2435 2.2952
# 6 3.2474 8.6218 20.5335 -2.9482 2.2952 36.5230
#
#
#
# Elastic Compliance Matrix: (Units=1/GPa)
#
#
# Indices 1 2 3 4 5 6 
#
# 1 0.018875 0.002059 -0.002607 0.003419 -0.002816 -0.000246
# 2 0.002059 0.023491 -0.001076 0.008899 -0.010086 -0.003772
# 3 -0.002607 -0.001076 0.010357 0.002620 0.000928 -0.005184
# 4 0.003419 0.008899 0.002620 0.028363 -0.008998 -0.001022
# 5 -0.002816 -0.010086 0.000928 -0.008998 0.045430 -0.001471
# 6 -0.000246 -0.003772 -0.005184 -0.001022 -0.001471 0.031216
#
#
# Mechanical properties :
#
#
# Convention : Reuss Voigt Hill
#
# Bulk Modulus (GPa) = 20.21206 32.21864 26.21535
# Shear Modulus (GPa) = 28.17368 34.30636 31.24002
#
# Velocity S-wave (km/s) = 3.60618 3.97936 3.79736
# Velocity P-wave (km/s) = 5.16420 5.99878 5.59707
#
# Compressibility (1/GPa) = 0.04947540
#
# Stress axis : x y z
#
# Youngs Moduli (GPa) = 52.98139 42.56933 96.55733
#
# Poissons Ratio (x) = -0.08765 0.25170
# Poissons Ratio (y) = -0.10909 0.10388
# Poissons Ratio (z) = 0.13811 0.04580
#
# Static dielectric constant tensor:
#      x y z
#    x 1.864130 -0.082900 0.002760 
#    y -0.082900 1.895950 0.021110 
#    z 0.002760 0.021110 1.811210 
# 
# From -- ./inp_files/505750.got.cif
#   From: 2010.05.17/outbox.cif.g08.bks.cpg/sg2_253_cif.got.tgz:505750.got - 2010.06.03 11:33:40.
