data_PCOD9012787
_publ_section_title
;
Structure prediction by ZEFSAII (Michael W. Deem and Ramdas Pophale) SiO2 
 PCOD9012787
Probable space group: P -1
;
_chemical_formula_sum "Si O2"
_cell_formula_units_Z 16
_cell_length_a 16.754540
_cell_length_b 16.196210
_cell_length_c 6.408880
_cell_angle_alpha 65.518500
_cell_angle_beta 115.258271
_cell_angle_gamma 154.922119
_cell_volume 664.878220
_symmetry_space_group_name_H-M "P -1"
_symmetry_group_IT_number 2
_symmetry_cell_setting 'triclinic'
loop_
_space_group_symop_operation_xyz
x,y,z
-x,-y,-z
loop_
_atom_site_type_symbol
_atom_site_label
_atom_site_fract_x
_atom_site_fract_y
_atom_site_fract_z
Si Si1 0.155171 0.139825 0.212336
Si Si2 0.063900 0.186039 0.451039
Si Si3 0.282765 0.884877 0.694503
Si Si4 0.665300 0.548219 0.148633
Si Si5 0.981837 0.731428 0.043828
Si Si6 0.609364 0.862114 0.764657
Si Si7 0.941964 0.551862 0.900434
Si Si8 0.567844 0.171439 0.064624
O O1 0.124426 0.013231 0.418288
O O2 0.332560 0.358108 0.088752
O O3 0.088896 0.142553 0.327309
O O4 0.000000 0.000000 0.000000
O O5 0.062196 0.279073 0.233078
O O6 0.242532 0.343703 0.639476
O O7 0.059133 0.694916 0.681520
O O8 0.344391 0.841376 0.729081
O O9 0.363343 0.041171 0.490301
O O10 0.375226 0.971957 0.937286
O O11 0.480441 0.317029 0.198028
O O12 0.823138 0.626700 0.128605
O O13 0.996541 0.638635 0.104681
O O14 0.181816 0.956579 0.093050
O O15 0.477131 0.792745 0.856999
O O16 0.000000 0.500000 0.000000
O O17 0.714578 0.343732 0.876209
#
# Coordination Sequence:
#
# PCOD9012787 Si02
#       8
#     2   2   2   2   2   2   2   2
#     4   8  16  37  66  94 118 155 201 244 295 362
#     4   9  19  37  65  89 122 161 198 245 301 362
#     4  10  23  38  59  84 117 160 210 261 309 360
#     4  10  22  38  61  92 123 161 202 245 306 370
#     4  11  23  38  58  90 127 160 206 256 307 361
#     4  12  24  37  59  91 125 159 205 258 308 365
#     4  10  21  41  61  82 119 165 208 259 310 359
#     4  10  21  42  59  80 117 163 210 259 308 361
#
# _framework density 24.064557000000001
#
# number of rings (size 3 to 8) (size 9 to 14) (size 15 to 20)
#    0.000    2.000    2.500    0.375    3.500    0.000 
#    0.000    1.875    0.000   25.500    0.000    0.000 
#    0.000    0.000    0.000    0.000    0.000    0.000 
#
# Total GULP energy -89259.258890 kJ/mol
# GULP energy per Si atom -5578.703681 kJ/mol
# Density = 2.400978 g / cm^3
# Si number density = 24.064557 Si / 1000 Ang^3
#
#
#
# Elastic Constant Matrix: (Units=GPa)
#
#
# Indices 1 2 3 4 5 6 
#
# 1 89.2782 10.6728 10.2224 4.3721 -17.8929 -15.4522
# 2 10.6728 127.5107 18.7966 -15.8204 -5.1205 -10.4625
# 3 10.2224 18.7966 80.1942 -6.5361 -6.0608 -3.4326
# 4 4.3721 -15.8204 -6.5361 34.3213 -3.2338 -10.1638
# 5 -17.8929 -5.1205 -6.0608 -3.2338 27.0846 1.6336
# 6 -15.4522 -10.4625 -3.4326 -10.1638 1.6336 36.3791
#
#
#
# Elastic Compliance Matrix: (Units=1/GPa)
#
#
# Indices 1 2 3 4 5 6 
#
# 1 0.014010 -0.000192 -0.000805 0.000442 0.008757 0.005550
# 2 -0.000192 0.009091 -0.001391 0.005229 0.001676 0.003787
# 3 -0.000805 -0.001391 0.013339 0.002563 0.002428 0.001123
# 4 0.000442 0.005229 0.002563 0.035967 0.005441 0.011738
# 5 0.008757 0.001676 0.002428 0.005441 0.043977 0.003976
# 6 0.005550 0.003787 0.001123 0.011738 0.003976 0.034142
#
#
# Mechanical properties :
#
#
# Convention : Reuss Voigt Hill
#
# Bulk Modulus (GPa) = 31.58351 41.81853 36.70102
# Shear Modulus (GPa) = 30.14652 36.70975 33.42813
#
# Velocity S-wave (km/s) = 3.54324 3.90996 3.73111
# Velocity P-wave (km/s) = 5.46739 6.14810 5.81771
#
# Compressibility (1/GPa) = 0.03166209
#
# Stress axis : x y z
#
# Youngs Moduli (GPa) = 71.37707 110.00485 74.96829
#
# Poissons Ratio (x) = 0.02113 0.06038
# Poissons Ratio (y) = 0.01371 0.10430
# Poissons Ratio (z) = 0.05749 0.15304
#
# Static dielectric constant tensor:
#      x y z
#    x 2.035920 -0.094550 0.043650 
#    y -0.094550 2.091610 -0.090930 
#    z 0.043650 -0.090930 1.924300 
# 
# From -- ./inp_files/120022.got.cif
#   From: 2010.05.17/outbox.cif.g08.bks.cpg/sg2_61_cif.got.tgz:120022.got - 2010.06.03 11:33:40.
