data_PCOD9012028
_publ_section_title
;
Structure prediction by ZEFSAII (Michael W. Deem and Ramdas Pophale) SiO2 
 PCOD9012028
Probable space group: P -1
;
_chemical_formula_sum "Si O2"
_cell_formula_units_Z 16
_cell_length_a 11.888423
_cell_length_b 12.145619
_cell_length_c 11.075041
_cell_angle_alpha 90.574693
_cell_angle_beta 108.030170
_cell_angle_gamma 37.102312
_cell_volume 835.468210
_symmetry_space_group_name_H-M "P -1"
_symmetry_group_IT_number 2
_symmetry_cell_setting 'triclinic'
loop_
_space_group_symop_operation_xyz
x,y,z
-x,-y,-z
loop_
_atom_site_type_symbol
_atom_site_label
_atom_site_fract_x
_atom_site_fract_y
_atom_site_fract_z
Si Si1 0.639178 0.503537 0.555875
Si Si2 0.898115 0.943586 0.238478
Si Si3 0.548924 0.112084 0.942110
Si Si4 0.614144 0.458529 0.919776
Si Si5 0.252552 0.269260 0.063440
Si Si6 0.985150 0.941133 0.869271
Si Si7 0.466330 0.775766 0.716322
Si Si8 0.489223 0.679018 0.263610
O O1 0.500000 0.500000 0.500000
O O2 0.518555 0.682278 0.604901
O O3 0.652987 0.541089 0.426033
O O4 0.869770 0.293608 0.685852
O O5 0.928816 0.045971 0.207275
O O6 0.783940 0.016963 0.330654
O O7 0.736632 0.015411 0.088873
O O8 0.462680 0.274774 0.827556
O O9 0.669573 0.918789 0.909930
O O10 0.353619 0.225463 0.965395
O O11 0.539419 0.628893 0.839191
O O12 0.564783 0.400999 0.805657
O O13 0.500000 0.500000 0.000000
O O14 0.858877 0.278613 0.045035
O O15 0.392927 0.226882 0.208022
O O16 0.000000 0.500000 0.000000
O O17 0.742575 0.100202 0.762206
O O18 0.000000 0.000000 0.000000
#
# Coordination Sequence:
#
# PCOD9012028 Si02
#       8
#     2   2   2   2   2   2   2   2
#     4  12  23  38  56  86 129 171 192 230 289 367
#     4  11  20  38  60  85 124 160 193 243 296 351
#     4  10  21  41  64  88 118 149 199 258 299 344
#     4  11  18  32  56  89 118 147 193 252 296 349
#     4  10  22  39  65  92 110 148 204 259 304 341
#     4  10  17  29  54  82 115 151 184 233 296 338
#     4  11  23  38  58  86 123 158 200 241 302 359
#     4  11  22  37  55  88 122 156 198 235 295 356
#
# _framework density 19.150939000000001
#
# number of rings (size 3 to 8) (size 9 to 14) (size 15 to 20)
#    0.000    1.250    6.250    2.250    1.750    0.500 
#    2.250    0.625    0.000   10.500    0.000    0.000 
#    0.000    0.000    0.000    0.000    0.000    0.000 
#
# Total GULP energy -89208.755282 kJ/mol
# GULP energy per Si atom -5575.547205 kJ/mol
# Density = 1.910735 g / cm^3
# Si number density = 19.150939 Si / 1000 Ang^3
#
#
#
# Elastic Constant Matrix: (Units=GPa)
#
#
# Indices 1 2 3 4 5 6 
#
# 1 54.9984 19.5362 15.3408 -1.9864 0.9116 -1.0030
# 2 19.5362 73.0834 13.0722 16.9216 3.7018 -1.8613
# 3 15.3408 13.0722 70.5032 7.9028 -16.2030 1.7795
# 4 -1.9864 16.9216 7.9028 23.8467 8.5104 3.1605
# 5 0.9116 3.7018 -16.2030 8.5104 14.3616 -2.1955
# 6 -1.0030 -1.8613 1.7795 3.1605 -2.1955 34.8002
#
#
#
# Elastic Compliance Matrix: (Units=1/GPa)
#
#
# Indices 1 2 3 4 5 6 
#
# 1 0.026203 -0.008665 -0.013199 0.023295 -0.028576 -0.002952
# 2 -0.008665 0.019622 0.003012 -0.020093 0.011284 0.003182
# 3 -0.013199 0.003012 0.035148 -0.038140 0.063147 0.005431
# 4 0.023295 -0.020093 -0.038140 0.111193 -0.107565 -0.015337
# 5 -0.028576 0.011284 0.063147 -0.107565 0.206476 0.019346
# 6 -0.002952 0.003182 0.005431 -0.015337 0.019346 0.031156
#
#
# Mechanical properties :
#
#
# Convention : Reuss Voigt Hill
#
# Bulk Modulus (GPa) = 23.11092 32.72037 27.91564
# Shear Modulus (GPa) = 10.37507 24.64409 17.50958
#
# Velocity S-wave (km/s) = 2.33008 3.59114 3.02701
# Velocity P-wave (km/s) = 4.39693 5.85813 5.17932
#
# Compressibility (1/GPa) = 0.04326959
#
# Stress axis : x y z
#
# Youngs Moduli (GPa) = 38.16351 50.96270 28.45144
#
# Poissons Ratio (x) = 0.44159 0.37553
# Poissons Ratio (y) = 0.33069 -0.08570
# Poissons Ratio (z) = 0.50372 -0.15351
#
# Static dielectric constant tensor:
#      x y z
#    x 1.692670 -0.038760 -0.011640 
#    y -0.038760 1.795230 -0.008160 
#    z -0.011640 -0.008160 1.658410 
# 
# From -- ./inp_files/425992.got.cif
#   From: 2010.05.17/outbox.cif.g08.bks.cpg/sg2_213_cif.got.tgz:425992.got - 2010.06.03 11:33:40.
