data_PCOD9012784
_publ_section_title
;
Structure prediction by ZEFSAII (Michael W. Deem and Ramdas Pophale) SiO2 
 PCOD9012784
Probable space group: P -1
;
_chemical_formula_sum "Si O2"
_cell_formula_units_Z 16
_cell_length_a 15.024744
_cell_length_b 13.557334
_cell_length_c 9.109242
_cell_angle_alpha 120.709442
_cell_angle_beta 108.163669
_cell_angle_gamma 28.647755
_cell_volume 721.715936
_symmetry_space_group_name_H-M "P -1"
_symmetry_group_IT_number 2
_symmetry_cell_setting 'triclinic'
loop_
_space_group_symop_operation_xyz
x,y,z
-x,-y,-z
loop_
_atom_site_type_symbol
_atom_site_label
_atom_site_fract_x
_atom_site_fract_y
_atom_site_fract_z
Si Si1 0.305573 0.415561 0.397513
Si Si2 0.863280 0.364404 0.117316
Si Si3 0.143197 0.676882 0.246620
Si Si4 0.949504 0.686437 0.582322
Si Si5 0.274393 0.746173 0.006767
Si Si6 0.473992 0.895219 0.451166
Si Si7 0.191473 0.896615 0.377757
Si Si8 0.594759 0.449359 0.363842
O O1 0.308067 0.428303 0.232872
O O2 0.479591 0.176355 0.405737
O O3 0.274253 0.583359 0.553345
O O4 0.115744 0.549914 0.451219
O O5 0.834370 0.259945 0.055449
O O6 0.649668 0.642592 0.263951
O O7 0.014436 0.276795 0.224151
O O8 0.900090 0.332562 0.938741
O O9 0.198404 0.750784 0.300148
O O10 0.954980 0.890788 0.419186
O O11 0.000000 0.500000 0.500000
O O12 0.736296 0.919430 0.574967
O O13 0.300376 0.747484 0.848419
O O14 0.500000 0.500000 0.000000
O O15 0.162708 0.938233 0.220399
O O16 0.500000 0.000000 0.500000
O O17 0.409578 0.703066 0.378152
O O18 0.500000 0.500000 0.500000
#
# Coordination Sequence:
#
# PCOD9012784 Si02
#       8
#     2   2   2   2   2   2   2   2
#     4  11  23  39  65  99 136 175 222 279 344 403
#     4  10  21  42  66 101 139 171 234 278 338 418
#     4  10  21  41  60  98 138 180 223 281 329 405
#     4  11  22  43  72  96 127 172 233 291 337 407
#     4   9  18  35  63  96 134 180 228 267 320 412
#     4  11  22  44  74  95 126 179 232 287 353 401
#     4   9  20  37  62  86 140 189 224 264 328 393
#     4  11  19  36  58  95 141 177 222 275 331 397
#
# _framework density 22.169387
#
# number of rings (size 3 to 8) (size 9 to 14) (size 15 to 20)
#    0.000    1.750    6.250    0.000    1.750    0.000 
#    2.250    4.375    0.000    0.000    0.000    0.000 
#    0.000    0.000    0.000    0.000    0.000    0.000 
#
# Total GULP energy -89305.381161 kJ/mol
# GULP energy per Si atom -5581.586323 kJ/mol
# Density = 2.211893 g / cm^3
# Si number density = 22.169387 Si / 1000 Ang^3
#
#
#
# Elastic Constant Matrix: (Units=GPa)
#
#
# Indices 1 2 3 4 5 6 
#
# 1 119.4308 44.5274 47.0033 -18.6550 -0.2622 1.4335
# 2 44.5274 148.3485 54.4080 -29.1323 2.8554 -5.8772
# 3 47.0033 54.4080 129.6561 -32.4998 -20.6118 9.4537
# 4 -18.6550 -29.1323 -32.4998 42.2657 -0.4202 -4.8823
# 5 -0.2622 2.8554 -20.6118 -0.4202 33.6281 -8.0932
# 6 1.4335 -5.8772 9.4537 -4.8823 -8.0932 49.2630
#
#
#
# Elastic Compliance Matrix: (Units=1/GPa)
#
#
# Indices 1 2 3 4 5 6 
#
# 1 0.010379 -0.001786 -0.003012 0.001006 -0.001626 -0.000105
# 2 -0.001786 0.009074 -0.002708 0.003558 -0.001996 0.001679
# 3 -0.003012 -0.002708 0.012976 0.006778 0.008069 -0.000728
# 4 0.001006 0.003558 0.006778 0.032176 0.005010 0.003106
# 5 -0.001626 -0.001996 0.008069 0.005010 0.036028 0.004676
# 6 -0.000105 0.001679 -0.000728 0.003106 0.004676 0.021718
#
#
# Mechanical properties :
#
#
# Convention : Reuss Voigt Hill
#
# Bulk Modulus (GPa) = 57.41671 76.59029 67.00350
# Shear Modulus (GPa) = 34.92381 41.79780 38.36081
#
# Velocity S-wave (km/s) = 3.97333 4.34681 4.16426
# Velocity P-wave (km/s) = 6.85603 7.73407 7.30825
#
# Compressibility (1/GPa) = 0.01741653
#
# Stress axis : x y z
#
# Youngs Moduli (GPa) = 96.34739 110.20804 77.06627
#
# Poissons Ratio (x) = 0.19683 0.23212
# Poissons Ratio (y) = 0.17208 0.20870
# Poissons Ratio (z) = 0.29020 0.29845
#
# Static dielectric constant tensor:
#      x y z
#    x 1.844560 0.055220 -0.008470 
#    y 0.055220 1.949520 -0.035270 
#    z -0.008470 -0.035270 1.837590 
# 
# From -- ./inp_files/315756.got.cif
#   From: 2010.05.17/outbox.cif.g08.bks.cpg/sg2_158_cif.got.tgz:315756.got - 2010.06.03 11:33:40.
