data_PCOD9012744
_publ_section_title
;
Structure prediction by ZEFSAII (Michael W. Deem and Ramdas Pophale) SiO2 
 PCOD9012744
Probable space group: P -1
;
_chemical_formula_sum "Si O2"
_cell_formula_units_Z 16
_cell_length_a 16.602225
_cell_length_b 8.849041
_cell_length_c 21.373460
_cell_angle_alpha 118.560943
_cell_angle_beta 18.812007
_cell_angle_gamma 109.646047
_cell_volume 810.833864
_symmetry_space_group_name_H-M "P -1"
_symmetry_group_IT_number 2
_symmetry_cell_setting 'triclinic'
loop_
_space_group_symop_operation_xyz
x,y,z
-x,-y,-z
loop_
_atom_site_type_symbol
_atom_site_label
_atom_site_fract_x
_atom_site_fract_y
_atom_site_fract_z
Si Si1 0.604837 0.885924 0.963143
Si Si2 0.325260 0.051811 0.558656
Si Si3 0.671219 0.864145 0.570732
Si Si4 0.107344 0.810068 0.343231
Si Si5 0.261564 0.531211 0.514657
Si Si6 0.290176 0.325858 0.741764
Si Si7 0.178606 0.058125 0.063600
Si Si8 0.046251 0.504098 0.541757
O O1 0.416819 0.774087 0.093516
O O2 0.626188 0.003222 0.030451
O O3 0.901104 0.728006 0.702095
O O4 0.500000 0.000000 0.000000
O O5 0.312507 0.068904 0.497270
O O6 0.314854 0.240921 0.636963
O O7 0.606056 0.872291 0.335060
O O8 0.061813 0.016070 0.769716
O O9 0.715736 0.647343 0.497492
O O10 0.919697 0.863204 0.430245
O O11 0.380805 0.984821 0.841835
O O12 0.077150 0.637802 0.366909
O O13 0.000000 0.000000 0.500000
O O14 0.492612 0.594099 0.380588
O O15 0.976520 0.713375 0.773377
O O16 0.289328 0.467417 0.407858
O O17 0.000000 0.500000 0.000000
O O18 0.000000 0.500000 0.500000
#
# Coordination Sequence:
#
# PCOD9012744 Si02
#       8
#     2   2   2   2   2   2   2   2
#     4  11  21  36  59  84 122 167 205 255 308 359
#     4  10  23  40  65  94 117 161 209 250 309 382
#     4  11  22  40  64  90 126 162 207 255 313 362
#     4  11  21  37  57  87 123 161 208 252 303 368
#     4   9  22  40  61  89 124 160 203 256 305 373
#     4  10  21  43  64  90 128 157 203 259 312 371
#     4  10  21  41  60  86 129 160 201 257 307 359
#     4  10  22  38  59  89 122 161 207 252 304 371
#
# _framework density 19.732773000000002
#
# number of rings (size 3 to 8) (size 9 to 14) (size 15 to 20)
#    0.000    1.750    1.250    2.625    1.750    3.500 
#    2.250    8.750    0.000    0.000    0.000    0.000 
#    0.000    0.000    0.000    0.000    0.000    0.000 
#
# Total GULP energy -89081.658973 kJ/mol
# GULP energy per Si atom -5567.603686 kJ/mol
# Density = 1.968786 g / cm^3
# Si number density = 19.732773 Si / 1000 Ang^3
#
#
#
# Elastic Constant Matrix: (Units=GPa)
#
#
# Indices 1 2 3 4 5 6 
#
# 1 106.6488 23.9408 14.3366 -8.5531 -4.2699 3.6554
# 2 23.9408 54.9869 8.2426 7.0665 -5.0394 21.8406
# 3 14.3366 8.2426 53.4446 6.6315 -10.7306 4.7131
# 4 -8.5531 7.0665 6.6315 31.5774 4.0073 -3.4111
# 5 -4.2699 -5.0394 -10.7306 4.0073 23.6665 2.9977
# 6 3.6554 21.8406 4.7131 -3.4111 2.9977 32.1917
#
#
#
# Elastic Compliance Matrix: (Units=1/GPa)
#
#
# Indices 1 2 3 4 5 6 
#
# 1 0.011951 -0.008075 -0.003981 0.006915 -0.003266 0.005741
# 2 -0.008075 0.034680 0.003714 -0.015252 0.013491 -0.026028
# 3 -0.003981 0.003714 0.023763 -0.009447 0.013435 -0.007799
# 4 0.006915 -0.015252 -0.009447 0.042756 -0.015668 0.016935
# 5 -0.003266 0.013491 0.013435 -0.015668 0.055508 -0.017578
# 6 0.005741 -0.026028 -0.007799 0.016935 -0.017578 0.052644
#
#
# Mechanical properties :
#
#
# Convention : Reuss Voigt Hill
#
# Bulk Modulus (GPa) = 18.61814 34.23559 26.42686
# Shear Modulus (GPa) = 19.53963 28.72447 24.13205
#
# Velocity S-wave (km/s) = 3.15018 3.81947 3.50085
# Velocity P-wave (km/s) = 4.76310 6.06946 5.45552
#
# Compressibility (1/GPa) = 0.05371107
#
# Stress axis : x y z
#
# Youngs Moduli (GPa) = 83.67172 28.83509 42.08157
#
# Poissons Ratio (x) = 0.23285 0.16751
# Poissons Ratio (y) = 0.67567 -0.15629
# Poissons Ratio (z) = 0.33307 -0.10710
#
# Static dielectric constant tensor:
#      x y z
#    x 1.665450 -0.226960 0.167000 
#    y -0.226960 1.285800 0.289690 
#    z 0.167000 0.289690 1.558960 
# 
# From -- ./inp_files/201650.got.cif
#   From: 2010.05.17/outbox.cif.g08.bks.cpg/sg2_101_cif.got.tgz:201650.got - 2010.06.03 11:33:40.
