data_PCOD9012538
_publ_section_title
;
Structure prediction by ZEFSAII (Michael W. Deem and Ramdas Pophale) SiO2 
 PCOD9012538
Probable space group: P -1
;
_chemical_formula_sum "Si O2"
_cell_formula_units_Z 16
_cell_length_a 14.676274
_cell_length_b 11.079215
_cell_length_c 7.827539
_cell_angle_alpha 41.924497
_cell_angle_beta 101.884610
_cell_angle_gamma 123.983337
_cell_volume 652.570121
_symmetry_space_group_name_H-M "P -1"
_symmetry_group_IT_number 2
_symmetry_cell_setting 'triclinic'
loop_
_space_group_symop_operation_xyz
x,y,z
-x,-y,-z
loop_
_atom_site_type_symbol
_atom_site_label
_atom_site_fract_x
_atom_site_fract_y
_atom_site_fract_z
Si Si1 0.562802 0.466918 0.312619
Si Si2 0.856756 0.497904 0.847436
Si Si3 0.236455 0.141130 0.213088
Si Si4 0.358760 0.784874 0.192591
Si Si5 0.939484 0.781255 0.076085
Si Si6 0.855556 0.911254 0.401812
Si Si7 0.095926 0.623256 0.644035
Si Si8 0.647084 0.829334 0.238080
O O1 0.636096 0.381587 0.504967
O O2 0.571466 0.650135 0.248105
O O3 0.427609 0.244458 0.535221
O O4 0.627173 0.629938 0.000550
O O5 0.727394 0.353964 0.856944
O O6 0.890465 0.747749 0.613350
O O7 0.963795 0.536616 0.738106
O O8 0.852419 0.402913 0.132374
O O9 0.193838 0.066025 0.468702
O O10 0.168058 0.232698 0.020251
O O11 0.180533 0.899132 0.352600
O O12 0.500000 0.000000 0.000000
O O13 0.312501 0.928522 0.066998
O O14 0.032818 0.861070 0.876719
O O15 0.902783 0.526307 0.350002
O O16 0.000000 0.000000 0.000000
O O17 0.752505 0.818201 0.323333
#
# Coordination Sequence:
#
# PCOD9012538 Si02
#       8
#     2   2   2   2   2   2   2   2
#     4  10  23  41  65  99 134 177 226 287 342 409
#     4  11  21  42  71  99 138 184 234 279 344 415
#     4  12  25  42  66 101 141 177 228 282 348 419
#     4  10  21  40  70  99 132 179 231 282 341 407
#     4  12  26  43  67 102 139 178 229 282 345 417
#     4  12  22  44  71  95 138 186 227 288 347 405
#     4  11  24  42  69 102 137 185 227 279 349 415
#     4  10  21  42  69  93 130 179 230 283 346 399
#
# _framework density 24.518439000000001
#
# number of rings (size 3 to 8) (size 9 to 14) (size 15 to 20)
#    0.000    1.000    3.750    4.125    0.000    2.000 
#    0.000    0.000    0.000    2.250    0.000    0.000 
#    0.000    0.000    0.000    0.000    0.000    0.000 
#
# Total GULP energy -89195.568886 kJ/mol
# GULP energy per Si atom -5574.723055 kJ/mol
# Density = 2.446263 g / cm^3
# Si number density = 24.518439 Si / 1000 Ang^3
#
#
#
# Elastic Constant Matrix: (Units=GPa)
#
#
# Indices 1 2 3 4 5 6 
#
# 1 89.2055 27.9266 48.8952 -3.1896 8.2912 4.5690
# 2 27.9266 78.2684 24.8443 -14.1267 -0.1957 -8.7384
# 3 48.8952 24.8443 134.5027 -18.6255 -7.8861 -16.4872
# 4 -3.1896 -14.1267 -18.6255 36.8068 -9.6605 9.9143
# 5 8.2912 -0.1957 -7.8861 -9.6605 48.3654 -14.4499
# 6 4.5690 -8.7384 -16.4872 9.9143 -14.4499 50.8944
#
#
#
# Elastic Compliance Matrix: (Units=1/GPa)
#
#
# Indices 1 2 3 4 5 6 
#
# 1 0.017620 -0.005496 -0.007126 -0.004391 -0.006852 -0.005924
# 2 -0.005496 0.016023 0.000425 0.005879 0.003189 0.003142
# 3 -0.007126 0.000425 0.011678 0.005608 0.005752 0.005036
# 4 -0.004391 0.005879 0.005608 0.034344 0.008211 -0.001139
# 5 -0.006852 0.003189 0.005752 0.008211 0.027172 0.009141
# 6 -0.005924 0.003142 0.005036 -0.001139 0.009141 0.025169
#
#
# Mechanical properties :
#
#
# Convention : Reuss Voigt Hill
#
# Bulk Modulus (GPa) = 47.78792 56.14543 51.96667
# Shear Modulus (GPa) = 30.60426 40.56735 35.58581
#
# Velocity S-wave (km/s) = 3.53684 4.07205 3.81384
# Velocity P-wave (km/s) = 6.01763 6.71251 6.37454
#
# Compressibility (1/GPa) = 0.02092579
#
# Stress axis : x y z
#
# Youngs Moduli (GPa) = 56.75460 62.41175 85.63058
#
# Poissons Ratio (x) = 0.34301 0.61020
# Poissons Ratio (y) = 0.31192 -0.03636
# Poissons Ratio (z) = 0.40443 -0.02650
#
# Static dielectric constant tensor:
#      x y z
#    x 1.959510 0.007650 -0.055000 
#    y 0.007650 2.045260 -0.045150 
#    z -0.055000 -0.045150 2.084570 
# 
# From -- ./inp_files/306263.got.cif
#   From: 2010.05.17/outbox.cif.g08.bks.cpg/sg2_154_cif.got.tgz:306263.got - 2010.06.03 11:33:40.
