data_PCOD9012877
_publ_section_title
;
Structure prediction by ZEFSAII (Michael W. Deem and Ramdas Pophale) SiO2 
 PCOD9012877
Probable space group: P -1
;
_chemical_formula_sum "Si O2"
_cell_formula_units_Z 13
_cell_length_a 12.411212
_cell_length_b 17.314125
_cell_length_c 7.185307
_cell_angle_alpha 61.211529
_cell_angle_beta 78.426563
_cell_angle_gamma 30.091690
_cell_volume 590.805310
_symmetry_space_group_name_H-M "P -1"
_symmetry_group_IT_number 2
_symmetry_cell_setting 'triclinic'
loop_
_space_group_symop_operation_xyz
x,y,z
-x,-y,-z
loop_
_atom_site_type_symbol
_atom_site_label
_atom_site_fract_x
_atom_site_fract_y
_atom_site_fract_z
Si Si1 0.813647 0.786836 0.500435
Si Si2 0.588996 0.425724 0.265664
Si Si3 0.000000 0.000000 0.500000
Si Si4 0.337576 0.479685 0.580445
Si Si5 0.699379 0.894752 0.825199
Si Si6 0.610301 0.148682 0.657459
Si Si7 0.095899 0.468873 0.305678
O O1 0.748117 0.881994 0.604913
O O2 0.877074 0.639166 0.698779
O O3 0.053607 0.655970 0.476777
O O4 0.573618 0.951943 0.261878
O O5 0.847728 0.189582 0.440584
O O6 0.403977 0.497997 0.367326
O O7 0.604751 0.508171 0.266275
O O8 0.500000 0.500000 0.000000
O O9 0.818164 0.058444 0.596462
O O10 0.508828 0.271101 0.733801
O O11 0.698787 0.985238 0.835379
O O12 0.904177 0.678834 0.064049
O O13 0.365109 0.317768 0.417291
O O14 0.000000 0.500000 0.500000
#
# Coordination Sequence:
#
# PCOD9012877 Si02
#       7
#     2   2   1   2   2   2   2
#     4  10  21  41  62 100 133 172 230 278 334 412
#     4  10  23  45  69  94 135 179 220 284 342 396
#     4  10  22  42  64  98 132 164 230 270 322 408
#     4  10  21  43  67  98 136 169 232 279 332 414
#     4  10  23  40  68  95 135 182 221 280 343 394
#     4  10  22  40  64  95 135 174 221 280 329 403
#     4  11  22  42  63  95 137 176 224 277 337 401
#
# _framework density 22.003864
#
# number of rings (size 3 to 8) (size 9 to 14) (size 15 to 20)
#    0.000    1.846    1.538    1.385    0.000    7.385 
#    2.769   10.000    0.000    0.000    0.000    0.000 
#    0.000    0.000    0.000    0.000    0.000    0.000 
#
# Total GULP energy -72438.886769 kJ/mol
# GULP energy per Si atom -5572.222059 kJ/mol
# Density = 2.195378 g / cm^3
# Si number density = 22.003864 Si / 1000 Ang^3
#
#
#
# Elastic Constant Matrix: (Units=GPa)
#
#
# Indices 1 2 3 4 5 6 
#
# 1 121.6072 66.3244 34.4262 -7.2463 -6.1705 33.9341
# 2 66.3244 147.4680 21.0727 -12.1384 2.7968 6.2394
# 3 34.4262 21.0727 76.3295 -10.3194 -11.4130 12.6340
# 4 -7.2463 -12.1384 -10.3194 33.6078 12.0048 0.5097
# 5 -6.1705 2.7968 -11.4130 12.0048 12.6918 -9.2772
# 6 33.9341 6.2394 12.6340 0.5097 -9.2772 54.5026
#
#
#
# Elastic Compliance Matrix: (Units=1/GPa)
#
#
# Indices 1 2 3 4 5 6 
#
# 1 0.014455 -0.005559 -0.003837 0.000519 -0.001319 -0.007703
# 2 -0.005559 0.010169 -0.001282 0.006192 -0.011535 0.000573
# 3 -0.003837 -0.001282 0.017192 -0.002065 0.016886 0.001444
# 4 0.000519 0.006192 -0.002065 0.054018 -0.062630 -0.011719
# 5 -0.001319 -0.011535 0.016886 -0.062630 0.176167 0.028799
# 6 -0.007703 0.000573 0.001444 -0.011719 0.028799 0.027755
#
#
# Mechanical properties :
#
#
# Convention : Reuss Voigt Hill
#
# Bulk Modulus (GPa) = 48.87797 65.45016 57.16406
# Shear Modulus (GPa) = 15.24698 35.06587 25.15643
#
# Velocity S-wave (km/s) = 2.63520 3.99635 3.38490
# Velocity P-wave (km/s) = 5.61432 7.14870 6.42746
#
# Compressibility (1/GPa) = 0.02045911
#
# Stress axis : x y z
#
# Youngs Moduli (GPa) = 69.18017 98.33910 58.16569
#
# Poissons Ratio (x) = 0.54670 0.22317
# Poissons Ratio (y) = 0.38460 0.07460
# Poissons Ratio (z) = 0.26543 0.12612
#
# Static dielectric constant tensor:
#      x y z
#    x 1.832410 0.034250 0.008600 
#    y 0.034250 1.827960 0.007870 
#    z 0.008600 0.007870 1.817400 
# 
# From -- ./inp_files/276367.got.cif
#   From: 2010.05.17/outbox.cif.g08.bks.cpg/sg2_139_cif.got.tgz:276367.got - 2010.06.03 11:33:40.
