data_PCOD9012151
_publ_section_title
;
Structure prediction by ZEFSAII (Michael W. Deem and Ramdas Pophale) SiO2 
 PCOD9012151
Probable space group: P -1
;
_chemical_formula_sum "Si O2"
_cell_formula_units_Z 16
_cell_length_a 12.868989
_cell_length_b 9.413965
_cell_length_c 7.833969
_cell_angle_alpha 94.721146
_cell_angle_beta 98.542860
_cell_angle_gamma 131.594810
_cell_volume 680.569089
_symmetry_space_group_name_H-M "P -1"
_symmetry_group_IT_number 2
_symmetry_cell_setting 'triclinic'
loop_
_space_group_symop_operation_xyz
x,y,z
-x,-y,-z
loop_
_atom_site_type_symbol
_atom_site_label
_atom_site_fract_x
_atom_site_fract_y
_atom_site_fract_z
Si Si1 0.951900 0.426549 0.281511
Si Si2 0.384068 0.961070 0.847841
Si Si3 0.375023 0.749812 0.516049
Si Si4 0.728562 0.881631 0.263719
Si Si5 0.019989 0.178669 0.170840
Si Si6 0.021175 0.799869 0.211899
Si Si7 0.808961 0.687850 0.452334
Si Si8 0.698106 0.031289 0.592617
O O1 0.782618 0.236717 0.183377
O O2 0.030445 0.356903 0.233028
O O3 0.984369 0.598600 0.201830
O O4 0.000000 0.500000 0.500000
O O5 0.417291 0.911207 0.676461
O O6 0.396287 0.144299 0.861976
O O7 0.500000 0.000000 0.000000
O O8 0.275875 0.537791 0.555385
O O9 0.298620 0.792291 0.372287
O O10 0.531229 0.827403 0.523238
O O11 0.711061 0.718276 0.343727
O O12 0.860631 0.989863 0.177788
O O13 0.768571 0.036962 0.434441
O O14 0.129648 0.209577 0.336463
O O15 0.961727 0.815798 0.026416
O O16 0.941565 0.787671 0.361311
O O17 0.195843 0.950525 0.250527
#
# Coordination Sequence:
#
# PCOD9012151 Si02
#       8
#     2   2   2   2   2   2   2   2
#     4  11  19  40  68  99 135 179 226 288 339 397
#     4  10  21  40  68  97 135 171 226 282 341 406
#     4  10  22  41  69  92 129 185 221 276 345 409
#     4  10  23  43  66  96 134 184 216 281 344 407
#     4  11  23  38  65 100 132 176 227 277 342 401
#     4  12  23  38  70  99 133 176 229 286 337 401
#     4  12  23  45  68  95 142 174 226 283 342 406
#     4  10  22  42  66  95 129 180 229 276 342 405
#
# _framework density 23.509736
#
# number of rings (size 3 to 8) (size 9 to 14) (size 15 to 20)
#    0.000    1.250    3.750    3.000    3.500    1.000 
#    4.500    0.625    0.000    0.000    0.000    0.000 
#    0.000    0.000    0.000    0.000    0.000    0.000 
#
# Total GULP energy -89167.156593 kJ/mol
# GULP energy per Si atom -5572.947287 kJ/mol
# Density = 2.345623 g / cm^3
# Si number density = 23.509736 Si / 1000 Ang^3
#
#
#
# Elastic Constant Matrix: (Units=GPa)
#
#
# Indices 1 2 3 4 5 6 
#
# 1 127.3818 52.0405 48.4626 -8.5194 23.7589 -16.9333
# 2 52.0405 119.4575 32.5935 -25.2044 19.6591 -15.7235
# 3 48.4626 32.5935 94.4710 -24.9535 15.9850 2.6603
# 4 -8.5194 -25.2044 -24.9535 27.3695 -5.8373 7.8854
# 5 23.7589 19.6591 15.9850 -5.8373 34.6504 -13.3804
# 6 -16.9333 -15.7235 2.6603 7.8854 -13.3804 42.8677
#
#
#
# Elastic Compliance Matrix: (Units=1/GPa)
#
#
# Indices 1 2 3 4 5 6 
#
# 1 0.012844 -0.004398 -0.006913 -0.008253 -0.002757 0.004547
# 2 -0.004398 0.012720 0.001243 0.010866 -0.002973 -0.000076
# 3 -0.006913 0.001243 0.019641 0.018228 -0.005230 -0.008479
# 4 -0.008253 0.010866 0.018228 0.063683 -0.003260 -0.013138
# 5 -0.002757 -0.002973 -0.005230 -0.003260 0.038450 0.010746
# 6 0.004547 -0.000076 -0.008479 -0.013138 0.010746 0.031393
#
#
# Mechanical properties :
#
#
# Convention : Reuss Voigt Hill
#
# Bulk Modulus (GPa) = 39.89071 67.50035 53.69553
# Shear Modulus (GPa) = 24.12860 34.85843 29.49351
#
# Velocity S-wave (km/s) = 3.20710 3.85479 3.54577
# Velocity P-wave (km/s) = 5.54244 6.97041 6.29703
#
# Compressibility (1/GPa) = 0.02506850
#
# Stress axis : x y z
#
# Youngs Moduli (GPa) = 77.85746 78.61624 50.91423
#
# Poissons Ratio (x) = 0.34578 0.35196
# Poissons Ratio (y) = 0.34244 -0.06329
# Poissons Ratio (z) = 0.53822 -0.09772
#
# Static dielectric constant tensor:
#      x y z
#    x 2.001570 -0.046960 0.095110 
#    y -0.046960 2.006170 -0.108150 
#    z 0.095110 -0.108150 2.092030 
# 
# From -- ./inp_files/417616.got.cif
#   From: 2010.05.17/outbox.cif.g08.bks.cpg/sg2_209_cif.got.tgz:417616.got - 2010.06.03 11:33:40.
