data_PCOD9012976
_publ_section_title
;
Structure prediction by ZEFSAII (Michael W. Deem and Ramdas Pophale) SiO2 
 PCOD9012976
Probable space group: P -1
;
_chemical_formula_sum "Si O2"
_cell_formula_units_Z 16
_cell_length_a 14.764873
_cell_length_b 10.962243
_cell_length_c 8.462361
_cell_angle_alpha 107.749465
_cell_angle_beta 122.212868
_cell_angle_gamma 34.541030
_cell_volume 630.815078
_symmetry_space_group_name_H-M "P -1"
_symmetry_group_IT_number 2
_symmetry_cell_setting 'triclinic'
loop_
_space_group_symop_operation_xyz
x,y,z
-x,-y,-z
loop_
_atom_site_type_symbol
_atom_site_label
_atom_site_fract_x
_atom_site_fract_y
_atom_site_fract_z
Si Si1 0.753670 0.633458 0.121279
Si Si2 0.848219 0.762446 0.788541
Si Si3 0.004674 0.865982 0.554349
Si Si4 0.703098 0.279156 0.035764
Si Si5 0.966567 0.807681 0.184116
Si Si6 0.472356 0.027320 0.226242
Si Si7 0.300397 0.573383 0.211768
Si Si8 0.649807 0.124237 0.515235
O O1 0.979463 0.432931 0.249461
O O2 0.633570 0.767046 0.223558
O O3 0.664486 0.825521 0.994446
O O4 0.708040 0.543603 0.956335
O O5 0.671242 0.850684 0.712366
O O6 0.746808 0.989367 0.715973
O O7 0.952784 0.695100 0.022948
O O8 0.032414 0.729587 0.393593
O O9 0.162779 0.740650 0.778127
O O10 0.810417 0.027323 0.519689
O O11 0.000000 0.000000 0.500000
O O12 0.774417 0.074804 0.093884
O O13 0.500000 0.500000 0.000000
O O14 0.694465 0.310515 0.852356
O O15 0.110605 0.757346 0.205848
O O16 0.585021 0.047802 0.363065
O O17 0.466139 0.389077 0.418131
#
# Coordination Sequence:
#
# PCOD9012976 Si02
#       8
#     2   2   2   2   2   2   2   2
#     4   9  21  39  65  97 127 182 221 278 326 395
#     4  11  23  42  66 100 141 175 226 273 327 396
#     4  10  22  42  65  93 129 165 218 270 329 398
#     4  11  23  41  68  93 125 173 216 275 337 401
#     4  10  23  40  65  98 125 175 216 273 337 391
#     4  10  22  40  69  95 137 178 227 269 337 387
#     4  10  21  41  62  92 135 167 222 276 327 392
#     4  11  24  43  62 100 135 176 222 273 324 400
#
# _framework density 25.36401
#
# number of rings (size 3 to 8) (size 9 to 14) (size 15 to 20)
#    0.000    1.750    0.000    4.125    7.000    2.500 
#    2.250    3.750    0.000    0.000    0.000    0.000 
#    0.000    0.000    0.000    0.000    0.000    0.000 
#
# Total GULP energy -89414.217092 kJ/mol
# GULP energy per Si atom -5588.388568 kJ/mol
# Density = 2.530628 g / cm^3
# Si number density = 25.364010 Si / 1000 Ang^3
#
#
#
# Elastic Constant Matrix: (Units=GPa)
#
#
# Indices 1 2 3 4 5 6 
#
# 1 110.2187 28.8601 2.8148 -18.5973 17.5132 -24.3835
# 2 28.8601 118.9654 16.0480 -19.7487 18.5516 -13.0857
# 3 2.8148 16.0480 86.1340 -16.3573 7.1194 -0.1521
# 4 -18.5973 -19.7487 -16.3573 32.7464 5.5434 10.2502
# 5 17.5132 18.5516 7.1194 5.5434 33.6964 -10.6393
# 6 -24.3835 -13.0857 -0.1521 10.2502 -10.6393 39.2090
#
#
#
# Elastic Compliance Matrix: (Units=1/GPa)
#
#
# Indices 1 2 3 4 5 6 
#
# 1 0.012279 -0.000558 0.001639 0.007361 -0.006437 0.003786
# 2 -0.000558 0.010853 0.000046 0.007678 -0.007172 -0.000678
# 3 0.001639 0.000046 0.014002 0.010103 -0.006549 -0.003329
# 4 0.007361 0.007678 0.010103 0.052209 -0.022770 -0.012648
# 5 -0.006437 -0.007172 -0.006549 -0.022770 0.045883 0.011981
# 6 0.003786 -0.000678 -0.003329 -0.012648 0.011981 0.034177
#
#
# Mechanical properties :
#
#
# Convention : Reuss Voigt Hill
#
# Bulk Modulus (GPa) = 25.38808 45.64044 35.51426
# Shear Modulus (GPa) = 27.73483 38.97002 33.35242
#
# Velocity S-wave (km/s) = 3.31036 3.92398 3.63016
# Velocity P-wave (km/s) = 4.96412 6.20995 5.62165
#
# Compressibility (1/GPa) = 0.03938857
#
# Stress axis : x y z
#
# Youngs Moduli (GPa) = 81.43767 92.13709 71.41939
#
# Poissons Ratio (x) = 0.05141 -0.11707
# Poissons Ratio (y) = 0.04544 -0.00327
# Poissons Ratio (z) = -0.13349 -0.00422
#
# Static dielectric constant tensor:
#      x y z
#    x 1.980150 0.045430 0.032560 
#    y 0.045430 1.997780 0.049820 
#    z 0.032560 0.049820 2.090430 
# 
# From -- ./inp_files/307807.got.cif
#   From: 2010.05.17/outbox.cif.g08.bks.cpg/sg2_154_cif.got.tgz:307807.got - 2010.06.03 11:33:40.
