data_PCOD9012105
_publ_section_title
;
Structure prediction by ZEFSAII (Michael W. Deem and Ramdas Pophale) SiO2 
 PCOD9012105
Probable space group: P -1
;
_chemical_formula_sum "Si O2"
_cell_formula_units_Z 16
_cell_length_a 16.177427
_cell_length_b 10.464969
_cell_length_c 9.810498
_cell_angle_alpha 85.969110
_cell_angle_beta 26.808445
_cell_angle_gamma 77.287336
_cell_volume 700.044258
_symmetry_space_group_name_H-M "P -1"
_symmetry_group_IT_number 2
_symmetry_cell_setting 'triclinic'
loop_
_space_group_symop_operation_xyz
x,y,z
-x,-y,-z
loop_
_atom_site_type_symbol
_atom_site_label
_atom_site_fract_x
_atom_site_fract_y
_atom_site_fract_z
Si Si1 0.300594 0.010979 0.550009
Si Si2 0.710780 0.758695 0.261365
Si Si3 0.149240 0.651742 0.208074
Si Si4 0.530239 0.206399 0.890336
Si Si5 0.550551 0.638495 0.743541
Si Si6 0.236192 0.342132 0.090244
Si Si7 0.114398 0.802573 0.967412
Si Si8 0.825553 0.341613 0.378108
O O1 0.366676 0.096617 0.558957
O O2 0.111212 0.117768 0.745615
O O3 0.441305 0.930290 0.226720
O O4 0.223960 0.905417 0.753935
O O5 0.639190 0.661625 0.468685
O O6 0.655110 0.751518 0.187876
O O7 0.947781 0.700981 0.916520
O O8 0.172935 0.500461 0.129661
O O9 0.137920 0.751741 0.090848
O O10 0.950560 0.693897 0.584296
O O11 0.334331 0.640700 0.029516
O O12 0.735010 0.233340 0.579831
O O13 0.458937 0.240369 0.146433
O O14 0.377408 0.320392 0.012889
O O15 0.691734 0.493657 0.604870
O O16 0.187720 0.675391 0.764502
#
# Coordination Sequence:
#
# PCOD9012105 Si02
#       8
#     2   2   2   2   2   2   2   2
#     4   9  22  45  67  94 135 177 225 266 327 394
#     4  11  25  42  67  97 134 176 223 271 324 393
#     4  11  25  43  67 100 140 166 224 275 341 389
#     4  11  24  43  70  95 136 179 218 274 332 391
#     4  12  25  40  67 103 133 174 223 272 333 398
#     4  11  26  43  67 101 138 173 213 282 338 389
#     4   9  20  42  72  96 128 180 221 275 324 391
#     4  10  21  40  68  95 133 171 219 272 337 388
#
# _framework density 22.855696999999999
#
# number of rings (size 3 to 8) (size 9 to 14) (size 15 to 20)
#    0.000    1.500    1.250    3.000   10.500    2.000 
#    0.000    1.250    0.000    0.000    0.000    0.000 
#    0.000    0.000    0.000    0.000    0.000    0.000 
#
# Total GULP energy -89495.178771 kJ/mol
# GULP energy per Si atom -5593.448673 kJ/mol
# Density = 2.280368 g / cm^3
# Si number density = 22.855697 Si / 1000 Ang^3
#
#
#
# Elastic Constant Matrix: (Units=GPa)
#
#
# Indices 1 2 3 4 5 6 
#
# 1 95.1096 24.9007 35.4192 0.7214 24.3059 1.2220
# 2 24.9007 75.6326 17.8408 14.2117 16.8174 4.4481
# 3 35.4192 17.8408 75.4356 6.1344 13.7977 -4.6078
# 4 0.7214 14.2117 6.1344 33.0187 9.8602 6.6483
# 5 24.3059 16.8174 13.7977 9.8602 43.9694 6.8250
# 6 1.2220 4.4481 -4.6078 6.6483 6.8250 28.5654
#
#
#
# Elastic Compliance Matrix: (Units=1/GPa)
#
#
# Indices 1 2 3 4 5 6 
#
# 1 0.014892 -0.002933 -0.005517 0.003908 -0.006177 -0.000504
# 2 -0.002933 0.016271 -0.001549 -0.005699 -0.002733 -0.000679
# 3 -0.005517 -0.001549 0.017015 -0.002711 -0.001752 0.004271
# 4 0.003908 -0.005699 -0.002711 0.036369 -0.006248 -0.006689
# 5 -0.006177 -0.002733 -0.001752 -0.006248 0.029977 -0.005301
# 6 -0.000504 -0.000679 0.004271 -0.006689 -0.005301 0.038647
#
#
# Mechanical properties :
#
#
# Convention : Reuss Voigt Hill
#
# Bulk Modulus (GPa) = 35.48686 44.72216 40.10451
# Shear Modulus (GPa) = 27.38765 32.31184 29.84974
#
# Velocity S-wave (km/s) = 3.46538 3.76404 3.61780
# Velocity P-wave (km/s) = 5.61890 6.20486 5.91914
#
# Compressibility (1/GPa) = 0.02817944
#
# Stress axis : x y z
#
# Youngs Moduli (GPa) = 67.14919 61.45834 58.77107
#
# Poissons Ratio (x) = 0.18024 0.32427
# Poissons Ratio (y) = 0.19692 0.09106
# Poissons Ratio (z) = 0.37049 0.09523
#
# Static dielectric constant tensor:
#      x y z
#    x 1.826750 0.021940 0.007090 
#    y 0.021940 1.855440 0.020760 
#    z 0.007090 0.020760 1.856340 
# 
# From -- ./inp_files/307459.got.cif
#   From: 2010.05.17/outbox.cif.g08.bks.cpg/sg2_154_cif.got.tgz:307459.got - 2010.06.03 11:33:40.
