data_PCOD9012583
_publ_section_title
;
Structure prediction by ZEFSAII (Michael W. Deem and Ramdas Pophale) SiO2 
 PCOD9012583
Probable space group: P -1
;
_chemical_formula_sum "Si O2"
_cell_formula_units_Z 16
_cell_length_a 14.665220
_cell_length_b 26.194470
_cell_length_c 8.779850
_cell_angle_alpha 148.886388
_cell_angle_beta 49.853921
_cell_angle_gamma 150.288428
_cell_volume 796.872910
_symmetry_space_group_name_H-M "P -1"
_symmetry_group_IT_number 2
_symmetry_cell_setting 'triclinic'
loop_
_space_group_symop_operation_xyz
x,y,z
-x,-y,-z
loop_
_atom_site_type_symbol
_atom_site_label
_atom_site_fract_x
_atom_site_fract_y
_atom_site_fract_z
Si Si1 0.982405 0.493144 0.317098
Si Si2 0.617002 0.390641 0.413616
Si Si3 0.591793 0.759495 0.421403
Si Si4 0.695293 0.137407 0.744996
Si Si5 0.002445 0.052323 0.888854
Si Si6 0.413096 0.843496 0.766060
Si Si7 0.631449 0.605779 0.777124
Si Si8 0.225582 0.034642 0.784906
O O1 0.826706 0.474343 0.390620
O O2 0.000000 0.500000 0.500000
O O3 0.204130 0.667209 0.469111
O O4 0.877301 0.320382 0.942841
O O5 0.549334 0.344360 0.544356
O O6 0.626072 0.506955 0.637650
O O7 0.445078 0.218497 0.065821
O O8 0.559809 0.847607 0.615193
O O9 0.548546 0.645588 0.057324
O O10 0.816745 0.896837 0.589478
O O11 0.500000 0.000000 0.500000
O O12 0.764292 0.072800 0.545629
O O13 0.629218 0.154655 0.008620
O O14 0.131406 0.044070 0.784498
O O15 0.146778 0.221153 0.075271
O O16 0.910109 0.041310 0.111639
O O17 0.500000 0.000000 0.000000
O O18 0.500000 0.500000 0.500000
#
# Coordination Sequence:
#
# PCOD9012583 Si02
#       8
#     2   2   2   2   2   2   2   2
#     4  10  21  42  65  95 128 169 225 258 323 396
#     4  11  21  44  67  96 133 174 219 274 327 400
#     4  11  24  45  65  92 136 175 221 266 331 403
#     4  11  20  41  71  94 125 176 212 267 324 392
#     4  10  23  43  61  99 128 176 219 268 326 395
#     4  11  26  43  65  99 134 169 217 273 329 391
#     4  12  26  41  67  97 135 169 222 281 329 379
#     4  10  21  40  71  95 136 168 221 267 334 392
#
# _framework density 20.078484
#
# number of rings (size 3 to 8) (size 9 to 14) (size 15 to 20)
#    0.000    1.250    5.000    1.500    3.500    3.000 
#    0.000    0.625    0.000    0.000    0.000    0.000 
#    0.000    0.000    0.000    0.000    0.000    0.000 
#
# Total GULP energy -89430.761086 kJ/mol
# GULP energy per Si atom -5589.422568 kJ/mol
# Density = 2.003278 g / cm^3
# Si number density = 20.078484 Si / 1000 Ang^3
#
#
#
# Elastic Constant Matrix: (Units=GPa)
#
#
# Indices 1 2 3 4 5 6 
#
# 1 116.1275 22.2677 50.0353 1.1209 -18.2853 11.6425
# 2 22.2677 36.5385 24.2233 20.4357 2.2616 -0.4833
# 3 50.0353 24.2233 126.0891 2.7488 -11.8957 3.2992
# 4 1.1209 20.4357 2.7488 31.2274 2.9564 -11.1441
# 5 -18.2853 2.2616 -11.8957 2.9564 40.8175 10.1792
# 6 11.6425 -0.4833 3.2992 -11.1441 10.1792 30.8915
#
#
#
# Elastic Compliance Matrix: (Units=1/GPa)
#
#
# Indices 1 2 3 4 5 6 
#
# 1 0.013007 -0.007472 -0.002956 0.001786 0.006823 -0.006307
# 2 -0.007472 0.060463 -0.007854 -0.041529 -0.003693 -0.009164
# 3 -0.002956 -0.007854 0.010648 0.004481 0.001659 0.000924
# 4 0.001786 -0.041529 0.004481 0.068341 -0.006801 0.025093
# 5 0.006823 -0.003693 0.001659 -0.006801 0.032738 -0.016047
# 6 -0.006307 -0.009164 0.000924 0.025093 -0.016047 0.048847
#
#
# Mechanical properties :
#
#
# Convention : Reuss Voigt Hill
#
# Bulk Modulus (GPa) = 21.02898 52.42308 36.72603
# Shear Modulus (GPa) = 17.45455 32.73588 25.09521
#
# Velocity S-wave (km/s) = 2.95162 4.04220 3.53917
# Velocity P-wave (km/s) = 4.70236 6.92471 5.91877
#
# Compressibility (1/GPa) = 0.04755341
#
# Stress axis : x y z
#
# Youngs Moduli (GPa) = 76.88082 16.53906 93.91862
#
# Poissons Ratio (x) = 0.12358 0.27766
# Poissons Ratio (y) = 0.57444 0.73763
# Poissons Ratio (z) = 0.22729 0.12990
#
# Static dielectric constant tensor:
#      x y z
#    x 1.694210 -0.005420 0.013350 
#    y -0.005420 1.730000 0.012130 
#    z 0.013350 0.012130 1.699870 
# 
# From -- ./inp_files/206792.got.cif
#   From: 2010.05.17/outbox.cif.g08.bks.cpg/sg2_104_cif.got.tgz:206792.got - 2010.06.03 11:33:40.
