data_PCOD9012563
_publ_section_title
;
Structure prediction by ZEFSAII (Michael W. Deem and Ramdas Pophale) SiO2 
 PCOD9012563
Probable space group: P -1
;
_chemical_formula_sum "Si O2"
_cell_formula_units_Z 14
_cell_length_a 7.579275
_cell_length_b 5.137797
_cell_length_c 16.132520
_cell_angle_alpha 59.235257
_cell_angle_beta 68.961709
_cell_angle_gamma 77.894693
_cell_volume 503.557852
_symmetry_space_group_name_H-M "P -1"
_symmetry_group_IT_number 2
_symmetry_cell_setting 'triclinic'
loop_
_space_group_symop_operation_xyz
x,y,z
-x,-y,-z
loop_
_atom_site_type_symbol
_atom_site_label
_atom_site_fract_x
_atom_site_fract_y
_atom_site_fract_z
Si Si1 0.719397 0.116164 0.007748
Si Si2 0.720682 0.518848 0.214551
Si Si3 0.564281 0.478259 0.586352
Si Si4 0.900258 0.806262 0.433423
Si Si5 0.710457 0.748962 0.927425
Si Si6 0.614546 0.811307 0.742885
Si Si7 0.014774 0.481144 0.304355
O O1 0.505606 0.242036 0.002490
O O2 0.709223 0.836523 0.116916
O O3 0.805622 0.419332 0.978172
O O4 0.809907 0.992239 0.927705
O O5 0.598155 0.497653 0.322555
O O6 0.603590 0.282837 0.216596
O O7 0.927897 0.487257 0.224999
O O8 0.500000 0.500000 0.500000
O O9 0.698808 0.762398 0.517876
O O10 0.647376 0.137844 0.644172
O O11 0.925573 0.734887 0.341030
O O12 0.000000 0.500000 0.500000
O O13 0.962978 0.136677 0.393375
O O14 0.679590 0.829575 0.824210
O O15 0.756348 0.545034 0.727250
#
# Coordination Sequence:
#
# PCOD9012563 Si02
#       7
#     2   2   2   2   2   2   2
#     4  10  21  40  71 104 138 179 232 290 351 419
#     4  12  26  45  72 106 143 188 235 298 349 423
#     4  12  25  42  70 100 141 183 242 283 349 417
#     4  12  25  46  68  97 141 189 236 293 342 413
#     4  10  21  40  71 105 134 182 235 283 354 422
#     4  12  26  45  73 104 140 191 234 293 351 428
#     4  12  29  46  70 104 145 185 239 291 354 415
#
# _framework density 27.80217
#
# number of rings (size 3 to 8) (size 9 to 14) (size 15 to 20)
#    0.000    0.571    4.286    4.714    2.000    1.143 
#    0.000    1.429    0.000    0.000    0.000    2.000 
#    0.000    0.000    0.000    0.000    0.000    0.000 
#
# Total GULP energy -78341.524578 kJ/mol
# GULP energy per Si atom -5595.823184 kJ/mol
# Density = 2.773889 g / cm^3
# Si number density = 27.802170 Si / 1000 Ang^3
#
#
#
# Elastic Constant Matrix: (Units=GPa)
#
#
# Indices 1 2 3 4 5 6 
#
# 1 80.5563 8.2171 20.9474 -4.0884 1.4630 8.2203
# 2 8.2171 150.3430 46.8383 -3.9769 0.4621 28.7582
# 3 20.9474 46.8383 148.6280 -4.3785 23.6761 12.2981
# 4 -4.0884 -3.9769 -4.3785 54.8810 2.4593 -3.8761
# 5 1.4630 0.4621 23.6761 2.4593 41.3715 -0.1156
# 6 8.2203 28.7582 12.2981 -3.8761 -0.1156 30.2205
#
#
#
# Elastic Compliance Matrix: (Units=1/GPa)
#
#
# Indices 1 2 3 4 5 6 
#
# 1 0.013186 0.000472 -0.001804 0.000622 0.000515 -0.003220
# 2 0.000472 0.008817 -0.002425 -0.000108 0.001258 -0.007541
# 3 -0.001804 -0.002425 0.008590 0.000547 -0.004860 -0.000646
# 4 0.000622 -0.000108 0.000547 0.018514 -0.001429 0.002080
# 5 0.000515 0.001258 -0.004860 -0.001429 0.027006 0.000561
# 6 -0.003220 -0.007541 -0.000646 0.002080 0.000561 0.041674
#
#
# Mechanical properties :
#
#
# Convention : Reuss Voigt Hill
#
# Bulk Modulus (GPa) = 43.32953 59.05920 51.19437
# Shear Modulus (GPa) = 37.59568 45.52957 41.56262
#
# Velocity S-wave (km/s) = 3.68129 4.05115 3.87064
# Velocity P-wave (km/s) = 5.80414 6.57048 6.19916
#
# Compressibility (1/GPa) = 0.02307895
#
# Stress axis : x y z
#
# Youngs Moduli (GPa) = 75.84075 113.42023 116.41025
#
# Poissons Ratio (x) = -0.05357 0.21006
# Poissons Ratio (y) = -0.03582 0.28225
# Poissons Ratio (z) = 0.13685 0.27500
#
# Static dielectric constant tensor:
#      x y z
#    x 2.394030 -0.000340 -0.070750 
#    y -0.000340 2.236840 0.065000 
#    z -0.070750 0.065000 2.174480 
# 
# From -- ./inp_files/552310.got.cif
#   From: 2010.05.17/outbox.cif.g08.bks.cpg/sg2_277_cif.got.tgz:552310.got - 2010.06.03 11:33:40.
