data_PCOD9012619
_publ_section_title
;
Structure prediction by ZEFSAII (Michael W. Deem and Ramdas Pophale) SiO2 
 PCOD9012619
Probable space group: P -1
;
_chemical_formula_sum "Si O2"
_cell_formula_units_Z 16
_cell_length_a 9.439692
_cell_length_b 15.147005
_cell_length_c 12.093490
_cell_angle_alpha 128.370928
_cell_angle_beta 124.773625
_cell_angle_gamma 28.626653
_cell_volume 648.011934
_symmetry_space_group_name_H-M "P -1"
_symmetry_group_IT_number 2
_symmetry_cell_setting 'triclinic'
loop_
_space_group_symop_operation_xyz
x,y,z
-x,-y,-z
loop_
_atom_site_type_symbol
_atom_site_label
_atom_site_fract_x
_atom_site_fract_y
_atom_site_fract_z
Si Si1 0.024020 0.679047 0.914933
Si Si2 0.139513 0.300065 0.905548
Si Si3 0.788809 0.619169 0.606316
Si Si4 0.328830 0.733993 0.031067
Si Si5 0.465810 0.436354 0.255896
Si Si6 0.674737 0.272376 0.446157
Si Si7 0.908970 0.760153 0.480354
Si Si8 0.637495 0.028314 0.745547
O O1 0.359923 0.452697 0.910574
O O2 0.866931 0.692023 0.760068
O O3 0.855125 0.748979 0.007649
O O4 0.080765 0.778959 0.993723
O O5 0.883766 0.376859 0.780877
O O6 0.453611 0.119676 0.847510
O O7 0.000000 0.500000 0.000000
O O8 0.432331 0.780840 0.571958
O O9 0.000000 0.500000 0.500000
O O10 0.899537 0.455670 0.603692
O O11 0.248013 0.905225 0.150579
O O12 0.394446 0.668024 0.880973
O O13 0.583437 0.293481 0.294372
O O14 0.497229 0.539313 0.412058
O O15 0.977040 0.184863 0.486614
O O16 0.615808 0.864956 0.374793
O O17 0.876387 0.815746 0.637857
#
# Coordination Sequence:
#
# PCOD9012619 Si02
#       8
#     2   2   2   2   2   2   2   2
#     4  10  21  33  58  85 118 139 201 242 287 336
#     4  11  17  33  58  85 110 151 199 242 286 331
#     4  12  22  38  62  87 119 152 194 243 290 349
#     4  10  20  35  55  90 112 149 185 251 291 329
#     4  10  17  29  59  79 114 138 197 237 276 338
#     4  11  20  35  58  83 116 150 199 233 283 352
#     4  11  22  39  57  91 115 155 192 240 298 345
#     4  11  21  37  63  84 122 146 197 247 288 350
#
# _framework density 24.690902999999999
#
# number of rings (size 3 to 8) (size 9 to 14) (size 15 to 20)
#    0.000    1.250    7.500    1.500    0.000    0.000 
#    0.000    1.875    0.000    4.500    0.000    0.000 
#    0.000    0.000    0.000    0.000    0.000    0.000 
#
# Total GULP energy -89154.667327 kJ/mol
# GULP energy per Si atom -5572.166708 kJ/mol
# Density = 2.463470 g / cm^3
# Si number density = 24.690903 Si / 1000 Ang^3
#
#
#
# Elastic Constant Matrix: (Units=GPa)
#
#
# Indices 1 2 3 4 5 6 
#
# 1 170.5616 16.7855 96.4381 6.8578 7.6902 -17.1330
# 2 16.7855 43.4734 16.0771 8.4420 7.9074 -3.7291
# 3 96.4381 16.0771 153.1314 7.0666 0.1956 -9.7388
# 4 6.8578 8.4420 7.0666 34.4316 -10.0867 -1.2403
# 5 7.6902 7.9074 0.1956 -10.0867 38.1834 -3.2858
# 6 -17.1330 -3.7291 -9.7388 -1.2403 -3.2858 14.8581
#
#
#
# Elastic Compliance Matrix: (Units=1/GPa)
#
#
# Indices 1 2 3 4 5 6 
#
# 1 0.009986 -0.000708 -0.005717 -0.000800 -0.001426 0.007207
# 2 -0.000708 0.027117 -0.001857 -0.008213 -0.007423 0.002445
# 3 -0.005717 -0.001857 0.010330 -0.000098 0.001460 0.000027
# 4 -0.000800 -0.008213 -0.000098 0.034601 0.011202 0.002318
# 5 -0.001426 -0.007423 0.001460 0.011202 0.031425 0.005334
# 6 0.007207 0.002445 0.000027 0.002318 0.005334 0.077618
#
#
# Mechanical properties :
#
#
# Convention : Reuss Voigt Hill
#
# Bulk Modulus (GPa) = 32.39560 69.52976 50.96268
# Shear Modulus (GPa) = 22.94290 33.35235 28.14763
#
# Velocity S-wave (km/s) = 3.05159 3.67930 3.38005
# Velocity P-wave (km/s) = 5.05621 6.80227 5.99317
#
# Compressibility (1/GPa) = 0.03086839
#
# Stress axis : x y z
#
# Youngs Moduli (GPa) = 100.14213 36.87656 96.80283
#
# Poissons Ratio (x) = 0.02612 0.55345
# Poissons Ratio (y) = 0.07092 0.17977
# Poissons Ratio (z) = 0.57255 0.06848
#
# Static dielectric constant tensor:
#      x y z
#    x 2.203540 -0.221450 -0.024510 
#    y -0.221450 2.359260 -0.031790 
#    z -0.024510 -0.031790 1.928830 
# 
# From -- ./inp_files/402236.got.cif
#   From: 2010.05.17/outbox.cif.g08.bks.cpg/sg2_202_cif.got.tgz:402236.got - 2010.06.03 11:33:40.
