data_PCOD9012791
_publ_section_title
;
Structure prediction by ZEFSAII (Michael W. Deem and Ramdas Pophale) SiO2 
 PCOD9012791
Probable space group: P -1
;
_chemical_formula_sum "Si O2"
_cell_formula_units_Z 16
_cell_length_a 11.386369
_cell_length_b 15.735691
_cell_length_c 6.865722
_cell_angle_alpha 74.316697
_cell_angle_beta 85.588576
_cell_angle_gamma 128.868838
_cell_volume 870.809616
_symmetry_space_group_name_H-M "P -1"
_symmetry_group_IT_number 2
_symmetry_cell_setting 'triclinic'
loop_
_space_group_symop_operation_xyz
x,y,z
-x,-y,-z
loop_
_atom_site_type_symbol
_atom_site_label
_atom_site_fract_x
_atom_site_fract_y
_atom_site_fract_z
Si Si1 0.800845 0.714775 0.857254
Si Si2 0.873275 0.201463 0.398924
Si Si3 0.181916 0.115789 0.948247
Si Si4 0.031480 0.618302 0.383848
Si Si5 0.332407 0.011520 0.136913
Si Si6 0.299337 0.835448 0.951085
Si Si7 0.288402 0.453518 0.689063
Si Si8 0.363154 0.320360 0.497448
O O1 0.693241 0.691912 0.706545
O O2 0.971562 0.770042 0.720258
O O3 0.817449 0.803484 0.950039
O O4 0.727458 0.596863 0.063422
O O5 0.930372 0.308837 0.468035
O O6 0.770532 0.185158 0.241546
O O7 0.767800 0.081691 0.616356
O O8 0.271115 0.195018 0.693887
O O9 0.269435 0.075545 0.050411
O O10 0.000000 0.000000 0.000000
O O11 0.000000 0.500000 0.500000
O O12 0.873911 0.580791 0.329350
O O13 0.180467 0.712173 0.163420
O O14 0.519508 0.106909 0.105077
O O15 0.303967 0.931003 0.007858
O O16 0.316488 0.385784 0.580643
O O17 0.446125 0.592893 0.569595
#
# Coordination Sequence:
#
# PCOD9012791 Si02
#       8
#     2   2   2   2   2   2   2   2
#     4  11  21  39  64  90 118 160 197 239 300 363
#     4  11  21  40  66  85 119 160 201 240 299 360
#     4  11  24  38  60  94 124 152 198 247 294 354
#     4  11  24  40  63  90 119 156 202 249 296 349
#     4  10  23  40  62  89 124 156 199 248 293 351
#     4  10  22  43  63  86 119 164 198 242 301 351
#     4  10  21  41  61  86 120 157 199 246 300 353
#     4  10  22  39  62  86 121 160 195 245 301 351
#
# _framework density 18.373707
#
# number of rings (size 3 to 8) (size 9 to 14) (size 15 to 20)
#    0.000    1.500    2.500    2.250    5.250    3.500 
#    2.250    0.000    0.000    0.000    0.000    0.000 
#    0.000    0.000    0.000    0.000    0.000    0.000 
#
# Total GULP energy -89408.779438 kJ/mol
# GULP energy per Si atom -5588.048715 kJ/mol
# Density = 1.833189 g / cm^3
# Si number density = 18.373707 Si / 1000 Ang^3
#
#
#
# Elastic Constant Matrix: (Units=GPa)
#
#
# Indices 1 2 3 4 5 6 
#
# 1 71.7400 46.6855 37.3942 -16.6376 0.9783 6.3950
# 2 46.6855 88.4033 67.0421 -20.2008 10.8684 21.7096
# 3 37.3942 67.0421 124.6408 -5.1876 9.2288 9.4869
# 4 -16.6376 -20.2008 -5.1876 36.5457 7.6251 2.4048
# 5 0.9783 10.8684 9.2288 7.6251 31.2003 -4.2708
# 6 6.3950 21.7096 9.4869 2.4048 -4.2708 30.2985
#
#
#
# Elastic Compliance Matrix: (Units=1/GPa)
#
#
# Indices 1 2 3 4 5 6 
#
# 1 0.022453 -0.012840 -0.000441 0.001869 0.004131 0.005033
# 2 -0.012840 0.044695 -0.015537 0.022767 -0.020117 -0.029093
# 3 -0.000441 -0.015537 0.015317 -0.007923 0.003873 0.007605
# 4 0.001869 0.022767 -0.007923 0.045090 -0.019478 -0.020551
# 5 0.004131 -0.020117 0.003873 -0.019478 0.045318 0.020264
# 6 0.005033 -0.029093 0.007605 -0.020551 0.020264 0.054895
#
#
# Mechanical properties :
#
#
# Convention : Reuss Voigt Hill
#
# Bulk Modulus (GPa) = 40.27449 65.22530 52.74990
# Shear Modulus (GPa) = 17.02527 28.51973 22.77250
#
# Velocity S-wave (km/s) = 3.04733 3.94408 3.52434
# Velocity P-wave (km/s) = 5.86079 7.50449 6.73298
#
# Compressibility (1/GPa) = 0.02482961
#
# Stress axis : x y z
#
# Youngs Moduli (GPa) = 44.53705 22.37366 65.28542
#
# Poissons Ratio (x) = 0.28727 0.02881
# Poissons Ratio (y) = 0.57183 1.01436
# Poissons Ratio (z) = 0.01966 0.34763
#
# Static dielectric constant tensor:
#      x y z
#    x 1.599540 0.004450 -0.012790 
#    y 0.004450 1.617280 -0.000520 
#    z -0.012790 -0.000520 1.620400 
# 
# From -- ./inp_files/67229.got.cif
#   From: 2010.05.17/outbox.cif.g08.bks.cpg/sg2_34_cif.got.tgz:67229.got - 2010.06.03 11:33:40.
