data_PCOD9012094
_publ_section_title
;
Structure prediction by ZEFSAII (Michael W. Deem and Ramdas Pophale) SiO2 
 PCOD9012094
Probable space group: P -1
;
_chemical_formula_sum "Si O2"
_cell_formula_units_Z 16
_cell_length_a 22.335439
_cell_length_b 32.776343
_cell_length_c 7.796286
_cell_angle_alpha 30.315199
_cell_angle_beta 38.316842
_cell_angle_gamma 15.790597
_cell_volume 738.498117
_symmetry_space_group_name_H-M "P -1"
_symmetry_group_IT_number 2
_symmetry_cell_setting 'triclinic'
loop_
_space_group_symop_operation_xyz
x,y,z
-x,-y,-z
loop_
_atom_site_type_symbol
_atom_site_label
_atom_site_fract_x
_atom_site_fract_y
_atom_site_fract_z
Si Si1 0.217086 0.892979 0.097306
Si Si2 0.772712 0.477775 0.348686
Si Si3 0.596528 0.521112 0.041689
Si Si4 0.986751 0.126685 0.409358
Si Si5 0.864863 0.523531 0.276477
Si Si6 0.863169 0.524765 0.662248
Si Si7 0.550283 0.181445 0.677812
Si Si8 0.810484 0.290114 0.751610
O O1 0.491763 0.697970 0.200408
O O2 0.146527 0.852671 0.428555
O O3 0.130485 0.984636 0.769044
O O4 0.062079 0.064846 0.950170
O O5 0.868607 0.453477 0.055220
O O6 0.884586 0.437373 0.406865
O O7 0.810677 0.355387 0.662805
O O8 0.799423 0.334339 0.141051
O O9 0.685492 0.428618 0.366574
O O10 0.361828 0.653392 0.037338
O O11 0.535842 0.660669 0.675844
O O12 0.181268 0.015566 0.251578
O O13 0.947412 0.437472 0.596682
O O14 0.587112 0.756508 0.082575
O O15 0.000000 0.500000 0.000000
O O16 0.587581 0.749304 0.428406
O O17 0.000000 0.500000 0.500000
#
# Coordination Sequence:
#
# PCOD9012094 Si02
#       8
#     2   2   2   2   2   2   2   2
#     4  10  18  28  53  87 119 156 194 224 278 353
#     4  12  19  38  60  86 120 156 185 238 297 327
#     4  10  17  29  54  85 119 156 192 229 280 341
#     4  10  17  29  54  85 119 156 192 229 280 341
#     4  10  22  37  63  88 109 151 202 241 294 342
#     4  10  20  37  65  88 109 149 202 243 286 345
#     4  10  19  36  54  86 116 146 193 240 276 347
#     4  10  18  28  53  87 119 156 194 224 278 353
#
# _framework density 21.665593999999999
#
# number of rings (size 3 to 8) (size 9 to 14) (size 15 to 20)
#    0.750    1.000    6.250    0.000    0.000    0.000 
#    0.000    2.500    0.000    9.000    0.000    0.000 
#    0.000    0.000    0.000    0.000    0.000    0.000 
#
# Total GULP energy -89333.495875 kJ/mol
# GULP energy per Si atom -5583.343492 kJ/mol
# Density = 2.161628 g / cm^3
# Si number density = 21.665594 Si / 1000 Ang^3
#
#
#
# Elastic Constant Matrix: (Units=GPa)
#
#
# Indices 1 2 3 4 5 6 
#
# 1 172.2700 53.3280 52.9487 9.0365 -21.7163 7.3981
# 2 53.3280 150.3056 56.4433 11.9032 -11.9701 -13.1626
# 3 52.9487 56.4433 37.7095 -8.8900 -14.0975 -27.8389
# 4 9.0365 11.9032 -8.8900 37.0521 -1.9382 -9.9590
# 5 -21.7163 -11.9701 -14.0975 -1.9382 34.2101 12.1992
# 6 7.3981 -13.1626 -27.8389 -9.9590 12.1992 24.3503
#
#
#
# Elastic Compliance Matrix: (Units=1/GPa)
#
#
# Indices 1 2 3 4 5 6 
#
# 1 0.003841 -0.004498 0.009686 0.005245 0.002097 0.008569
# 2 -0.004498 0.007471 0.003735 0.002735 -0.002917 0.012255
# 3 0.009686 0.003735 -0.021893 -0.018796 0.011402 -0.039352
# 4 0.005245 0.002735 -0.018796 0.015990 0.003432 -0.016784
# 5 0.002097 -0.002917 0.011402 0.003432 0.036617 -0.006120
# 6 0.008569 0.012255 -0.039352 -0.016784 -0.006120 -0.003701
#
#
# Mechanical properties :
#
#
# Convention : Reuss Voigt Hill
#
# Bulk Modulus (GPa) = 137.64269 76.19169 106.91719
# Shear Modulus (GPa) = 218.31946 32.29352 125.30649
#
# Velocity S-wave (km/s) = 10.04921 3.86494 7.61329
# Velocity P-wave (km/s) = 14.08251 7.42701 11.25784
#
# Compressibility (1/GPa) = 0.00726519
#
# Stress axis : x y z
#
# Youngs Moduli (GPa) = 260.31573 133.85517 -45.67744
#
# Poissons Ratio (x) = 0.60210 0.44243
# Poissons Ratio (y) = 1.17094 0.17061
# Poissons Ratio (z) = -2.52140 -0.49995
#
# Static dielectric constant tensor:
#      x y z
#    x 1.838770 0.031340 0.075830 
#    y 0.031340 1.765390 -0.021840 
#    z 0.075830 -0.021840 1.725430 
# 
# From -- ./inp_files/350290.got.cif
#   From: 2010.05.17/outbox.cif.g08.bks.cpg/sg2_176_cif.got.tgz:350290.got - 2010.06.03 11:33:40.
