data_PCOD9012542
_publ_section_title
;
Structure prediction by ZEFSAII (Michael W. Deem and Ramdas Pophale) SiO2 
 PCOD9012542
Probable space group: P -1
;
_chemical_formula_sum "Si O2"
_cell_formula_units_Z 14
_cell_length_a 9.759256
_cell_length_b 15.548266
_cell_length_c 7.944061
_cell_angle_alpha 133.558210
_cell_angle_beta 81.013884
_cell_angle_gamma 131.934020
_cell_volume 536.411520
_symmetry_space_group_name_H-M "P -1"
_symmetry_group_IT_number 2
_symmetry_cell_setting 'triclinic'
loop_
_space_group_symop_operation_xyz
x,y,z
-x,-y,-z
loop_
_atom_site_type_symbol
_atom_site_label
_atom_site_fract_x
_atom_site_fract_y
_atom_site_fract_z
Si Si1 0.070183 0.690131 0.659610
Si Si2 0.363133 0.779661 0.426956
Si Si3 0.157122 0.990283 0.930320
Si Si4 0.784061 0.235853 0.911652
Si Si5 0.011347 0.178569 0.622139
Si Si6 0.382127 0.260288 0.764291
Si Si7 0.436332 0.587474 0.697614
O O1 0.195956 0.711324 0.509498
O O2 0.163995 0.890507 0.930326
O O3 0.812113 0.544117 0.480021
O O4 0.867233 0.330741 0.205418
O O5 0.262953 0.708061 0.159162
O O6 0.469817 0.722367 0.361280
O O7 0.555910 0.009141 0.681670
O O8 0.053355 0.856192 0.606347
O O9 0.397083 0.203321 0.129601
O O10 0.000000 0.000000 0.000000
O O11 0.971382 0.273169 0.853033
O O12 0.253082 0.284559 0.743983
O O13 0.821898 0.962818 0.439941
O O14 0.513534 0.379831 0.069204
O O15 0.500000 0.500000 0.500000
#
# Coordination Sequence:
#
# PCOD9012542 Si02
#       7
#     2   2   2   2   2   2   2
#     4  12  24  43  72 100 138 185 223 280 351 405
#     4  10  22  42  67 101 139 182 229 277 343 414
#     4  11  23  40  69 104 138 177 232 283 342 405
#     4  10  21  40  70  99 138 181 230 281 336 410
#     4   9  18  38  65  98 129 177 229 280 332 396
#     4   9  20  37  66  92 137 180 217 285 341 388
#     4  11  23  42  65 104 141 174 230 292 332 405
#
# _framework density 26.099364000000001
#
# number of rings (size 3 to 8) (size 9 to 14) (size 15 to 20)
#    0.000    1.714    2.857    1.286    8.000    0.571 
#    0.000    2.857    0.000    0.000    0.000    0.000 
#    0.000    0.000    0.000    0.000    0.000    0.000 
#
# Total GULP energy -78567.854681 kJ/mol
# GULP energy per Si atom -5611.989620 kJ/mol
# Density = 2.603996 g / cm^3
# Si number density = 26.099364 Si / 1000 Ang^3
#
#
#
# Elastic Constant Matrix: (Units=GPa)
#
#
# Indices 1 2 3 4 5 6 
#
# 1 181.4525 77.5644 55.5676 -16.1854 1.3853 31.9891
# 2 77.5644 132.2124 60.8918 -4.9424 11.7307 22.6130
# 3 55.5676 60.8918 128.3467 -15.3178 24.3411 12.9513
# 4 -16.1854 -4.9424 -15.3178 58.9388 1.8176 -6.9295
# 5 1.3853 11.7307 24.3411 1.8176 45.9836 -3.9741
# 6 31.9891 22.6130 12.9513 -6.9295 -3.9741 42.8067
#
#
#
# Elastic Compliance Matrix: (Units=1/GPa)
#
#
# Indices 1 2 3 4 5 6 
#
# 1 0.008228 -0.003546 -0.001617 0.001094 0.001167 -0.003501
# 2 -0.003546 0.011914 -0.003768 -0.001250 -0.001131 -0.002811
# 3 -0.001617 -0.003768 0.011602 0.002368 -0.005261 -0.000416
# 4 0.001094 -0.001250 0.002368 0.018049 -0.001516 0.001907
# 5 0.001167 -0.001131 -0.005261 -0.001516 0.025139 0.003406
# 6 -0.003501 -0.002811 -0.000416 0.001907 0.003406 0.028212
#
#
# Mechanical properties :
#
#
# Convention : Reuss Voigt Hill
#
# Bulk Modulus (GPa) = 72.04320 92.22881 82.13600
# Shear Modulus (GPa) = 39.79814 46.07835 42.93824
#
# Velocity S-wave (km/s) = 3.90919 4.20634 4.06049
# Velocity P-wave (km/s) = 6.93102 7.68149 7.31589
#
# Compressibility (1/GPa) = 0.01388056
#
# Stress axis : x y z
#
# Youngs Moduli (GPa) = 121.53488 83.93672 86.19466
#
# Poissons Ratio (x) = 0.29765 0.13942
# Poissons Ratio (y) = 0.43098 0.32477
# Poissons Ratio (z) = 0.19658 0.31626
#
# Static dielectric constant tensor:
#      x y z
#    x 2.010420 -0.014760 -0.028320 
#    y -0.014760 1.996240 0.044710 
#    z -0.028320 0.044710 2.072060 
# 
# From -- ./inp_files/405080.got.cif
#   From: 2010.05.17/outbox.cif.g08.bks.cpg/sg2_203_cif.got.tgz:405080.got - 2010.06.03 11:33:40.
