data_PCOD9012218
_publ_section_title
;
Structure prediction by ZEFSAII (Michael W. Deem and Ramdas Pophale) SiO2 
 PCOD9012218
Probable space group: P -1
;
_chemical_formula_sum "Si O2"
_cell_formula_units_Z 16
_cell_length_a 15.051057
_cell_length_b 14.581213
_cell_length_c 12.373489
_cell_angle_alpha 58.527216
_cell_angle_beta 148.915280
_cell_angle_gamma 142.197884
_cell_volume 749.863554
_symmetry_space_group_name_H-M "P -1"
_symmetry_group_IT_number 2
_symmetry_cell_setting 'triclinic'
loop_
_space_group_symop_operation_xyz
x,y,z
-x,-y,-z
loop_
_atom_site_type_symbol
_atom_site_label
_atom_site_fract_x
_atom_site_fract_y
_atom_site_fract_z
Si Si1 0.151617 0.585700 0.964793
Si Si2 0.302389 0.990742 0.107000
Si Si3 0.395321 0.149915 0.893521
Si Si4 0.678541 0.489215 0.436759
Si Si5 0.321147 0.129334 0.249881
Si Si6 0.013497 0.856466 0.516926
Si Si7 0.442034 0.110580 0.626856
Si Si8 0.269600 0.394368 0.232864
O O1 0.316101 0.692556 0.960191
O O2 0.334836 0.720340 0.170699
O O3 0.144952 0.453323 0.051502
O O4 0.871402 0.515688 0.704144
O O5 0.457557 0.960128 0.249863
O O6 0.362835 0.055310 0.252385
O O7 0.978540 0.806831 0.875412
O O8 0.389134 0.122479 0.030010
O O9 0.221229 0.172963 0.678215
O O10 0.237382 0.976146 0.772926
O O11 0.518105 0.323536 0.300680
O O12 0.435488 0.435567 0.275897
O O13 0.878008 0.674216 0.477828
O O14 0.396714 0.140423 0.445108
O O15 0.000000 0.000000 0.000000
O O16 0.168448 0.970534 0.500669
O O17 0.500000 0.500000 0.500000
#
# Coordination Sequence:
#
# PCOD9012218 Si02
#       8
#     2   2   2   2   2   2   2   2
#     4  11  24  43  71 107 134 167 221 288 337 399
#     4  12  25  43  65  96 135 180 224 272 330 400
#     4  10  21  40  69 100 136 169 219 275 348 395
#     4  12  24  44  67  99 136 176 227 275 336 390
#     4  12  26  46  64  91 135 188 228 264 327 406
#     4  10  21  40  69 101 132 172 218 283 337 395
#     4  11  24  43  69 100 135 174 222 276 342 395
#     4  12  24  39  67 100 135 171 218 276 340 394
#
# _framework density 21.337213999999999
#
# number of rings (size 3 to 8) (size 9 to 14) (size 15 to 20)
#    0.000    0.750    2.500    5.625    3.500    3.500 
#    0.000    6.250    0.000    0.000    0.000    0.000 
#    0.000    0.000    0.000    0.000    0.000    0.000 
#
# Total GULP energy -89505.086289 kJ/mol
# GULP energy per Si atom -5594.067893 kJ/mol
# Density = 2.128865 g / cm^3
# Si number density = 21.337214 Si / 1000 Ang^3
#
#
#
# Elastic Constant Matrix: (Units=GPa)
#
#
# Indices 1 2 3 4 5 6 
#
# 1 92.1699 17.7738 2.9034 2.5893 -4.5569 3.4048
# 2 17.7738 98.1877 25.0932 7.2442 -9.6115 2.7522
# 3 2.9034 25.0932 48.7121 -4.0332 -4.7691 -1.8795
# 4 2.5893 7.2442 -4.0332 27.7102 -6.1751 2.4559
# 5 -4.5569 -9.6115 -4.7691 -6.1751 33.2011 -2.0177
# 6 3.4048 2.7522 -1.8795 2.4559 -2.0177 37.5834
#
#
#
# Elastic Compliance Matrix: (Units=1/GPa)
#
#
# Indices 1 2 3 4 5 6 
#
# 1 0.011308 -0.002025 0.000415 -0.000187 0.000943 -0.000793
# 2 -0.002025 0.012690 -0.006577 -0.003634 0.001730 -0.000744
# 3 0.000415 -0.006577 0.024708 0.005787 0.002867 0.001455
# 4 -0.000187 -0.003634 0.005787 0.039607 0.007021 -0.001639
# 5 0.000943 0.001730 0.002867 0.007021 0.032541 0.001220
# 6 -0.000793 -0.000744 0.001455 -0.001639 0.001220 0.026979
#
#
# Mechanical properties :
#
#
# Convention : Reuss Voigt Hill
#
# Bulk Modulus (GPa) = 30.92751 36.73450 33.83101
# Shear Modulus (GPa) = 28.57398 32.58555 30.57976
#
# Velocity S-wave (km/s) = 3.66343 3.91214 3.78982
# Velocity P-wave (km/s) = 5.69389 6.13677 5.91947
#
# Compressibility (1/GPa) = 0.03233367
#
# Stress axis : x y z
#
# Youngs Moduli (GPa) = 88.43271 78.80089 40.47292
#
# Poissons Ratio (x) = 0.15956 -0.01681
# Poissons Ratio (y) = 0.17906 0.26618
# Poissons Ratio (z) = -0.03673 0.51825
#
# Static dielectric constant tensor:
#      x y z
#    x 1.765840 0.006080 0.000750 
#    y 0.006080 1.805890 -0.006870 
#    z 0.000750 -0.006870 1.775090 
# 
# From -- ./inp_files/455676.got.cif
#   From: 2010.05.17/outbox.cif.g08.bks.cpg/sg2_228_cif.got.tgz:455676.got - 2010.06.03 11:33:40.
