data_PCOD9012782
_publ_section_title
;
Structure prediction by ZEFSAII (Michael W. Deem and Ramdas Pophale) SiO2 
 PCOD9012782
Probable space group: P -1
;
_chemical_formula_sum "Si O2"
_cell_formula_units_Z 16
_cell_length_a 14.748389
_cell_length_b 14.819045
_cell_length_c 12.224220
_cell_angle_alpha 142.772472
_cell_angle_beta 25.822767
_cell_angle_gamma 141.232739
_cell_volume 683.660201
_symmetry_space_group_name_H-M "P -1"
_symmetry_group_IT_number 2
_symmetry_cell_setting 'triclinic'
loop_
_space_group_symop_operation_xyz
x,y,z
-x,-y,-z
loop_
_atom_site_type_symbol
_atom_site_label
_atom_site_fract_x
_atom_site_fract_y
_atom_site_fract_z
Si Si1 0.171997 0.964804 0.196446
Si Si2 0.084160 0.551628 0.579822
Si Si3 0.310614 0.904907 0.686958
Si Si4 0.532901 0.105117 0.824213
Si Si5 0.931806 0.657617 0.222451
Si Si6 0.283008 0.357993 0.789116
Si Si7 0.918999 0.982731 0.266675
Si Si8 0.677062 0.618351 0.682975
O O1 0.141395 0.785623 0.080783
O O2 0.056396 0.996877 0.241370
O O3 0.000000 0.000000 0.500000
O O4 0.417169 0.061967 0.025545
O O5 0.241158 0.723235 0.568963
O O6 0.200265 0.431993 0.396163
O O7 0.000000 0.500000 0.500000
O O8 0.894428 0.571164 0.886873
O O9 0.500000 0.000000 0.500000
O O10 0.410200 0.954449 0.745162
O O11 0.098918 0.972395 0.972387
O O12 0.780112 0.109034 0.540986
O O13 0.458244 0.256972 0.017625
O O14 0.765896 0.652140 0.297107
O O15 0.832221 0.679523 0.470184
O O16 0.000000 0.500000 0.000000
O O17 0.240120 0.185563 0.715194
O O18 0.511008 0.466053 0.673077
#
# Coordination Sequence:
#
# PCOD9012782 Si02
#       8
#     2   2   2   2   2   2   2   2
#     4  10  21  41  60  96 142 184 231 286 351 421
#     4  11  26  50  76 104 143 188 243 304 366 435
#     4  10  24  49  74 101 134 184 240 301 362 427
#     4  11  24  43  68 103 143 187 236 298 362 430
#     4  11  22  41  70 103 143 191 240 298 357 434
#     4  10  23  43  69 103 141 189 238 296 364 429
#     4   9  22  42  67  96 138 184 233 287 360 435
#     4  12  25  43  72 107 144 188 244 299 365 436
#
# _framework density 23.40344
#
# number of rings (size 3 to 8) (size 9 to 14) (size 15 to 20)
#    0.000    1.500    2.500    1.875    3.500    4.500 
#    4.500    0.000    0.000    0.000    0.000    0.000 
#    0.000    0.000    0.000    0.000    0.000    0.000 
#
# Total GULP energy -89328.284027 kJ/mol
# GULP energy per Si atom -5583.017752 kJ/mol
# Density = 2.335017 g / cm^3
# Si number density = 23.403440 Si / 1000 Ang^3
#
#
#
# Elastic Constant Matrix: (Units=GPa)
#
#
# Indices 1 2 3 4 5 6 
#
# 1 99.8507 43.1140 56.1728 -4.0518 -2.8373 -21.2451
# 2 43.1140 97.5900 58.2941 -8.2122 -2.2334 2.2813
# 3 56.1728 58.2941 149.8297 12.8109 -28.0160 -30.3149
# 4 -4.0518 -8.2122 12.8109 37.7465 -1.4514 -4.1890
# 5 -2.8373 -2.2334 -28.0160 -1.4514 30.2839 11.2738
# 6 -21.2451 2.2813 -30.3149 -4.1890 11.2738 25.2293
#
#
#
# Elastic Compliance Matrix: (Units=1/GPa)
#
#
# Indices 1 2 3 4 5 6 
#
# 1 0.017517 -0.006774 -0.002134 0.002676 -0.006759 0.016264
# 2 -0.006774 0.019424 -0.009067 0.004636 -0.000986 -0.017146
# 3 -0.002134 -0.009067 0.015757 -0.005758 0.008521 0.013193
# 4 0.002676 0.004636 -0.005758 0.029770 -0.003904 0.001603
# 5 -0.006759 -0.000986 0.008521 -0.003904 0.046214 -0.016663
# 6 0.016264 -0.017146 0.013193 0.001603 -0.016663 0.078446
#
#
# Mechanical properties :
#
#
# Convention : Reuss Voigt Hill
#
# Bulk Modulus (GPa) = 59.70841 73.60358 66.65599
# Shear Modulus (GPa) = 20.10760 31.29790 25.70275
#
# Velocity S-wave (km/s) = 2.93434 3.66091 3.31758
# Velocity P-wave (km/s) = 6.08675 7.02765 6.57405
#
# Compressibility (1/GPa) = 0.01674806
#
# Stress axis : x y z
#
# Youngs Moduli (GPa) = 57.08655 51.48186 63.46394
#
# Poissons Ratio (x) = 0.34874 0.13541
# Poissons Ratio (y) = 0.38671 0.57546
# Poissons Ratio (z) = 0.12181 0.46681
#
# Static dielectric constant tensor:
#      x y z
#    x 1.274780 0.435610 -1.043240 
#    y 0.435610 1.900680 0.655850 
#    z -1.043240 0.655850 0.181410 
# 
# From -- ./inp_files/455049.got.cif
#   From: 2010.05.17/outbox.cif.g08.bks.cpg/sg2_228_cif.got.tgz:455049.got - 2010.06.03 11:33:40.
