data_PCOD9012470
_publ_section_title
;
Structure prediction by ZEFSAII (Michael W. Deem and Ramdas Pophale) SiO2 
 PCOD9012470
Probable space group: P -1
;
_chemical_formula_sum "Si O2"
_cell_formula_units_Z 14
_cell_length_a 9.769053
_cell_length_b 12.126260
_cell_length_c 9.776793
_cell_angle_alpha 39.461169
_cell_angle_beta 109.817014
_cell_angle_gamma 120.169083
_cell_volume 633.847295
_symmetry_space_group_name_H-M "P -1"
_symmetry_group_IT_number 2
_symmetry_cell_setting 'triclinic'
loop_
_space_group_symop_operation_xyz
x,y,z
-x,-y,-z
loop_
_atom_site_type_symbol
_atom_site_label
_atom_site_fract_x
_atom_site_fract_y
_atom_site_fract_z
Si Si1 0.208087 0.621191 0.062966
Si Si2 0.148971 0.028530 0.926267
Si Si3 0.529721 0.615620 0.257197
Si Si4 0.446052 0.292778 0.311374
Si Si5 0.145488 0.993341 0.643540
Si Si6 0.958692 0.392879 0.729708
Si Si7 0.743789 0.514198 0.079225
O O1 0.150158 0.788002 0.855865
O O2 0.189111 0.508053 0.024620
O O3 0.390534 0.686124 0.108212
O O4 0.111782 0.514303 0.266867
O O5 0.303622 0.206069 0.855860
O O6 0.128593 0.059133 0.728636
O O7 0.161001 0.824237 0.128835
O O8 0.000000 0.000000 0.000000
O O9 0.500000 0.500000 0.500000
O O10 0.512762 0.461971 0.282344
O O11 0.608279 0.310573 0.275407
O O12 0.316026 0.118769 0.513328
O O13 0.344834 0.347855 0.110929
O O14 0.000000 0.000000 0.500000
O O15 0.000000 0.500000 0.500000
O O16 0.120187 0.401438 0.844695
#
# Coordination Sequence:
#
# PCOD9012470 Si02
#       7
#     2   2   2   2   2   2   2
#     4  10  25  42  66  97 132 174 228 269 335 395
#     4  11  25  42  66 100 133 172 225 275 331 399
#     4  11  23  43  70  95 135 178 220 276 334 393
#     4  10  21  40  70  92 129 178 222 268 339 389
#     4  11  24  43  67  97 134 174 222 279 332 399
#     4  11  25  40  64  97 136 173 216 279 333 392
#     4  10  22  42  64  95 129 176 221 272 326 409
#
# _framework density 22.087337999999999
#
# number of rings (size 3 to 8) (size 9 to 14) (size 15 to 20)
#    0.000    1.429    1.429    3.000    4.000    8.571 
#    0.000    0.000    0.000    0.000    0.000    0.000 
#    0.000    0.000    0.000    0.000    0.000    0.000 
#
# Total GULP energy -78224.679372 kJ/mol
# GULP energy per Si atom -5587.477098 kJ/mol
# Density = 2.203707 g / cm^3
# Si number density = 22.087338 Si / 1000 Ang^3
#
#
#
# Elastic Constant Matrix: (Units=GPa)
#
#
# Indices 1 2 3 4 5 6 
#
# 1 86.4721 38.5940 34.5455 0.3226 -19.1353 13.3073
# 2 38.5940 102.1364 54.7607 8.1603 -4.2853 30.7777
# 3 34.5455 54.7607 130.0125 8.5523 -31.0922 13.5499
# 4 0.3226 8.1603 8.5523 39.3260 4.3087 -9.6459
# 5 -19.1353 -4.2853 -31.0922 4.3087 49.7650 1.9712
# 6 13.3073 30.7777 13.5499 -9.6459 1.9712 38.8520
#
#
#
# Elastic Compliance Matrix: (Units=1/GPa)
#
#
# Indices 1 2 3 4 5 6 
#
# 1 0.015324 -0.004770 -0.000699 0.000100 0.005094 -0.001460
# 2 -0.004770 0.018631 -0.005607 -0.005333 -0.002782 -0.012353
# 3 -0.000699 -0.005607 0.012133 -0.002363 0.007053 -0.000495
# 4 0.000100 -0.005333 -0.002363 0.030771 -0.005073 0.012911
# 5 0.005094 -0.002782 0.007053 -0.005073 0.026843 -0.004622
# 6 -0.001460 -0.012353 -0.000495 0.012911 -0.004622 0.039637
#
#
# Mechanical properties :
#
#
# Convention : Reuss Voigt Hill
#
# Bulk Modulus (GPa) = 41.77792 63.82460 52.80126
# Shear Modulus (GPa) = 28.82358 38.30333 33.56346
#
# Velocity S-wave (km/s) = 3.61637 4.16886 3.90241
# Velocity P-wave (km/s) = 6.03270 7.22023 6.65301
#
# Compressibility (1/GPa) = 0.02393609
#
# Stress axis : x y z
#
# Youngs Moduli (GPa) = 65.25632 53.67318 82.42243
#
# Poissons Ratio (x) = 0.25603 0.05759
# Poissons Ratio (y) = 0.31129 0.46215
# Poissons Ratio (z) = 0.04560 0.30095
#
# Static dielectric constant tensor:
#      x y z
#    x 1.891590 -0.019570 -0.060960 
#    y -0.019570 1.817690 -0.026410 
#    z -0.060960 -0.026410 1.873440 
# 
# From -- ./inp_files/184423.got.cif
#   From: 2010.05.17/outbox.cif.g08.bks.cpg/sg2_93_cif.got.tgz:184423.got - 2010.06.03 11:33:40.
