data_PCOD9012677
_publ_section_title
;
Structure prediction by ZEFSAII (Michael W. Deem and Ramdas Pophale) SiO2 
 PCOD9012677
Probable space group: P -1
;
_chemical_formula_sum "Si O2"
_cell_formula_units_Z 14
_cell_length_a 12.671303
_cell_length_b 9.126507
_cell_length_c 9.603204
_cell_angle_alpha 69.864722
_cell_angle_beta 54.446013
_cell_angle_gamma 107.742626
_cell_volume 636.544727
_symmetry_space_group_name_H-M "P -1"
_symmetry_group_IT_number 2
_symmetry_cell_setting 'triclinic'
loop_
_space_group_symop_operation_xyz
x,y,z
-x,-y,-z
loop_
_atom_site_type_symbol
_atom_site_label
_atom_site_fract_x
_atom_site_fract_y
_atom_site_fract_z
Si Si1 0.880516 0.004970 0.990293
Si Si2 0.575424 0.918255 0.886588
Si Si3 0.158148 0.112663 0.240404
Si Si4 0.421578 0.160631 0.535153
Si Si5 0.355777 0.580530 0.983688
Si Si6 0.035448 0.561553 0.280421
Si Si7 0.722610 0.207196 0.423517
O O1 0.691078 0.847218 0.257401
O O2 0.932133 0.226989 0.841204
O O3 0.892752 0.916876 0.868945
O O4 0.000000 0.000000 0.000000
O O5 0.746771 0.977191 0.791517
O O6 0.440731 0.675876 0.038061
O O7 0.610044 0.020752 0.678827
O O8 0.500000 0.000000 0.000000
O O9 0.275917 0.348645 0.114487
O O10 0.000000 0.000000 0.500000
O O11 0.504838 0.305765 0.287054
O O12 0.595466 0.238196 0.452702
O O13 0.281911 0.918608 0.662685
O O14 0.203747 0.592377 0.095409
O O15 0.000000 0.500000 0.500000
O O16 0.885286 0.390339 0.336474
#
# Coordination Sequence:
#
# PCOD9012677 Si02
#       7
#     2   2   2   2   2   2   2
#     4  12  29  47  70 106 152 190 245 309 368 440
#     4  11  22  43  71 102 142 189 240 298 359 436
#     4  12  27  47  72 106 151 192 245 307 371 437
#     4  10  24  45  68 104 141 189 242 299 375 434
#     4  11  25  43  75 105 141 194 245 297 366 440
#     4  12  25  46  74 109 144 194 253 300 370 442
#     4  10  21  40  74  98 139 181 242 297 354 440
#
# _framework density 21.993742000000001
#
# number of rings (size 3 to 8) (size 9 to 14) (size 15 to 20)
#    0.000    0.857    0.000    8.143    8.000    1.714 
#    5.143    0.000    0.000    0.000    0.000    0.000 
#    0.000    0.000    0.000    0.000    0.000    0.000 
#
# Total GULP energy -77952.960687 kJ/mol
# GULP energy per Si atom -5568.068620 kJ/mol
# Density = 2.194368 g / cm^3
# Si number density = 21.993742 Si / 1000 Ang^3
#
#
#
# Elastic Constant Matrix: (Units=GPa)
#
#
# Indices 1 2 3 4 5 6 
#
# 1 220.9728 8.8207 -19.6309 -55.6360 5.0805 53.9170
# 2 8.8207 127.5096 65.6577 24.3716 -9.7430 4.7250
# 3 -19.6309 65.6577 143.5306 43.7402 -7.4356 -19.9435
# 4 -55.6360 24.3716 43.7402 78.5498 -1.5707 -23.1556
# 5 5.0805 -9.7430 -7.4356 -1.5707 25.7453 1.4493
# 6 53.9170 4.7250 -19.9435 -23.1556 1.4493 65.2193
#
#
#
# Elastic Compliance Matrix: (Units=1/GPa)
#
#
# Indices 1 2 3 4 5 6 
#
# 1 0.006537 -0.000880 -0.000551 0.003985 -0.001310 -0.004065
# 2 -0.000880 0.011033 -0.004710 -0.002043 0.002994 -0.002304
# 3 -0.000551 -0.004710 0.010712 -0.004109 0.001023 0.002590
# 4 0.003985 -0.002043 -0.004109 0.019160 -0.001715 0.002438
# 5 -0.001310 0.002994 0.001023 -0.001715 0.040443 -0.000329
# 6 -0.004065 -0.002304 0.002590 0.002438 -0.000329 0.020525
#
#
# Mechanical properties :
#
#
# Convention : Reuss Voigt Hill
#
# Bulk Modulus (GPa) = 62.49559 66.85645 64.67602
# Shear Modulus (GPa) = 39.67492 63.04723 51.36108
#
# Velocity S-wave (km/s) = 4.25186 5.35987 4.83769
# Velocity P-wave (km/s) = 7.25130 8.29266 7.78940
#
# Compressibility (1/GPa) = 0.01600113
#
# Stress axis : x y z
#
# Youngs Moduli (GPa) = 152.97681 90.63445 93.35667
#
# Poissons Ratio (x) = 0.07975 0.05140
# Poissons Ratio (y) = 0.13461 0.43970
# Poissons Ratio (z) = 0.08422 0.42688
#
# Static dielectric constant tensor:
#      x y z
#    x 1.971430 0.125730 0.026900 
#    y 0.125730 2.002320 0.030300 
#    z 0.026900 0.030300 1.809700 
# 
# From -- ./inp_files/242900.got.cif
#   From: 2010.05.17/outbox.cif.g08.bks.cpg/sg2_122_cif.got.tgz:242900.got - 2010.06.03 11:33:40.
