data_PCOD9012378
_publ_section_title
;
Structure prediction by ZEFSAII (Michael W. Deem and Ramdas Pophale) SiO2 
 PCOD9012378
Probable space group: P -1
;
_chemical_formula_sum "Si O2"
_cell_formula_units_Z 16
_cell_length_a 15.200612
_cell_length_b 9.487226
_cell_length_c 12.293289
_cell_angle_alpha 108.262112
_cell_angle_beta 71.924198
_cell_angle_gamma 151.448556
_cell_volume 802.246671
_symmetry_space_group_name_H-M "P -1"
_symmetry_group_IT_number 2
_symmetry_cell_setting 'triclinic'
loop_
_space_group_symop_operation_xyz
x,y,z
-x,-y,-z
loop_
_atom_site_type_symbol
_atom_site_label
_atom_site_fract_x
_atom_site_fract_y
_atom_site_fract_z
Si Si1 0.828152 0.356525 0.568754
Si Si2 0.158480 0.300643 0.442768
Si Si3 0.538466 0.747566 0.799983
Si Si4 0.515745 0.344343 0.443101
Si Si5 0.774839 0.368815 0.838973
Si Si6 0.775513 0.818694 0.800938
Si Si7 0.526690 0.313913 0.949656
Si Si8 0.089139 0.773208 0.987357
O O1 0.831090 0.507548 0.528988
O O2 0.834646 0.427365 0.706095
O O3 0.000000 0.500000 0.500000
O O4 0.660742 0.005380 0.550017
O O5 0.339303 0.507461 0.488848
O O6 0.151908 0.215430 0.306156
O O7 0.000000 0.000000 0.500000
O O8 0.434146 0.614845 0.693567
O O9 0.670869 0.787931 0.754087
O O10 0.670005 0.072755 0.842420
O O11 0.431972 0.588045 0.916395
O O12 0.500000 0.500000 0.500000
O O13 0.620347 0.282861 0.888723
O O14 0.959085 0.645555 0.907368
O O15 0.631109 0.560365 0.882931
O O16 0.917294 0.111718 0.887859
O O17 0.306363 0.033229 0.947375
O O18 0.000000 0.500000 0.000000
#
# Coordination Sequence:
#
# PCOD9012378 Si02
#       8
#     2   2   2   2   2   2   2   2
#     4  11  26  48  69 101 137 182 239 294 350 422
#     4  12  26  47  69  99 141 183 236 297 348 416
#     4  10  21  40  69  97 135 178 221 279 343 413
#     4  11  23  44  74 102 134 183 230 283 357 420
#     4  11  23  44  69 101 139 175 231 288 339 421
#     4  11  23  45  66 100 142 174 230 286 344 415
#     4  11  23  44  68 100 143 177 227 288 343 416
#     4  11  23  40  71 103 136 187 224 272 354 415
#
# _framework density 19.943988999999998
#
# number of rings (size 3 to 8) (size 9 to 14) (size 15 to 20)
#    0.000    1.000    5.000    3.000    1.750    2.500 
#   13.500    0.000    0.000    0.000    0.000    0.000 
#    0.000    0.000    0.000    0.000    0.000    0.000 
#
# Total GULP energy -89238.472656 kJ/mol
# GULP energy per Si atom -5577.404541 kJ/mol
# Density = 1.989860 g / cm^3
# Si number density = 19.943989 Si / 1000 Ang^3
#
#
#
# Elastic Constant Matrix: (Units=GPa)
#
#
# Indices 1 2 3 4 5 6 
#
# 1 146.4043 49.5407 45.6151 12.9162 -10.3632 -18.9941
# 2 49.5407 107.3673 64.4953 8.6239 2.0973 -15.2873
# 3 45.6151 64.4953 121.6446 9.8998 -4.3374 9.2881
# 4 12.9162 8.6239 9.8998 31.6411 0.4116 4.6403
# 5 -10.3632 2.0973 -4.3374 0.4116 33.7544 1.2824
# 6 -18.9941 -15.2873 9.2881 4.6403 1.2824 38.7746
#
#
#
# Elastic Compliance Matrix: (Units=1/GPa)
#
#
# Indices 1 2 3 4 5 6 
#
# 1 0.009332 -0.001937 -0.002479 -0.003229 0.002528 0.004704
# 2 -0.001937 0.016882 -0.008777 -0.002224 -0.003055 0.008177
# 3 -0.002479 -0.008777 0.014497 0.000048 0.001959 -0.008218
# 4 -0.003229 -0.002224 0.000048 0.034489 -0.001018 -0.006564
# 5 0.002528 -0.003055 0.001959 -0.001018 0.030907 -0.001336
# 6 0.004704 0.008177 -0.008218 -0.006564 -0.001336 0.034116
#
#
# Mechanical properties :
#
#
# Convention : Reuss Voigt Hill
#
# Bulk Modulus (GPa) = 69.80227 77.19093 73.49660
# Shear Modulus (GPa) = 29.17412 35.21837 32.19625
#
# Velocity S-wave (km/s) = 3.82881 4.20678 4.02224
# Velocity P-wave (km/s) = 7.39064 7.89834 7.64870
#
# Compressibility (1/GPa) = 0.01432618
#
# Stress axis : x y z
#
# Youngs Moduli (GPa) = 107.15448 59.23310 68.98039
#
# Poissons Ratio (x) = 0.11476 0.17097
# Poissons Ratio (y) = 0.20760 0.60542
# Poissons Ratio (z) = 0.26559 0.51987
#
# Static dielectric constant tensor:
#      x y z
#    x 1.651820 0.146540 0.034610 
#    y 0.146540 1.325180 -0.091740 
#    z 0.034610 -0.091740 1.688650 
# 
# From -- ./inp_files/307852.got.cif
#   From: 2010.05.17/outbox.cif.g08.bks.cpg/sg2_154_cif.got.tgz:307852.got - 2010.06.03 11:33:40.
