data_PCOD9012831
_publ_section_title
;
Structure prediction by ZEFSAII (Michael W. Deem and Ramdas Pophale) SiO2 
 PCOD9012831
Probable space group: P -1
;
_chemical_formula_sum "Si O2"
_cell_formula_units_Z 16
_cell_length_a 11.975330
_cell_length_b 5.112720
_cell_length_c 21.094176
_cell_angle_alpha 82.537239
_cell_angle_beta 29.365222
_cell_angle_gamma 84.512135
_cell_volume 627.556043
_symmetry_space_group_name_H-M "P -1"
_symmetry_group_IT_number 2
_symmetry_cell_setting 'triclinic'
loop_
_space_group_symop_operation_xyz
x,y,z
-x,-y,-z
loop_
_atom_site_type_symbol
_atom_site_label
_atom_site_fract_x
_atom_site_fract_y
_atom_site_fract_z
Si Si1 0.160998 0.758628 0.916123
Si Si2 0.130965 0.778982 0.679774
Si Si3 0.513484 0.454789 0.325273
Si Si4 0.783072 0.749881 0.289228
Si Si5 0.621729 0.769566 0.986760
Si Si6 0.307668 0.775856 0.979153
Si Si7 0.109430 0.059482 0.549512
Si Si8 0.795926 0.274733 0.612352
O O1 0.302874 0.754863 0.781004
O O2 0.319780 0.744876 0.899440
O O3 0.000000 0.500000 0.000000
O O4 0.000000 0.000000 0.000000
O O5 0.253529 0.986544 0.661054
O O6 0.124284 0.878128 0.608532
O O7 0.227644 0.492530 0.648489
O O8 0.871028 0.764190 0.832998
O O9 0.615589 0.659787 0.318691
O O10 0.285544 0.303613 0.466296
O O11 0.440544 0.600045 0.292025
O O12 0.040142 0.749670 0.133314
O O13 0.631300 0.922678 0.043685
O O14 0.500000 0.000000 0.000000
O O15 0.561797 0.459410 0.041092
O O16 0.854489 0.144796 0.654650
O O17 0.179564 0.921326 0.453460
O O18 0.000000 0.500000 0.500000
#
# Coordination Sequence:
#
# PCOD9012831 Si02
#       8
#     2   2   2   2   2   2   2   2
#     4  12  26  42  68  99 132 179 222 275 342 404
#     4  10  24  41  66  96 134 177 217 275 337 395
#     4  11  25  41  70  96 136 177 227 277 348 406
#     4  10  23  40  65  97 133 171 216 270 337 403
#     4  10  21  41  64  94 128 173 220 276 327 395
#     4  10  21  41  61  91 134 163 216 275 329 389
#     4  10  23  44  68  95 137 175 231 282 334 400
#     4   9  22  45  65  93 133 176 226 286 332 388
#
# _framework density 25.495730999999999
#
# number of rings (size 3 to 8) (size 9 to 14) (size 15 to 20)
#    0.000    1.750    1.250    1.125   10.500    2.000 
#    6.750    0.000    0.000    0.000    0.000    0.000 
#    0.000    0.000    0.000    0.000    0.000    0.000 
#
# Total GULP energy -89513.364826 kJ/mol
# GULP energy per Si atom -5594.585302 kJ/mol
# Density = 2.543770 g / cm^3
# Si number density = 25.495731 Si / 1000 Ang^3
#
#
#
# Elastic Constant Matrix: (Units=GPa)
#
#
# Indices 1 2 3 4 5 6 
#
# 1 80.7961 -4.4814 16.6090 -8.1911 9.0425 -8.3461
# 2 -4.4814 97.2712 12.0131 -3.4791 0.4794 5.9016
# 3 16.6090 12.0131 62.5474 6.5360 1.0624 -1.6203
# 4 -8.1911 -3.4791 6.5360 23.6555 -5.5998 0.4041
# 5 9.0425 0.4794 1.0624 -5.5998 33.5583 -1.7899
# 6 -8.3461 5.9016 -1.6203 0.4041 -1.7899 46.6421
#
#
#
# Elastic Compliance Matrix: (Units=1/GPa)
#
#
# Indices 1 2 3 4 5 6 
#
# 1 0.014510 0.001332 -0.004617 0.005821 -0.002699 0.002114
# 2 0.001332 0.010862 -0.002769 0.002841 -0.000019 -0.001258
# 3 -0.004617 -0.002769 0.018517 -0.007244 -0.000500 0.000211
# 4 0.005821 0.002841 -0.007244 0.048288 0.006692 0.000269
# 5 -0.002699 -0.000019 -0.000500 0.006692 0.031694 0.000660
# 6 0.002114 -0.001258 0.000211 0.000269 0.000660 0.022008
#
#
# Mechanical properties :
#
#
# Convention : Reuss Voigt Hill
#
# Bulk Modulus (GPa) = 31.46493 32.09955 31.78224
# Shear Modulus (GPa) = 29.65964 35.20278 32.43121
#
# Velocity S-wave (km/s) = 3.41444 3.71985 3.57042
# Velocity P-wave (km/s) = 5.28324 5.57380 5.43046
#
# Compressibility (1/GPa) = 0.03178142
#
# Stress axis : x y z
#
# Youngs Moduli (GPa) = 68.91700 92.06525 54.00585
#
# Poissons Ratio (x) = -0.12262 0.24932
# Poissons Ratio (y) = -0.09179 0.14954
# Poissons Ratio (z) = 0.31816 0.25492
#
# Static dielectric constant tensor:
#      x y z
#    x 2.065180 -0.088850 -0.021160 
#    y -0.088850 2.079800 0.012430 
#    z -0.021160 0.012430 2.002000 
# 
# From -- ./inp_files/108903.got.cif
#   From: 2010.05.17/outbox.cif.g08.bks.cpg/sg2_55_cif.got.tgz:108903.got - 2010.06.03 11:33:40.
