data_PCOD9012386
_publ_section_title
;
Structure prediction by ZEFSAII (Michael W. Deem and Ramdas Pophale) SiO2 
 PCOD9012386
Probable space group: P -1
;
_chemical_formula_sum "Si O2"
_cell_formula_units_Z 16
_cell_length_a 7.952422
_cell_length_b 8.409688
_cell_length_c 15.102248
_cell_angle_alpha 135.679095
_cell_angle_beta 95.347179
_cell_angle_gamma 88.050714
_cell_volume 701.816883
_symmetry_space_group_name_H-M "P -1"
_symmetry_group_IT_number 2
_symmetry_cell_setting 'triclinic'
loop_
_space_group_symop_operation_xyz
x,y,z
-x,-y,-z
loop_
_atom_site_type_symbol
_atom_site_label
_atom_site_fract_x
_atom_site_fract_y
_atom_site_fract_z
Si Si1 0.696102 0.988210 0.977279
Si Si2 0.688229 0.467250 0.103549
Si Si3 0.112646 0.747690 0.458469
Si Si4 0.267771 0.192512 0.600387
Si Si5 0.644962 0.609186 0.488427
Si Si6 0.830008 0.150493 0.298750
Si Si7 0.688668 0.724934 0.039123
Si Si8 0.818464 0.777220 0.724539
O O1 0.715876 0.882493 0.839722
O O2 0.764179 0.251389 0.072751
O O3 0.500000 0.000000 0.000000
O O4 0.768050 0.816689 0.986206
O O5 0.686948 0.678147 0.255143
O O6 0.765848 0.551980 0.046123
O O7 0.495950 0.382030 0.036915
O O8 0.107076 0.853915 0.599227
O O9 0.169519 0.492349 0.366106
O O10 0.927623 0.749067 0.407440
O O11 0.249514 0.919906 0.489196
O O12 0.389627 0.283711 0.564696
O O13 0.500000 0.500000 0.500000
O O14 0.762925 0.401915 0.387561
O O15 0.736303 0.794760 0.630784
O O16 0.991244 0.121552 0.233222
O O17 0.688764 0.960805 0.189131
#
# Coordination Sequence:
#
# PCOD9012386 Si02
#       8
#     2   2   2   2   2   2   2   2
#     4  10  24  43  68  92 132 182 224 272 328 396
#     4  10  22  41  67  97 130 178 224 275 333 395
#     4  10  21  40  69  98 132 172 219 281 343 398
#     4  11  20  41  68 100 133 171 221 282 339 403
#     4  11  24  37  68 103 132 173 218 279 342 407
#     4  11  20  44  66  95 134 170 219 277 344 398
#     4  10  22  41  67  93 132 177 222 276 329 396
#     4  11  23  44  65 100 134 175 225 276 342 402
#
# _framework density 22.797969999999999
#
# number of rings (size 3 to 8) (size 9 to 14) (size 15 to 20)
#    0.000    1.500    3.750    1.500    7.000    0.500 
#    2.250    4.375    0.000    0.000    0.000    0.000 
#    0.000    0.000    0.000    0.000    0.000    0.000 
#
# Total GULP energy -89254.260024 kJ/mol
# GULP energy per Si atom -5578.391252 kJ/mol
# Density = 2.274608 g / cm^3
# Si number density = 22.797970 Si / 1000 Ang^3
#
#
#
# Elastic Constant Matrix: (Units=GPa)
#
#
# Indices 1 2 3 4 5 6 
#
# 1 72.9060 9.6172 32.9421 -11.8431 2.3455 12.2084
# 2 9.6172 137.9286 3.4847 -5.5289 7.1729 9.5721
# 3 32.9421 3.4847 114.4205 -11.9995 20.0161 6.4724
# 4 -11.8431 -5.5289 -11.9995 23.7736 2.1935 5.4371
# 5 2.3455 7.1729 20.0161 2.1935 32.6850 -1.2703
# 6 12.2084 9.5721 6.4724 5.4371 -1.2703 16.9014
#
#
#
# Elastic Compliance Matrix: (Units=1/GPa)
#
#
# Indices 1 2 3 4 5 6 
#
# 1 0.020217 0.000469 -0.003317 0.012665 -0.001063 -0.017753
# 2 0.000469 0.008005 0.000999 0.004454 -0.002969 -0.006911
# 3 -0.003317 0.000999 0.012089 0.006696 -0.008050 -0.005558
# 4 0.012665 0.004454 0.006696 0.061852 -0.011498 -0.034996
# 5 -0.001063 -0.002969 -0.008050 -0.011498 0.037492 0.012048
# 6 -0.017753 -0.006911 -0.005558 -0.034996 0.012048 0.090196
#
#
# Mechanical properties :
#
#
# Convention : Reuss Voigt Hill
#
# Bulk Modulus (GPa) = 27.31263 46.37144 36.84204
# Shear Modulus (GPa) = 20.34553 33.28607 26.81580
#
# Velocity S-wave (km/s) = 2.99059 3.82520 3.43335
# Velocity P-wave (km/s) = 4.89195 6.31616 5.64912
#
# Compressibility (1/GPa) = 0.03661310
#
# Stress axis : x y z
#
# Youngs Moduli (GPa) = 49.46244 124.92611 82.72036
#
# Poissons Ratio (x) = -0.05860 0.27435
# Poissons Ratio (y) = -0.02320 -0.08260
# Poissons Ratio (z) = 0.16405 -0.12475
#
# Static dielectric constant tensor:
#      x y z
#    x 1.871010 -0.026760 0.036500 
#    y -0.026760 2.037180 0.033920 
#    z 0.036500 0.033920 1.818240 
# 
# From -- ./inp_files/329008.got.cif
#   From: 2010.05.17/outbox.cif.g08.bks.cpg/sg2_165_cif.got.tgz:329008.got - 2010.06.03 11:33:40.
