data_PCOD9012282
_publ_section_title
;
Structure prediction by ZEFSAII (Michael W. Deem and Ramdas Pophale) SiO2 
 PCOD9012282
Probable space group: P -1
;
_chemical_formula_sum "Si O2"
_cell_formula_units_Z 16
_cell_length_a 8.362034
_cell_length_b 18.739821
_cell_length_c 12.178775
_cell_angle_alpha 143.486642
_cell_angle_beta 50.557405
_cell_angle_gamma 103.017126
_cell_volume 687.336362
_symmetry_space_group_name_H-M "P -1"
_symmetry_group_IT_number 2
_symmetry_cell_setting 'triclinic'
loop_
_space_group_symop_operation_xyz
x,y,z
-x,-y,-z
loop_
_atom_site_type_symbol
_atom_site_label
_atom_site_fract_x
_atom_site_fract_y
_atom_site_fract_z
Si Si1 0.769745 0.429210 0.732986
Si Si2 0.984084 0.231760 0.780617
Si Si3 0.536336 0.093173 0.854758
Si Si4 0.372482 0.380656 0.185424
Si Si5 0.864640 0.645617 0.316869
Si Si6 0.304687 0.840721 0.906741
Si Si7 0.803395 0.382828 0.264200
Si Si8 0.904543 0.918508 0.877110
O O1 0.708887 0.540811 0.799416
O O2 0.983858 0.398058 0.688411
O O3 0.881208 0.262884 0.436134
O O4 0.500000 0.500000 0.000000
O O5 0.096569 0.249535 0.642675
O O6 0.682258 0.303477 0.976309
O O7 0.974044 0.323143 0.004189
O O8 0.188694 0.051757 0.494362
O O9 0.371972 0.238377 0.025790
O O10 0.598476 0.152358 0.007472
O O11 0.356770 0.047320 0.915714
O O12 0.194729 0.514394 0.518504
O O13 0.561227 0.729302 0.580320
O O14 0.000000 0.500000 0.000000
O O15 0.161174 0.764155 0.883775
O O16 0.149962 0.008625 0.130012
O O17 0.500000 0.500000 0.500000
O O18 0.000000 0.000000 0.000000
#
# Coordination Sequence:
#
# PCOD9012282 Si02
#       8
#     2   2   2   2   2   2   2   2
#     4  12  27  45  71 107 146 192 238 301 370 429
#     4  11  22  41  73 111 141 185 245 294 355 431
#     4  12  24  44  74 109 140 193 246 298 358 439
#     4  11  24  44  72 106 151 188 237 300 373 427
#     4  12  25  43  75 110 142 186 248 300 352 436
#     4  12  23  45  75 103 144 192 248 295 360 431
#     4  10  21  40  69 109 143 185 233 295 359 427
#     4  12  28  47  68 104 148 193 241 301 369 426
#
# _framework density 23.278268000000001
#
# number of rings (size 3 to 8) (size 9 to 14) (size 15 to 20)
#    0.000    0.500    6.250    3.750    1.750    0.500 
#    0.000    1.250    0.000    4.500    0.000    0.000 
#    0.000    0.000    0.000    0.000    0.000    0.000 
#
# Total GULP energy -89612.662791 kJ/mol
# GULP energy per Si atom -5600.791424 kJ/mol
# Density = 2.322529 g / cm^3
# Si number density = 23.278268 Si / 1000 Ang^3
#
#
#
# Elastic Constant Matrix: (Units=GPa)
#
#
# Indices 1 2 3 4 5 6 
#
# 1 64.5973 46.8616 32.1082 6.3519 9.6794 1.0878
# 2 46.8616 172.7175 39.3434 23.7568 -2.5274 -19.8052
# 3 32.1082 39.3434 139.5723 6.5468 7.1151 -4.8075
# 4 6.3519 23.7568 6.5468 43.3852 -1.8352 0.0666
# 5 9.6794 -2.5274 7.1151 -1.8352 36.2857 -0.6478
# 6 1.0878 -19.8052 -4.8075 0.0666 -0.6478 41.1862
#
#
#
# Elastic Compliance Matrix: (Units=1/GPa)
#
#
# Indices 1 2 3 4 5 6 
#
# 1 0.022283 -0.005844 -0.003328 0.000203 -0.005757 -0.003878
# 2 -0.005844 0.008591 -0.000875 -0.003629 0.002221 0.004224
# 3 -0.003328 -0.000875 0.008254 -0.000314 -0.000796 0.000619
# 4 0.000203 -0.003629 -0.000314 0.025099 0.000992 -0.001812
# 5 -0.005757 0.002221 -0.000796 0.000992 0.029484 0.001589
# 6 -0.003878 0.004224 0.000619 -0.001812 0.001589 0.026514
#
#
# Mechanical properties :
#
#
# Convention : Reuss Voigt Hill
#
# Bulk Modulus (GPa) = 52.54154 68.16818 60.35486
# Shear Modulus (GPa) = 34.09185 41.40968 37.75076
#
# Velocity S-wave (km/s) = 3.83108 4.22227 4.03142
# Velocity P-wave (km/s) = 6.49535 7.28819 6.90316
#
# Compressibility (1/GPa) = 0.01903256
#
# Stress axis : x y z
#
# Youngs Moduli (GPa) = 44.87791 116.40420 121.15989
#
# Poissons Ratio (x) = 0.68031 0.40324
# Poissons Ratio (y) = 0.26229 0.10597
# Poissons Ratio (z) = 0.14936 0.10181
#
# Static dielectric constant tensor:
#      x y z
#    x 1.909190 0.009910 -0.008430 
#    y 0.009910 2.061700 -0.093370 
#    z -0.008430 -0.093370 1.946850 
# 
# From -- ./inp_files/403329.got.cif
#   From: 2010.05.17/outbox.cif.g08.bks.cpg/sg2_202_cif.got.tgz:403329.got - 2010.06.03 11:33:40.
