data_PCOD9012259
_publ_section_title
;
Structure prediction by ZEFSAII (Michael W. Deem and Ramdas Pophale) SiO2 
 PCOD9012259
Probable space group: P -1
;
_chemical_formula_sum "Si O2"
_cell_formula_units_Z 14
_cell_length_a 5.088070
_cell_length_b 24.865421
_cell_length_c 6.276963
_cell_angle_alpha 54.719357
_cell_angle_beta 77.278729
_cell_angle_gamma 84.098395
_cell_volume 632.074883
_symmetry_space_group_name_H-M "P -1"
_symmetry_group_IT_number 2
_symmetry_cell_setting 'triclinic'
loop_
_space_group_symop_operation_xyz
x,y,z
-x,-y,-z
loop_
_atom_site_type_symbol
_atom_site_label
_atom_site_fract_x
_atom_site_fract_y
_atom_site_fract_z
Si Si1 0.591060 0.301995 0.086882
Si Si2 0.699660 0.019039 0.730703
Si Si3 0.341452 0.468831 0.401006
Si Si4 0.987326 0.648646 0.405694
Si Si5 0.245196 0.084663 0.405573
Si Si6 0.115036 0.235283 0.097272
Si Si7 0.231194 0.585948 0.882698
O O1 0.303499 0.270623 0.159003
O O2 0.626432 0.354802 0.146383
O O3 0.807835 0.244457 0.205620
O O4 0.711222 0.338435 0.769626
O O5 0.527298 0.068227 0.502817
O O6 0.988906 0.053067 0.653013
O O7 0.755758 0.954276 0.728710
O O8 0.500000 0.000000 0.000000
O O9 0.500000 0.500000 0.500000
O O10 0.566010 0.445485 0.248669
O O11 0.155351 0.403592 0.608222
O O12 0.166499 0.525195 0.190650
O O13 0.999389 0.617120 0.708446
O O14 0.859345 0.719276 0.224909
O O15 0.200180 0.161653 0.214919
#
# Coordination Sequence:
#
# PCOD9012259 Si02
#       7
#     2   2   2   2   2   2   2
#     4  10  24  42  65  87 133 166 216 265 329 386
#     4  10  21  40  69 103 137 174 225 271 320 388
#     4  11  24  40  64  90 126 164 219 274 338 392
#     4  10  23  40  62  89 128 164 213 270 325 390
#     4  10  21  41  68  98 140 178 217 275 328 382
#     4  10  22  44  65  92 133 177 207 267 330 388
#     4  11  23  39  63  92 121 169 218 276 328 390
#
# _framework density 22.149277000000001
#
# number of rings (size 3 to 8) (size 9 to 14) (size 15 to 20)
#    0.857    0.857    0.000    4.286    2.000    3.429 
#    2.571    2.857    0.000    0.000    0.000    0.000 
#    0.000    0.000    0.000    0.000    0.000    0.000 
#
# Total GULP energy -78189.914127 kJ/mol
# GULP energy per Si atom -5584.993866 kJ/mol
# Density = 2.209886 g / cm^3
# Si number density = 22.149277 Si / 1000 Ang^3
#
#
#
# Elastic Constant Matrix: (Units=GPa)
#
#
# Indices 1 2 3 4 5 6 
#
# 1 82.9418 24.0982 11.2436 -3.4889 11.3677 1.9721
# 2 24.0982 130.3508 61.2042 -29.6853 27.0579 -18.6675
# 3 11.2436 61.2042 62.2602 -14.8061 13.3533 -7.0960
# 4 -3.4889 -29.6853 -14.8061 26.4626 -9.4368 3.3071
# 5 11.3677 27.0579 13.3533 -9.4368 36.3139 -0.2877
# 6 1.9721 -18.6675 -7.0960 3.3071 -0.2877 31.3995
#
#
#
# Elastic Compliance Matrix: (Units=1/GPa)
#
#
# Indices 1 2 3 4 5 6 
#
# 1 0.013159 -0.002691 0.000142 -0.001880 -0.002673 -0.002221
# 2 -0.002691 0.019384 -0.013994 0.010631 -0.005634 0.007359
# 3 0.000142 -0.013994 0.029952 0.001168 -0.000341 -0.001686
# 4 -0.001880 0.010631 0.001168 0.052017 0.005765 0.001277
# 5 -0.002673 -0.005634 -0.000341 0.005765 0.034168 -0.003553
# 6 -0.002221 0.007359 -0.001686 0.001277 -0.003553 0.035814
#
#
# Mechanical properties :
#
#
# Convention : Reuss Voigt Hill
#
# Bulk Modulus (GPa) = 34.00345 52.07166 43.03755
# Shear Modulus (GPa) = 21.98923 30.76898 26.37911
#
# Velocity S-wave (km/s) = 3.15425 3.73119 3.45479
# Velocity P-wave (km/s) = 5.35266 6.49021 5.94869
#
# Compressibility (1/GPa) = 0.02940878
#
# Stress axis : x y z
#
# Youngs Moduli (GPa) = 75.99240 51.58761 33.38716
#
# Poissons Ratio (x) = 0.13880 -0.00473
# Poissons Ratio (y) = 0.20446 0.46723
# Poissons Ratio (z) = -0.01076 0.72194
#
# Static dielectric constant tensor:
#      x y z
#    x 1.847350 -0.027000 0.005000 
#    y -0.027000 1.762920 0.013140 
#    z 0.005000 0.013140 1.867740 
# 
# From -- ./inp_files/12212.got.cif
#   From: 2010.05.17/outbox.cif.g08.bks.cpg/sg2_7_cif.got.tgz:12212.got - 2010.06.03 11:33:40.
