data_PCOD9012950
_publ_section_title
;
Structure prediction by ZEFSAII (Michael W. Deem and Ramdas Pophale) SiO2 
 PCOD9012950
Probable space group: P -1
;
_chemical_formula_sum "Si O2"
_cell_formula_units_Z 14
_cell_length_a 14.548980
_cell_length_b 11.855961
_cell_length_c 11.051220
_cell_angle_alpha 41.983603
_cell_angle_beta 53.858227
_cell_angle_gamma 28.146339
_cell_volume 588.346301
_symmetry_space_group_name_H-M "P -1"
_symmetry_group_IT_number 2
_symmetry_cell_setting 'triclinic'
loop_
_space_group_symop_operation_xyz
x,y,z
-x,-y,-z
loop_
_atom_site_type_symbol
_atom_site_label
_atom_site_fract_x
_atom_site_fract_y
_atom_site_fract_z
Si Si1 0.791102 0.238739 0.708550
Si Si2 0.400876 0.534450 0.848867
Si Si3 0.804398 0.601359 0.420741
Si Si4 0.883573 0.354761 0.929702
Si Si5 0.032710 0.409123 0.184656
Si Si6 0.269133 0.773331 0.499367
Si Si7 0.172691 0.108781 0.686103
O O1 0.627459 0.298485 0.825676
O O2 0.723072 0.512366 0.571703
O O3 0.830577 0.187154 0.574377
O O4 0.981252 0.952330 0.865685
O O5 0.337039 0.453575 0.044113
O O6 0.285624 0.667890 0.702261
O O7 0.329037 0.780878 0.786602
O O8 0.728962 0.845691 0.366895
O O9 0.826100 0.619687 0.248171
O O10 0.037693 0.313720 0.511209
O O11 0.882254 0.528479 0.866681
O O12 0.004365 0.244317 0.801691
O O13 0.173161 0.074562 0.346757
O O14 0.000000 0.500000 0.000000
O O15 0.500000 0.500000 0.500000
#
# Coordination Sequence:
#
# PCOD9012950 Si02
#       7
#     2   2   2   2   2   2   2
#     4  11  23  40  64  95 126 167 215 258 319 383
#     4  11  23  41  66  91 129 172 207 260 327 373
#     4  10  22  39  64  89 127 170 213 261 309 387
#     4  11  23  39  63  95 128 163 213 269 310 373
#     4  11  21  38  67  95 121 171 213 258 326 371
#     4  10  22  41  62  94 130 161 213 258 315 389
#     4  10  21  41  62  91 127 168 217 256 315 374
#
# _framework density 23.79551
#
# number of rings (size 3 to 8) (size 9 to 14) (size 15 to 20)
#    0.000    1.429    4.286    0.429    2.000    2.286 
#    0.000    8.571    0.000    0.000    0.000    0.000 
#    0.000    0.000    0.000    0.000    0.000    0.000 
#
# Total GULP energy -78230.747372 kJ/mol
# GULP energy per Si atom -5587.910527 kJ/mol
# Density = 2.374135 g / cm^3
# Si number density = 23.795510 Si / 1000 Ang^3
#
#
#
# Elastic Constant Matrix: (Units=GPa)
#
#
# Indices 1 2 3 4 5 6 
#
# 1 76.8046 21.3855 19.6002 4.7452 -10.4758 22.5501
# 2 21.3855 62.4692 7.4527 22.7407 0.2398 15.0330
# 3 19.6002 7.4527 64.6167 25.7415 -4.4352 -0.4772
# 4 4.7452 22.7407 25.7415 34.4989 2.3510 -2.5177
# 5 -10.4758 0.2398 -4.4352 2.3510 42.4530 0.1238
# 6 22.5501 15.0330 -0.4772 -2.5177 0.1238 43.5594
#
#
#
# Elastic Compliance Matrix: (Units=1/GPa)
#
#
# Indices 1 2 3 4 5 6 
#
# 1 0.018826 -0.005966 -0.007185 0.005914 0.003623 -0.007434
# 2 -0.005966 0.027772 0.008252 -0.024254 0.000599 -0.007809
# 3 -0.007185 0.008252 0.026616 -0.024487 0.002318 -0.000259
# 4 0.005914 -0.024254 -0.024487 0.063374 -0.004497 0.008716
# 5 0.003623 0.000599 0.002318 -0.004497 0.024944 -0.002388
# 6 -0.007434 -0.007809 -0.000259 0.008716 -0.002388 0.030009
#
#
# Mechanical properties :
#
#
# Convention : Reuss Voigt Hill
#
# Bulk Modulus (GPa) = 15.76875 33.41858 24.59367
# Shear Modulus (GPa) = 22.47424 34.46574 28.46999
#
# Velocity S-wave (km/s) = 3.07656 3.80993 3.46272
# Velocity P-wave (km/s) = 4.38879 5.78175 5.13275
#
# Compressibility (1/GPa) = 0.06341656
#
# Stress axis : x y z
#
# Youngs Moduli (GPa) = 53.11761 36.00779 37.57159
#
# Poissons Ratio (x) = 0.21481 0.26995
# Poissons Ratio (y) = 0.31688 -0.31004
# Poissons Ratio (z) = 0.38164 -0.29713
#
# Static dielectric constant tensor:
#      x y z
#    x 1.943460 -0.007350 0.017080 
#    y -0.007350 1.891960 0.022120 
#    z 0.017080 0.022120 1.952530 
# 
# From -- ./inp_files/260458.got.cif
#   From: 2010.05.17/outbox.cif.g08.bks.cpg/sg2_131_cif.got.tgz:260458.got - 2010.06.03 11:33:40.
