data_PCOD9012994
_publ_section_title
;
Structure prediction by ZEFSAII (Michael W. Deem and Ramdas Pophale) SiO2 
 PCOD9012994
Probable space group: P -1
;
_chemical_formula_sum "Si O2"
_cell_formula_units_Z 16
_cell_length_a 14.169916
_cell_length_b 15.421678
_cell_length_c 13.751596
_cell_angle_alpha 152.784876
_cell_angle_beta 150.628035
_cell_angle_gamma 41.048284
_cell_volume 671.156398
_symmetry_space_group_name_H-M "P -1"
_symmetry_group_IT_number 2
_symmetry_cell_setting 'triclinic'
loop_
_space_group_symop_operation_xyz
x,y,z
-x,-y,-z
loop_
_atom_site_type_symbol
_atom_site_label
_atom_site_fract_x
_atom_site_fract_y
_atom_site_fract_z
Si Si1 0.712664 0.710421 0.273760
Si Si2 0.461310 0.393493 0.196555
Si Si3 0.150363 0.950291 0.372105
Si Si4 0.621908 0.732401 0.569763
Si Si5 0.258492 0.920811 0.847619
Si Si6 0.580735 0.214155 0.760037
Si Si7 0.772469 0.927347 0.235073
Si Si8 0.961301 0.379551 0.193101
O O1 0.545554 0.675272 0.167314
O O2 0.893577 0.590589 0.338144
O O3 0.759585 0.935921 0.525682
O O4 0.631777 0.649823 0.035369
O O5 0.536705 0.612812 0.467643
O O6 0.648174 0.276214 0.259148
O O7 0.303921 0.294110 0.032187
O O8 0.971611 0.077021 0.356401
O O9 0.273165 0.968478 0.599798
O O10 0.079471 0.738316 0.063176
O O11 0.478800 0.738788 0.357127
O O12 0.813472 0.642061 0.612207
O O13 0.679270 0.944750 0.871408
O O14 0.314139 0.012969 0.884891
O O15 0.500000 0.000000 0.500000
O O16 0.810670 0.275121 0.031521
O O17 0.000000 0.000000 0.500000
#
# Coordination Sequence:
#
# PCOD9012994 Si02
#       8
#     2   2   2   2   2   2   2   2
#     4  11  22  40  64  90 127 170 212 260 317 373
#     4  11  22  39  65  93 128 169 208 266 318 375
#     4   9  20  40  63  90 124 168 209 261 320 374
#     4  11  26  42  64  97 129 168 216 262 318 379
#     4  10  21  41  62  94 128 162 214 263 318 381
#     4  12  24  44  65  93 131 171 215 265 316 377
#     4   9  20  39  67  94 125 169 211 257 322 380
#     4  11  23  42  63  91 129 166 212 264 312 373
#
# _framework density 23.839451
#
# number of rings (size 3 to 8) (size 9 to 14) (size 15 to 20)
#    0.000    1.500    2.500    2.250    1.750    1.500 
#    2.250    2.500    0.000   13.500    0.000    0.000 
#    0.000    0.000    0.000    0.000    0.000    0.000 
#
# Total GULP energy -89246.740606 kJ/mol
# GULP energy per Si atom -5577.921288 kJ/mol
# Density = 2.378519 g / cm^3
# Si number density = 23.839451 Si / 1000 Ang^3
#
#
#
# Elastic Constant Matrix: (Units=GPa)
#
#
# Indices 1 2 3 4 5 6 
#
# 1 83.5184 34.2670 8.7411 1.4914 39.5663 3.8639
# 2 34.2670 107.4238 22.7690 5.9435 23.2107 -6.4231
# 3 8.7411 22.7690 37.9385 4.0466 15.0427 -0.9820
# 4 1.4914 5.9435 4.0466 40.0013 -3.2940 14.5179
# 5 39.5663 23.2107 15.0427 -3.2940 40.1811 -1.8806
# 6 3.8639 -6.4231 -0.9820 14.5179 -1.8806 39.2035
#
#
#
# Elastic Compliance Matrix: (Units=1/GPa)
#
#
# Indices 1 2 3 4 5 6 
#
# 1 0.025057 -0.004103 0.006762 -0.001806 -0.025148 -0.003510
# 2 -0.004103 0.012364 -0.005756 -0.002306 -0.000992 0.003092
# 3 0.006762 -0.005756 0.035455 -0.004417 -0.016964 0.000101
# 4 -0.001806 -0.002306 -0.004417 0.030506 0.006736 -0.011284
# 5 -0.025148 -0.000992 -0.016964 0.006736 0.057227 0.002142
# 6 -0.003510 0.003092 0.000101 -0.011284 0.002142 0.030645
#
#
# Mechanical properties :
#
#
# Convention : Reuss Voigt Hill
#
# Bulk Modulus (GPa) = 14.99634 40.04832 27.52233
# Shear Modulus (GPa) = 22.76086 34.75074 28.75580
#
# Velocity S-wave (km/s) = 3.09327 3.82212 3.47685
# Velocity P-wave (km/s) = 4.36600 6.02610 5.26193
#
# Compressibility (1/GPa) = 0.06668294
#
# Stress axis : x y z
#
# Youngs Moduli (GPa) = 39.90881 80.87716 28.20470
#
# Poissons Ratio (x) = 0.33180 -0.19071
# Poissons Ratio (y) = 0.16373 0.16235
# Poissons Ratio (z) = -0.26985 0.46553
#
# Static dielectric constant tensor:
#      x y z
#    x 2.002170 -0.055810 0.053520 
#    y -0.055810 1.926260 0.049730 
#    z 0.053520 0.049730 1.992980 
# 
# From -- ./inp_files/533709.got.cif
#   From: 2010.05.17/outbox.cif.g08.bks.cpg/sg2_267_cif.got.tgz:533709.got - 2010.06.03 11:33:40.
