data_PCOD9012289
_publ_section_title
;
Structure prediction by ZEFSAII (Michael W. Deem and Ramdas Pophale) SiO2 
 PCOD9012289
Probable space group: P -1
;
_chemical_formula_sum "Si O2"
_cell_formula_units_Z 12
_cell_length_a 8.751232
_cell_length_b 6.773179
_cell_length_c 9.729031
_cell_angle_alpha 114.972274
_cell_angle_beta 54.995788
_cell_angle_gamma 106.390697
_cell_volume 427.578474
_symmetry_space_group_name_H-M "P -1"
_symmetry_group_IT_number 2
_symmetry_cell_setting 'triclinic'
loop_
_space_group_symop_operation_xyz
x,y,z
-x,-y,-z
loop_
_atom_site_type_symbol
_atom_site_label
_atom_site_fract_x
_atom_site_fract_y
_atom_site_fract_z
Si Si1 0.856275 0.211850 0.712505
Si Si2 0.545035 0.849769 0.677293
Si Si3 0.419720 0.390855 0.682735
Si Si4 0.157099 0.739873 0.830183
Si Si5 0.015660 0.183327 0.335327
Si Si6 0.245342 0.318840 0.014980
O O1 0.777200 0.419422 0.884742
O O2 0.967877 0.282487 0.537043
O O3 0.694937 0.029306 0.702352
O O4 0.983872 0.072449 0.703722
O O5 0.562190 0.603013 0.655066
O O6 0.552685 0.796453 0.496232
O O7 0.329189 0.897549 0.839523
O O8 0.411631 0.308735 0.817980
O O9 0.229122 0.507638 0.770555
O O10 0.138444 0.760201 0.680999
O O11 0.945469 0.772592 0.989981
O O12 0.206625 0.245560 0.170757
#
# Coordination Sequence:
#
# PCOD9012289 Si02
#       6
#     2   2   2   2   2   2
#     4  11  22  39  63  96 126 156 211 266 298 366
#     4   9  21  37  68  90 124 165 205 255 316 359
#     4   9  19  40  65  91 128 163 205 254 314 369
#     4   8  19  40  64  89 120 170 207 243 313 379
#     4   9  23  37  64  94 124 166 207 247 318 372
#     4  10  21  40  69  89 124 167 208 252 310 371
#
# _framework density 28.065024000000001
#
# number of rings (size 3 to 8) (size 9 to 14) (size 15 to 20)
#    2.000    0.667    0.000    1.000    4.667    1.333 
#    0.000    4.167    3.667    0.000    0.000    0.000 
#    0.000    0.000    0.000    0.000    0.000    0.000 
#
# Total GULP energy -67074.158845 kJ/mol
# GULP energy per Si atom -5589.513237 kJ/mol
# Density = 2.800115 g / cm^3
# Si number density = 28.065024 Si / 1000 Ang^3
#
#
#
# Elastic Constant Matrix: (Units=GPa)
#
#
# Indices 1 2 3 4 5 6 
#
# 1 111.7461 45.0367 39.2687 -7.3471 10.0468 4.6478
# 2 45.0367 131.9868 34.1654 -32.6959 17.1270 13.5106
# 3 39.2687 34.1654 134.7229 -21.6888 24.2106 15.7243
# 4 -7.3471 -32.6959 -21.6888 42.6099 0.0381 4.8005
# 5 10.0468 17.1270 24.2106 0.0381 35.5605 -3.2408
# 6 4.6478 13.5106 15.7243 4.8005 -3.2408 56.3942
#
#
#
# Elastic Compliance Matrix: (Units=1/GPa)
#
#
# Indices 1 2 3 4 5 6 
#
# 1 0.011315 -0.004006 -0.003031 -0.002797 0.000905 0.001162
# 2 -0.004006 0.012255 0.001187 0.009786 -0.005964 -0.004113
# 3 -0.003031 0.001187 0.010843 0.006368 -0.007472 -0.004029
# 4 -0.002797 0.009786 0.006368 0.034573 -0.008965 -0.007348
# 5 0.000905 -0.005964 -0.007472 -0.008965 0.036408 0.006293
# 6 0.001162 -0.004113 -0.004029 -0.007348 0.006293 0.020732
#
#
# Mechanical properties :
#
#
# Convention : Reuss Voigt Hill
#
# Bulk Modulus (GPa) = 44.02530 68.37750 56.20140
# Shear Modulus (GPa) = 34.38873 44.24525 39.31699
#
# Velocity S-wave (km/s) = 3.50426 3.97486 3.74695
# Velocity P-wave (km/s) = 5.66516 6.74410 6.22804
#
# Compressibility (1/GPa) = 0.02271421
#
# Stress axis : x y z
#
# Youngs Moduli (GPa) = 88.38108 81.59849 92.22309
#
# Poissons Ratio (x) = 0.32685 0.27950
# Poissons Ratio (y) = 0.35402 -0.10946
# Poissons Ratio (z) = 0.26786 -0.09685
#
# Static dielectric constant tensor:
#      x y z
#    x 2.139620 -0.005810 -0.060620 
#    y -0.005810 2.246270 0.010180 
#    z -0.060620 0.010180 2.190810 
# 
# From -- ./inp_files/379386.got.cif
#   From: 2010.05.17/outbox.cif.g08.bks.cpg/sg2_190_cif.got.tgz:379386.got - 2010.06.03 11:33:40.
