data_PCOD9012894
_publ_section_title
;
Structure prediction by ZEFSAII (Michael W. Deem and Ramdas Pophale) SiO2 
 PCOD9012894
Probable space group: P -1
;
_chemical_formula_sum "Si O2"
_cell_formula_units_Z 16
_cell_length_a 12.551169
_cell_length_b 19.580223
_cell_length_c 6.620617
_cell_angle_alpha 52.763415
_cell_angle_beta 44.067455
_cell_angle_gamma 38.050424
_cell_volume 694.542575
_symmetry_space_group_name_H-M "P -1"
_symmetry_group_IT_number 2
_symmetry_cell_setting 'triclinic'
loop_
_space_group_symop_operation_xyz
x,y,z
-x,-y,-z
loop_
_atom_site_type_symbol
_atom_site_label
_atom_site_fract_x
_atom_site_fract_y
_atom_site_fract_z
Si Si1 0.001893 0.910238 0.283670
Si Si2 0.407812 0.918760 0.322753
Si Si3 0.262188 0.568992 0.676702
Si Si4 0.329459 0.753167 0.839810
Si Si5 0.260870 0.401981 0.247418
Si Si6 0.098458 0.784087 0.752877
Si Si7 0.942246 0.456828 0.335277
Si Si8 0.650505 0.944099 0.205898
O O1 0.091288 0.870320 0.459796
O O2 0.137657 0.805952 0.142850
O O3 0.775264 0.965710 0.527333
O O4 0.000000 0.000000 0.000000
O O5 0.352663 0.840114 0.560292
O O6 0.597985 0.878673 0.261408
O O7 0.412965 0.951753 0.031540
O O8 0.500000 0.500000 0.500000
O O9 0.129124 0.693170 0.725279
O O10 0.186469 0.570679 0.550746
O O11 0.222612 0.501433 0.994675
O O12 0.506632 0.686346 0.876520
O O13 0.288566 0.712262 0.770619
O O14 0.181826 0.446951 0.500300
O O15 0.145978 0.367596 0.344713
O O16 0.891674 0.860189 0.025232
O O17 0.000000 0.500000 0.000000
O O18 0.500000 0.000000 0.500000
#
# Coordination Sequence:
#
# PCOD9012894 Si02
#       8
#     2   2   2   2   2   2   2   2
#     4   9  20  39  61  87 121 160 204 257 313 367
#     4   9  21  38  59  88 121 157 205 256 306 373
#     4  11  23  41  64  94 131 164 203 260 313 367
#     4  11  22  38  62  91 123 163 210 255 306 373
#     4  10  22  41  64  91 123 167 212 252 308 370
#     4  11  24  38  62  96 125 164 212 254 313 381
#     4   9  21  42  64  85 122 165 207 258 306 360
#     4  10  21  41  62  87 122 161 204 260 317 363
#
# _framework density 23.036746000000001
#
# number of rings (size 3 to 8) (size 9 to 14) (size 15 to 20)
#    0.000    2.000    0.000    2.250    0.000   13.500 
#    0.000    5.000    0.000    0.000    0.000    0.000 
#    0.000    0.000    0.000    0.000    0.000    0.000 
#
# Total GULP energy -89123.873826 kJ/mol
# GULP energy per Si atom -5570.242114 kJ/mol
# Density = 2.298431 g / cm^3
# Si number density = 23.036746 Si / 1000 Ang^3
#
#
#
# Elastic Constant Matrix: (Units=GPa)
#
#
# Indices 1 2 3 4 5 6 
#
# 1 163.4987 43.7114 24.7424 7.0434 17.4826 -19.8096
# 2 43.7114 56.6242 31.5831 7.3478 9.9942 -13.4450
# 3 24.7424 31.5831 135.3745 0.2304 13.4144 2.5112
# 4 7.0434 7.3478 0.2304 20.0593 0.3234 -0.2186
# 5 17.4826 9.9942 13.4144 0.3234 23.3656 -1.9180
# 6 -19.8096 -13.4450 2.5112 -0.2186 -1.9180 27.6652
#
#
#
# Elastic Compliance Matrix: (Units=1/GPa)
#
#
# Indices 1 2 3 4 5 6 
#
# 1 0.008249 -0.004708 -0.000092 -0.001073 -0.003816 0.003354
# 2 -0.004708 0.028940 -0.005619 -0.008691 -0.004622 0.010814
# 3 -0.000092 -0.005619 0.009088 0.001994 -0.003087 -0.003820
# 4 -0.001073 -0.008691 0.001994 0.053303 0.002260 -0.004595
# 5 -0.003816 -0.004622 -0.003087 0.002260 0.049267 -0.001265
# 6 0.003354 0.010814 -0.003820 -0.004595 -0.001265 0.044027
#
#
# Mechanical properties :
#
#
# Convention : Reuss Voigt Hill
#
# Bulk Modulus (GPa) = 39.30798 61.73014 50.51906
# Shear Modulus (GPa) = 22.50311 31.24873 26.87592
#
# Velocity S-wave (km/s) = 3.12883 3.68703 3.41934
# Velocity P-wave (km/s) = 5.49117 6.70672 6.12916
#
# Compressibility (1/GPa) = 0.02544013
#
# Stress axis : x y z
#
# Youngs Moduli (GPa) = 121.22049 34.55412 110.03613
#
# Poissons Ratio (x) = 0.16268 0.01009
# Poissons Ratio (y) = 0.57069 0.61831
# Poissons Ratio (z) = 0.01111 0.19416
#
# Static dielectric constant tensor:
#      x y z
#    x 1.960840 -0.067530 -0.009510 
#    y -0.067530 1.953660 -0.011870 
#    z -0.009510 -0.011870 1.877450 
# 
# From -- ./inp_files/83016.got.cif
#   From: 2010.05.17/outbox.cif.g08.bks.cpg/sg2_42_cif.got.tgz:83016.got - 2010.06.03 11:33:40.
