data_PCOD9012178
_publ_section_title
;
Structure prediction by ZEFSAII (Michael W. Deem and Ramdas Pophale) SiO2 
 PCOD9012178
Probable space group: P -1
;
_chemical_formula_sum "Si O2"
_cell_formula_units_Z 16
_cell_length_a 15.060428
_cell_length_b 15.136769
_cell_length_c 9.337025
_cell_angle_alpha 105.138561
_cell_angle_beta 85.771319
_cell_angle_gamma 29.119447
_cell_volume 766.050866
_symmetry_space_group_name_H-M "P -1"
_symmetry_group_IT_number 2
_symmetry_cell_setting 'triclinic'
loop_
_space_group_symop_operation_xyz
x,y,z
-x,-y,-z
loop_
_atom_site_type_symbol
_atom_site_label
_atom_site_fract_x
_atom_site_fract_y
_atom_site_fract_z
Si Si1 0.425008 0.989431 0.109295
Si Si2 0.541923 0.688985 0.345091
Si Si3 0.334517 0.084585 0.475097
Si Si4 0.365649 0.769991 0.680951
Si Si5 0.918230 0.808506 0.952731
Si Si6 0.188778 0.762130 0.546837
Si Si7 0.346983 0.710487 0.211152
Si Si8 0.946565 0.452683 0.912642
O O1 0.308572 0.134378 0.333045
O O2 0.247597 0.092385 0.089738
O O3 0.500000 0.000000 0.000000
O O4 0.671103 0.708047 0.011439
O O5 0.379270 0.813397 0.550244
O O6 0.501072 0.650803 0.213953
O O7 0.459466 0.866923 0.381156
O O8 0.819620 0.425372 0.240076
O O9 0.093721 0.308621 0.687959
O O10 0.500000 0.000000 0.500000
O O11 0.253487 0.777691 0.663691
O O12 0.639550 0.488219 0.566783
O O13 0.216850 0.969544 0.896056
O O14 0.967468 0.704250 0.049228
O O15 0.267918 0.730287 0.371541
O O16 0.908664 0.012038 0.699012
O O17 0.500000 0.500000 0.000000
O O18 0.000000 0.500000 0.000000
#
# Coordination Sequence:
#
# PCOD9012178 Si02
#       8
#     2   2   2   2   2   2   2   2
#     4  12  27  43  68 102 129 181 234 277 342 410
#     4  11  24  40  67  98 132 181 225 278 341 406
#     4  12  24  45  72  94 138 184 222 284 347 398
#     4  10  22  42  66  96 135 177 222 284 340 399
#     4  12  24  44  67  99 138 173 234 283 337 406
#     4   9  21  41  65  96 134 175 223 275 340 411
#     4  10  21  40  68  98 135 176 224 274 344 405
#     4  12  23  47  69  91 137 179 223 288 343 401
#
# _framework density 20.886341999999999
#
# number of rings (size 3 to 8) (size 9 to 14) (size 15 to 20)
#    0.000    1.000    5.000    0.750    0.000    5.500 
#    2.250    3.750    0.000    0.000    0.000    0.000 
#    0.000    0.000    0.000    0.000    0.000    0.000 
#
# Total GULP energy -89447.110280 kJ/mol
# GULP energy per Si atom -5590.444393 kJ/mol
# Density = 2.083880 g / cm^3
# Si number density = 20.886342 Si / 1000 Ang^3
#
#
#
# Elastic Constant Matrix: (Units=GPa)
#
#
# Indices 1 2 3 4 5 6 
#
# 1 83.8971 27.4958 26.6687 8.1342 13.1354 -18.6077
# 2 27.4958 95.3058 28.8780 8.4244 5.3641 -16.7253
# 3 26.6687 28.8780 121.4868 3.4848 8.7811 -13.4039
# 4 8.1342 8.4244 3.4848 35.0541 -0.3151 -4.6506
# 5 13.1354 5.3641 8.7811 -0.3151 32.7763 4.4369
# 6 -18.6077 -16.7253 -13.4039 -4.6506 4.4369 46.1690
#
#
#
# Elastic Compliance Matrix: (Units=1/GPa)
#
#
# Indices 1 2 3 4 5 6 
#
# 1 0.015637 -0.002521 -0.001749 -0.002208 -0.006117 0.005247
# 2 -0.002521 0.012540 -0.001994 -0.001861 -0.000911 0.002848
# 3 -0.001749 -0.001994 0.009369 0.000133 -0.001680 0.001468
# 4 -0.002208 -0.001861 0.000133 0.029663 0.001257 0.001342
# 5 -0.006117 -0.000911 -0.001680 0.001257 0.034448 -0.006467
# 6 0.005247 0.002848 0.001468 0.001342 -0.006467 0.025989
#
#
# Mechanical properties :
#
#
# Convention : Reuss Voigt Hill
#
# Bulk Modulus (GPa) = 39.97232 51.86386 45.91809
# Shear Modulus (GPa) = 33.66732 37.30969 35.48851
#
# Velocity S-wave (km/s) = 4.01924 4.23107 4.12652
# Velocity P-wave (km/s) = 6.38111 6.98246 6.68855
#
# Compressibility (1/GPa) = 0.02501731
#
# Stress axis : x y z
#
# Youngs Moduli (GPa) = 63.95084 79.74773 106.73742
#
# Poissons Ratio (x) = 0.20106 0.18668
# Poissons Ratio (y) = 0.16123 0.21282
# Poissons Ratio (z) = 0.11185 0.15900
#
# Static dielectric constant tensor:
#      x y z
#    x 1.721180 0.011830 -0.017950 
#    y 0.011830 1.778840 -0.012050 
#    z -0.017950 -0.012050 1.745940 
# 
# From -- ./inp_files/315604.got.cif
#   From: 2010.05.17/outbox.cif.g08.bks.cpg/sg2_158_cif.got.tgz:315604.got - 2010.06.03 11:33:40.
