data_PCOD9012760
_publ_section_title
;
Structure prediction by ZEFSAII (Michael W. Deem and Ramdas Pophale) SiO2 
 PCOD9012760
Probable space group: P -1
;
_chemical_formula_sum "Si O2"
_cell_formula_units_Z 12
_cell_length_a 14.408496
_cell_length_b 7.675761
_cell_length_c 6.912128
_cell_angle_alpha 54.549469
_cell_angle_beta 122.710411
_cell_angle_gamma 106.180550
_cell_volume 523.304973
_symmetry_space_group_name_H-M "P -1"
_symmetry_group_IT_number 2
_symmetry_cell_setting 'triclinic'
loop_
_space_group_symop_operation_xyz
x,y,z
-x,-y,-z
loop_
_atom_site_type_symbol
_atom_site_label
_atom_site_fract_x
_atom_site_fract_y
_atom_site_fract_z
Si Si1 0.197033 0.156046 0.490005
Si Si2 0.506759 0.720513 0.752449
Si Si3 0.439926 0.102525 0.676135
Si Si4 0.943622 0.645535 0.086835
Si Si5 0.241315 0.272871 0.885522
Si Si6 0.133632 0.715214 0.514962
O O1 0.172765 0.925723 0.523369
O O2 0.321299 0.208253 0.532347
O O3 0.100482 0.323423 0.198357
O O4 0.201411 0.159914 0.722380
O O5 0.495645 0.736962 0.496019
O O6 0.428605 0.896089 0.658620
O O7 0.500000 0.500000 0.000000
O O8 0.632607 0.784641 0.891590
O O9 0.500000 0.000000 0.000000
O O10 0.842436 0.770056 0.008886
O O11 0.938181 0.409069 0.324482
O O12 0.055678 0.742287 0.221999
O O13 0.227070 0.532567 0.682496
#
# Coordination Sequence:
#
# PCOD9012760 Si02
#       6
#     2   2   2   2   2   2
#     4  12  21  39  65  87 123 164 200 257 317 358
#     4  11  23  42  63  86 127 167 202 261 313 362
#     4  11  23  40  62  93 124 157 213 256 304 379
#     4   9  21  43  57  89 129 151 210 260 290 385
#     4  10  21  41  60  90 123 158 210 252 304 376
#     4   9  21  42  59  89 125 158 201 258 309 362
#
# _framework density 22.931180999999999
#
# number of rings (size 3 to 8) (size 9 to 14) (size 15 to 20)
#    1.000    0.667    3.333    1.500    0.000    2.000 
#    6.000    0.000    0.000    0.000    0.000    0.000 
#    0.000    0.000    0.000    0.000    0.000    0.000 
#
# Total GULP energy -66931.681807 kJ/mol
# GULP energy per Si atom -5577.640151 kJ/mol
# Density = 2.287899 g / cm^3
# Si number density = 22.931181 Si / 1000 Ang^3
#
#
#
# Elastic Constant Matrix: (Units=GPa)
#
#
# Indices 1 2 3 4 5 6 
#
# 1 42.4667 -7.6361 15.4188 2.7889 0.7101 -1.4776
# 2 -7.6361 60.1573 28.6642 -8.4904 -5.9691 9.4508
# 3 15.4188 28.6642 158.1048 6.8692 0.7778 10.4975
# 4 2.7889 -8.4904 6.8692 37.5200 1.0354 2.2470
# 5 0.7101 -5.9691 0.7778 1.0354 43.7775 -0.8468
# 6 -1.4776 9.4508 10.4975 2.2470 -0.8468 15.7418
#
#
#
# Elastic Compliance Matrix: (Units=1/GPa)
#
#
# Indices 1 2 3 4 5 6 
#
# 1 0.025715 0.004568 -0.003457 -0.000376 0.000316 0.002047
# 2 0.004568 0.021879 -0.003967 0.005910 0.002632 -0.010763
# 3 -0.003457 -0.003967 0.007652 -0.001856 -0.000631 -0.002815
# 4 -0.000376 0.005910 -0.001856 0.028742 0.000040 -0.006446
# 5 0.000316 0.002632 -0.000631 0.000040 0.023209 0.000113
# 6 0.002047 -0.010763 -0.002815 -0.006446 0.000113 0.072982
#
#
# Mechanical properties :
#
#
# Convention : Reuss Voigt Hill
#
# Bulk Modulus (GPa) = 20.18826 37.06919 28.62872
# Shear Modulus (GPa) = 24.70306 34.36000 29.53153
#
# Velocity S-wave (km/s) = 3.28574 3.87511 3.59253
# Velocity P-wave (km/s) = 4.81848 6.01851 5.45162
#
# Compressibility (1/GPa) = 0.04953375
#
# Stress axis : x y z
#
# Youngs Moduli (GPa) = 38.88761 45.70502 130.68594
#
# Poissons Ratio (x) = -0.20878 0.45180
# Poissons Ratio (y) = -0.17764 0.51847
# Poissons Ratio (z) = 0.13444 0.18132
#
# Static dielectric constant tensor:
#      x y z
#    x 1.860310 0.007300 -0.022280 
#    y 0.007300 1.839740 -0.025660 
#    z -0.022280 -0.025660 1.928830 
# 
# From -- ./inp_files/48097.got.cif
#   From: 2010.05.17/outbox.cif.g08.bks.cpg/sg2_25_cif.got.tgz:48097.got - 2010.06.03 11:33:40.
