data_PCOD9012936
_publ_section_title
;
Structure prediction by ZEFSAII (Michael W. Deem and Ramdas Pophale) SiO2 
 PCOD9012936
Probable space group: P -1
;
_chemical_formula_sum "Si O2"
_cell_formula_units_Z 16
_cell_length_a 10.793100
_cell_length_b 10.682121
_cell_length_c 13.124288
_cell_angle_alpha 59.845710
_cell_angle_beta 145.933323
_cell_angle_gamma 127.018857
_cell_volume 676.731555
_symmetry_space_group_name_H-M "P -1"
_symmetry_group_IT_number 2
_symmetry_cell_setting 'triclinic'
loop_
_space_group_symop_operation_xyz
x,y,z
-x,-y,-z
loop_
_atom_site_type_symbol
_atom_site_label
_atom_site_fract_x
_atom_site_fract_y
_atom_site_fract_z
Si Si1 0.933088 0.696438 0.384983
Si Si2 0.367606 0.928696 0.707696
Si Si3 0.352622 0.169040 0.743663
Si Si4 0.089901 0.684903 0.967756
Si Si5 0.757541 0.617896 0.588000
Si Si6 0.377392 0.096831 0.440720
Si Si7 0.203726 0.596659 0.455255
Si Si8 0.091601 0.963726 0.969737
O O1 0.777468 0.799935 0.258791
O O2 0.788721 0.522283 0.401955
O O3 0.029310 0.676881 0.347354
O O4 0.169525 0.776121 0.585041
O O5 0.288120 0.993621 0.728892
O O6 0.399843 0.060236 0.588636
O O7 0.629913 0.926526 0.900486
O O8 0.279645 0.266722 0.567196
O O9 0.638234 0.245233 0.914662
O O10 0.084034 0.787096 0.020737
O O11 0.917757 0.704908 0.755568
O O12 0.000000 0.500000 0.000000
O O13 0.500000 0.500000 0.500000
O O14 0.876754 0.510852 0.655376
O O15 0.535715 0.274270 0.444838
O O16 0.105003 0.033495 0.245718
O O17 0.500000 0.000000 0.500000
O O18 0.000000 0.000000 0.000000
#
# Coordination Sequence:
#
# PCOD9012936 Si02
#       8
#     2   2   2   2   2   2   2   2
#     4  10  21  41  62  90 130 174 212 256 322 389
#     4  11  22  41  65  93 125 169 217 258 325 382
#     4  10  22  38  62  89 123 171 212 262 316 386
#     4  11  23  37  60  97 129 165 216 265 325 388
#     4  11  20  37  62  89 129 163 205 267 326 368
#     4  12  22  39  67  96 125 164 216 271 322 379
#     4  10  22  38  64  93 127 168 214 263 320 385
#     4  11  23  38  61  96 131 160 208 275 321 374
#
# _framework density 23.643053999999999
#
# number of rings (size 3 to 8) (size 9 to 14) (size 15 to 20)
#    0.000    1.250    3.750    2.625    3.500    0.000 
#    0.000    3.125    0.000    9.000    0.000    0.000 
#    0.000    0.000    0.000    0.000    0.000    0.000 
#
# Total GULP energy -89505.139521 kJ/mol
# GULP energy per Si atom -5594.071220 kJ/mol
# Density = 2.358924 g / cm^3
# Si number density = 23.643054 Si / 1000 Ang^3
#
#
#
# Elastic Constant Matrix: (Units=GPa)
#
#
# Indices 1 2 3 4 5 6 
#
# 1 168.1471 47.3660 32.6376 2.3947 20.2715 -41.1319
# 2 47.3660 95.1874 19.2051 19.0968 5.3250 -2.5799
# 3 32.6376 19.2051 132.2671 10.9603 10.6631 1.9465
# 4 2.3947 19.0968 10.9603 26.4043 -2.1923 -2.6295
# 5 20.2715 5.3250 10.6631 -2.1923 32.8868 -3.9738
# 6 -41.1319 -2.5799 1.9465 -2.6295 -3.9738 63.7263
#
#
#
# Elastic Compliance Matrix: (Units=1/GPa)
#
#
# Indices 1 2 3 4 5 6 
#
# 1 0.009417 -0.004691 -0.001738 0.003551 -0.003536 0.005867
# 2 -0.004691 0.014949 -0.000036 -0.010709 -0.000582 -0.002899
# 3 -0.001738 -0.000036 0.008496 -0.003685 -0.002125 -0.001667
# 4 0.003551 -0.010709 -0.003685 0.047612 0.004423 0.004211
# 5 -0.003536 -0.000582 -0.002125 0.004423 0.033670 0.000041
# 6 0.005867 -0.002899 -0.001667 0.004211 0.000041 0.019589
#
#
# Mechanical properties :
#
#
# Convention : Reuss Voigt Hill
#
# Bulk Modulus (GPa) = 50.17087 66.00211 58.08649
# Shear Modulus (GPa) = 32.61438 44.36302 38.48870
#
# Velocity S-wave (km/s) = 3.71812 4.33640 4.03911
# Velocity P-wave (km/s) = 6.30070 7.28349 6.80984
#
# Compressibility (1/GPa) = 0.01993189
#
# Stress axis : x y z
#
# Youngs Moduli (GPa) = 106.19270 66.89230 117.70544
#
# Poissons Ratio (x) = 0.31377 0.20458
# Poissons Ratio (y) = 0.49812 0.00427
# Poissons Ratio (z) = 0.18457 0.00242
#
# Static dielectric constant tensor:
#      x y z
#    x 1.938350 -0.037040 0.026360 
#    y -0.037040 1.932830 -0.042990 
#    z 0.026360 -0.042990 1.855470 
# 
# From -- ./inp_files/518869.got.cif
#   From: 2010.05.17/outbox.cif.g08.bks.cpg/sg2_260_cif.got.tgz:518869.got - 2010.06.03 11:33:40.
