data_PCOD9012371
_publ_section_title
;
Structure prediction by ZEFSAII (Michael W. Deem and Ramdas Pophale) SiO2 
 PCOD9012371
Probable space group: P -1
;
_chemical_formula_sum "Si O2"
_cell_formula_units_Z 16
_cell_length_a 17.153884
_cell_length_b 9.061168
_cell_length_c 17.749979
_cell_angle_alpha 40.144520
_cell_angle_beta 148.032383
_cell_angle_gamma 152.265430
_cell_volume 678.748347
_symmetry_space_group_name_H-M "P -1"
_symmetry_group_IT_number 2
_symmetry_cell_setting 'triclinic'
loop_
_space_group_symop_operation_xyz
x,y,z
-x,-y,-z
loop_
_atom_site_type_symbol
_atom_site_label
_atom_site_fract_x
_atom_site_fract_y
_atom_site_fract_z
Si Si1 0.690920 0.370679 0.917772
Si Si2 0.592226 0.746901 0.659929
Si Si3 0.096962 0.354219 0.632352
Si Si4 0.706530 0.658821 0.062584
Si Si5 0.514375 0.046662 0.368619
Si Si6 0.849183 0.961851 0.447226
Si Si7 0.734538 0.247961 0.148835
Si Si8 0.772778 0.237137 0.883836
O O1 0.739320 0.686323 0.815875
O O2 0.656069 0.194450 0.880640
O O3 0.472291 0.126608 0.876455
O O4 0.824713 0.383989 0.085715
O O5 0.575751 0.885886 0.666622
O O6 0.371476 0.393532 0.599399
O O7 0.628166 0.959691 0.537782
O O8 0.135555 0.266751 0.775670
O O9 0.318509 0.630596 0.667402
O O10 0.000000 0.500000 0.500000
O O11 0.945856 0.051499 0.573455
O O12 0.688546 0.445956 0.068436
O O13 0.500000 0.500000 0.000000
O O14 0.767292 0.967695 0.959717
O O15 0.340187 0.767803 0.277278
O O16 0.855652 0.230484 0.316672
O O17 0.000000 0.000000 0.500000
O O18 0.000000 0.500000 0.000000
#
# Coordination Sequence:
#
# PCOD9012371 Si02
#       8
#     2   2   2   2   2   2   2   2
#     4  10  22  41  65  98 127 171 223 278 335 390
#     4  10  24  43  70  95 133 183 217 281 343 397
#     4  12  25  42  69 103 136 174 229 280 334 405
#     4  12  23  43  70  96 134 181 223 278 338 396
#     4  11  24  47  67  95 139 178 226 275 344 406
#     4  11  23  40  66 105 133 171 230 278 330 396
#     4  10  21  40  69  97 131 170 227 277 328 400
#     4  12  28  44  65 101 136 179 224 278 341 403
#
# _framework density 23.572800999999998
#
# number of rings (size 3 to 8) (size 9 to 14) (size 15 to 20)
#    0.000    1.000    5.000    0.750    5.250    1.500 
#    0.000    1.250    0.000    0.000    0.000    0.000 
#    0.000    0.000    0.000    0.000    0.000    0.000 
#
# Total GULP energy -89330.077417 kJ/mol
# GULP energy per Si atom -5583.129839 kJ/mol
# Density = 2.351915 g / cm^3
# Si number density = 23.572801 Si / 1000 Ang^3
#
#
#
# Elastic Constant Matrix: (Units=GPa)
#
#
# Indices 1 2 3 4 5 6 
#
# 1 69.8983 11.2109 32.0958 4.2728 -19.9149 -29.4933
# 2 11.2109 53.1134 11.0867 2.7930 -9.4761 -16.6126
# 3 32.0958 11.0867 110.9879 -5.3846 -28.2018 -11.7618
# 4 4.2728 2.7930 -5.3846 49.1935 -9.3719 -1.9590
# 5 -19.9149 -9.4761 -28.2018 -9.3719 44.3129 4.6506
# 6 -29.4933 -16.6126 -11.7618 -1.9590 4.6506 36.5363
#
#
#
# Elastic Compliance Matrix: (Units=1/GPa)
#
#
# Indices 1 2 3 4 5 6 
#
# 1 0.026507 0.003055 -0.003829 -0.000582 0.007852 0.020523
# 2 0.003055 0.022927 -0.000783 -0.000326 0.004443 0.012055
# 3 -0.003829 -0.000783 0.011916 0.002877 0.006332 -0.000262
# 4 -0.000582 -0.000326 0.002877 0.021894 0.006056 0.000712
# 5 0.007852 0.004443 0.006332 0.006056 0.031654 0.006693
# 6 0.020523 0.012055 -0.000262 0.000712 0.006693 0.048520
#
#
# Mechanical properties :
#
#
# Convention : Reuss Voigt Hill
#
# Bulk Modulus (GPa) = 17.17130 38.08739 27.62934
# Shear Modulus (GPa) = 26.88997 37.98228 32.43612
#
# Velocity S-wave (km/s) = 3.38112 4.01842 3.71347
# Velocity P-wave (km/s) = 4.74793 6.14188 5.48933
#
# Compressibility (1/GPa) = 0.05823672
#
# Stress axis : x y z
#
# Youngs Moduli (GPa) = 37.72598 43.61712 83.92084
#
# Poissons Ratio (x) = -0.13324 0.32129
# Poissons Ratio (y) = -0.11525 0.06570
# Poissons Ratio (z) = 0.14443 0.03415
#
# Static dielectric constant tensor:
#      x y z
#    x 1.852720 0.132390 0.012140 
#    y 0.132390 1.835260 0.019600 
#    z 0.012140 0.019600 2.004390 
# 
# From -- ./inp_files/186066.got.cif
#   From: 2010.05.17/outbox.cif.g08.bks.cpg/sg2_94_cif.got.tgz:186066.got - 2010.06.03 11:33:40.
