data_PCOD9012087
_publ_section_title
;
Structure prediction by ZEFSAII (Michael W. Deem and Ramdas Pophale) SiO2 
 PCOD9012087
Probable space group: P -1
;
_chemical_formula_sum "Si O2"
_cell_formula_units_Z 16
_cell_length_a 8.486296
_cell_length_b 17.497306
_cell_length_c 7.671990
_cell_angle_alpha 72.723076
_cell_angle_beta 49.730395
_cell_angle_gamma 56.767622
_cell_volume 724.129736
_symmetry_space_group_name_H-M "P -1"
_symmetry_group_IT_number 2
_symmetry_cell_setting 'triclinic'
loop_
_space_group_symop_operation_xyz
x,y,z
-x,-y,-z
loop_
_atom_site_type_symbol
_atom_site_label
_atom_site_fract_x
_atom_site_fract_y
_atom_site_fract_z
Si Si1 0.492660 0.594744 0.386387
Si Si2 0.737317 0.944980 0.254689
Si Si3 0.967157 0.714616 0.776677
Si Si4 0.583571 0.895567 0.060693
Si Si5 0.760304 0.112674 0.940670
Si Si6 0.347342 0.454303 0.086749
Si Si7 0.876472 0.635866 0.248711
Si Si8 0.347927 0.285001 0.306931
O O1 0.500000 0.500000 0.500000
O O2 0.666202 0.618917 0.349621
O O3 0.230376 0.676355 0.549564
O O4 0.577811 0.582954 0.135686
O O5 0.671118 0.888164 0.201821
O O6 0.500000 0.000000 0.500000
O O7 0.778426 0.018713 0.064355
O O8 0.981628 0.894005 0.227024
O O9 0.833993 0.689308 0.740606
O O10 0.812092 0.823633 0.838194
O O11 0.961621 0.669719 0.996249
O O12 0.375691 0.873664 0.158359
O O13 0.500000 0.000000 0.000000
O O14 0.578813 0.192285 0.147081
O O15 0.404456 0.367909 0.222417
O O16 0.081481 0.536621 0.229035
O O17 0.500000 0.500000 0.000000
O O18 0.786762 0.708060 0.422503
#
# Coordination Sequence:
#
# PCOD9012087 Si02
#       8
#     2   2   2   2   2   2   2   2
#     4  12  23  42  67  93 130 171 218 274 323 391
#     4  10  21  40  68  95 125 172 214 264 336 396
#     4  11  24  45  68  97 132 174 221 274 332 393
#     4   9  21  43  65  95 135 168 217 277 329 397
#     4   9  22  43  62  94 134 165 213 278 320 395
#     4  12  24  43  65  94 134 177 217 273 334 386
#     4  12  25  42  68  95 129 176 220 270 327 395
#     4  11  24  44  64  96 137 167 223 274 324 396
#
# _framework density 22.095486999999999
#
# number of rings (size 3 to 8) (size 9 to 14) (size 15 to 20)
#    0.000    1.250    2.500    3.000    3.500    0.500 
#    6.750    0.000    0.000    0.000    0.000    0.000 
#    0.000    0.000    0.000    0.000    0.000    0.000 
#
# Total GULP energy -89394.353546 kJ/mol
# GULP energy per Si atom -5587.147097 kJ/mol
# Density = 2.204520 g / cm^3
# Si number density = 22.095487 Si / 1000 Ang^3
#
#
#
# Elastic Constant Matrix: (Units=GPa)
#
#
# Indices 1 2 3 4 5 6 
#
# 1 149.2525 12.4344 67.4360 27.2982 -3.0063 14.7778
# 2 12.4344 83.7172 13.2455 18.4243 1.1524 1.3043
# 3 67.4360 13.2455 105.2950 30.2523 -3.0264 6.5124
# 4 27.2982 18.4243 30.2523 37.8422 -10.9973 3.5457
# 5 -3.0063 1.1524 -3.0264 -10.9973 44.7168 10.4708
# 6 14.7778 1.3043 6.5124 3.5457 10.4708 20.7201
#
#
#
# Elastic Compliance Matrix: (Units=1/GPa)
#
#
# Indices 1 2 3 4 5 6 
#
# 1 0.010168 -0.000129 -0.005543 -0.001958 0.001179 -0.005762
# 2 -0.000129 0.013629 0.000431 -0.007833 -0.002676 0.001791
# 3 -0.005543 0.000431 0.015522 -0.009367 -0.002029 0.001676
# 4 -0.001958 -0.007833 -0.009367 0.043504 0.012189 -0.008771
# 5 0.001179 -0.002676 -0.002029 0.012189 0.029340 -0.016948
# 6 -0.005762 0.001791 0.001676 -0.008771 -0.016948 0.061798
#
#
# Mechanical properties :
#
#
# Convention : Reuss Voigt Hill
#
# Bulk Modulus (GPa) = 34.67801 58.27739 46.47770
# Shear Modulus (GPa) = 25.76609 36.99907 31.38258
#
# Velocity S-wave (km/s) = 3.41856 4.09651 3.77280
# Velocity P-wave (km/s) = 5.59560 6.98625 6.32924
#
# Compressibility (1/GPa) = 0.02883672
#
# Stress axis : x y z
#
# Youngs Moduli (GPa) = 98.35202 73.37482 64.42474
#
# Poissons Ratio (x) = 0.00945 0.35709
# Poissons Ratio (y) = 0.01266 -0.02775
# Poissons Ratio (z) = 0.54514 -0.03160
#
# Static dielectric constant tensor:
#      x y z
#    x 1.888120 -0.002040 0.073430 
#    y -0.002040 1.836320 -0.041990 
#    z 0.073430 -0.041990 1.840240 
# 
# From -- ./inp_files/217412.got.cif
#   From: 2010.05.17/outbox.cif.g08.bks.cpg/sg2_109_cif.got.tgz:217412.got - 2010.06.03 11:33:40.
