data_PCOD9012719
_publ_section_title
;
Structure prediction by ZEFSAII (Michael W. Deem and Ramdas Pophale) SiO2 
 PCOD9012719
Probable space group: P -1
;
_chemical_formula_sum "Si O2"
_cell_formula_units_Z 12
_cell_length_a 14.103437
_cell_length_b 22.032742
_cell_length_c 12.713892
_cell_angle_alpha 158.120576
_cell_angle_beta 158.922719
_cell_angle_gamma 30.250272
_cell_volume 529.394757
_symmetry_space_group_name_H-M "P -1"
_symmetry_group_IT_number 2
_symmetry_cell_setting 'triclinic'
loop_
_space_group_symop_operation_xyz
x,y,z
-x,-y,-z
loop_
_atom_site_type_symbol
_atom_site_label
_atom_site_fract_x
_atom_site_fract_y
_atom_site_fract_z
Si Si1 0.480280 0.371563 0.677718
Si Si2 0.117090 0.881718 0.715530
Si Si3 0.378218 0.215097 0.807774
Si Si4 0.176504 0.387012 0.698158
Si Si5 0.004661 0.777593 0.965059
Si Si6 0.840366 0.459818 0.874588
O O1 0.192706 0.291894 0.261665
O O2 0.500000 0.500000 0.000000
O O3 0.592941 0.480883 0.875624
O O4 0.698215 0.235706 0.709194
O O5 0.186820 0.733475 0.469453
O O6 0.852177 0.848852 0.456407
O O7 0.357186 0.873720 0.033573
O O8 0.081569 0.046132 0.878851
O O9 0.287649 0.224954 0.608606
O O10 0.399402 0.411377 0.166173
O O11 0.031119 0.336803 0.360277
O O12 0.013325 0.472682 0.760112
O O13 0.000000 0.500000 0.000000
#
# Coordination Sequence:
#
# PCOD9012719 Si02
#       6
#     2   2   2   2   2   2
#     4  10  21  41  59  83 114 153 194 230 276 337
#     4  11  20  38  55  86 121 144 181 241 285 332
#     4   9  21  34  60  80 114 151 189 221 289 334
#     4   9  20  38  60  85 109 154 196 228 275 344
#     4  11  23  37  60  87 116 148 188 239 284 323
#     4   8  18  39  56  85 112 155 186 226 282 346
#
# _framework density 22.667394000000002
#
# number of rings (size 3 to 8) (size 9 to 14) (size 15 to 20)
#    1.000    1.333    0.000    3.500    0.000    5.333 
#    0.000    1.667    0.000    0.000    0.000    0.000 
#    0.000    0.000    0.000    0.000    0.000    0.000 
#
# Total GULP energy -66875.777878 kJ/mol
# GULP energy per Si atom -5572.981490 kJ/mol
# Density = 2.261580 g / cm^3
# Si number density = 22.667394 Si / 1000 Ang^3
#
#
#
# Elastic Constant Matrix: (Units=GPa)
#
#
# Indices 1 2 3 4 5 6 
#
# 1 68.3637 15.4131 24.9088 17.3655 7.1646 -19.3320
# 2 15.4131 134.4677 35.9594 16.3213 7.5247 -1.1739
# 3 24.9088 35.9594 45.9472 5.0057 13.2226 -2.1237
# 4 17.3655 16.3213 5.0057 42.2608 6.2839 9.6607
# 5 7.1646 7.5247 13.2226 6.2839 17.6336 3.7751
# 6 -19.3320 -1.1739 -2.1237 9.6607 3.7751 0.0410
#
#
#
# Elastic Compliance Matrix: (Units=1/GPa)
#
#
# Indices 1 2 3 4 5 6 
#
# 1 0.005242 -0.000021 -0.007661 0.005366 0.009174 -0.034858
# 2 -0.000021 0.009814 -0.008804 -0.002400 0.004177 -0.004201
# 3 -0.007661 -0.008804 0.040837 0.003197 -0.027301 0.011259
# 4 0.005366 -0.002400 0.003197 0.017404 -0.016341 0.030760
# 5 0.009174 0.004177 -0.027301 -0.016341 0.074592 0.013562
# 6 -0.034858 -0.004201 0.011259 0.030760 0.013562 -0.079456
#
#
# Mechanical properties :
#
#
# Convention : Reuss Voigt Hill
#
# Bulk Modulus (GPa) = 43.63045 44.59346 44.11196
# Shear Modulus (GPa) = 45.85199 23.48690 34.66944
#
# Velocity S-wave (km/s) = 4.50245 3.22243 3.91511
# Velocity P-wave (km/s) = 6.80583 5.79319 6.31982
#
# Compressibility (1/GPa) = 0.02291977
#
# Stress axis : x y z
#
# Youngs Moduli (GPa) = 190.77011 101.89047 24.48776
#
# Poissons Ratio (x) = 0.00215 0.18760
# Poissons Ratio (y) = 0.00403 0.21560
# Poissons Ratio (z) = 1.46151 0.89709
#
# Static dielectric constant tensor:
#      x y z
#    x 1.918800 0.027250 -0.045760 
#    y 0.027250 1.888700 -0.022370 
#    z -0.045760 -0.022370 1.903280 
# 
# From -- ./inp_files/83855.got.cif
#   From: 2010.05.17/outbox.cif.g08.bks.cpg/sg2_42_cif.got.tgz:83855.got - 2010.06.03 11:33:40.
