data_PCOD9012140
_publ_section_title
;
Structure prediction by ZEFSAII (Michael W. Deem and Ramdas Pophale) SiO2 
 PCOD9012140
Probable space group: P -1
;
_chemical_formula_sum "Si O2"
_cell_formula_units_Z 13
_cell_length_a 13.619931
_cell_length_b 9.214562
_cell_length_c 13.953556
_cell_angle_alpha 98.615241
_cell_angle_beta 158.441156
_cell_angle_gamma 92.895789
_cell_volume 542.463444
_symmetry_space_group_name_H-M "P -1"
_symmetry_group_IT_number 2
_symmetry_cell_setting 'triclinic'
loop_
_space_group_symop_operation_xyz
x,y,z
-x,-y,-z
loop_
_atom_site_type_symbol
_atom_site_label
_atom_site_fract_x
_atom_site_fract_y
_atom_site_fract_z
Si Si1 0.276313 0.655973 0.365242
Si Si2 0.000000 0.000000 0.500000
Si Si3 0.604026 0.010917 0.792272
Si Si4 0.832564 0.847904 0.542725
Si Si5 0.355037 0.510669 0.720593
Si Si6 0.091523 0.296569 0.131267
Si Si7 0.983123 0.683019 0.406921
O O1 0.123555 0.457133 0.237362
O O2 0.574677 0.685900 0.576278
O O3 0.417222 0.808043 0.584660
O O4 0.037836 0.680245 0.085311
O O5 0.854943 0.893539 0.456173
O O6 0.161349 0.882376 0.612543
O O7 0.370287 0.081501 0.588384
O O8 0.825493 0.063967 0.091237
O O9 0.846623 0.115035 0.937038
O O10 0.675295 0.642168 0.386181
O O11 0.188030 0.423056 0.662161
O O12 0.180745 0.605822 0.538707
O O13 0.710771 0.650286 0.083010
#
# Coordination Sequence:
#
# PCOD9012140 Si02
#       7
#     2   1   2   2   2   2   2
#     4  10  21  40  68  98 131 167 215 247 327 402
#     4  10  24  44  62  90 122 176 224 274 318 388
#     4  12  23  41  63 100 132 171 209 281 318 382
#     4  11  25  41  62  89 132 169 225 269 328 372
#     4   9  18  36  55  82 106 154 199 256 309 381
#     4  10  21  40  68  97 130 174 204 259 317 410
#     4   9  18  34  61  78 106 145 212 259 308 363
#
# _framework density 23.964751
#
# number of rings (size 3 to 8) (size 9 to 14) (size 15 to 20)
#    0.000    1.846    0.000    3.692    0.000    6.154 
#    8.308    0.000    0.000    0.000    0.000    0.000 
#    0.000    0.000    0.000    0.000    0.000    0.000 
#
# Total GULP energy -72468.468452 kJ/mol
# GULP energy per Si atom -5574.497573 kJ/mol
# Density = 2.391021 g / cm^3
# Si number density = 23.964751 Si / 1000 Ang^3
#
#
#
# Elastic Constant Matrix: (Units=GPa)
#
#
# Indices 1 2 3 4 5 6 
#
# 1 28.9412 22.2478 2.3938 2.0222 2.7430 -3.1831
# 2 22.2478 81.2194 -2.0593 -4.5190 27.0148 -21.3979
# 3 2.3938 -2.0593 63.2173 -9.4513 24.4933 -9.0371
# 4 2.0222 -4.5190 -9.4513 32.6866 -15.5332 -0.2074
# 5 2.7430 27.0148 24.4933 -15.5332 -15.0648 -1.2395
# 6 -3.1831 -21.3979 -9.0371 -0.2074 -1.2395 49.0431
#
#
#
# Elastic Compliance Matrix: (Units=1/GPa)
#
#
# Indices 1 2 3 4 5 6 
#
# 1 0.044048 -0.011153 -0.001171 -0.007467 -0.005988 -0.002406
# 2 -0.011153 0.013363 -0.001640 0.007417 0.011197 0.005119
# 3 -0.001171 -0.001640 0.013519 0.008480 0.009918 0.001986
# 4 -0.007467 0.007417 0.008480 0.031288 -0.006885 0.004272
# 5 -0.005988 0.011197 0.009918 -0.006885 -0.024635 0.005672
# 6 -0.002406 0.005119 0.001986 0.004272 0.005672 0.022995
#
#
# Mechanical properties :
#
#
# Convention : Reuss Voigt Hill
#
# Bulk Modulus (GPa) = 23.25584 24.28251 23.76917
# Shear Modulus (GPa) = 35.00414 23.38601 29.19508
#
# Velocity S-wave (km/s) = 3.82599 3.12725 3.49413
# Velocity P-wave (km/s) = 5.40767 4.81603 5.12040
#
# Compressibility (1/GPa) = 0.04299996
#
# Stress axis : x y z
#
# Youngs Moduli (GPa) = 22.70254 74.83500 73.97247
#
# Poissons Ratio (x) = 0.83464 0.08666
# Poissons Ratio (y) = 0.25320 0.12132
# Poissons Ratio (z) = 0.02660 0.12273
#
# Static dielectric constant tensor:
#      x y z
#    x 1.962380 -0.010530 -0.041390 
#    y -0.010530 1.865110 0.036260 
#    z -0.041390 0.036260 1.936700 
# 
# From -- ./inp_files/143177.got.cif
#   From: 2010.05.17/outbox.cif.g08.bks.cpg/sg2_72_cif.got.tgz:143177.got - 2010.06.03 11:33:40.
