data_PCOD9012488
_publ_section_title
;
Structure prediction by ZEFSAII (Michael W. Deem and Ramdas Pophale) SiO2 
 PCOD9012488
Probable space group: P -1
;
_chemical_formula_sum "Si O2"
_cell_formula_units_Z 14
_cell_length_a 14.654709
_cell_length_b 7.199267
_cell_length_c 7.959769
_cell_angle_alpha 114.293042
_cell_angle_beta 72.588531
_cell_angle_gamma 135.136102
_cell_volume 539.909075
_symmetry_space_group_name_H-M "P -1"
_symmetry_group_IT_number 2
_symmetry_cell_setting 'triclinic'
loop_
_space_group_symop_operation_xyz
x,y,z
-x,-y,-z
loop_
_atom_site_type_symbol
_atom_site_label
_atom_site_fract_x
_atom_site_fract_y
_atom_site_fract_z
Si Si1 0.255321 0.482439 0.284446
Si Si2 0.023974 0.897286 0.187760
Si Si3 0.566149 0.325461 0.238358
Si Si4 0.474873 0.258409 0.608597
Si Si5 0.218956 0.634662 0.016008
Si Si6 0.015914 0.301764 0.498241
Si Si7 0.600718 0.835300 0.039993
O O1 0.380310 0.559571 0.325874
O O2 0.168236 0.463742 0.467439
O O3 0.261807 0.646074 0.186073
O O4 0.162664 0.170321 0.146381
O O5 0.930940 0.635707 0.023456
O O6 0.035378 0.797478 0.322493
O O7 0.961330 0.031368 0.319500
O O8 0.488529 0.160140 0.389653
O O9 0.574875 0.584444 0.344309
O O10 0.700203 0.405564 0.162493
O O11 0.485328 0.178409 0.058423
O O12 0.387493 0.065585 0.740549
O O13 0.261560 0.917486 0.030826
O O14 0.000000 0.500000 0.500000
O O15 0.500000 0.500000 0.000000
#
# Coordination Sequence:
#
# PCOD9012488 Si02
#       7
#     2   2   2   2   2   2   2
#     4  10  21  40  70  94 137 173 219 290 336 411
#     4   9  22  43  67 100 134 176 221 284 339 406
#     4  10  22  39  67  96 131 177 227 274 335 408
#     4  10  21  43  63 100 129 177 224 276 342 394
#     4  12  22  42  68  97 135 180 226 281 345 402
#     4   9  20  45  64  97 137 175 227 275 338 410
#     4  10  23  45  61  94 138 176 229 282 328 399
#
# _framework density 25.930291
#
# number of rings (size 3 to 8) (size 9 to 14) (size 15 to 20)
#    0.857    1.143    1.429    1.714    0.000    0.571 
#   12.857    0.714    0.000    0.000    0.000    0.000 
#    0.000    0.000    0.000    0.000    0.000    0.000 
#
# Total GULP energy -78019.795900 kJ/mol
# GULP energy per Si atom -5572.842564 kJ/mol
# Density = 2.587127 g / cm^3
# Si number density = 25.930291 Si / 1000 Ang^3
#
#
#
# Elastic Constant Matrix: (Units=GPa)
#
#
# Indices 1 2 3 4 5 6 
#
# 1 84.5190 29.1914 -1.8650 6.6096 -8.9615 -28.6622
# 2 29.1914 159.6832 25.3321 4.4143 29.4037 -17.8121
# 3 -1.8650 25.3321 83.8267 -29.0253 29.6715 -11.1882
# 4 6.6096 4.4143 -29.0253 49.4558 -0.8808 7.9393
# 5 -8.9615 29.4037 29.6715 -0.8808 33.1943 -1.5322
# 6 -28.6622 -17.8121 -11.1882 7.9393 -1.5322 44.7078
#
#
#
# Elastic Compliance Matrix: (Units=1/GPa)
#
#
# Indices 1 2 3 4 5 6 
#
# 1 0.018271 -0.003545 -0.002761 -0.005306 0.010904 0.010927
# 2 -0.003545 0.008611 0.000555 -0.000297 -0.009041 0.001040
# 3 -0.002761 0.000555 0.025094 0.014412 -0.023221 0.001376
# 4 -0.005306 -0.000297 0.014412 0.030092 -0.013517 -0.005720
# 5 0.010904 -0.009041 -0.023221 -0.013517 0.061572 0.002088
# 6 0.010927 0.001040 0.001376 -0.005720 0.002088 0.031219
#
#
# Mechanical properties :
#
#
# Convention : Reuss Voigt Hill
#
# Bulk Modulus (GPa) = 24.70609 48.14957 36.42783
# Shear Modulus (GPa) = 25.01852 43.82959 34.42406
#
# Velocity S-wave (km/s) = 3.10955 4.11577 3.64752
# Velocity P-wave (km/s) = 4.73719 6.41835 5.64075
#
# Compressibility (1/GPa) = 0.04047585
#
# Stress axis : x y z
#
# Youngs Moduli (GPa) = 54.73009 116.12598 39.85060
#
# Poissons Ratio (x) = 0.41161 0.11001
# Poissons Ratio (y) = 0.19399 -0.02211
# Poissons Ratio (z) = 0.15109 -0.06442
#
# Static dielectric constant tensor:
#      x y z
#    x 2.064180 -0.045160 -0.076310 
#    y -0.045160 2.279170 0.006050 
#    z -0.076310 0.006050 2.096080 
# 
# From -- ./inp_files/327674.got.cif
#   From: 2010.05.17/outbox.cif.g08.bks.cpg/sg2_164_cif.got.tgz:327674.got - 2010.06.03 11:33:40.
