data_PCOD9012544
_publ_section_title
;
Structure prediction by ZEFSAII (Michael W. Deem and Ramdas Pophale) SiO2 
 PCOD9012544
Probable space group: P -1
;
_chemical_formula_sum "Si O2"
_cell_formula_units_Z 16
_cell_length_a 8.106083
_cell_length_b 20.277595
_cell_length_c 14.555217
_cell_angle_alpha 33.241572
_cell_angle_beta 142.869374
_cell_angle_gamma 144.118128
_cell_volume 713.423213
_symmetry_space_group_name_H-M "P -1"
_symmetry_group_IT_number 2
_symmetry_cell_setting 'triclinic'
loop_
_space_group_symop_operation_xyz
x,y,z
-x,-y,-z
loop_
_atom_site_type_symbol
_atom_site_label
_atom_site_fract_x
_atom_site_fract_y
_atom_site_fract_z
Si Si1 0.256665 0.029189 0.497759
Si Si2 0.821886 0.769972 0.549055
Si Si3 0.852471 0.567706 0.169540
Si Si4 0.283736 0.300922 0.202446
Si Si5 0.263101 0.292163 0.882752
Si Si6 0.653974 0.939466 0.881731
Si Si7 0.573432 0.071400 0.852852
Si Si8 0.582843 0.471756 0.468304
O O1 0.571238 0.036348 0.667687
O O2 0.136732 0.901877 0.525795
O O3 0.286913 0.169221 0.312913
O O4 0.000000 0.000000 0.500000
O O5 0.808489 0.722679 0.703779
O O6 0.596374 0.839303 0.352723
O O7 0.702531 0.644998 0.573488
O O8 0.625340 0.416625 0.221385
O O9 0.675012 0.624626 0.092894
O O10 0.146097 0.573063 0.345536
O O11 0.911965 0.648520 0.007136
O O12 0.300009 0.396042 0.696709
O O13 0.923093 0.176427 0.878743
O O14 0.440484 0.204428 0.036985
O O15 0.480388 0.947350 0.886415
O O16 0.000000 0.000000 0.000000
O O17 0.500000 0.000000 0.000000
O O18 0.500000 0.500000 0.500000
#
# Coordination Sequence:
#
# PCOD9012544 Si02
#       8
#     2   2   2   2   2   2   2   2
#     4  10  21  40  70  99 139 183 231 295 358 424
#     4  11  22  43  69 102 140 185 236 298 362 423
#     4  11  23  44  72 100 137 192 242 286 365 441
#     4  10  22  42  73  99 136 190 236 290 359 434
#     4  11  24  43  70  99 146 188 239 307 352 422
#     4  10  23  42  66 106 140 191 240 293 356 430
#     4  11  23  39  72 104 140 187 243 295 359 433
#     4  12  27  45  71 105 141 191 248 302 354 441
#
# _framework density 22.42708
#
# number of rings (size 3 to 8) (size 9 to 14) (size 15 to 20)
#    0.000    1.250    5.000    1.125    5.250    2.000 
#    4.500    1.875    0.000    0.000    0.000    0.000 
#    0.000    0.000    0.000    0.000    0.000    0.000 
#
# Total GULP energy -89279.052543 kJ/mol
# GULP energy per Si atom -5579.940784 kJ/mol
# Density = 2.237604 g / cm^3
# Si number density = 22.427080 Si / 1000 Ang^3
#
#
#
# Elastic Constant Matrix: (Units=GPa)
#
#
# Indices 1 2 3 4 5 6 
#
# 1 66.9387 22.1169 30.1505 -16.3845 -15.4753 -23.8967
# 2 22.1169 110.3471 30.9709 -28.4000 -10.5357 2.6675
# 3 30.1505 30.9709 99.4695 -14.1578 -6.7955 -5.1276
# 4 -16.3845 -28.4000 -14.1578 33.9007 1.4124 9.0019
# 5 -15.4753 -10.5357 -6.7955 1.4124 33.4897 3.9722
# 6 -23.8967 2.6675 -5.1276 9.0019 3.9722 29.7122
#
#
#
# Elastic Compliance Matrix: (Units=1/GPa)
#
#
# Indices 1 2 3 4 5 6 
#
# 1 0.028316 -0.002942 -0.005596 0.003230 0.008520 0.019954
# 2 -0.002942 0.013482 -0.001938 0.010966 0.002931 -0.007626
# 3 -0.005596 -0.001938 0.012412 0.001564 -0.000435 -0.002601
# 4 0.003230 0.010966 0.001564 0.043901 0.004839 -0.012065
# 5 0.008520 0.002931 -0.000435 0.004839 0.034373 0.000453
# 6 0.019954 -0.007626 -0.002601 -0.012065 0.000453 0.053536
#
#
# Mechanical properties :
#
#
# Convention : Reuss Voigt Hill
#
# Bulk Modulus (GPa) = 30.06910 49.24800 39.65855
# Shear Modulus (GPa) = 22.92960 32.32164 27.62562
#
# Velocity S-wave (km/s) = 3.20098 3.80042 3.51350
# Velocity P-wave (km/s) = 5.20560 6.42374 5.84648
#
# Compressibility (1/GPa) = 0.03325674
#
# Stress axis : x y z
#
# Youngs Moduli (GPa) = 35.31592 74.17025 80.56760
#
# Poissons Ratio (x) = 0.21823 0.45089
# Poissons Ratio (y) = 0.10391 0.15615
# Poissons Ratio (z) = 0.19764 0.14375
#
# Static dielectric constant tensor:
#      x y z
#    x 1.853990 0.030790 0.043920 
#    y 0.030790 1.846110 -0.039730 
#    z 0.043920 -0.039730 1.820220 
# 
# From -- ./inp_files/508117.got.cif
#   From: 2010.05.17/outbox.cif.g08.bks.cpg/sg2_255_cif.got.tgz:508117.got - 2010.06.03 11:33:40.
