data_PCOD9012819
_publ_section_title
;
Structure prediction by ZEFSAII (Michael W. Deem and Ramdas Pophale) SiO2 
 PCOD9012819
Probable space group: P -1
;
_chemical_formula_sum "Si O2"
_cell_formula_units_Z 10
_cell_length_a 7.938486
_cell_length_b 9.440956
_cell_length_c 11.709631
_cell_angle_alpha 103.732686
_cell_angle_beta 40.441138
_cell_angle_gamma 116.902376
_cell_volume 498.907352
_symmetry_space_group_name_H-M "P -1"
_symmetry_group_IT_number 2
_symmetry_cell_setting 'triclinic'
loop_
_space_group_symop_operation_xyz
x,y,z
-x,-y,-z
loop_
_atom_site_type_symbol
_atom_site_label
_atom_site_fract_x
_atom_site_fract_y
_atom_site_fract_z
Si Si1 0.838849 0.214661 0.908765
Si Si2 0.325796 0.271339 0.256239
Si Si3 0.292998 0.838872 0.510065
Si Si4 0.491984 0.431155 0.617342
Si Si5 0.634437 0.031353 0.753207
O O1 0.830707 0.148708 0.772949
O O2 0.157051 0.330508 0.803187
O O3 0.619423 0.298499 0.044933
O O4 0.682674 0.058737 0.042015
O O5 0.361080 0.424011 0.341343
O O6 0.045931 0.211204 0.309932
O O7 0.286633 0.120482 0.329901
O O8 0.362627 0.691352 0.480038
O O9 0.351401 0.878586 0.353051
O O10 0.500000 0.000000 0.500000
O O11 0.500000 0.500000 0.500000
#
# Coordination Sequence:
#
# PCOD9012819 Si02
#       5
#     2   2   2   2   2
#     4   9  21  41  67  87 120 159 200 246 306 350
#     4  10  21  41  61  91 120 156 200 247 301 352
#     4  12  24  39  63  92 121 161 204 243 300 359
#     4  12  24  40  61  89 127 161 199 247 304 356
#     4   9  20  41  67  85 123 153 205 245 298 356
#
# _framework density 20.043801999999999
#
# number of rings (size 3 to 8) (size 9 to 14) (size 15 to 20)
#    1.200    0.400    0.000    5.400    0.000    0.800 
#    0.000    2.000    0.000    0.000    0.000    0.000 
#    0.000    0.000    0.000    0.000    0.000    0.000 
#
# Total GULP energy -55806.100876 kJ/mol
# GULP energy per Si atom -5580.610088 kJ/mol
# Density = 1.999818 g / cm^3
# Si number density = 20.043802 Si / 1000 Ang^3
#
#
#
# Elastic Constant Matrix: (Units=GPa)
#
#
# Indices 1 2 3 4 5 6 
#
# 1 64.6048 20.4711 5.8167 -3.8513 -9.3715 -16.7729
# 2 20.4711 85.8516 -13.8998 14.9843 2.9619 -7.5985
# 3 5.8167 -13.8998 37.6696 -3.7876 -12.7210 -8.8688
# 4 -3.8513 14.9843 -3.7876 27.0395 9.3686 -8.3749
# 5 -9.3715 2.9619 -12.7210 9.3686 32.0976 -0.4980
# 6 -16.7729 -7.5985 -8.8688 -8.3749 -0.4980 46.0891
#
#
#
# Elastic Compliance Matrix: (Units=1/GPa)
#
#
# Indices 1 2 3 4 5 6 
#
# 1 0.020361 -0.005759 -0.001471 0.006801 0.004024 0.007457
# 2 -0.005759 0.015621 0.006458 -0.009301 0.002152 0.000055
# 3 -0.001471 0.006458 0.035269 -0.001262 0.013433 0.007232
# 4 0.006801 -0.009301 -0.001262 0.050132 -0.012139 0.009677
# 5 0.004024 0.002152 0.013433 -0.012139 0.041039 0.002642
# 6 0.007457 0.000055 0.007232 0.009677 0.002642 0.027598
#
#
# Mechanical properties :
#
#
# Convention : Reuss Voigt Hill
#
# Bulk Modulus (GPa) = 14.34587 23.65576 19.00082
# Shear Modulus (GPa) = 23.27757 32.76112 28.01934
#
# Velocity S-wave (km/s) = 3.41153 4.04725 3.74291
# Velocity P-wave (km/s) = 4.76349 5.80241 5.30843
#
# Compressibility (1/GPa) = 0.06970645
#
# Stress axis : x y z
#
# Youngs Moduli (GPa) = 49.11341 64.01743 28.35381
#
# Poissons Ratio (x) = 0.36868 0.04170
# Poissons Ratio (y) = 0.28285 -0.18310
# Poissons Ratio (z) = 0.07224 -0.41341
#
# Static dielectric constant tensor:
#      x y z
#    x 1.681330 0.011480 -0.023020 
#    y 0.011480 1.715590 -0.015210 
#    z -0.023020 -0.015210 1.757740 
# 
# From -- ./inp_files/16007.got.cif
#   From: 2010.05.17/outbox.cif.g08.bks.cpg/sg2_9_cif.got.tgz:16007.got - 2010.06.03 11:33:40.
