data_PCOD9012158
_publ_section_title
;
Structure prediction by ZEFSAII (Michael W. Deem and Ramdas Pophale) SiO2 
 PCOD9012158
Probable space group: P -1
;
_chemical_formula_sum "Si O2"
_cell_formula_units_Z 16
_cell_length_a 12.521343
_cell_length_b 12.941208
_cell_length_c 13.214645
_cell_angle_alpha 149.869729
_cell_angle_beta 139.940457
_cell_angle_gamma 33.356966
_cell_volume 583.816197
_symmetry_space_group_name_H-M "P -1"
_symmetry_group_IT_number 2
_symmetry_cell_setting 'triclinic'
loop_
_space_group_symop_operation_xyz
x,y,z
-x,-y,-z
loop_
_atom_site_type_symbol
_atom_site_label
_atom_site_fract_x
_atom_site_fract_y
_atom_site_fract_z
Si Si1 0.328386 0.629586 0.903184
Si Si2 0.284014 0.045322 0.076812
Si Si3 0.840601 0.301271 0.607590
Si Si4 0.489588 0.704504 0.426007
Si Si5 0.220309 0.223675 0.712844
Si Si6 0.018585 0.558847 0.676737
Si Si7 0.466423 0.724698 0.760009
Si Si8 0.891401 0.263163 0.848000
O O1 0.330055 0.840207 0.020601
O O2 0.368129 0.427822 0.676242
O O3 0.122307 0.713262 0.877127
O O4 0.500000 0.500000 0.000000
O O5 0.434529 0.921332 0.986190
O O6 0.087976 0.104772 0.919565
O O7 0.181051 0.300794 0.281995
O O8 0.676233 0.590950 0.742773
O O9 0.708340 0.202624 0.384355
O O10 0.914061 0.236733 0.721105
O O11 0.028565 0.228881 0.616517
O O12 0.529142 0.494731 0.357456
O O13 0.276644 0.788303 0.293653
O O14 0.426951 0.964234 0.650374
O O15 0.174994 0.314499 0.641918
O O16 0.201280 0.452247 0.951636
O O17 0.000000 0.500000 0.500000
#
# Coordination Sequence:
#
# PCOD9012158 Si02
#       8
#     2   2   2   2   2   2   2   2
#     4  11  24  44  69  96 131 180 228 281 342 395
#     4  10  22  43  70  94 135 173 225 280 334 406
#     4  10  21  40  68  97 140 172 223 272 336 406
#     4  10  23  41  67  93 136 175 221 278 334 397
#     4  11  24  42  66  97 138 175 224 279 334 401
#     4  11  27  44  66 102 133 178 233 280 339 403
#     4   9  21  40  64 103 130 177 222 273 336 407
#     4  10  22  43  66 101 128 178 226 272 336 410
#
# _framework density 27.405885999999999
#
# number of rings (size 3 to 8) (size 9 to 14) (size 15 to 20)
#    0.000    1.750    0.000    3.000    7.000    6.000 
#    6.750    3.125    0.000    0.000    0.000    0.000 
#    0.000    0.000    0.000    0.000    0.000    0.000 
#
# Total GULP energy -89576.353420 kJ/mol
# GULP energy per Si atom -5598.522089 kJ/mol
# Density = 2.734351 g / cm^3
# Si number density = 27.405886 Si / 1000 Ang^3
#
#
#
# Elastic Constant Matrix: (Units=GPa)
#
#
# Indices 1 2 3 4 5 6 
#
# 1 98.7428 7.8561 11.1483 8.9994 -24.4699 -10.2433
# 2 7.8561 117.0900 12.1324 22.7737 -26.0369 17.9351
# 3 11.1483 12.1324 130.8947 15.5336 -36.0566 25.9274
# 4 8.9994 22.7737 15.5336 48.6668 16.3068 -17.0783
# 5 -24.4699 -26.0369 -36.0566 16.3068 44.3901 -0.2617
# 6 -10.2433 17.9351 25.9274 -17.0783 -0.2617 57.3434
#
#
#
# Elastic Compliance Matrix: (Units=1/GPa)
#
#
# Indices 1 2 3 4 5 6 
#
# 1 -0.008475 -0.044382 -0.045986 0.092146 -0.101553 0.060140
# 2 -0.044382 -0.087498 -0.099979 0.201634 -0.230339 0.123644
# 3 -0.045986 -0.099979 -0.094431 0.209372 -0.236860 0.127027
# 4 0.092146 0.201634 0.209372 -0.413750 0.489575 -0.262261
# 5 -0.101553 -0.230339 -0.236860 0.489575 -0.539004 0.304345
# 6 0.060140 0.123644 0.127027 -0.262261 0.304345 -0.144644
#
#
# Mechanical properties :
#
#
# Convention : Reuss Voigt Hill
#
# Bulk Modulus (GPa) = -1.75101 45.44454 21.84677
# Shear Modulus (GPa) = -4.55592 51.11944 23.28176
#
# Velocity S-wave (km/s) = -1.29073 4.32357 2.91781
# Velocity P-wave (km/s) = 1.69164 6.44533 4.39777
#
# Compressibility (1/GPa) = -0.57110044
#
# Stress axis : x y z
#
# Youngs Moduli (GPa) = -117.98834 -11.42878 -10.58976
#
# Poissons Ratio (x) = -0.50724 -0.48698
# Poissons Ratio (y) = -5.23662 -1.05876
# Poissons Ratio (z) = -5.42582 -1.14264
#
# Static dielectric constant tensor:
#      x y z
#    x 2.100000 -0.023300 0.046460 
#    y -0.023300 2.182460 0.003150 
#    z 0.046460 0.003150 2.322070 
# 
# From -- ./inp_files/533928.got.cif
#   From: 2010.05.17/outbox.cif.g08.bks.cpg/sg2_267_cif.got.tgz:533928.got - 2010.06.03 11:33:40.
