data_PCOD9012530
_publ_section_title
;
Structure prediction by ZEFSAII (Michael W. Deem and Ramdas Pophale) SiO2 
 PCOD9012530
Probable space group: P -1
;
_chemical_formula_sum "Si O2"
_cell_formula_units_Z 16
_cell_length_a 13.369619
_cell_length_b 10.457852
_cell_length_c 13.759931
_cell_angle_alpha 136.140658
_cell_angle_beta 42.542584
_cell_angle_gamma 149.649120
_cell_volume 636.501732
_symmetry_space_group_name_H-M "P -1"
_symmetry_group_IT_number 2
_symmetry_cell_setting 'triclinic'
loop_
_space_group_symop_operation_xyz
x,y,z
-x,-y,-z
loop_
_atom_site_type_symbol
_atom_site_label
_atom_site_fract_x
_atom_site_fract_y
_atom_site_fract_z
Si Si1 0.769833 0.077678 0.863042
Si Si2 0.484477 0.071072 0.421833
Si Si3 0.064447 0.852429 0.646278
Si Si4 0.825669 0.763471 0.369184
Si Si5 0.396634 0.424941 0.374818
Si Si6 0.521910 0.033281 0.839087
Si Si7 0.773987 0.590671 0.877608
Si Si8 0.233814 0.038726 0.822202
O O1 0.676631 0.096439 0.845612
O O2 0.014442 0.260112 0.777435
O O3 0.655962 0.776165 0.776470
O O4 0.694006 0.112579 0.032730
O O5 0.586380 0.346573 0.544013
O O6 0.237617 0.846059 0.502256
O O7 0.498103 0.117526 0.321361
O O8 0.613079 0.000069 0.312303
O O9 0.845843 0.628279 0.734477
O O10 0.060653 0.957353 0.606567
O O11 0.183828 0.071773 0.767762
O O12 0.614658 0.564042 0.347931
O O13 0.770376 0.736469 0.506244
O O14 0.617942 0.301776 0.870167
O O15 0.704985 0.737756 0.031676
O O16 0.999264 0.763428 0.866307
#
# Coordination Sequence:
#
# PCOD9012530 Si02
#       8
#     2   2   2   2   2   2   2   2
#     4  11  25  45  67  97 140 177 221 276 340 390
#     4  11  23  42  67  99 135 165 228 276 334 392
#     4   9  20  40  64  97 129 168 223 274 318 411
#     4  10  21  40  70  98 132 170 225 271 332 390
#     4  10  23  44  70  98 131 180 222 276 329 411
#     4  11  26  43  61 102 137 168 229 281 320 412
#     4   9  22  41  64  88 135 173 216 270 328 391
#     4   9  21  41  66  94 129 175 220 271 333 395
#
# _framework density 25.137401000000001
#
# number of rings (size 3 to 8) (size 9 to 14) (size 15 to 20)
#    0.750    1.250    0.000    3.000    7.000    1.000 
#    0.000    1.875    0.000    0.000    0.000    0.000 
#    0.000    0.000    0.000    0.000    0.000    0.000 
#
# Total GULP energy -89441.508547 kJ/mol
# GULP energy per Si atom -5590.094284 kJ/mol
# Density = 2.508019 g / cm^3
# Si number density = 25.137401 Si / 1000 Ang^3
#
#
#
# Elastic Constant Matrix: (Units=GPa)
#
#
# Indices 1 2 3 4 5 6 
#
# 1 91.3891 26.6593 33.2547 -16.1453 -18.4918 -9.9332
# 2 26.6593 51.7180 27.1521 0.3755 -1.9209 -15.7383
# 3 33.2547 27.1521 123.0502 -20.9597 -9.5693 -5.0898
# 4 -16.1453 0.3755 -20.9597 49.7400 2.9577 -0.8384
# 5 -18.4918 -1.9209 -9.5693 2.9577 46.4343 -4.1728
# 6 -9.9332 -15.7383 -5.0898 -0.8384 -4.1728 36.1370
#
#
#
# Elastic Compliance Matrix: (Units=1/GPa)
#
#
# Indices 1 2 3 4 5 6 
#
# 1 0.015407 -0.006349 -0.001557 0.004101 0.005468 0.001977
# 2 -0.006349 0.028056 -0.004874 -0.004091 -0.001254 0.009547
# 3 -0.001557 -0.004874 0.010310 0.003802 0.000980 -0.000897
# 4 0.004101 -0.004091 0.003802 0.023028 0.000827 0.000511
# 5 0.005468 -0.001254 0.000980 0.000827 0.024162 0.003904
# 6 0.001977 0.009547 -0.000897 0.000511 0.003904 0.032710
#
#
# Mechanical properties :
#
#
# Convention : Reuss Voigt Hill
#
# Bulk Modulus (GPa) = 35.44701 48.92105 42.18403
# Shear Modulus (GPa) = 29.64918 38.40170 34.02544
#
# Velocity S-wave (km/s) = 3.43809 3.91278 3.68309
# Velocity P-wave (km/s) = 5.46741 6.31798 5.90802
#
# Compressibility (1/GPa) = 0.02821112
#
# Stress axis : x y z
#
# Youngs Moduli (GPa) = 64.90598 35.64287 96.99382
#
# Poissons Ratio (x) = 0.22631 0.15103
# Poissons Ratio (y) = 0.41211 0.47278
# Poissons Ratio (z) = 0.10107 0.17374
#
# Static dielectric constant tensor:
#      x y z
#    x 2.013150 0.024860 0.007300 
#    y 0.024860 2.038680 0.002310 
#    z 0.007300 0.002310 1.982850 
# 
# From -- ./inp_files/532031.got.cif
#   From: 2010.05.17/outbox.cif.g08.bks.cpg/sg2_267_cif.got.tgz:532031.got - 2010.06.03 11:33:40.
