data_PCOD9012661
_publ_section_title
;
Structure prediction by ZEFSAII (Michael W. Deem and Ramdas Pophale) SiO2 
 PCOD9012661
Probable space group: P -1
;
_chemical_formula_sum "Si O2"
_cell_formula_units_Z 16
_cell_length_a 7.115737
_cell_length_b 14.236589
_cell_length_c 13.386548
_cell_angle_alpha 33.003132
_cell_angle_beta 61.554535
_cell_angle_gamma 58.928730
_cell_volume 629.918764
_symmetry_space_group_name_H-M "P -1"
_symmetry_group_IT_number 2
_symmetry_cell_setting 'triclinic'
loop_
_space_group_symop_operation_xyz
x,y,z
-x,-y,-z
loop_
_atom_site_type_symbol
_atom_site_label
_atom_site_fract_x
_atom_site_fract_y
_atom_site_fract_z
Si Si1 0.844279 0.010909 0.934438
Si Si2 0.026662 0.535569 0.577253
Si Si3 0.595730 0.729086 0.196867
Si Si4 0.119418 0.089946 0.626493
Si Si5 0.960699 0.247040 0.314384
Si Si6 0.700941 0.449545 0.885696
Si Si7 0.278693 0.342582 0.994756
Si Si8 0.374564 0.790118 0.719892
O O1 0.696388 0.869386 0.108076
O O2 0.110432 0.570947 0.224246
O O3 0.990241 0.977622 0.827081
O O4 0.000000 0.000000 0.000000
O O5 0.275038 0.461031 0.622078
O O6 0.903554 0.738631 0.451338
O O7 0.000000 0.500000 0.500000
O O8 0.331891 0.798476 0.203359
O O9 0.661025 0.741682 0.053376
O O10 0.005921 0.160272 0.488344
O O11 0.347788 0.959380 0.647896
O O12 0.872769 0.459358 0.162261
O O13 0.769786 0.171918 0.377085
O O14 0.163407 0.235215 0.197004
O O15 0.499668 0.380602 0.952177
O O16 0.607885 0.657651 0.753865
O O17 0.750960 0.340372 0.072026
#
# Coordination Sequence:
#
# PCOD9012661 Si02
#       8
#     2   2   2   2   2   2   2   2
#     4  11  27  49  74 105 142 193 250 305 361 434
#     4  12  27  46  68 104 150 190 247 308 364 435
#     4  11  25  47  76 101 139 199 249 289 368 448
#     4  12  25  41  72 106 144 182 240 312 366 424
#     4  10  21  41  65 103 141 177 234 298 368 433
#     4  10  24  44  70 102 141 196 242 287 370 442
#     4  10  21  40  73  99 137 190 235 290 364 446
#     4  10  23  42  72 100 141 190 236 301 364 444
#
# _framework density 25.400100999999999
#
# number of rings (size 3 to 8) (size 9 to 14) (size 15 to 20)
#    0.000    1.250    1.250    3.375   10.500    3.000 
#    0.000    0.000    0.000    0.000    0.000    0.000 
#    0.000    0.000    0.000    0.000    0.000    0.000 
#
# Total GULP energy -89617.581912 kJ/mol
# GULP energy per Si atom -5601.098869 kJ/mol
# Density = 2.534229 g / cm^3
# Si number density = 25.400101 Si / 1000 Ang^3
#
#
#
# Elastic Constant Matrix: (Units=GPa)
#
#
# Indices 1 2 3 4 5 6 
#
# 1 94.0225 37.4861 29.4483 8.4278 23.2205 -5.5669
# 2 37.4861 168.5759 43.0524 8.4592 19.0971 -4.2121
# 3 29.4483 43.0524 114.9618 10.7596 17.8949 -1.9218
# 4 8.4278 8.4592 10.7596 54.0763 5.2487 -5.5888
# 5 23.2205 19.0971 17.8949 5.2487 35.4126 4.4274
# 6 -5.5669 -4.2121 -1.9218 -5.5888 4.4274 49.8417
#
#
#
# Elastic Compliance Matrix: (Units=1/GPa)
#
#
# Indices 1 2 3 4 5 6 
#
# 1 0.013858 -0.001735 -0.001646 -0.000637 -0.007466 0.001930
# 2 -0.001735 0.007017 -0.001887 -0.000239 -0.001714 0.000452
# 3 -0.001646 -0.001887 0.010411 -0.001208 -0.003009 0.000190
# 4 -0.000637 -0.000239 -0.001208 0.019289 -0.001977 0.002201
# 5 -0.007466 -0.001714 -0.003009 -0.001977 0.036442 -0.004554
# 6 0.001930 0.000452 0.000190 0.002201 -0.004554 0.020976
#
#
# Mechanical properties :
#
#
# Convention : Reuss Voigt Hill
#
# Bulk Modulus (GPa) = 48.19035 66.39266 57.29150
# Shear Modulus (GPa) = 39.85773 45.70435 42.78104
#
# Velocity S-wave (km/s) = 3.96560 4.24651 4.10846
# Velocity P-wave (km/s) = 6.32311 7.08797 6.71643
#
# Compressibility (1/GPa) = 0.02075104
#
# Stress axis : x y z
#
# Youngs Moduli (GPa) = 72.15818 142.50665 96.04888
#
# Poissons Ratio (x) = 0.24730 0.15810
# Poissons Ratio (y) = 0.12522 0.18121
# Poissons Ratio (z) = 0.11877 0.26886
#
# Static dielectric constant tensor:
#      x y z
#    x 2.057290 0.002430 -0.046210 
#    y 0.002430 1.997100 -0.103640 
#    z -0.046210 -0.103640 2.047480 
# 
# From -- ./inp_files/398408.got.cif
#   From: 2010.05.17/outbox.cif.g08.bks.cpg/sg2_200_cif.got.tgz:398408.got - 2010.06.03 11:33:40.
