data_PCOD9012835
_publ_section_title
;
Structure prediction by ZEFSAII (Michael W. Deem and Ramdas Pophale) SiO2 
 PCOD9012835
Probable space group: P -1
;
_chemical_formula_sum "Si O2"
_cell_formula_units_Z 13
_cell_length_a 14.857912
_cell_length_b 7.792838
_cell_length_c 14.027417
_cell_angle_alpha 120.612986
_cell_angle_beta 20.702963
_cell_angle_gamma 119.278795
_cell_volume 493.724611
_symmetry_space_group_name_H-M "P -1"
_symmetry_group_IT_number 2
_symmetry_cell_setting 'triclinic'
loop_
_space_group_symop_operation_xyz
x,y,z
-x,-y,-z
loop_
_atom_site_type_symbol
_atom_site_label
_atom_site_fract_x
_atom_site_fract_y
_atom_site_fract_z
Si Si1 0.752339 0.318396 0.984684
Si Si2 0.331750 0.987940 0.533667
Si Si3 0.265165 0.755796 0.345409
Si Si4 0.750902 0.700896 0.722852
Si Si5 0.848386 0.226531 0.081851
Si Si6 0.500000 0.000000 0.000000
Si Si7 0.245686 0.557568 0.586529
O O1 0.821540 0.246178 0.001012
O O2 0.693686 0.145451 0.919534
O O3 0.502855 0.448157 0.280393
O O4 0.994723 0.461867 0.757305
O O5 0.294295 0.926643 0.442439
O O6 0.274953 0.782747 0.585505
O O7 0.617529 0.067966 0.289768
O O8 0.122701 0.144862 0.811850
O O9 0.309402 0.536830 0.286388
O O10 0.990026 0.734157 0.563820
O O11 0.484821 0.791795 0.057326
O O12 0.743092 0.852136 0.687189
O O13 0.798860 0.420990 0.249435
#
# Coordination Sequence:
#
# PCOD9012835 Si02
#       7
#     2   2   2   2   2   1   2
#     4  12  27  45  71  98 142 180 223 279 340 407
#     4  12  23  41  71 102 134 169 228 284 334 398
#     4  10  21  41  61  92 128 177 212 266 334 391
#     4  10  23  39  63  88 132 173 222 265 321 399
#     4  12  25  46  71 101 135 180 227 278 336 403
#     4  12  26  44  66 104 132 176 228 278 332 394
#     4  12  26  47  70 102 136 180 225 280 340 399
#
# _framework density 26.330468
#
# number of rings (size 3 to 8) (size 9 to 14) (size 15 to 20)
#    0.000    0.615    0.000    8.308    0.000    7.385 
#    0.000    0.000    0.000    0.000    0.000    0.000 
#    0.000    0.000    0.000    0.000    0.000    0.000 
#
# Total GULP energy -72761.699965 kJ/mol
# GULP energy per Si atom -5597.053843 kJ/mol
# Density = 2.627054 g / cm^3
# Si number density = 26.330468 Si / 1000 Ang^3
#
#
#
# Elastic Constant Matrix: (Units=GPa)
#
#
# Indices 1 2 3 4 5 6 
#
# 1 90.1017 28.7935 15.1393 -2.9147 2.2509 6.5975
# 2 28.7935 136.7517 23.8221 1.7379 12.2062 11.9120
# 3 15.1393 23.8221 100.6478 29.7467 32.3501 -4.4051
# 4 -2.9147 1.7379 29.7467 47.9127 -24.4227 -8.2681
# 5 2.2509 12.2062 32.3501 -24.4227 7.1567 7.6184
# 6 6.5975 11.9120 -4.4051 -8.2681 7.6184 57.2161
#
#
#
# Elastic Compliance Matrix: (Units=1/GPa)
#
#
# Indices 1 2 3 4 5 6 
#
# 1 0.011867 -0.002147 0.000075 -0.001049 -0.003325 -0.000624
# 2 -0.002147 0.008212 -0.002068 0.000808 0.000435 -0.001563
# 3 0.000075 -0.002068 0.002573 0.007324 0.017570 -0.000661
# 4 -0.001049 0.000808 0.007324 0.003850 -0.025816 0.004511
# 5 -0.003325 0.000435 0.017570 -0.025816 -0.029439 0.001835
# 6 -0.000624 -0.001563 -0.000661 0.004511 0.001835 0.018232
#
#
# Mechanical properties :
#
#
# Convention : Reuss Voigt Hill
#
# Bulk Modulus (GPa) = 69.58066 51.44565 60.51315
# Shear Modulus (GPa) = 176.27530 39.77351 108.02440
#
# Velocity S-wave (km/s) = 8.19101 3.89080 6.41213
# Velocity P-wave (km/s) = 10.76755 6.30597 8.82342
#
# Compressibility (1/GPa) = 0.01437181
#
# Stress axis : x y z
#
# Youngs Moduli (GPa) = 84.26736 121.77645 388.65311
#
# Poissons Ratio (x) = 0.26147 -0.02909
# Poissons Ratio (y) = 0.18093 0.80362
# Poissons Ratio (z) = -0.00631 0.25180
#
# Static dielectric constant tensor:
#      x y z
#    x 2.386850 -0.238880 0.118760 
#    y -0.238880 2.171680 -0.047120 
#    z 0.118760 -0.047120 2.080140 
# 
# From -- ./inp_files/313824.got.cif
#   From: 2010.05.17/outbox.cif.g08.bks.cpg/sg2_157_cif.got.tgz:313824.got - 2010.06.03 11:33:40.
