data_PCOD9012546
_publ_section_title
;
Structure prediction by ZEFSAII (Michael W. Deem and Ramdas Pophale) SiO2 
 PCOD9012546
Probable space group: P -1
;
_chemical_formula_sum "Si O2"
_cell_formula_units_Z 12
_cell_length_a 18.255723
_cell_length_b 9.436526
_cell_length_c 11.505061
_cell_angle_alpha 139.741191
_cell_angle_beta 22.571805
_cell_angle_gamma 142.822968
_cell_volume 456.498321
_symmetry_space_group_name_H-M "P -1"
_symmetry_group_IT_number 2
_symmetry_cell_setting 'triclinic'
loop_
_space_group_symop_operation_xyz
x,y,z
-x,-y,-z
loop_
_atom_site_type_symbol
_atom_site_label
_atom_site_fract_x
_atom_site_fract_y
_atom_site_fract_z
Si Si1 0.346561 0.657981 0.896790
Si Si2 0.450969 0.024203 0.787158
Si Si3 0.236676 0.748950 0.727392
Si Si4 0.991665 0.718896 0.573006
Si Si5 0.891432 0.831349 0.163006
Si Si6 0.520889 0.452572 0.118222
O O1 0.480706 0.863988 0.745231
O O2 0.285987 0.395722 0.772099
O O3 0.444690 0.660205 0.881208
O O4 0.134161 0.708447 0.251266
O O5 0.255697 0.874749 0.902523
O O6 0.627826 0.078458 0.465124
O O7 0.462484 0.261541 0.981735
O O8 0.345003 0.559139 0.458293
O O9 0.015050 0.693641 0.965780
O O10 0.000000 0.500000 0.500000
O O11 0.105342 0.968575 0.624574
O O12 0.746224 0.651457 0.881316
O O13 0.000000 0.000000 0.000000
#
# Coordination Sequence:
#
# PCOD9012546 Si02
#       6
#     2   2   2   2   2   2
#     4  11  26  43  74 107 137 183 233 283 339 409
#     4  11  25  44  70 107 143 177 231 285 346 405
#     4  11  27  46  70  99 142 188 228 282 351 407
#     4  10  21  40  71 100 131 181 229 274 339 405
#     4  12  24  47  72  98 137 186 234 279 343 421
#     4  11  23  46  73 103 136 187 228 282 347 408
#
# _framework density 26.287063
#
# number of rings (size 3 to 8) (size 9 to 14) (size 15 to 20)
#    0.000    1.000    3.333    4.000    2.333    4.000 
#    0.000    5.833    0.000    0.000    0.000    0.000 
#    0.000    0.000    0.000    0.000    0.000    0.000 
#
# Total GULP energy -67194.614897 kJ/mol
# GULP energy per Si atom -5599.551241 kJ/mol
# Density = 2.622723 g / cm^3
# Si number density = 26.287063 Si / 1000 Ang^3
#
#
#
# Elastic Constant Matrix: (Units=GPa)
#
#
# Indices 1 2 3 4 5 6 
#
# 1 183.5076 59.8854 64.8656 19.7132 16.4362 19.8118
# 2 59.8854 138.3038 64.8605 22.8683 25.5724 15.3315
# 3 64.8656 64.8605 107.5660 34.6856 2.8764 12.0033
# 4 19.7132 22.8683 34.6856 44.3749 2.5503 12.9306
# 5 16.4362 25.5724 2.8764 2.5503 34.2149 8.6929
# 6 19.8118 15.3315 12.0033 12.9306 8.6929 55.2903
#
#
#
# Elastic Compliance Matrix: (Units=1/GPa)
#
#
# Indices 1 2 3 4 5 6 
#
# 1 0.007413 -0.000914 -0.003966 0.000809 -0.002255 -0.001376
# 2 -0.000914 0.012242 -0.006491 -0.000270 -0.008062 -0.000327
# 3 -0.003966 -0.006491 0.018581 -0.009923 0.005782 0.000599
# 4 0.000809 -0.000270 -0.009923 0.031669 -0.000337 -0.005414
# 5 -0.002255 -0.008062 0.005782 -0.000337 0.036873 -0.003930
# 6 -0.001376 -0.000327 0.000599 -0.005414 -0.003930 0.020424
#
#
# Mechanical properties :
#
#
# Convention : Reuss Voigt Hill
#
# Bulk Modulus (GPa) = 64.54429 89.84449 77.19439
# Shear Modulus (GPa) = 32.23516 42.76040 37.49778
#
# Velocity S-wave (km/s) = 3.50562 4.03758 3.78096
# Velocity P-wave (km/s) = 6.40256 7.48254 6.96352
#
# Compressibility (1/GPa) = 0.01549324
#
# Stress axis : x y z
#
# Youngs Moduli (GPa) = 134.89225 81.68564 53.81872
#
# Poissons Ratio (x) = 0.07467 0.21345
# Poissons Ratio (y) = 0.12331 0.34935
# Poissons Ratio (z) = 0.53500 0.53025
#
# Static dielectric constant tensor:
#      x y z
#    x 2.074600 0.030370 -0.084240 
#    y 0.030370 2.075570 -0.103670 
#    z -0.084240 -0.103670 2.196890 
# 
# From -- ./inp_files/461600.got.cif
#   From: 2010.05.17/outbox.cif.g08.bks.cpg/sg2_231_cif.got.tgz:461600.got - 2010.06.03 11:33:40.
