data_PCOD9012747
_publ_section_title
;
Structure prediction by ZEFSAII (Michael W. Deem and Ramdas Pophale) SiO2 
 PCOD9012747
Probable space group: P -1
;
_chemical_formula_sum "Si O2"
_cell_formula_units_Z 16
_cell_length_a 5.236343
_cell_length_b 6.235981
_cell_length_c 26.834356
_cell_angle_alpha 51.111595
_cell_angle_beta 98.993814
_cell_angle_gamma 104.258979
_cell_volume 661.026885
_symmetry_space_group_name_H-M "P -1"
_symmetry_group_IT_number 2
_symmetry_cell_setting 'triclinic'
loop_
_space_group_symop_operation_xyz
x,y,z
-x,-y,-z
loop_
_atom_site_type_symbol
_atom_site_label
_atom_site_fract_x
_atom_site_fract_y
_atom_site_fract_z
Si Si1 0.680294 0.367765 0.826077
Si Si2 0.905978 0.863619 0.191389
Si Si3 0.433552 0.870235 0.604015
Si Si4 0.220665 0.254122 0.679151
Si Si5 0.344696 0.067301 0.032553
Si Si6 0.022746 0.830742 0.471022
Si Si7 0.329953 0.065560 0.295867
Si Si8 0.169458 0.594346 0.942457
O O1 0.364102 0.284773 0.822738
O O2 0.766264 0.212579 0.899400
O O3 0.843987 0.258784 0.802215
O O4 0.737974 0.702647 0.777576
O O5 0.849773 0.795126 0.257337
O O6 0.938933 0.188569 0.127784
O O7 0.687669 0.021485 0.559915
O O8 0.530566 0.782840 0.673449
O O9 0.226373 0.071221 0.576971
O O10 0.295670 0.577231 0.618643
O O11 0.465608 0.107958 0.695599
O O12 0.941015 0.120650 0.666203
O O13 0.543733 0.240621 0.054573
O O14 0.500000 0.000000 0.000000
O O15 0.187844 0.285258 0.971161
O O16 0.000000 0.500000 0.500000
O O17 0.000000 0.000000 0.500000
O O18 0.000000 0.500000 0.000000
#
# Coordination Sequence:
#
# PCOD9012747 Si02
#       8
#     2   2   2   2   2   2   2   2
#     4  11  23  44  64  98 140 183 237 321 371 453
#     4  11  23  43  67  93 145 180 242 306 388 443
#     4  12  28  52  82 112 167 199 260 313 373 458
#     4  12  27  45  76 109 145 206 247 311 380 458
#     4  10  23  39  63  87 129 176 242 295 378 450
#     4  12  30  54  87 125 169 218 262 323 385 458
#     4  12  27  45  75 110 150 195 258 308 385 444
#     4  10  21  41  60  88 125 181 227 305 370 451
#
# _framework density 24.204763
#
# number of rings (size 3 to 8) (size 9 to 14) (size 15 to 20)
#    0.000    0.750    2.500    3.750    8.750    1.500 
#    0.000    0.000    0.000    0.000    0.000    0.000 
#    0.000    0.000    0.000    0.000    0.000    0.000 
#
# Total GULP energy -89364.871305 kJ/mol
# GULP energy per Si atom -5585.304457 kJ/mol
# Density = 2.414967 g / cm^3
# Si number density = 24.204763 Si / 1000 Ang^3
#
#
#
# Elastic Constant Matrix: (Units=GPa)
#
#
# Indices 1 2 3 4 5 6 
#
# 1 136.6419 46.1278 49.5856 -29.9690 -7.7518 -19.9805
# 2 46.1278 105.5094 56.0825 -36.1620 -4.3899 -21.0066
# 3 49.5856 56.0825 89.7495 -26.1469 -15.5314 -8.3438
# 4 -29.9690 -36.1620 -26.1469 52.8584 8.3300 7.3658
# 5 -7.7518 -4.3899 -15.5314 8.3300 43.6915 1.0898
# 6 -19.9805 -21.0066 -8.3438 7.3658 1.0898 61.3283
#
#
#
# Elastic Compliance Matrix: (Units=1/GPa)
#
#
# Indices 1 2 3 4 5 6 
#
# 1 0.009971 -0.000850 -0.004013 0.002851 -0.000338 0.002075
# 2 -0.000850 0.017451 -0.008492 0.007190 -0.002880 0.003733
# 3 -0.004013 -0.008492 0.019734 0.001089 0.005286 -0.001756
# 4 0.002851 0.007190 0.001089 0.026476 -0.003443 0.000421
# 5 -0.000338 -0.002880 0.005286 -0.003443 0.025084 -0.000410
# 6 0.002075 0.003733 -0.001756 0.000421 -0.000410 0.017978
#
#
# Mechanical properties :
#
#
# Convention : Reuss Voigt Hill
#
# Bulk Modulus (GPa) = 48.90724 70.61028 59.75876
# Shear Modulus (GPa) = 33.28479 43.58262 38.43370
#
# Velocity S-wave (km/s) = 3.71230 4.24793 3.98912
# Velocity P-wave (km/s) = 6.21485 7.30036 6.77937
#
# Compressibility (1/GPa) = 0.02044687
#
# Stress axis : x y z
#
# Youngs Moduli (GPa) = 100.29023 57.30429 50.67382
#
# Poissons Ratio (x) = 0.04872 0.20334
# Poissons Ratio (y) = 0.08527 0.43030
# Poissons Ratio (z) = 0.40243 0.48660
#
# Static dielectric constant tensor:
#      x y z
#    x 1.901230 0.056110 0.008800 
#    y 0.056110 1.973350 0.013050 
#    z 0.008800 0.013050 1.924530 
# 
# From -- ./inp_files/614810.got.cif
#   From: 2010.05.17/outbox.cif.g08.bks.cpg/sg2_308_cif.got.tgz:614810.got - 2010.06.03 11:33:40.
