data_PCOD9012684
_publ_section_title
;
Structure prediction by ZEFSAII (Michael W. Deem and Ramdas Pophale) SiO2 
 PCOD9012684
Probable space group: P -1
;
_chemical_formula_sum "Si O2"
_cell_formula_units_Z 14
_cell_length_a 17.861269
_cell_length_b 7.626159
_cell_length_c 5.162094
_cell_angle_alpha 116.239397
_cell_angle_beta 72.847350
_cell_angle_gamma 78.877583
_cell_volume 558.117100
_symmetry_space_group_name_H-M "P -1"
_symmetry_group_IT_number 2
_symmetry_cell_setting 'triclinic'
loop_
_space_group_symop_operation_xyz
x,y,z
-x,-y,-z
loop_
_atom_site_type_symbol
_atom_site_label
_atom_site_fract_x
_atom_site_fract_y
_atom_site_fract_z
Si Si1 0.418560 0.626396 0.339120
Si Si2 0.833309 0.937316 0.837851
Si Si3 0.981801 0.239234 0.578173
Si Si4 0.547299 0.034407 0.223869
Si Si5 0.125398 0.657683 0.768955
Si Si6 0.688935 0.656365 0.634948
Si Si7 0.724842 0.950193 0.446418
O O1 0.447692 0.737922 0.617052
O O2 0.365979 0.488106 0.392400
O O3 0.352254 0.829096 0.386441
O O4 0.500000 0.500000 0.000000
O O5 0.789650 0.891435 0.105627
O O6 0.932698 0.276258 0.381627
O O7 0.925398 0.760579 0.567220
O O8 0.775152 0.975131 0.668152
O O9 0.925188 0.382168 0.959077
O O10 0.000000 0.000000 0.500000
O O11 0.500000 0.000000 0.500000
O O12 0.500000 0.000000 0.000000
O O13 0.639944 0.854933 0.995518
O O14 0.213690 0.473901 0.487556
O O15 0.152296 0.849570 0.960909
O O16 0.691441 0.765997 0.430698
#
# Coordination Sequence:
#
# PCOD9012684 Si02
#       7
#     2   2   2   2   2   2   2
#     4  12  28  56  87 118 162 223 269 337 420 483
#     4  11  22  47  76 111 161 207 264 335 399 473
#     4  10  21  40  75 113 153 204 270 323 395 484
#     4  12  28  54  80 119 156 205 272 337 395 482
#     4  11  23  43  73 116 151 214 262 323 410 477
#     4  12  29  50  82 117 170 205 277 331 408 484
#     4  12  27  49  75 120 159 205 269 336 395 476
#
# _framework density 25.084341999999999
#
# number of rings (size 3 to 8) (size 9 to 14) (size 15 to 20)
#    0.000    0.571    2.857    6.000    0.000    5.143 
#    0.000    4.286    0.000    0.000    0.000    0.000 
#    0.000    0.000    0.000    0.000    0.000    0.000 
#
# Total GULP energy -78566.627419 kJ/mol
# GULP energy per Si atom -5611.901959 kJ/mol
# Density = 2.502725 g / cm^3
# Si number density = 25.084342 Si / 1000 Ang^3
#
#
#
# Elastic Constant Matrix: (Units=GPa)
#
#
# Indices 1 2 3 4 5 6 
#
# 1 196.7576 85.4994 107.3141 -19.8345 -20.1591 -3.2389
# 2 85.4994 139.6631 63.6150 -11.7586 -2.4374 19.9352
# 3 107.3141 63.6150 191.5220 -19.0970 -16.5502 1.7788
# 4 -19.8345 -11.7586 -19.0970 61.5151 0.7311 -0.6730
# 5 -20.1591 -2.4374 -16.5502 0.7311 66.3958 -14.3987
# 6 -3.2389 19.9352 1.7788 -0.6730 -14.3987 45.6932
#
#
#
# Elastic Compliance Matrix: (Units=1/GPa)
#
#
# Indices 1 2 3 4 5 6 
#
# 1 0.009371 -0.004548 -0.003440 0.001093 0.002593 0.003616
# 2 -0.004548 0.011420 -0.001391 0.000250 -0.002629 -0.006075
# 3 -0.003440 -0.001391 0.007790 0.001036 0.000913 0.000363
# 4 0.001093 0.000250 0.001036 0.016976 0.000484 0.000331
# 5 0.002593 -0.002629 0.000913 0.000484 0.017449 0.006801
# 6 0.003616 -0.006075 0.000363 0.000331 0.006801 0.026926
#
#
# Mechanical properties :
#
#
# Convention : Reuss Voigt Hill
#
# Bulk Modulus (GPa) = 101.81190 115.64440 108.72815
# Shear Modulus (GPa) = 44.65742 52.82178 48.73960
#
# Velocity S-wave (km/s) = 4.22393 4.59384 4.41276
# Velocity P-wave (km/s) = 8.02899 8.62207 8.33081
#
# Compressibility (1/GPa) = 0.00982203
#
# Stress axis : x y z
#
# Youngs Moduli (GPa) = 106.71773 87.56433 128.37215
#
# Poissons Ratio (x) = 0.39826 0.44165
# Poissons Ratio (y) = 0.48538 0.17852
# Poissons Ratio (z) = 0.36715 0.12177
#
# Static dielectric constant tensor:
#      x y z
#    x 2.023900 0.004460 0.006070 
#    y 0.004460 1.997710 0.028730 
#    z 0.006070 0.028730 1.970490 
# 
# From -- ./inp_files/105922.got.cif
#   From: 2010.05.17/outbox.cif.g08.bks.cpg/sg2_53_cif.got.tgz:105922.got - 2010.06.03 11:33:40.
