data_PCOD9012992
_publ_section_title
;
Structure prediction by ZEFSAII (Michael W. Deem and Ramdas Pophale) SiO2 
 PCOD9012992
Probable space group: P -1
;
_chemical_formula_sum "Si O2"
_cell_formula_units_Z 13
_cell_length_a 9.897377
_cell_length_b 11.546142
_cell_length_c 5.242605
_cell_angle_alpha 84.626859
_cell_angle_beta 90.943026
_cell_angle_gamma 128.086348
_cell_volume 468.821467
_symmetry_space_group_name_H-M "P -1"
_symmetry_group_IT_number 2
_symmetry_cell_setting 'triclinic'
loop_
_space_group_symop_operation_xyz
x,y,z
-x,-y,-z
loop_
_atom_site_type_symbol
_atom_site_label
_atom_site_fract_x
_atom_site_fract_y
_atom_site_fract_z
Si Si1 0.430938 0.650219 0.358074
Si Si2 0.733835 0.292642 0.023792
Si Si3 0.888405 0.197841 0.404712
Si Si4 0.371088 0.090012 0.288023
Si Si5 0.000000 0.000000 0.500000
Si Si6 0.820956 0.575059 0.257289
Si Si7 0.237691 0.216634 0.942303
O O1 0.548238 0.793390 0.506888
O O2 0.343469 0.502020 0.543904
O O3 0.556925 0.677152 0.131728
O O4 0.278229 0.654450 0.261193
O O5 0.844320 0.245419 0.139717
O O6 0.533108 0.153349 0.099415
O O7 0.797635 0.437324 0.159950
O O8 0.956352 0.106313 0.365703
O O9 0.015419 0.327750 0.576570
O O10 0.715315 0.073128 0.583784
O O11 0.223972 0.103306 0.173611
O O12 0.129021 0.127652 0.707270
O O13 0.806841 0.672456 0.034648
#
# Coordination Sequence:
#
# PCOD9012992 Si02
#       7
#     2   2   2   2   1   2   2
#     4  10  21  41  62  94 127 164 211 247 310 371
#     4  10  23  42  64  93 124 169 204 255 310 368
#     4  11  22  44  63  93 131 155 215 256 308 374
#     4  10  22  41  68  93 122 167 206 260 310 358
#     4  10  22  40  62  94 118 164 198 260 310 354
#     4  10  23  39  63  93 126 167 202 256 314 362
#     4  10  21  41  64  94 126 159 213 254 308 367
#
# _framework density 27.729106000000002
#
# number of rings (size 3 to 8) (size 9 to 14) (size 15 to 20)
#    0.000    1.846    1.538    1.385    0.000   10.462 
#   11.077    0.000    0.000    0.000    0.000    0.000 
#    0.000    0.000    0.000    0.000    0.000    0.000 
#
# Total GULP energy -72661.653069 kJ/mol
# GULP energy per Si atom -5589.357928 kJ/mol
# Density = 2.766599 g / cm^3
# Si number density = 27.729106 Si / 1000 Ang^3
#
#
#
# Elastic Constant Matrix: (Units=GPa)
#
#
# Indices 1 2 3 4 5 6 
#
# 1 128.2024 38.4809 30.1663 -14.1444 44.9686 -22.2192
# 2 38.4809 135.3851 32.2603 -18.1098 9.7543 19.2880
# 3 30.1663 32.2603 106.1560 -22.0956 46.1800 -14.2144
# 4 -14.1444 -18.1098 -22.0956 48.2428 1.4818 10.1355
# 5 44.9686 9.7543 46.1800 1.4818 51.3768 -19.8725
# 6 -22.2192 19.2880 -14.2144 10.1355 -19.8725 40.3216
#
#
#
# Elastic Compliance Matrix: (Units=1/GPa)
#
#
# Indices 1 2 3 4 5 6 
#
# 1 0.014207 -0.003866 0.005369 0.005119 -0.015687 0.002553
# 2 -0.003866 0.010924 -0.002749 0.003632 0.000127 -0.009176
# 3 0.005369 -0.002749 0.021933 0.012154 -0.025675 -0.003703
# 4 0.005119 0.003632 0.012154 0.032773 -0.022425 -0.013922
# 5 -0.015687 0.000127 -0.025675 -0.022425 0.064504 0.019671
# 6 0.002553 -0.009176 -0.003703 -0.013922 0.019671 0.042486
#
#
# Mechanical properties :
#
#
# Convention : Reuss Voigt Hill
#
# Bulk Modulus (GPa) = 22.43576 63.50652 42.97114
# Shear Modulus (GPa) = 24.48865 45.91064 35.19965
#
# Velocity S-wave (km/s) = 2.97499 4.07342 3.56675
# Velocity P-wave (km/s) = 4.46199 6.71386 5.70023
#
# Compressibility (1/GPa) = 0.04457170
#
# Stress axis : x y z
#
# Youngs Moduli (GPa) = 70.38838 91.53985 45.59375
#
# Poissons Ratio (x) = 0.35392 -0.24480
# Poissons Ratio (y) = 0.27214 0.12534
# Poissons Ratio (z) = -0.37793 0.25165
#
# Static dielectric constant tensor:
#      x y z
#    x 1.976870 -0.012080 0.131430 
#    y -0.012080 2.011170 -0.001370 
#    z 0.131430 -0.001370 1.967560 
# 
# From -- ./inp_files/23339.got.cif
#   From: 2010.05.17/outbox.cif.g08.bks.cpg/sg2_12_cif.got.tgz:23339.got - 2010.06.03 11:33:40.
