data_PCOD9012455
_publ_section_title
;
Structure prediction by ZEFSAII (Michael W. Deem and Ramdas Pophale) SiO2 
 PCOD9012455
Probable space group: P -1
;
_chemical_formula_sum "Si O2"
_cell_formula_units_Z 15
_cell_length_a 9.407893
_cell_length_b 7.299900
_cell_length_c 14.703088
_cell_angle_alpha 83.419030
_cell_angle_beta 135.221776
_cell_angle_gamma 74.421729
_cell_volume 611.865566
_symmetry_space_group_name_H-M "P -1"
_symmetry_group_IT_number 2
_symmetry_cell_setting 'triclinic'
loop_
_space_group_symop_operation_xyz
x,y,z
-x,-y,-z
loop_
_atom_site_type_symbol
_atom_site_label
_atom_site_fract_x
_atom_site_fract_y
_atom_site_fract_z
Si Si1 0.606047 0.685218 0.998731
Si Si2 0.915785 0.572951 0.673577
Si Si3 0.269698 0.941997 0.990339
Si Si4 0.208361 0.983504 0.466037
Si Si5 0.000000 0.500000 0.500000
Si Si6 0.560062 0.694744 0.302619
Si Si7 0.238586 0.741034 0.314430
Si Si8 0.297911 0.740672 0.691353
O O1 0.504093 0.642886 0.863519
O O2 0.659597 0.874988 0.991133
O O3 0.407069 0.780968 0.979954
O O4 0.841471 0.495870 0.159427
O O5 0.769450 0.826146 0.580475
O O6 0.980038 0.472736 0.607647
O O7 0.796397 0.461780 0.680407
O O8 0.361795 0.818262 0.133160
O O9 0.994954 0.063595 0.845433
O O10 0.939085 0.100074 0.373252
O O11 0.253562 0.818577 0.416178
O O12 0.355003 0.844107 0.626445
O O13 0.765218 0.747848 0.388192
O O14 0.449247 0.694821 0.346771
O O15 0.736730 0.448347 0.360133
#
# Coordination Sequence:
#
# PCOD9012455 Si02
#       8
#     2   2   2   2   1   2   2   2
#     4  10  21  40  70 108 134 182 243 289 340 425
#     4  11  25  44  73 103 145 189 231 297 351 418
#     4  10  21  40  72 103 138 186 231 291 357 413
#     4  11  24  43  71 105 138 192 234 297 347 418
#     4  12  24  42  74 100 134 186 246 272 354 416
#     4  12  26  45  72 104 142 191 225 304 353 418
#     4  11  26  48  70 105 150 180 238 289 365 420
#     4  11  24  41  70 107 138 180 250 285 346 428
#
# _framework density 24.51519
#
# number of rings (size 3 to 8) (size 9 to 14) (size 15 to 20)
#    0.000    1.067    4.000    1.200    5.600    3.200 
#    2.400    2.667    0.000    0.000    0.000    0.000 
#    0.000    0.000    0.000    0.000    0.000    0.000 
#
# Total GULP energy -83865.893113 kJ/mol
# GULP energy per Si atom -5591.059541 kJ/mol
# Density = 2.445939 g / cm^3
# Si number density = 24.515190 Si / 1000 Ang^3
#
#
#
# Elastic Constant Matrix: (Units=GPa)
#
#
# Indices 1 2 3 4 5 6 
#
# 1 140.0315 43.6497 46.0011 -2.8298 0.6064 -19.3474
# 2 43.6497 88.7154 34.1230 -0.4993 -4.9237 11.1235
# 3 46.0011 34.1230 192.9507 6.7385 -5.1635 -4.3746
# 4 -2.8298 -0.4993 6.7385 35.9511 0.3546 -1.4601
# 5 0.6064 -4.9237 -5.1635 0.3546 34.8663 -4.1927
# 6 -19.3474 11.1235 -4.3746 -1.4601 -4.1927 34.2379
#
#
#
# Elastic Compliance Matrix: (Units=1/GPa)
#
#
# Indices 1 2 3 4 5 6 
#
# 1 0.010383 -0.005527 -0.001381 0.001307 -0.000276 0.007508
# 2 -0.005527 0.015712 -0.001611 -0.000263 0.001079 -0.008313
# 3 -0.001381 -0.001611 0.005871 -0.001217 0.000742 0.000532
# 4 0.001307 -0.000263 -0.001217 0.028220 -0.000307 0.001834
# 5 -0.000276 0.001079 0.000742 -0.000307 0.029332 0.003167
# 6 0.007508 -0.008313 0.000532 0.001834 0.003167 0.036685
#
#
# Mechanical properties :
#
#
# Convention : Reuss Voigt Hill
#
# Bulk Modulus (GPa) = 66.98835 74.36055 70.67445
# Shear Modulus (GPa) = 33.73444 40.87265 37.30354
#
# Velocity S-wave (km/s) = 3.71356 4.08761 3.90507
# Velocity P-wave (km/s) = 6.76549 7.25785 7.01599
#
# Compressibility (1/GPa) = 0.01492797
#
# Stress axis : x y z
#
# Youngs Moduli (GPa) = 96.31566 63.64683 170.32125
#
# Poissons Ratio (x) = 0.35176 0.23516
# Poissons Ratio (y) = 0.53231 0.27445
# Poissons Ratio (z) = 0.13298 0.10256
#
# Static dielectric constant tensor:
#      x y z
#    x 2.092440 0.141990 0.169460 
#    y 0.141990 2.022430 0.092100 
#    z 0.169460 0.092100 2.095960 
# 
# From -- ./inp_files/319173.got.cif
#   From: 2010.05.17/outbox.cif.g08.bks.cpg/sg2_160_cif.got.tgz:319173.got - 2010.06.03 11:33:40.
