data_PCOD9012100
_publ_section_title
;
Structure prediction by ZEFSAII (Michael W. Deem and Ramdas Pophale) SiO2 
 PCOD9012100
Probable space group: P -1
;
_chemical_formula_sum "Si O2"
_cell_formula_units_Z 12
_cell_length_a 13.851297
_cell_length_b 10.767206
_cell_length_c 9.684541
_cell_angle_alpha 52.274611
_cell_angle_beta 140.159976
_cell_angle_gamma 147.291436
_cell_volume 497.563828
_symmetry_space_group_name_H-M "P -1"
_symmetry_group_IT_number 2
_symmetry_cell_setting 'triclinic'
loop_
_space_group_symop_operation_xyz
x,y,z
-x,-y,-z
loop_
_atom_site_type_symbol
_atom_site_label
_atom_site_fract_x
_atom_site_fract_y
_atom_site_fract_z
Si Si1 0.797119 0.785003 0.522382
Si Si2 0.828343 0.489496 0.387547
Si Si3 0.928983 0.056490 0.762469
Si Si4 0.369344 0.629634 0.202626
Si Si5 0.530175 0.990688 0.347599
Si Si6 0.052104 0.547735 0.188878
O O1 0.563970 0.690181 0.294372
O O2 0.719931 0.547506 0.645023
O O3 0.857153 0.899252 0.660380
O O4 0.000000 0.000000 0.500000
O O5 0.919988 0.571975 0.590333
O O6 0.000000 0.500000 0.500000
O O7 0.858730 0.680200 0.226890
O O8 0.605336 0.226801 0.287981
O O9 0.723647 0.019001 0.590501
O O10 0.000000 0.000000 0.000000
O O11 0.471213 0.869188 0.215491
O O12 0.157916 0.508849 0.959175
O O13 0.295792 0.803940 0.293406
O O14 0.000000 0.500000 0.000000
#
# Coordination Sequence:
#
# PCOD9012100 Si02
#       6
#     2   2   2   2   2   2
#     4  10  22  42  68  98 134 178 229 267 329 405
#     4  10  22  41  65  97 132 168 223 274 330 399
#     4  10  23  43  65  93 138 176 219 278 333 391
#     4   9  21  42  68  99 139 170 217 289 329 388
#     4   9  20  42  67  96 132 168 218 282 327 396
#     4  10  21  40  68  95 131 170 218 276 337 385
#
# _framework density 24.117511
#
# number of rings (size 3 to 8) (size 9 to 14) (size 15 to 20)
#    0.000    2.333    0.000    0.500    9.333    0.000 
#    6.000    8.333    0.000    0.000    0.000    0.000 
#    0.000    0.000    0.000    0.000    0.000    0.000 
#
# Total GULP energy -66868.992751 kJ/mol
# GULP energy per Si atom -5572.416063 kJ/mol
# Density = 2.406262 g / cm^3
# Si number density = 24.117511 Si / 1000 Ang^3
#
#
#
# Elastic Constant Matrix: (Units=GPa)
#
#
# Indices 1 2 3 4 5 6 
#
# 1 70.8433 26.1697 34.6042 5.0848 -13.0462 9.3420
# 2 26.1697 149.9204 86.4176 -5.1795 7.5317 7.3100
# 3 34.6042 86.4176 133.9778 -11.9087 8.3597 16.0813
# 4 5.0848 -5.1795 -11.9087 29.0993 12.3286 5.1379
# 5 -13.0462 7.5317 8.3597 12.3286 37.9867 12.2445
# 6 9.3420 7.3100 16.0813 5.1379 12.2445 46.9415
#
#
#
# Elastic Compliance Matrix: (Units=1/GPa)
#
#
# Indices 1 2 3 4 5 6 
#
# 1 0.021665 -0.001039 -0.006342 -0.011850 0.014311 -0.004413
# 2 -0.001039 0.010738 -0.006755 -0.000344 -0.001281 0.001221
# 3 -0.006342 -0.006755 0.014921 0.009094 -0.006389 -0.002127
# 4 -0.011850 -0.000344 0.009094 0.049456 -0.021926 -0.000397
# 5 0.014311 -0.001281 -0.006389 -0.021926 0.043007 -0.009278
# 6 -0.004413 0.001221 -0.002127 -0.000397 -0.009278 0.025184
#
#
# Mechanical properties :
#
#
# Convention : Reuss Voigt Hill
#
# Bulk Modulus (GPa) = 52.48740 72.12493 62.30617
# Shear Modulus (GPa) = 25.05075 36.64218 30.84646
#
# Velocity S-wave (km/s) = 3.22638 3.90207 3.58020
# Velocity P-wave (km/s) = 5.97409 7.09028 6.55599
#
# Compressibility (1/GPa) = 0.01905219
#
# Stress axis : x y z
#
# Youngs Moduli (GPa) = 46.15669 93.12359 67.01808
#
# Poissons Ratio (x) = 0.09679 0.42502
# Poissons Ratio (y) = 0.04797 0.45272
# Poissons Ratio (z) = 0.29272 0.62906
#
# Static dielectric constant tensor:
#      x y z
#    x 2.064360 0.004200 0.015430 
#    y 0.004200 2.038040 -0.038500 
#    z 0.015430 -0.038500 1.955500 
# 
# From -- ./inp_files/306638.got.cif
#   From: 2010.05.17/outbox.cif.g08.bks.cpg/sg2_154_cif.got.tgz:306638.got - 2010.06.03 11:33:40.
