data_PCOD9012764
_publ_section_title
;
Structure prediction by ZEFSAII (Michael W. Deem and Ramdas Pophale) SiO2 
 PCOD9012764
Probable space group: P -1
;
_chemical_formula_sum "Si O2"
_cell_formula_units_Z 16
_cell_length_a 5.501243
_cell_length_b 12.067937
_cell_length_c 9.565272
_cell_angle_alpha 96.259946
_cell_angle_beta 82.302080
_cell_angle_gamma 109.400508
_cell_volume 592.153872
_symmetry_space_group_name_H-M "P -1"
_symmetry_group_IT_number 2
_symmetry_cell_setting 'triclinic'
loop_
_space_group_symop_operation_xyz
x,y,z
-x,-y,-z
loop_
_atom_site_type_symbol
_atom_site_label
_atom_site_fract_x
_atom_site_fract_y
_atom_site_fract_z
Si Si1 0.833150 0.641573 0.754690
Si Si2 0.458692 0.187408 0.553149
Si Si3 0.957260 0.674693 0.441649
Si Si4 0.903682 0.966007 0.212497
Si Si5 0.315977 0.594989 0.087416
Si Si6 0.415587 0.173922 0.248987
Si Si7 0.200921 0.404599 0.839338
Si Si8 0.829554 0.150404 0.035965
O O1 0.770045 0.515667 0.814151
O O2 0.608544 0.696209 0.739184
O O3 0.950893 0.631605 0.593713
O O4 0.997988 0.741031 0.864063
O O5 0.736081 0.266566 0.606072
O O6 0.541915 0.159828 0.386570
O O7 0.223963 0.241405 0.547998
O O8 0.314858 0.088697 0.662600
O O9 0.810225 0.580981 0.322553
O O10 0.140063 0.073184 0.269511
O O11 0.039192 0.877377 0.119016
O O12 0.796002 0.029576 0.108855
O O13 0.603340 0.659661 0.126409
O O14 0.100182 0.657041 0.107834
O O15 0.290020 0.526527 0.933904
O O16 0.547238 0.161646 0.089396
#
# Coordination Sequence:
#
# PCOD9012764 Si02
#       8
#     2   2   2   2   2   2   2   2
#     4  10  23  40  64  96 128 173 213 266 327 383
#     4  11  24  41  65  96 130 178 218 267 323 382
#     4  11  24  43  65  97 134 167 221 267 319 391
#     4  10  23  38  60  95 124 177 221 268 324 377
#     4  10  23  42  68  95 129 168 210 260 329 386
#     4  10  21  41  63  90 134 171 219 274 316 386
#     4  10  23  44  64  97 131 164 211 267 318 394
#     4  10  21  41  60  90 133 164 222 272 316 385
#
# _framework density 27.020005999999999
#
# number of rings (size 3 to 8) (size 9 to 14) (size 15 to 20)
#    0.000    1.750    1.250    1.500    5.250    1.500 
#    0.000    0.000    0.000    0.000    0.000    0.000 
#    0.000    0.000    0.000    0.000    0.000    0.000 
#
# Total GULP energy -89390.553254 kJ/mol
# GULP energy per Si atom -5586.909578 kJ/mol
# Density = 2.695851 g / cm^3
# Si number density = 27.020006 Si / 1000 Ang^3
#
#
#
# Elastic Constant Matrix: (Units=GPa)
#
#
# Indices 1 2 3 4 5 6 
#
# 1 150.6403 34.3041 33.5321 1.4694 -2.1268 10.1938
# 2 34.3041 88.9033 40.4064 -12.1489 -0.5938 11.9662
# 3 33.5321 40.4064 155.0181 -3.7697 6.9376 27.1762
# 4 1.4694 -12.1489 -3.7697 36.2881 6.5001 -8.0562
# 5 -2.1268 -0.5938 6.9376 6.5001 43.7449 9.5003
# 6 10.1938 11.9662 27.1762 -8.0562 9.5003 47.3714
#
#
#
# Elastic Compliance Matrix: (Units=1/GPa)
#
#
# Indices 1 2 3 4 5 6 
#
# 1 0.007514 -0.002598 -0.000867 -0.001632 0.000911 -0.000924
# 2 -0.002598 0.014278 -0.002946 0.004445 0.000005 -0.000603
# 3 -0.000867 -0.002946 0.008063 -0.000874 -0.000414 -0.003760
# 4 -0.001632 0.004445 -0.000874 0.031472 -0.005918 0.006269
# 5 0.000911 0.000005 -0.000414 -0.005918 0.025155 -0.006011
# 6 -0.000924 -0.000603 -0.003760 0.006269 -0.006011 0.025890
#
#
# Mechanical properties :
#
#
# Convention : Reuss Voigt Hill
#
# Bulk Modulus (GPa) = 58.70913 67.89410 63.30162
# Shear Modulus (GPa) = 38.20528 44.56883 41.38705
#
# Velocity S-wave (km/s) = 3.76435 4.06578 3.91796
# Velocity P-wave (km/s) = 6.37722 6.87187 6.62916
#
# Compressibility (1/GPa) = 0.01703313
#
# Stress axis : x y z
#
# Youngs Moduli (GPa) = 133.08141 70.03654 124.02651
#
# Poissons Ratio (x) = 0.18197 0.10749
# Poissons Ratio (y) = 0.34577 0.36541
# Poissons Ratio (z) = 0.11534 0.20634
#
# Static dielectric constant tensor:
#      x y z
#    x 2.280360 -0.019690 -0.056100 
#    y -0.019690 2.079510 -0.011530 
#    z -0.056100 -0.011530 2.212830 
# 
# From -- ./inp_files/135508.got.cif
#   From: 2010.05.17/outbox.cif.g08.bks.cpg/sg2_68_cif.got.tgz:135508.got - 2010.06.03 11:33:40.
