data_PCOD9012173
_publ_section_title
;
Structure prediction by ZEFSAII (Michael W. Deem and Ramdas Pophale) SiO2 
 PCOD9012173
Probable space group: P -1
;
_chemical_formula_sum "Si O2"
_cell_formula_units_Z 16
_cell_length_a 8.986604
_cell_length_b 14.716960
_cell_length_c 21.287739
_cell_angle_alpha 160.454083
_cell_angle_beta 125.408696
_cell_angle_gamma 51.769024
_cell_volume 739.833652
_symmetry_space_group_name_H-M "P -1"
_symmetry_group_IT_number 2
_symmetry_cell_setting 'triclinic'
loop_
_space_group_symop_operation_xyz
x,y,z
-x,-y,-z
loop_
_atom_site_type_symbol
_atom_site_label
_atom_site_fract_x
_atom_site_fract_y
_atom_site_fract_z
Si Si1 0.389479 0.601042 0.365152
Si Si2 0.661566 0.865957 0.525637
Si Si3 0.627886 0.545065 0.505721
Si Si4 0.320481 0.379388 0.753372
Si Si5 0.530177 0.824123 0.098000
Si Si6 0.001832 0.215751 0.355026
Si Si7 0.814582 0.763431 0.238421
Si Si8 0.180297 0.290343 0.022821
O O1 0.513756 0.698809 0.405298
O O2 0.541713 0.467171 0.368936
O O3 0.285394 0.385874 0.169768
O O4 0.241779 0.893182 0.544475
O O5 0.769097 0.717909 0.393771
O O6 0.800113 0.886693 0.628995
O O7 0.531114 0.167648 0.671579
O O8 0.500000 0.500000 0.500000
O O9 0.833607 0.364473 0.457175
O O10 0.593631 0.876654 0.711973
O O11 0.221429 0.347636 0.773629
O O12 0.369415 0.669478 0.943717
O O13 0.669717 0.704037 0.112392
O O14 0.667195 0.816478 0.066003
O O15 0.000000 0.500000 0.500000
O O16 0.929579 0.946342 0.139965
O O17 0.024867 0.580175 0.152550
#
# Coordination Sequence:
#
# PCOD9012173 Si02
#       8
#     2   2   2   2   2   2   2   2
#     4  10  22  44  68  94 135 169 212 271 330 387
#     4  10  21  42  68  97 132 173 211 273 325 384
#     4  11  24  45  64  93 131 175 216 271 328 378
#     4  10  21  40  68  98 133 168 218 264 335 386
#     4  11  22  41  66  94 134 172 217 265 329 393
#     4  12  26  44  67  93 132 174 224 268 318 388
#     4  10  23  38  66 104 132 165 209 278 328 385
#     4  12  24  42  68 100 126 172 221 267 327 392
#
# _framework density 21.626484000000001
#
# number of rings (size 3 to 8) (size 9 to 14) (size 15 to 20)
#    0.000    1.250    3.750    1.875    1.750    1.500 
#    2.250    0.625    0.000    0.000    0.000    0.000 
#    0.000    0.000    0.000    0.000    0.000    0.000 
#
# Total GULP energy -89228.425206 kJ/mol
# GULP energy per Si atom -5576.776575 kJ/mol
# Density = 2.157726 g / cm^3
# Si number density = 21.626484 Si / 1000 Ang^3
#
#
#
# Elastic Constant Matrix: (Units=GPa)
#
#
# Indices 1 2 3 4 5 6 
#
# 1 38.8612 -13.1211 20.4129 -2.6713 -2.8841 3.6011
# 2 -13.1211 41.2594 26.1506 1.5697 1.4724 -2.8358
# 3 20.4129 26.1506 112.4153 -21.8968 13.3382 -4.1526
# 4 -2.6713 1.5697 -21.8968 16.9798 -2.5402 -5.2081
# 5 -2.8841 1.4724 13.3382 -2.5402 35.5325 2.8935
# 6 3.6011 -2.8358 -4.1526 -5.2081 2.8935 33.2828
#
#
#
# Elastic Compliance Matrix: (Units=1/GPa)
#
#
# Indices 1 2 3 4 5 6 
#
# 1 0.046229 0.027973 -0.021101 -0.024113 0.009593 -0.009858
# 2 0.027973 0.048639 -0.023785 -0.031946 0.007510 -0.007502
# 3 -0.021101 -0.023785 0.026424 0.034604 -0.008966 0.009748
# 4 -0.024113 -0.031946 0.034604 0.108220 -0.007662 0.021805
# 5 0.009593 0.007510 -0.008966 -0.007662 0.031875 -0.005487
# 6 -0.009858 -0.007502 0.009748 0.021805 -0.005487 0.035578
#
#
# Mechanical properties :
#
#
# Convention : Reuss Voigt Hill
#
# Bulk Modulus (GPa) = 11.43289 28.82451 20.12870
# Shear Modulus (GPa) = 13.89091 27.76525 20.82808
#
# Velocity S-wave (km/s) = 2.53713 3.58698 3.10672
# Velocity P-wave (km/s) = 3.72568 5.52381 4.71133
#
# Compressibility (1/GPa) = 0.08746697
#
# Stress axis : x y z
#
# Youngs Moduli (GPa) = 21.63147 20.55943 37.84386
#
# Poissons Ratio (x) = -0.57510 0.79854
# Poissons Ratio (y) = -0.60509 0.90011
# Poissons Ratio (z) = 0.45644 0.48900
#
# Static dielectric constant tensor:
#      x y z
#    x 1.797310 0.021540 0.030380 
#    y 0.021540 1.746440 -0.013560 
#    z 0.030380 -0.013560 1.837580 
# 
# From -- ./inp_files/185700.got.cif
#   From: 2010.05.17/outbox.cif.g08.bks.cpg/sg2_93_cif.got.tgz:185700.got - 2010.06.03 11:33:40.
