data_PCOD9012942
_publ_section_title
;
Structure prediction by ZEFSAII (Michael W. Deem and Ramdas Pophale) SiO2 
 PCOD9012942
Probable space group: P -1
;
_chemical_formula_sum "Si O2"
_cell_formula_units_Z 16
_cell_length_a 10.777321
_cell_length_b 12.515382
_cell_length_c 9.878853
_cell_angle_alpha 63.616890
_cell_angle_beta 102.471604
_cell_angle_gamma 51.935540
_cell_volume 676.073079
_symmetry_space_group_name_H-M "P -1"
_symmetry_group_IT_number 2
_symmetry_cell_setting 'triclinic'
loop_
_space_group_symop_operation_xyz
x,y,z
-x,-y,-z
loop_
_atom_site_type_symbol
_atom_site_label
_atom_site_fract_x
_atom_site_fract_y
_atom_site_fract_z
Si Si1 0.374390 0.090510 0.119290
Si Si2 0.421918 0.424409 0.173158
Si Si3 0.719225 0.193162 0.121151
Si Si4 0.150628 0.281645 0.484197
Si Si5 0.780615 0.028811 0.946513
Si Si6 0.818268 0.089331 0.641770
Si Si7 0.995109 0.642236 0.304789
Si Si8 0.046625 0.288147 0.155659
O O1 0.611282 0.953447 0.292403
O O2 0.384891 0.940192 0.176572
O O3 0.209392 0.233918 0.125193
O O4 0.242276 0.230743 0.874758
O O5 0.344893 0.619630 0.023255
O O6 0.199156 0.520026 0.067021
O O7 0.570345 0.269118 0.168488
O O8 0.582539 0.298788 0.409187
O O9 0.691515 0.145745 0.000226
O O10 0.980293 0.988652 0.327210
O O11 0.002638 0.355518 0.534741
O O12 0.064334 0.311468 0.301706
O O13 0.159707 0.418551 0.415233
O O14 0.828572 0.087447 0.808474
O O15 0.986123 0.781684 0.163151
O O16 0.873116 0.910281 0.720795
#
# Coordination Sequence:
#
# PCOD9012942 Si02
#       8
#     2   2   2   2   2   2   2   2
#     4   9  21  40  58  89 124 155 201 252 293 362
#     4  10  23  40  62  92 122 157 206 250 295 370
#     4  10  21  41  63  91 124 155 201 250 304 362
#     4  11  21  40  65  88 122 165 201 246 310 349
#     4   9  21  41  59  91 127 153 197 257 295 359
#     4  10  21  41  62  91 121 162 199 247 304 365
#     4   9  23  39  58  93 121 155 205 254 289 370
#     4  10  23  39  61  91 122 157 207 248 298 359
#
# _framework density 23.666080999999998
#
# number of rings (size 3 to 8) (size 9 to 14) (size 15 to 20)
#    0.750    1.500    0.000    1.500    1.750    6.000 
#    2.250    0.000    0.000    0.000    0.000    0.000 
#    0.000    0.000    0.000    0.000    0.000    0.000 
#
# Total GULP energy -89357.653186 kJ/mol
# GULP energy per Si atom -5584.853324 kJ/mol
# Density = 2.361222 g / cm^3
# Si number density = 23.666081 Si / 1000 Ang^3
#
#
#
# Elastic Constant Matrix: (Units=GPa)
#
#
# Indices 1 2 3 4 5 6 
#
# 1 23.3856 14.9795 12.8416 -3.3452 1.3322 3.5581
# 2 14.9795 80.5326 46.0838 37.2726 7.4998 8.3379
# 3 12.8416 46.0838 121.1469 8.7227 14.0144 -7.3616
# 4 -3.3452 37.2726 8.7227 44.8796 -5.3329 -3.1061
# 5 1.3322 7.4998 14.0144 -5.3329 24.6137 1.6886
# 6 3.5581 8.3379 -7.3616 -3.1061 1.6886 19.5232
#
#
#
# Elastic Compliance Matrix: (Units=1/GPa)
#
#
# Indices 1 2 3 4 5 6 
#
# 1 0.061690 -0.025294 0.000183 0.026957 0.009895 0.003062
# 2 -0.025294 0.048164 -0.012577 -0.042884 -0.013630 -0.026346
# 3 0.000183 -0.012577 0.013481 0.008327 -0.002872 0.011994
# 4 0.026957 -0.042884 0.008327 0.062222 0.018644 0.024829
# 5 0.009895 -0.013630 -0.002872 0.018644 0.049811 0.001593
# 6 0.003062 -0.026346 0.011994 0.024829 0.001593 0.070250
#
#
# Mechanical properties :
#
#
# Convention : Reuss Voigt Hill
#
# Bulk Modulus (GPa) = 20.85136 41.43055 31.14095
# Shear Modulus (GPa) = 12.59511 27.88064 20.23787
#
# Velocity S-wave (km/s) = 2.30945 3.43605 2.92745
# Velocity P-wave (km/s) = 3.99264 5.76942 4.96122
#
# Compressibility (1/GPa) = 0.04795851
#
# Stress axis : x y z
#
# Youngs Moduli (GPa) = 16.21021 20.76231 74.18041
#
# Poissons Ratio (x) = 0.52517 -0.01360
# Poissons Ratio (y) = 0.41003 0.93295
# Poissons Ratio (z) = -0.00297 0.26112
#
# Static dielectric constant tensor:
#      x y z
#    x 1.949600 -0.011740 -0.003320 
#    y -0.011740 1.901480 -0.017920 
#    z -0.003320 -0.017920 1.874420 
# 
# From -- ./inp_files/315126.got.cif
#   From: 2010.05.17/outbox.cif.g08.bks.cpg/sg2_158_cif.got.tgz:315126.got - 2010.06.03 11:33:40.
