data_PCOD9012897
_publ_section_title
;
Structure prediction by ZEFSAII (Michael W. Deem and Ramdas Pophale) SiO2 
 PCOD9012897
Probable space group: P -1
;
_chemical_formula_sum "Si O2"
_cell_formula_units_Z 10
_cell_length_a 8.541638
_cell_length_b 12.548536
_cell_length_c 11.825006
_cell_angle_alpha 48.018686
_cell_angle_beta 129.499033
_cell_angle_gamma 152.419280
_cell_volume 432.781611
_symmetry_space_group_name_H-M "P -1"
_symmetry_group_IT_number 2
_symmetry_cell_setting 'triclinic'
loop_
_space_group_symop_operation_xyz
x,y,z
-x,-y,-z
loop_
_atom_site_type_symbol
_atom_site_label
_atom_site_fract_x
_atom_site_fract_y
_atom_site_fract_z
Si Si1 0.314595 0.702126 0.417640
Si Si2 0.446426 0.622101 0.327530
Si Si3 0.214167 0.150694 0.295711
Si Si4 0.316620 0.029140 0.218125
Si Si5 0.502306 0.609570 0.107489
O O1 0.223630 0.592828 0.329399
O O2 0.615161 0.777233 0.555790
O O3 0.000000 0.500000 0.500000
O O4 0.424069 0.929170 0.312054
O O5 0.500000 0.500000 0.500000
O O6 0.345065 0.544893 0.205809
O O7 0.811918 0.907819 0.288072
O O8 0.351021 0.103528 0.309412
O O9 0.323193 0.367761 0.146093
O O10 0.500988 0.249347 0.067629
O O11 0.905859 0.802078 0.169456
#
# Coordination Sequence:
#
# PCOD9012897 Si02
#       5
#     2   2   2   2   2
#     4  12  22  40  63  92 119 157 205 251 292 351
#     4  11  23  40  64  88 122 160 201 246 299 360
#     4  11  21  41  65  86 120 164 199 240 305 357
#     4  10  22  38  62  93 121 155 202 248 294 354
#     4  10  21  41  62  87 124 162 195 242 305 359
#
# _framework density 23.106341
#
# number of rings (size 3 to 8) (size 9 to 14) (size 15 to 20)
#    0.000    1.200    4.000    3.000    0.000    0.800 
#    0.000    1.000    0.000    0.000    0.000    0.000 
#    0.000    0.000    0.000    0.000    0.000    0.000 
#
# Total GULP energy -55974.864451 kJ/mol
# GULP energy per Si atom -5597.486445 kJ/mol
# Density = 2.305375 g / cm^3
# Si number density = 23.106341 Si / 1000 Ang^3
#
#
#
# Elastic Constant Matrix: (Units=GPa)
#
#
# Indices 1 2 3 4 5 6 
#
# 1 111.9312 6.1835 28.3136 -15.6296 -13.8461 -28.5204
# 2 6.1835 66.2076 9.2372 -28.8901 9.3890 -6.1390
# 3 28.3136 9.2372 101.4200 -35.5292 7.5838 -15.6532
# 4 -15.6296 -28.8901 -35.5292 42.5022 -13.2145 7.9540
# 5 -13.8461 9.3890 7.5838 -13.2145 33.3133 -4.2597
# 6 -28.5204 -6.1390 -15.6532 7.9540 -4.2597 35.8994
#
#
#
# Elastic Compliance Matrix: (Units=1/GPa)
#
#
# Indices 1 2 3 4 5 6 
#
# 1 0.013777 0.001100 -0.000930 0.005974 0.009342 0.010513
# 2 0.001100 0.023205 0.004982 0.020195 0.001135 0.002674
# 3 -0.000930 0.004982 0.015696 0.015933 0.001416 0.003595
# 4 0.005974 0.020195 0.015933 0.057022 0.016352 0.004453
# 5 0.009342 0.001135 0.001416 0.016352 0.040956 0.009470
# 6 0.010513 0.002674 0.003595 0.004453 0.009470 0.038369
#
#
# Mechanical properties :
#
#
# Convention : Reuss Voigt Hill
#
# Bulk Modulus (GPa) = 15.87730 40.78082 28.32906
# Shear Modulus (GPa) = 25.03551 38.06461 31.55006
#
# Velocity S-wave (km/s) = 3.29521 4.06318 3.69918
# Velocity P-wave (km/s) = 4.62215 6.30080 5.52559
#
# Compressibility (1/GPa) = 0.06298299
#
# Stress axis : x y z
#
# Youngs Moduli (GPa) = 72.58563 43.09339 63.70860
#
# Poissons Ratio (x) = -0.04739 0.05922
# Poissons Ratio (y) = -0.07982 -0.31740
# Poissons Ratio (z) = 0.06747 -0.21469
#
# Static dielectric constant tensor:
#      x y z
#    x 1.889110 0.008900 -0.015560 
#    y 0.008900 1.848280 0.017670 
#    z -0.015560 0.017670 1.828000 
# 
# From -- ./inp_files/15199.got.cif
#   From: 2010.05.17/outbox.cif.g08.bks.cpg/sg2_8_cif.got.tgz:15199.got - 2010.06.03 11:33:40.
