data_PCOD9012804
_publ_section_title
;
Structure prediction by ZEFSAII (Michael W. Deem and Ramdas Pophale) SiO2 
 PCOD9012804
Probable space group: P -1
;
_chemical_formula_sum "Si O2"
_cell_formula_units_Z 16
_cell_length_a 15.093703
_cell_length_b 5.151757
_cell_length_c 10.256270
_cell_angle_alpha 91.177632
_cell_angle_beta 72.872748
_cell_angle_gamma 115.104873
_cell_volume 685.112125
_symmetry_space_group_name_H-M "P -1"
_symmetry_group_IT_number 2
_symmetry_cell_setting 'triclinic'
loop_
_space_group_symop_operation_xyz
x,y,z
-x,-y,-z
loop_
_atom_site_type_symbol
_atom_site_label
_atom_site_fract_x
_atom_site_fract_y
_atom_site_fract_z
Si Si1 0.061741 0.405900 0.327150
Si Si2 0.215000 0.566516 0.753680
Si Si3 0.835031 0.012931 0.397222
Si Si4 0.626243 0.660916 0.591755
Si Si5 0.793136 0.057603 0.844364
Si Si6 0.105335 0.177745 0.029635
Si Si7 0.443395 0.734190 0.619856
Si Si8 0.727748 0.464013 0.734913
O O1 0.098371 0.740176 0.274525
O O2 0.078956 0.276331 0.180616
O O3 0.156593 0.424902 0.375629
O O4 0.946290 0.205685 0.414869
O O5 0.179057 0.284193 0.670106
O O6 0.338862 0.730540 0.717050
O O7 0.175756 0.781348 0.707324
O O8 0.169403 0.442969 0.912035
O O9 0.738506 0.931397 0.537109
O O10 0.530293 0.719000 0.675947
O O11 0.600885 0.553931 0.453288
O O12 0.643222 0.416876 0.662353
O O13 0.725310 0.224781 0.835574
O O14 0.830428 0.004129 0.968035
O O15 0.731656 0.737853 0.813191
O O16 0.000000 0.000000 0.000000
O O17 0.500000 0.000000 0.500000
#
# Coordination Sequence:
#
# PCOD9012804 Si02
#       8
#     2   2   2   2   2   2   2   2
#     4   9  21  36  54  85 125 150 200 229 279 355
#     4  11  24  35  58  89 119 154 190 243 298 341
#     4  11  22  35  55  88 120 151 198 234 286 358
#     4  10  22  39  63  84 115 157 191 247 303 337
#     4   9  21  37  53  86 116 155 200 234 272 358
#     4  11  20  36  61  85 121 162 190 237 297 337
#     4  10  21  41  61  89 116 144 201 253 288 352
#     4   9  21  37  58  82 116 161 193 233 291 346
#
# _framework density 23.353843999999999
#
# number of rings (size 3 to 8) (size 9 to 14) (size 15 to 20)
#    0.750    1.250    2.500    0.750    5.250    1.500 
#    0.000    0.625    0.000    3.750    0.000    0.000 
#    0.000    0.000    0.000    0.000    0.000    0.000 
#
# Total GULP energy -89253.832691 kJ/mol
# GULP energy per Si atom -5578.364543 kJ/mol
# Density = 2.330069 g / cm^3
# Si number density = 23.353844 Si / 1000 Ang^3
#
#
#
# Elastic Constant Matrix: (Units=GPa)
#
#
# Indices 1 2 3 4 5 6 
#
# 1 117.8710 16.0304 26.1615 -13.3710 22.5459 -8.0600
# 2 16.0304 105.2073 19.4081 -17.5984 12.0061 -16.6190
# 3 26.1615 19.4081 68.7525 -15.9601 16.4609 -8.7600
# 4 -13.3710 -17.5984 -15.9601 31.4284 -2.0501 8.5707
# 5 22.5459 12.0061 16.4609 -2.0501 41.4719 -17.2595
# 6 -8.0600 -16.6190 -8.7600 8.5707 -17.2595 31.6531
#
#
#
# Elastic Compliance Matrix: (Units=1/GPa)
#
#
# Indices 1 2 3 4 5 6 
#
# 1 0.010235 -0.000330 -0.002002 0.003329 -0.005307 -0.001916
# 2 -0.000330 0.011227 -0.001374 0.004347 -0.000699 0.003872
# 3 -0.002002 -0.001374 0.018841 0.007972 -0.006259 -0.001588
# 4 0.003329 0.004347 0.007972 0.042090 -0.008633 -0.010768
# 5 -0.005307 -0.000699 -0.006259 -0.008633 0.037247 0.019197
# 6 -0.001916 0.003872 -0.001588 -0.010768 0.019197 0.046081
#
#
# Mechanical properties :
#
#
# Convention : Reuss Voigt Hill
#
# Bulk Modulus (GPa) = 30.40344 46.11452 38.25898
# Shear Modulus (GPa) = 27.15943 36.25942 31.70943
#
# Velocity S-wave (km/s) = 3.41391 3.94459 3.68881
# Velocity P-wave (km/s) = 5.34664 6.36673 5.87885
#
# Compressibility (1/GPa) = 0.03289102
#
# Stress axis : x y z
#
# Youngs Moduli (GPa) = 97.70589 89.06775 53.07465
#
# Poissons Ratio (x) = 0.02943 0.10626
# Poissons Ratio (y) = 0.03228 0.07292
# Poissons Ratio (z) = 0.19561 0.12236
#
# Static dielectric constant tensor:
#      x y z
#    x 1.987320 -0.015830 0.003080 
#    y -0.015830 2.007060 0.073130 
#    z 0.003080 0.073130 1.916770 
# 
# From -- ./inp_files/441032.got.cif
#   From: 2010.05.17/outbox.cif.g08.bks.cpg/sg2_221_cif.got.tgz:441032.got - 2010.06.03 11:33:40.
