data_PCOD9012384
_publ_section_title
;
Structure prediction by ZEFSAII (Michael W. Deem and Ramdas Pophale) SiO2 
 PCOD9012384
Probable space group: P -1
;
_chemical_formula_sum "Si O2"
_cell_formula_units_Z 16
_cell_length_a 9.122491
_cell_length_b 11.134953
_cell_length_c 14.461085
_cell_angle_alpha 68.375489
_cell_angle_beta 66.892436
_cell_angle_gamma 122.061147
_cell_volume 770.102822
_symmetry_space_group_name_H-M "P -1"
_symmetry_group_IT_number 2
_symmetry_cell_setting 'triclinic'
loop_
_space_group_symop_operation_xyz
x,y,z
-x,-y,-z
loop_
_atom_site_type_symbol
_atom_site_label
_atom_site_fract_x
_atom_site_fract_y
_atom_site_fract_z
Si Si1 0.709211 0.592754 0.997537
Si Si2 0.372916 0.766827 0.870257
Si Si3 0.926178 0.304284 0.859105
Si Si4 0.265048 0.556271 0.379426
Si Si5 0.171717 0.709443 0.590829
Si Si6 0.230332 0.251912 0.867667
Si Si7 0.741454 0.106564 0.293347
Si Si8 0.803319 0.198285 0.717228
O O1 0.676210 0.416927 0.069340
O O2 0.666197 0.647109 0.084804
O O3 0.500000 0.500000 0.000000
O O4 0.009150 0.807393 0.832375
O O5 0.280611 0.777233 0.796264
O O6 0.671341 0.997754 0.750801
O O7 0.231528 0.744560 0.999322
O O8 0.082636 0.525661 0.718552
O O9 0.108202 0.304727 0.844490
O O10 0.775452 0.161593 0.844248
O O11 0.527829 0.646705 0.278401
O O12 0.325916 0.747621 0.295696
O O13 0.052471 0.395972 0.395820
O O14 0.101202 0.413924 0.551289
O O15 0.204999 0.834633 0.628467
O O16 0.450906 0.864628 0.430763
O O17 0.000000 0.000000 0.000000
#
# Coordination Sequence:
#
# PCOD9012384 Si02
#       8
#     2   2   2   2   2   2   2   2
#     4  12  27  43  67 100 141 177 220 284 341 396
#     4  12  22  44  69  99 131 177 232 273 329 410
#     4  11  23  41  68  99 132 177 223 279 330 403
#     4  10  22  45  65  99 137 169 229 276 335 397
#     4  10  21  40  69  98 127 175 223 275 328 398
#     4  12  27  43  67  99 141 179 222 280 341 401
#     4  11  21  41  69  95 131 175 222 271 334 403
#     4  10  23  40  72  95 126 181 226 278 331 398
#
# _framework density 20.776447000000001
#
# number of rings (size 3 to 8) (size 9 to 14) (size 15 to 20)
#    0.000    1.000    3.750    3.000    3.500    0.500 
#    2.250    0.625    0.000    0.000    0.000    0.000 
#    0.000    0.000    0.000    0.000    0.000    0.000 
#
# Total GULP energy -89403.237274 kJ/mol
# GULP energy per Si atom -5587.702330 kJ/mol
# Density = 2.072916 g / cm^3
# Si number density = 20.776447 Si / 1000 Ang^3
#
#
#
# Elastic Constant Matrix: (Units=GPa)
#
#
# Indices 1 2 3 4 5 6 
#
# 1 49.4265 -7.0110 23.0943 0.9113 -11.7858 5.2684
# 2 -7.0110 81.3649 -3.3512 3.5882 1.1110 18.2594
# 3 23.0943 -3.3512 91.8471 2.7588 -12.6474 -2.0382
# 4 0.9113 3.5882 2.7588 36.9422 2.1787 1.8772
# 5 -11.7858 1.1110 -12.6474 2.1787 19.7723 15.1060
# 6 5.2684 18.2594 -2.0382 1.8772 15.1060 31.6369
#
#
#
# Elastic Compliance Matrix: (Units=1/GPa)
#
#
# Indices 1 2 3 4 5 6 
#
# 1 0.038339 0.010484 -0.003473 -0.002703 0.047055 -0.034967
# 2 0.010484 0.018305 0.000895 -0.002324 0.024095 -0.023620
# 3 -0.003473 0.000895 0.012971 -0.001324 0.008780 -0.003216
# 4 -0.002703 -0.002324 -0.001324 0.027754 -0.008550 0.004142
# 5 0.047055 0.024095 0.008780 -0.008550 0.156831 -0.095553
# 6 -0.034967 -0.023620 -0.003216 0.004142 -0.095553 0.096236
#
#
# Mechanical properties :
#
#
# Convention : Reuss Voigt Hill
#
# Bulk Modulus (GPa) = 11.70575 27.56696 19.63635
# Shear Modulus (GPa) = 13.77038 31.66404 22.71721
#
# Velocity S-wave (km/s) = 2.57726 3.90812 3.31026
# Velocity P-wave (km/s) = 3.80825 5.80188 4.90737
#
# Compressibility (1/GPa) = 0.08542810
#
# Stress axis : x y z
#
# Youngs Moduli (GPa) = 26.08304 54.63061 77.09558
#
# Poissons Ratio (x) = -0.57276 0.26774
# Poissons Ratio (y) = -0.27346 -0.06902
# Poissons Ratio (z) = 0.09058 -0.04891
#
# Static dielectric constant tensor:
#      x y z
#    x 1.702720 0.026690 -0.010520 
#    y 0.026690 1.818010 0.003320 
#    z -0.010520 0.003320 1.767780 
# 
# From -- ./inp_files/262589.got.cif
#   From: 2010.05.17/outbox.cif.g08.bks.cpg/sg2_132_cif.got.tgz:262589.got - 2010.06.03 11:33:40.
