data_PCOD9012203
_publ_section_title
;
Structure prediction by ZEFSAII (Michael W. Deem and Ramdas Pophale) SiO2 
 PCOD9012203
Probable space group: P -1
;
_chemical_formula_sum "Si O2"
_cell_formula_units_Z 16
_cell_length_a 24.880712
_cell_length_b 16.916746
_cell_length_c 5.700096
_cell_angle_alpha 130.301732
_cell_angle_beta 130.982337
_cell_angle_gamma 20.597122
_cell_volume 632.247384
_symmetry_space_group_name_H-M "P -1"
_symmetry_group_IT_number 2
_symmetry_cell_setting 'triclinic'
loop_
_space_group_symop_operation_xyz
x,y,z
-x,-y,-z
loop_
_atom_site_type_symbol
_atom_site_label
_atom_site_fract_x
_atom_site_fract_y
_atom_site_fract_z
Si Si1 0.037572 0.535087 0.874654
Si Si2 0.756835 0.958508 0.189103
Si Si3 0.740903 0.680290 0.551060
Si Si4 0.600807 0.534653 0.330905
Si Si5 0.080359 0.923799 0.833963
Si Si6 0.484307 0.868482 0.401444
Si Si7 0.377053 0.674538 0.689438
Si Si8 0.037130 0.219791 0.234395
O O1 0.000000 0.500000 0.500000
O O2 0.028233 0.660094 0.969396
O O3 0.199419 0.324829 0.072719
O O4 0.892275 0.720755 0.989997
O O5 0.813773 0.902247 0.507752
O O6 0.754955 0.078401 0.310625
O O7 0.594566 0.115139 0.965001
O O8 0.627886 0.739602 0.443512
O O9 0.895907 0.430182 0.408175
O O10 0.646322 0.872295 0.460760
O O11 0.536523 0.735127 0.522921
O O12 0.662992 0.387701 0.448476
O O13 0.744540 0.347146 0.200773
O O14 0.460627 0.641097 0.053770
O O15 0.086725 0.039054 0.051658
O O16 0.000000 0.000000 0.500000
O O17 0.000000 0.000000 0.000000
O O18 0.500000 0.500000 0.500000
#
# Coordination Sequence:
#
# PCOD9012203 Si02
#       8
#     2   2   2   2   2   2   2   2
#     4  11  23  41  70 101 137 183 244 303 371 440
#     4  10  22  40  68  99 137 177 243 301 369 441
#     4  10  23  44  68  98 140 185 241 301 366 443
#     4  10  23  41  66 101 141 184 240 296 365 441
#     4  12  29  46  77 111 150 199 250 310 380 457
#     4  10  21  43  68  95 141 187 237 301 368 442
#     4  10  21  40  68  99 137 185 236 306 366 439
#     4  11  24  43  72  99 140 186 241 305 362 442
#
# _framework density 25.306550000000001
#
# number of rings (size 3 to 8) (size 9 to 14) (size 15 to 20)
#    0.000    1.500    0.000    3.750    8.750    4.000 
#    0.000    9.375    0.000    0.000    0.000    0.000 
#    0.000    0.000    0.000    0.000    0.000    0.000 
#
# Total GULP energy -89442.044909 kJ/mol
# GULP energy per Si atom -5590.127807 kJ/mol
# Density = 2.524895 g / cm^3
# Si number density = 25.306550 Si / 1000 Ang^3
#
#
#
# Elastic Constant Matrix: (Units=GPa)
#
#
# Indices 1 2 3 4 5 6 
#
# 1 126.1446 29.6798 32.2845 -11.3411 13.2069 13.3340
# 2 29.6798 112.0126 32.6680 -1.1198 8.6529 11.1573
# 3 32.2845 32.6680 85.6800 -1.1660 9.7628 -10.6314
# 4 -11.3411 -1.1198 -1.1660 34.1669 0.2808 4.7419
# 5 13.2069 8.6529 9.7628 0.2808 34.0064 4.8311
# 6 13.3340 11.1573 -10.6314 4.7419 4.8311 55.6266
#
#
#
# Elastic Compliance Matrix: (Units=1/GPa)
#
#
# Indices 1 2 3 4 5 6 
#
# 1 0.009916 -0.001154 -0.003356 0.003559 -0.002212 -0.002898
# 2 -0.001154 0.010676 -0.003858 0.000196 -0.000800 -0.002549
# 3 -0.003356 -0.003858 0.015310 -0.001370 -0.002790 0.004863
# 4 0.003559 0.000196 -0.001370 0.030932 -0.000765 -0.003725
# 5 -0.002212 -0.000800 -0.002790 -0.000765 0.031635 -0.002525
# 6 -0.002898 -0.002549 0.004863 -0.003725 -0.002525 0.020649
#
#
# Mechanical properties :
#
#
# Convention : Reuss Voigt Hill
#
# Bulk Modulus (GPa) = 52.17514 57.01132 54.59323
# Shear Modulus (GPa) = 35.15143 40.04030 37.59587
#
# Velocity S-wave (km/s) = 3.73101 3.98202 3.85855
# Velocity P-wave (km/s) = 6.26279 6.61204 6.43979
#
# Compressibility (1/GPa) = 0.01916622
#
# Stress axis : x y z
#
# Youngs Moduli (GPa) = 100.85203 93.66578 65.31862
#
# Poissons Ratio (x) = 0.10805 0.21918
# Poissons Ratio (y) = 0.11634 0.25203
# Poissons Ratio (z) = 0.33841 0.36141
#
# Static dielectric constant tensor:
#      x y z
#    x 2.054540 0.062410 0.009310 
#    y 0.062410 2.001020 -0.026320 
#    z 0.009310 -0.026320 2.091630 
# 
# From -- ./inp_files/127540.got.cif
#   From: 2010.05.17/outbox.cif.g08.bks.cpg/sg2_64_cif.got.tgz:127540.got - 2010.06.03 11:33:40.
