data_PCOD9012407
_publ_section_title
;
Structure prediction by ZEFSAII (Michael W. Deem and Ramdas Pophale) SiO2 
 PCOD9012407
Probable space group: P -1
;
_chemical_formula_sum "Si O2"
_cell_formula_units_Z 14
_cell_length_a 10.476279
_cell_length_b 7.901837
_cell_length_c 9.533520
_cell_angle_alpha 62.188137
_cell_angle_beta 75.740835
_cell_angle_gamma 60.623291
_cell_volume 608.123303
_symmetry_space_group_name_H-M "P -1"
_symmetry_group_IT_number 2
_symmetry_cell_setting 'triclinic'
loop_
_space_group_symop_operation_xyz
x,y,z
-x,-y,-z
loop_
_atom_site_type_symbol
_atom_site_label
_atom_site_fract_x
_atom_site_fract_y
_atom_site_fract_z
Si Si1 0.341522 0.724835 0.786689
Si Si2 0.606354 0.097314 0.866873
Si Si3 0.649429 0.559612 0.336200
Si Si4 0.862460 0.447382 0.584062
Si Si5 0.345205 0.514861 0.144786
Si Si6 0.138853 0.325819 0.949510
Si Si7 0.057990 0.097321 0.822556
O O1 0.360001 0.643312 0.654092
O O2 0.501405 0.691589 0.803537
O O3 0.209917 0.949606 0.765462
O O4 0.309962 0.579434 0.968799
O O5 0.509323 0.236806 0.708062
O O6 0.631218 0.283557 0.873852
O O7 0.500000 0.000000 0.000000
O O8 0.763469 0.889411 0.904817
O O9 0.739609 0.514694 0.471970
O O10 0.749600 0.595104 0.177437
O O11 0.773990 0.528359 0.721800
O O12 0.000000 0.500000 0.500000
O O13 0.941004 0.195481 0.693046
O O14 0.081894 0.268304 0.843006
O O15 0.000000 0.500000 0.000000
O O16 0.000000 0.000000 0.000000
#
# Coordination Sequence:
#
# PCOD9012407 Si02
#       7
#     2   2   2   2   2   2   2
#     4  10  21  40  70 100 126 175 236 283 329 409
#     4   9  19  39  66  97 128 172 220 283 329 403
#     4  10  23  40  64  96 136 175 224 276 345 400
#     4  12  25  43  65  97 148 186 216 283 352 401
#     4  10  21  41  68  99 134 178 227 278 343 406
#     4  11  21  37  64  99 129 172 229 277 327 407
#     4  12  22  41  67  95 134 183 225 276 341 409
#
# _framework density 23.021647999999999
#
# number of rings (size 3 to 8) (size 9 to 14) (size 15 to 20)
#    0.000    1.429    4.286    0.857    0.000    2.857 
#    0.000    2.143    0.000    0.000    0.000    0.000 
#    0.000    0.000    0.000    0.000    0.000    0.000 
#
# Total GULP energy -78009.895740 kJ/mol
# GULP energy per Si atom -5572.135410 kJ/mol
# Density = 2.296925 g / cm^3
# Si number density = 23.021648 Si / 1000 Ang^3
#
#
#
# Elastic Constant Matrix: (Units=GPa)
#
#
# Indices 1 2 3 4 5 6 
#
# 1 87.1212 36.5501 62.4072 -4.5292 16.5912 -17.4346
# 2 36.5501 112.6692 27.6145 -11.9767 16.1539 -56.3559
# 3 62.4072 27.6145 102.6472 -10.6977 10.9675 -20.0235
# 4 -4.5292 -11.9767 -10.6977 16.0966 -17.3505 0.7322
# 5 16.5912 16.1539 10.9675 -17.3505 54.9515 -7.3980
# 6 -17.4346 -56.3559 -20.0235 0.7322 -7.3980 54.6592
#
#
#
# Elastic Compliance Matrix: (Units=1/GPa)
#
#
# Indices 1 2 3 4 5 6 
#
# 1 0.025914 -0.009439 -0.015919 -0.019941 -0.009284 -0.008287
# 2 -0.009439 0.024997 0.005943 0.024697 0.005527 0.025356
# 3 -0.015919 0.005943 0.021104 0.020712 0.006653 0.009404
# 4 -0.019941 0.024697 0.020712 0.130196 0.039819 0.030336
# 5 -0.009284 0.005527 0.006653 0.039819 0.031826 0.008948
# 6 -0.008287 0.025356 0.009404 0.030336 0.008948 0.046045
#
#
# Mechanical properties :
#
#
# Convention : Reuss Voigt Hill
#
# Bulk Modulus (GPa) = 30.13272 61.73124 45.93198
# Shear Modulus (GPa) = 15.15279 36.86584 26.00931
#
# Velocity S-wave (km/s) = 2.56832 4.00604 3.36486
# Velocity P-wave (km/s) = 4.68106 6.94769 5.92379
#
# Compressibility (1/GPa) = 0.03318652
#
# Stress axis : x y z
#
# Youngs Moduli (GPa) = 38.58896 40.00540 47.38507
#
# Poissons Ratio (x) = 0.37760 0.75431
# Poissons Ratio (y) = 0.36423 -0.28163
# Poissons Ratio (z) = 0.61429 -0.23777
#
# Static dielectric constant tensor:
#      x y z
#    x -9.408290 -1.000850 7.640460 
#    y -1.000850 1.877340 0.644680 
#    z 7.640460 0.644680 -3.277770 
# 
# From -- ./inp_files/237515.got.cif
#   From: 2010.05.17/outbox.cif.g08.bks.cpg/sg2_119_cif.got.tgz:237515.got - 2010.06.03 11:33:40.
