data_PCOD9012814
_publ_section_title
;
Structure prediction by ZEFSAII (Michael W. Deem and Ramdas Pophale) SiO2 
 PCOD9012814
Probable space group: P -1
;
_chemical_formula_sum "Si O2"
_cell_formula_units_Z 14
_cell_length_a 10.249562
_cell_length_b 9.726651
_cell_length_c 9.885053
_cell_angle_alpha 134.580941
_cell_angle_beta 106.303917
_cell_angle_gamma 85.819373
_cell_volume 662.487789
_symmetry_space_group_name_H-M "P -1"
_symmetry_group_IT_number 2
_symmetry_cell_setting 'triclinic'
loop_
_space_group_symop_operation_xyz
x,y,z
-x,-y,-z
loop_
_atom_site_type_symbol
_atom_site_label
_atom_site_fract_x
_atom_site_fract_y
_atom_site_fract_z
Si Si1 0.639237 0.086475 0.892333
Si Si2 0.933955 0.994365 0.830469
Si Si3 0.541053 0.653366 0.498019
Si Si4 0.991940 0.350443 0.559960
Si Si5 0.767419 0.412243 0.337469
Si Si6 0.064608 0.723607 0.206012
Si Si7 0.605796 0.209777 0.691362
O O1 0.779401 0.024465 0.834698
O O2 0.598110 0.234054 0.868204
O O3 0.544406 0.871221 0.712411
O O4 0.671526 0.208744 0.123176
O O5 0.992620 0.153888 0.843945
O O6 0.958137 0.795464 0.632276
O O7 0.000000 0.000000 0.000000
O O8 0.500000 0.500000 0.500000
O O9 0.680967 0.586508 0.440669
O O10 0.446851 0.647244 0.332571
O O11 0.848167 0.394727 0.489278
O O12 0.978913 0.254815 0.636865
O O13 0.112851 0.540608 0.710821
O O14 0.232078 0.779718 0.288036
O O15 0.000000 0.500000 0.000000
O O16 0.500000 0.000000 0.500000
#
# Coordination Sequence:
#
# PCOD9012814 Si02
#       7
#     2   2   2   2   2   2   2
#     4  10  21  41  61  90 126 169 219 266 327 392
#     4  11  21  39  65  94 131 175 209 270 341 393
#     4  11  23  40  64  90 124 173 225 269 324 392
#     4  11  22  39  63 100 134 167 222 275 333 390
#     4  11  23  38  67  94 129 176 218 270 336 393
#     4  11  24  40  67 102 132 166 227 280 325 390
#     4   9  21  42  65  87 131 177 211 265 332 390
#
# _framework density 21.132466000000001
#
# number of rings (size 3 to 8) (size 9 to 14) (size 15 to 20)
#    0.000    1.429    2.857    3.000    2.000    2.286 
#    0.000    0.000    0.000    0.000    0.000    0.000 
#    0.000    0.000    0.000    0.000    0.000    0.000 
#
# Total GULP energy -78009.756277 kJ/mol
# GULP energy per Si atom -5572.125448 kJ/mol
# Density = 2.108437 g / cm^3
# Si number density = 21.132466 Si / 1000 Ang^3
#
#
#
# Elastic Constant Matrix: (Units=GPa)
#
#
# Indices 1 2 3 4 5 6 
#
# 1 56.1919 27.0995 27.9378 -15.3162 4.3949 -0.1853
# 2 27.0995 157.6964 35.6670 -35.1927 7.5854 0.6977
# 3 27.9378 35.6670 98.0537 -7.4120 2.0062 0.7845
# 4 -15.3162 -35.1927 -7.4120 42.9469 0.8017 -1.7342
# 5 4.3949 7.5854 2.0062 0.8017 23.8253 -1.5749
# 6 -0.1853 0.6977 0.7845 -1.7342 -1.5749 35.6315
#
#
#
# Elastic Compliance Matrix: (Units=1/GPa)
#
#
# Indices 1 2 3 4 5 6 
#
# 1 0.023183 -0.001085 -0.005649 0.006489 -0.003646 0.000421
# 2 -0.001085 0.008570 -0.002281 0.006292 -0.002543 0.000071
# 3 -0.005649 -0.002281 0.012492 -0.001755 0.000755 -0.000312
# 4 0.006489 0.006292 -0.001755 0.030578 -0.003998 0.001261
# 5 -0.003646 -0.002543 0.000755 -0.003998 0.043641 0.001749
# 6 0.000421 0.000071 -0.000312 0.001261 0.001749 0.028211
#
#
# Mechanical properties :
#
#
# Convention : Reuss Voigt Hill
#
# Bulk Modulus (GPa) = 38.14522 54.81674 46.48098
# Shear Modulus (GPa) = 28.82777 35.22992 32.02885
#
# Velocity S-wave (km/s) = 3.69744 4.08744 3.89732
# Velocity P-wave (km/s) = 6.02643 6.94782 6.50346
#
# Compressibility (1/GPa) = 0.02621560
#
# Stress axis : x y z
#
# Youngs Moduli (GPa) = 43.13469 116.68735 80.04954
#
# Poissons Ratio (x) = 0.12655 0.45221
# Poissons Ratio (y) = 0.04678 0.18261
# Poissons Ratio (z) = 0.24368 0.26618
#
# Static dielectric constant tensor:
#      x y z
#    x 1.747940 0.030420 -0.012120 
#    y 0.030420 1.828050 0.014200 
#    z -0.012120 0.014200 1.760840 
# 
# From -- ./inp_files/241596.got.cif
#   From: 2010.05.17/outbox.cif.g08.bks.cpg/sg2_121_cif.got.tgz:241596.got - 2010.06.03 11:33:40.
