data_PCOD9012589
_publ_section_title
;
Structure prediction by ZEFSAII (Michael W. Deem and Ramdas Pophale) SiO2 
 PCOD9012589
Probable space group: P -1
;
_chemical_formula_sum "Si O2"
_cell_formula_units_Z 16
_cell_length_a 12.533464
_cell_length_b 9.445391
_cell_length_c 10.878340
_cell_angle_alpha 71.350857
_cell_angle_beta 45.938473
_cell_angle_gamma 46.967560
_cell_volume 646.407002
_symmetry_space_group_name_H-M "P -1"
_symmetry_group_IT_number 2
_symmetry_cell_setting 'triclinic'
loop_
_space_group_symop_operation_xyz
x,y,z
-x,-y,-z
loop_
_atom_site_type_symbol
_atom_site_label
_atom_site_fract_x
_atom_site_fract_y
_atom_site_fract_z
Si Si1 0.909827 0.213094 0.454580
Si Si2 0.516471 0.752518 0.993165
Si Si3 0.144482 0.672886 0.064148
Si Si4 0.557334 0.099267 0.513183
Si Si5 0.539678 0.429053 0.347214
Si Si6 0.118429 0.005276 0.099371
Si Si7 0.858723 0.698691 0.137848
Si Si8 0.289932 0.076674 0.301380
O O1 0.671441 0.402565 0.603912
O O2 0.063456 0.228470 0.386092
O O3 0.000000 0.000000 0.500000
O O4 0.957025 0.164627 0.285892
O O5 0.689900 0.512987 0.929857
O O6 0.323358 0.826530 0.055909
O O7 0.427900 0.872094 0.162571
O O8 0.608410 0.832924 0.827392
O O9 0.274837 0.612274 0.852481
O O10 0.063768 0.888867 0.108788
O O11 0.970486 0.669832 0.181664
O O12 0.595934 0.216430 0.367203
O O13 0.340647 0.262726 0.705296
O O14 0.500000 0.000000 0.500000
O O15 0.703807 0.973418 0.546542
O O16 0.500000 0.500000 0.500000
O O17 0.169391 0.118992 0.950317
O O18 0.000000 0.500000 0.000000
#
# Coordination Sequence:
#
# PCOD9012589 Si02
#       8
#     2   2   2   2   2   2   2   2
#     4  11  24  42  70 100 138 182 234 281 351 421
#     4  10  21  40  71  96 137 172 239 276 343 408
#     4  12  26  42  70 104 138 180 229 292 345 407
#     4  12  26  46  69 102 143 177 225 294 355 398
#     4  12  25  45  69 100 142 186 227 279 349 421
#     4  11  23  44  67 100 134 178 230 290 341 409
#     4  12  25  43  71 100 133 187 239 274 335 423
#     4  10  22  42  68 100 132 188 228 288 334 420
#
# _framework density 24.752208
#
# number of rings (size 3 to 8) (size 9 to 14) (size 15 to 20)
#    0.000    0.750    1.250    7.500    5.250    2.000 
#    0.000    0.625    0.000    0.000    0.000    0.000 
#    0.000    0.000    0.000    0.000    0.000    0.000 
#
# Total GULP energy -89610.948676 kJ/mol
# GULP energy per Si atom -5600.684292 kJ/mol
# Density = 2.469587 g / cm^3
# Si number density = 24.752208 Si / 1000 Ang^3
#
#
#
# Elastic Constant Matrix: (Units=GPa)
#
#
# Indices 1 2 3 4 5 6 
#
# 1 115.6117 38.4219 6.7618 14.8747 -13.8586 -6.9916
# 2 38.4219 108.8713 7.8874 -11.3981 1.5529 -6.7368
# 3 6.7618 7.8874 64.5558 0.8814 -13.1005 -12.2184
# 4 14.8747 -11.3981 0.8814 27.3977 2.7612 -7.6912
# 5 -13.8586 1.5529 -13.1005 2.7612 28.8480 -1.0892
# 6 -6.9916 -6.7368 -12.2184 -7.6912 -1.0892 45.0203
#
#
#
# Elastic Compliance Matrix: (Units=1/GPa)
#
#
# Indices 1 2 3 4 5 6 
#
# 1 0.012753 -0.005768 0.001085 -0.010193 0.007900 -0.000138
# 2 -0.005768 0.012532 -0.001699 0.009474 -0.005048 0.002015
# 3 0.001085 -0.001699 0.018417 -0.001453 0.009300 0.004889
# 4 -0.010193 0.009474 -0.001453 0.049211 -0.010491 0.007594
# 5 0.007900 -0.005048 0.009300 -0.010491 0.044045 0.002269
# 6 -0.000138 0.002015 0.004889 0.007594 0.002269 0.025171
#
#
# Mechanical properties :
#
#
# Convention : Reuss Voigt Hill
#
# Bulk Modulus (GPa) = 32.32247 43.90900 38.11574
# Shear Modulus (GPa) = 26.99690 35.98437 31.49063
#
# Velocity S-wave (km/s) = 3.30614 3.81699 3.57071
# Velocity P-wave (km/s) = 5.25936 6.09949 5.69494
#
# Compressibility (1/GPa) = 0.03093823
#
# Stress axis : x y z
#
# Youngs Moduli (GPa) = 78.41171 79.79335 54.29774
#
# Poissons Ratio (x) = 0.46023 -0.05892
# Poissons Ratio (y) = 0.45226 0.09228
# Poissons Ratio (z) = -0.08509 0.13561
#
# Static dielectric constant tensor:
#      x y z
#    x 2.033470 -0.126490 -0.028490 
#    y -0.126490 2.149400 0.153460 
#    z -0.028490 0.153460 2.124230 
# 
# From -- ./inp_files/419284.got.cif
#   From: 2010.05.17/outbox.cif.g08.bks.cpg/sg2_210_cif.got.tgz:419284.got - 2010.06.03 11:33:40.
