data_PCOD9012977
_publ_section_title
;
Structure prediction by ZEFSAII (Michael W. Deem and Ramdas Pophale) SiO2 
 PCOD9012977
Probable space group: P -1
;
_chemical_formula_sum "Si O2"
_cell_formula_units_Z 14
_cell_length_a 11.842280
_cell_length_b 8.554867
_cell_length_c 10.412144
_cell_angle_alpha 73.671564
_cell_angle_beta 55.073191
_cell_angle_gamma 38.134546
_cell_volume 503.352372
_symmetry_space_group_name_H-M "P -1"
_symmetry_group_IT_number 2
_symmetry_cell_setting 'triclinic'
loop_
_space_group_symop_operation_xyz
x,y,z
-x,-y,-z
loop_
_atom_site_type_symbol
_atom_site_label
_atom_site_fract_x
_atom_site_fract_y
_atom_site_fract_z
Si Si1 0.369585 0.844873 0.876048
Si Si2 0.537554 0.580891 0.096596
Si Si3 0.050879 0.054044 0.802925
Si Si4 0.726190 0.914644 0.534761
Si Si5 0.687312 0.464141 0.367151
Si Si6 0.663485 0.799666 0.054612
Si Si7 0.013327 0.591428 0.674985
O O1 0.377681 0.797134 0.036497
O O2 0.177749 0.008398 0.854706
O O3 0.530164 0.540677 0.792339
O O4 0.393751 0.018093 0.836768
O O5 0.600270 0.666339 0.134803
O O6 0.785991 0.317812 0.935892
O O7 0.112461 0.095792 0.626745
O O8 0.145227 0.783466 0.785752
O O9 0.819375 0.793679 0.645657
O O10 0.796458 0.697210 0.450714
O O11 0.476698 0.223095 0.603626
O O12 0.500000 0.500000 0.500000
O O13 0.871329 0.346989 0.379423
O O14 0.909061 0.608784 0.870871
O O15 0.500000 0.000000 0.000000
#
# Coordination Sequence:
#
# PCOD9012977 Si02
#       7
#     2   2   2   2   2   2   2
#     4  10  23  40  65  96 136 178 218 291 336 403
#     4  10  21  41  62  92 135 176 228 271 340 408
#     4  11  22  41  63  99 131 170 225 275 345 409
#     4  10  24  43  69  99 131 183 226 284 348 411
#     4  10  24  41  64 101 133 176 234 274 348 415
#     4  10  22  43  68 103 130 183 236 274 350 414
#     4  11  22  46  69  95 142 179 228 289 341 414
#
# _framework density 27.813517000000001
#
# number of rings (size 3 to 8) (size 9 to 14) (size 15 to 20)
#    0.000    1.714    1.429    1.714    0.000    9.714 
#   12.857    0.000    0.000    0.000    0.000    0.000 
#    0.000    0.000    0.000    0.000    0.000    0.000 
#
# Total GULP energy -78045.727608 kJ/mol
# GULP energy per Si atom -5574.694829 kJ/mol
# Density = 2.775021 g / cm^3
# Si number density = 27.813517 Si / 1000 Ang^3
#
#
#
# Elastic Constant Matrix: (Units=GPa)
#
#
# Indices 1 2 3 4 5 6 
#
# 1 230.9466 51.9201 18.6223 16.6069 38.9190 32.8240
# 2 51.9201 133.9323 22.8922 20.9340 16.5006 25.0406
# 3 18.6223 22.8922 98.8367 17.9988 9.4414 7.8516
# 4 16.6069 20.9340 17.9988 47.9213 8.6944 -4.1165
# 5 38.9190 16.5006 9.4414 8.6944 16.5656 12.7348
# 6 32.8240 25.0406 7.8516 -4.1165 12.7348 63.0782
#
#
#
# Elastic Compliance Matrix: (Units=1/GPa)
#
#
# Indices 1 2 3 4 5 6 
#
# 1 0.007286 -0.000933 0.000299 0.000811 -0.016770 -0.000020
# 2 -0.000933 0.009337 -0.000929 -0.003128 -0.002833 -0.002738
# 3 0.000299 -0.000929 0.011304 -0.003258 -0.004059 -0.000587
# 4 0.000811 -0.003128 -0.003258 0.026518 -0.015534 0.006092
# 5 -0.016770 -0.002833 -0.004059 -0.015534 0.125321 -0.015958
# 6 -0.000020 -0.002738 -0.000587 0.006092 -0.015958 0.020643
#
#
# Mechanical properties :
#
#
# Convention : Reuss Voigt Hill
#
# Bulk Modulus (GPa) = 40.32039 72.28720 56.30380
# Shear Modulus (GPa) = 23.60704 50.19843 36.90274
#
# Velocity S-wave (km/s) = 2.91651 4.25293 3.64647
# Velocity P-wave (km/s) = 5.08621 7.08258 6.16573
#
# Compressibility (1/GPa) = 0.02480135
#
# Stress axis : x y z
#
# Youngs Moduli (GPa) = 137.24776 107.10617 88.46334
#
# Poissons Ratio (x) = 0.09989 -0.02645
# Poissons Ratio (y) = 0.12800 0.08219
# Poissons Ratio (z) = -0.04104 0.09951
#
# Static dielectric constant tensor:
#      x y z
#    x 2.216330 0.130860 -0.047700 
#    y 0.130860 2.346640 -0.087360 
#    z -0.047700 -0.087360 2.290560 
# 
# From -- ./inp_files/417321.got.cif
#   From: 2010.05.17/outbox.cif.g08.bks.cpg/sg2_209_cif.got.tgz:417321.got - 2010.06.03 11:33:40.
