data_PCOD9012346
_publ_section_title
;
Structure prediction by ZEFSAII (Michael W. Deem and Ramdas Pophale) SiO2 
 PCOD9012346
Probable space group: P -1
;
_chemical_formula_sum "Si O2"
_cell_formula_units_Z 16
_cell_length_a 8.609564
_cell_length_b 19.029515
_cell_length_c 5.700847
_cell_angle_alpha 77.712818
_cell_angle_beta 120.774470
_cell_angle_gamma 126.428701
_cell_volume 640.054385
_symmetry_space_group_name_H-M "P -1"
_symmetry_group_IT_number 2
_symmetry_cell_setting 'triclinic'
loop_
_space_group_symop_operation_xyz
x,y,z
-x,-y,-z
loop_
_atom_site_type_symbol
_atom_site_label
_atom_site_fract_x
_atom_site_fract_y
_atom_site_fract_z
Si Si1 0.167070 0.578570 0.251906
Si Si2 0.792368 0.053824 0.805147
Si Si3 0.243078 0.835751 0.986158
Si Si4 0.081921 0.220197 0.604077
Si Si5 0.964615 0.669480 0.186985
Si Si6 0.488211 0.454926 0.275079
Si Si7 0.828228 0.932136 0.618077
Si Si8 0.503696 0.770646 0.161317
O O1 0.323792 0.562045 0.533812
O O2 0.326968 0.668704 0.162321
O O3 0.030000 0.601490 0.295019
O O4 0.000000 0.500000 0.000000
O O5 0.883722 0.134265 0.642856
O O6 0.709251 0.968979 0.643836
O O7 0.666553 0.070137 0.896953
O O8 0.009776 0.071136 0.080514
O O9 0.010962 0.803384 0.711490
O O10 0.390971 0.818510 0.944279
O O11 0.171903 0.761131 0.179753
O O12 0.101944 0.306630 0.642757
O O13 0.304905 0.228315 0.827952
O O14 0.759988 0.631976 0.878792
O O15 0.500000 0.500000 0.500000
O O16 0.500000 0.500000 0.000000
O O17 0.646831 0.838184 0.435427
O O18 0.000000 0.000000 0.500000
#
# Coordination Sequence:
#
# PCOD9012346 Si02
#       8
#     2   2   2   2   2   2   2   2
#     4  11  25  50  73 108 154 189 253 310 372 448
#     4  10  21  40  69  95 142 184 225 303 351 426
#     4  10  22  43  65 102 141 181 240 290 360 430
#     4  11  22  43  68 102 143 184 237 299 357 434
#     4  10  25  43  71 102 143 192 243 303 368 440
#     4  12  28  48  78 110 145 201 253 312 390 452
#     4  11  21  42  69 100 136 183 238 286 359 423
#     4  11  24  42  75 100 140 192 236 294 369 438
#
# _framework density 24.997878
#
# number of rings (size 3 to 8) (size 9 to 14) (size 15 to 20)
#    0.000    1.250    3.750    0.750    5.250    2.000 
#    6.750    2.500    0.000    0.000    0.000    0.000 
#    0.000    0.000    0.000    0.000    0.000    0.000 
#
# Total GULP energy -89310.358477 kJ/mol
# GULP energy per Si atom -5581.897405 kJ/mol
# Density = 2.494098 g / cm^3
# Si number density = 24.997878 Si / 1000 Ang^3
#
#
#
# Elastic Constant Matrix: (Units=GPa)
#
#
# Indices 1 2 3 4 5 6 
#
# 1 134.4734 63.6260 39.4226 1.2791 16.9522 -43.5828
# 2 63.6260 104.8879 54.0977 15.8225 -6.1209 -28.0842
# 3 39.4226 54.0977 99.1673 7.1917 23.2763 -15.0040
# 4 1.2791 15.8225 7.1917 46.6496 -2.1643 -1.4510
# 5 16.9522 -6.1209 23.2763 -2.1643 49.4139 -2.4313
# 6 -43.5828 -28.0842 -15.0040 -1.4510 -2.4313 62.2146
#
#
#
# Elastic Compliance Matrix: (Units=1/GPa)
#
#
# Indices 1 2 3 4 5 6 
#
# 1 0.013406 -0.007619 0.000899 0.002005 -0.005584 0.005998
# 2 -0.007619 0.021348 -0.010289 -0.004917 0.009992 0.002094
# 3 0.000899 -0.010289 0.017614 0.000287 -0.009875 -0.000146
# 4 0.002005 -0.004917 0.000287 0.022978 -0.000437 -0.000227
# 5 -0.005584 0.009992 -0.009875 -0.000437 0.027988 -0.000699
# 6 0.005998 0.002094 -0.000146 -0.000227 -0.000699 0.021152
#
#
# Mechanical properties :
#
#
# Convention : Reuss Voigt Hill
#
# Bulk Modulus (GPa) = 54.49116 72.53571 63.51343
# Shear Modulus (GPa) = 30.37298 43.74777 37.06037
#
# Velocity S-wave (km/s) = 3.48950 4.18791 3.85455
# Velocity P-wave (km/s) = 6.17099 7.24324 6.72851
#
# Compressibility (1/GPa) = 0.01835160
#
# Stress axis : x y z
#
# Youngs Moduli (GPa) = 74.59258 46.84359 56.77238
#
# Poissons Ratio (x) = 0.35688 -0.05105
# Poissons Ratio (y) = 0.56828 0.58412
# Poissons Ratio (z) = -0.06707 0.48197
#
# Static dielectric constant tensor:
#      x y z
#    x 2.441720 0.313330 -0.236760 
#    y 0.313330 2.328090 -0.195520 
#    z -0.236760 -0.195520 2.082350 
# 
# From -- ./inp_files/47575.got.cif
#   From: 2010.05.17/outbox.cif.g08.bks.cpg/sg2_24_cif.got.tgz:47575.got - 2010.06.03 11:33:40.
