data_PCOD9012135
_publ_section_title
;
Structure prediction by ZEFSAII (Michael W. Deem and Ramdas Pophale) SiO2 
 PCOD9012135
Probable space group: P -1
;
_chemical_formula_sum "Si O2"
_cell_formula_units_Z 14
_cell_length_a 11.089058
_cell_length_b 9.494370
_cell_length_c 14.128479
_cell_angle_alpha 124.229631
_cell_angle_beta 27.980909
_cell_angle_gamma 111.426672
_cell_volume 542.879554
_symmetry_space_group_name_H-M "P -1"
_symmetry_group_IT_number 2
_symmetry_cell_setting 'triclinic'
loop_
_space_group_symop_operation_xyz
x,y,z
-x,-y,-z
loop_
_atom_site_type_symbol
_atom_site_label
_atom_site_fract_x
_atom_site_fract_y
_atom_site_fract_z
Si Si1 0.914989 0.547439 0.882875
Si Si2 0.449126 0.284165 0.526933
Si Si3 0.206510 0.919952 0.411966
Si Si4 0.223891 0.067910 0.948105
Si Si5 0.553694 0.418147 0.224342
Si Si6 0.010067 0.397125 0.551449
Si Si7 0.083915 0.094860 0.769696
O O1 0.191004 0.414751 0.693183
O O2 0.909726 0.501334 0.758332
O O3 0.868796 0.761355 0.994199
O O4 0.670390 0.501863 0.087843
O O5 0.557436 0.421016 0.561731
O O6 0.326495 0.175345 0.645709
O O7 0.652152 0.124888 0.263902
O O8 0.512904 0.910922 0.173049
O O9 0.163528 0.732314 0.390506
O O10 0.000000 0.000000 0.500000
O O11 0.121611 0.033114 0.610375
O O12 0.984650 0.055046 0.177516
O O13 0.337009 0.320625 0.313714
O O14 0.814546 0.268873 0.030440
O O15 0.000000 0.500000 0.500000
#
# Coordination Sequence:
#
# PCOD9012135 Si02
#       7
#     2   2   2   2   2   2   2
#     4  11  24  44  70 100 134 176 224 275 335 399
#     4  10  24  47  69 100 137 171 225 277 331 405
#     4  11  23  40  63  97 135 174 228 276 321 397
#     4  11  24  42  69 100 135 175 217 280 339 387
#     4  11  24  45  70  95 137 183 216 277 340 388
#     4  12  26  42  64  98 136 176 226 273 325 399
#     4  10  21  40  68  97 129 176 223 271 337 397
#
# _framework density 25.788409000000001
#
# number of rings (size 3 to 8) (size 9 to 14) (size 15 to 20)
#    0.000    1.143    0.000    7.714    0.000   12.000 
#    0.000    6.429    0.000    0.000    0.000    0.000 
#    0.000    0.000    0.000    0.000    0.000    0.000 
#
# Total GULP energy -78435.688873 kJ/mol
# GULP energy per Si atom -5602.549205 kJ/mol
# Density = 2.572971 g / cm^3
# Si number density = 25.788409 Si / 1000 Ang^3
#
#
#
# Elastic Constant Matrix: (Units=GPa)
#
#
# Indices 1 2 3 4 5 6 
#
# 1 96.2919 54.0155 18.6826 -4.9076 4.6838 -9.5786
# 2 54.0155 147.8363 29.5310 -31.8980 -2.6964 5.3139
# 3 18.6826 29.5310 82.6723 -5.0041 5.6132 -7.9163
# 4 -4.9076 -31.8980 -5.0041 62.4219 -4.8138 1.3012
# 5 4.6838 -2.6964 5.6132 -4.8138 44.4110 -5.7666
# 6 -9.5786 5.3139 -7.9163 1.3012 -5.7666 53.6020
#
#
#
# Elastic Compliance Matrix: (Units=1/GPa)
#
#
# Indices 1 2 3 4 5 6 
#
# 1 0.013857 -0.005417 -0.000946 -0.001930 -0.001522 0.002757
# 2 -0.005417 0.010419 -0.002542 0.004878 0.001754 -0.002306
# 3 -0.000946 -0.002542 0.013480 -0.000453 -0.001558 0.001917
# 4 -0.001930 0.004878 -0.000453 0.018534 0.002425 -0.001084
# 5 -0.001522 0.001754 -0.001558 0.002425 0.023476 0.001791
# 6 0.002757 -0.002306 0.001917 -0.001084 0.001791 0.019879
#
#
# Mechanical properties :
#
#
# Convention : Reuss Voigt Hill
#
# Bulk Modulus (GPa) = 50.13751 59.02876 54.58313
# Shear Modulus (GPa) = 40.28850 47.05841 43.67345
#
# Velocity S-wave (km/s) = 3.95685 4.27639 4.11972
# Velocity P-wave (km/s) = 6.35292 6.87915 6.62126
#
# Compressibility (1/GPa) = 0.01994515
#
# Stress axis : x y z
#
# Youngs Moduli (GPa) = 72.16340 95.98098 74.18548
#
# Poissons Ratio (x) = 0.51996 0.07017
# Poissons Ratio (y) = 0.39094 0.18859
# Poissons Ratio (z) = 0.06826 0.24399
#
# Static dielectric constant tensor:
#      x y z
#    x 1.990200 0.060820 -0.092880 
#    y 0.060820 1.973690 0.107190 
#    z -0.092880 0.107190 1.942010 
# 
# From -- ./inp_files/516182.got.cif
#   From: 2010.05.17/outbox.cif.g08.bks.cpg/sg2_259_cif.got.tgz:516182.got - 2010.06.03 11:33:40.
