data_PCOD9012952
_publ_section_title
;
Structure prediction by ZEFSAII (Michael W. Deem and Ramdas Pophale) SiO2 
 PCOD9012952
Probable space group: P -1
;
_chemical_formula_sum "Si O2"
_cell_formula_units_Z 16
_cell_length_a 7.445483
_cell_length_b 9.652041
_cell_length_c 17.519353
_cell_angle_alpha 48.340569
_cell_angle_beta 124.312750
_cell_angle_gamma 135.895733
_cell_volume 645.537700
_symmetry_space_group_name_H-M "P -1"
_symmetry_group_IT_number 2
_symmetry_cell_setting 'triclinic'
loop_
_space_group_symop_operation_xyz
x,y,z
-x,-y,-z
loop_
_atom_site_type_symbol
_atom_site_label
_atom_site_fract_x
_atom_site_fract_y
_atom_site_fract_z
Si Si1 0.801909 0.373332 0.114584
Si Si2 0.059036 0.225338 0.112815
Si Si3 0.297523 0.658083 0.221671
Si Si4 0.191894 0.025982 0.102422
Si Si5 0.547003 0.592183 0.731699
Si Si6 0.978649 0.462733 0.418528
Si Si7 0.527106 0.727953 0.405072
Si Si8 0.280738 0.024682 0.482723
O O1 0.861928 0.225971 0.126456
O O2 0.991188 0.443955 0.209055
O O3 0.028119 0.013519 0.141882
O O4 0.899648 0.600399 0.007263
O O5 0.491532 0.245158 0.100586
O O6 0.321147 0.313286 0.191408
O O7 0.428931 0.616073 0.197817
O O8 0.529185 0.727650 0.314645
O O9 0.247561 0.845007 0.157046
O O10 0.000000 0.000000 0.000000
O O11 0.266074 0.547946 0.670838
O O12 0.712248 0.782381 0.635057
O O13 0.000000 0.500000 0.500000
O O14 0.235026 0.669084 0.368630
O O15 0.958618 0.231313 0.484949
O O16 0.500000 0.500000 0.500000
O O17 0.679736 0.904828 0.444627
O O18 0.500000 0.000000 0.500000
#
# Coordination Sequence:
#
# PCOD9012952 Si02
#       8
#     2   2   2   2   2   2   2   2
#     4  10  24  49  67  98 140 174 225 286 340 410
#     4  10  23  45  71  97 135 179 222 282 349 401
#     4  11  25  45  64  99 136 173 224 285 337 405
#     4  12  26  44  72 103 136 177 232 283 342 408
#     4  10  22  45  64  93 134 171 224 276 332 408
#     4  11  22  40  68  92 129 182 223 271 339 399
#     4  12  24  43  64  97 137 173 222 281 335 399
#     4  10  21  41  62  91 128 168 221 273 322 399
#
# _framework density 24.785537999999999
#
# number of rings (size 3 to 8) (size 9 to 14) (size 15 to 20)
#    0.000    1.250    5.000    0.375    5.250    1.000 
#   11.250    0.000    0.000    0.000    0.000    0.000 
#    0.000    0.000    0.000    0.000    0.000    0.000 
#
# Total GULP energy -89106.592466 kJ/mol
# GULP energy per Si atom -5569.162029 kJ/mol
# Density = 2.472912 g / cm^3
# Si number density = 24.785538 Si / 1000 Ang^3
#
#
#
# Elastic Constant Matrix: (Units=GPa)
#
#
# Indices 1 2 3 4 5 6 
#
# 1 82.3196 40.2032 10.5267 -2.2478 13.0516 -3.4460
# 2 40.2032 153.3679 30.8735 27.5530 -3.9253 -31.3424
# 3 10.5267 30.8735 81.9092 17.9544 28.8904 -7.2491
# 4 -2.2478 27.5530 17.9544 44.3367 -5.7357 0.2250
# 5 13.0516 -3.9253 28.8904 -5.7357 37.8383 -0.9940
# 6 -3.4460 -31.3424 -7.2491 0.2250 -0.9940 44.8600
#
#
#
# Elastic Compliance Matrix: (Units=1/GPa)
#
#
# Indices 1 2 3 4 5 6 
#
# 1 0.015792 -0.005712 0.001776 0.002732 -0.007052 -0.002661
# 2 -0.005712 0.011232 -0.003625 -0.005151 0.005306 0.006966
# 3 0.001776 -0.003625 0.022256 -0.009177 -0.019352 0.000817
# 4 0.002732 -0.005151 -0.009177 0.030941 0.010094 -0.004803
# 5 -0.007052 0.005306 -0.019352 0.010094 0.045743 0.001001
# 6 -0.002661 0.006966 0.000817 -0.004803 0.001001 0.027133
#
#
# Mechanical properties :
#
#
# Convention : Reuss Voigt Hill
#
# Bulk Modulus (GPa) = 29.27607 53.42261 41.34934
# Shear Modulus (GPa) = 27.83880 41.13990 34.48935
#
# Velocity S-wave (km/s) = 3.35503 4.07853 3.73434
# Velocity P-wave (km/s) = 5.18129 6.61664 5.94246
#
# Compressibility (1/GPa) = 0.03415759
#
# Stress axis : x y z
#
# Youngs Moduli (GPa) = 63.32479 89.02916 44.93072
#
# Poissons Ratio (x) = 0.50856 -0.07981
# Poissons Ratio (y) = 0.36173 0.16290
# Poissons Ratio (z) = -0.11249 0.32277
#
# Static dielectric constant tensor:
#      x y z
#    x 2.024400 0.094790 0.015380 
#    y 0.094790 1.940420 -0.074450 
#    z 0.015380 -0.074450 2.017130 
# 
# From -- ./inp_files/555986.got.cif
#   From: 2010.05.17/outbox.cif.g08.bks.cpg/sg2_278_cif.got.tgz:555986.got - 2010.06.03 11:33:40.
