data_PCOD9012840
_publ_section_title
;
Structure prediction by ZEFSAII (Michael W. Deem and Ramdas Pophale) SiO2 
 PCOD9012840
Probable space group: P -1
;
_chemical_formula_sum "Si O2"
_cell_formula_units_Z 14
_cell_length_a 5.032205
_cell_length_b 22.990068
_cell_length_c 4.988783
_cell_angle_alpha 86.945743
_cell_angle_beta 92.625128
_cell_angle_gamma 61.811303
_cell_volume 506.326623
_symmetry_space_group_name_H-M "P -1"
_symmetry_group_IT_number 2
_symmetry_cell_setting 'triclinic'
loop_
_space_group_symop_operation_xyz
x,y,z
-x,-y,-z
loop_
_atom_site_type_symbol
_atom_site_label
_atom_site_fract_x
_atom_site_fract_y
_atom_site_fract_z
Si Si1 0.176635 0.691686 0.706326
Si Si2 0.542387 0.931094 0.904231
Si Si3 0.513648 0.284284 0.786647
Si Si4 0.938272 0.579250 0.169788
Si Si5 0.410253 0.191658 0.172970
Si Si6 0.378924 0.445526 0.340098
Si Si7 0.958839 0.067748 0.356020
O O1 0.352563 0.713834 0.495147
O O2 0.286036 0.614224 0.679199
O O3 0.830350 0.747167 0.681671
O O4 0.296629 0.695968 0.002845
O O5 0.730257 0.851611 0.970277
O O6 0.212264 0.935549 0.924058
O O7 0.727745 0.931416 0.642196
O O8 0.500000 0.000000 0.000000
O O9 0.170488 0.344131 0.795248
O O10 0.530300 0.219607 0.935691
O O11 0.741324 0.562628 0.377500
O O12 0.279466 0.522004 0.254342
O O13 0.825030 0.570387 0.877260
O O14 0.676968 0.139036 0.395220
O O15 0.000000 0.000000 0.500000
#
# Coordination Sequence:
#
# PCOD9012840 Si02
#       7
#     2   2   2   2   2   2   2
#     4  10  21  41  61  92 134 174 223 276 338 404
#     4  10  22  44  66  96 130 170 224 281 342 415
#     4  10  21  41  61  92 134 174 223 276 338 404
#     4   8  14  27  53  83 118 167 218 269 323 386
#     4  10  24  40  65  94 136 170 230 270 357 398
#     4   8  14  27  53  83 118 167 218 269 323 386
#     4  10  22  44  66  96 130 170 224 281 342 415
#
# _framework density 27.650137999999998
#
# number of rings (size 3 to 8) (size 9 to 14) (size 15 to 20)
#    0.857    1.714    0.000    1.714    0.000    1.143 
#   10.286    0.714    0.000    0.000    0.000   20.000 
#    0.000    0.000    0.000    0.000    0.000    0.000 
#
# Total GULP energy -78005.012272 kJ/mol
# GULP energy per Si atom -5571.786591 kJ/mol
# Density = 2.758721 g / cm^3
# Si number density = 27.650138 Si / 1000 Ang^3
#
#
#
# Elastic Constant Matrix: (Units=GPa)
#
#
# Indices 1 2 3 4 5 6 
#
# 1 92.0874 56.5905 38.4982 -8.2430 -11.5887 -10.0005
# 2 56.5905 216.8796 40.7904 -16.3693 -17.5223 -38.6808
# 3 38.4982 40.7904 95.7261 -5.5349 -9.1222 -0.1973
# 4 -8.2430 -16.3693 -5.5349 51.7742 -0.9206 -2.6484
# 5 -11.5887 -17.5223 -9.1222 -0.9206 24.7873 -3.6642
# 6 -10.0005 -38.6808 -0.1973 -2.6484 -3.6642 56.9426
#
#
#
# Elastic Compliance Matrix: (Units=1/GPa)
#
#
# Indices 1 2 3 4 5 6 
#
# 1 0.014987 -0.002418 -0.004553 0.001269 0.003858 0.001281
# 2 -0.002418 0.006769 -0.001424 0.001902 0.003867 0.004506
# 3 -0.004553 -0.001424 0.013026 0.000160 0.001424 -0.001623
# 4 0.001269 0.001902 0.000160 0.020327 0.003145 0.002663
# 5 0.003858 0.003867 0.001424 0.003145 0.046475 0.006447
# 6 0.001281 0.004506 -0.001623 0.002663 0.006447 0.021381
#
#
# Mechanical properties :
#
#
# Convention : Reuss Voigt Hill
#
# Bulk Modulus (GPa) = 55.58251 75.16125 65.37188
# Shear Modulus (GPa) = 34.30439 44.62176 39.46307
#
# Velocity S-wave (km/s) = 3.52612 4.02157 3.78197
# Velocity P-wave (km/s) = 6.06001 6.98613 6.53949
#
# Compressibility (1/GPa) = 0.01799127
#
# Stress axis : x y z
#
# Youngs Moduli (GPa) = 66.72399 147.72311 76.76874
#
# Poissons Ratio (x) = 0.35724 0.34955
# Poissons Ratio (y) = 0.16136 0.10933
# Poissons Ratio (z) = 0.30381 0.21038
#
# Static dielectric constant tensor:
#      x y z
#    x 2.454320 -0.040110 0.284530 
#    y -0.040110 2.298390 0.053900 
#    z 0.284530 0.053900 2.300700 
# 
# From -- ./inp_files/13108.got.cif
#   From: 2010.05.17/outbox.cif.g08.bks.cpg/sg2_7_cif.got.tgz:13108.got - 2010.06.03 11:33:40.
