data_PCOD9012810
_publ_section_title
;
Structure prediction by ZEFSAII (Michael W. Deem and Ramdas Pophale) SiO2 
 PCOD9012810
Probable space group: P -1
;
_chemical_formula_sum "Si O2"
_cell_formula_units_Z 16
_cell_length_a 16.740821
_cell_length_b 9.574911
_cell_length_c 7.021967
_cell_angle_alpha 61.271307
_cell_angle_beta 55.956194
_cell_angle_gamma 58.957731
_cell_volume 769.315399
_symmetry_space_group_name_H-M "P -1"
_symmetry_group_IT_number 2
_symmetry_cell_setting 'triclinic'
loop_
_space_group_symop_operation_xyz
x,y,z
-x,-y,-z
loop_
_atom_site_type_symbol
_atom_site_label
_atom_site_fract_x
_atom_site_fract_y
_atom_site_fract_z
Si Si1 0.911612 0.351905 0.112325
Si Si2 0.410269 0.149192 0.116216
Si Si3 0.402810 0.480140 0.747187
Si Si4 0.046918 0.825382 0.436238
Si Si5 0.786235 0.203922 0.094202
Si Si6 0.259979 0.306703 0.904392
Si Si7 0.267697 0.134693 0.612166
Si Si8 0.935189 0.682116 0.386210
O O1 0.922278 0.315062 0.345744
O O2 0.849903 0.245521 0.157012
O O3 0.850458 0.549770 0.021757
O O4 0.018671 0.297567 0.894500
O O5 0.434415 0.323224 0.955676
O O6 0.309136 0.186179 0.094320
O O7 0.377730 0.105791 0.392701
O O8 0.500000 0.000000 0.000000
O O9 0.500000 0.500000 0.500000
O O10 0.323354 0.644195 0.847582
O O11 0.336243 0.417183 0.721673
O O12 0.960213 0.806046 0.422902
O O13 0.144513 0.805385 0.181430
O O14 0.000000 0.000000 0.500000
O O15 0.765953 0.028691 0.257196
O O16 0.265142 0.192353 0.792717
O O17 0.182484 0.286813 0.515050
O O18 0.000000 0.500000 0.500000
#
# Coordination Sequence:
#
# PCOD9012810 Si02
#       8
#     2   2   2   2   2   2   2   2
#     4  10  21  41  61  89 132 174 214 256 309 377
#     4  10  23  42  67  90 126 157 205 268 322 375
#     4   9  20  45  67  86 125 163 204 261 322 380
#     4  11  23  39  61  91 133 171 223 256 304 375
#     4  10  23  39  63  92 129 170 212 262 317 374
#     4   9  23  38  66  92 123 160 210 256 318 378
#     4  12  23  39  64  94 129 163 211 261 319 371
#     4  11  24  37  62  93 130 174 214 259 313 371
#
# _framework density 20.797709999999999
#
# number of rings (size 3 to 8) (size 9 to 14) (size 15 to 20)
#    0.750    1.000    0.000    3.750    3.500    8.500 
#    0.000    0.625    0.000    0.000    0.000    0.000 
#    0.000    0.000    0.000    0.000    0.000    0.000 
#
# Total GULP energy -89290.826037 kJ/mol
# GULP energy per Si atom -5580.676627 kJ/mol
# Density = 2.075037 g / cm^3
# Si number density = 20.797710 Si / 1000 Ang^3
#
#
#
# Elastic Constant Matrix: (Units=GPa)
#
#
# Indices 1 2 3 4 5 6 
#
# 1 27.9813 5.5294 20.7279 11.9153 -7.1257 1.1404
# 2 5.5294 87.8841 6.5731 13.0138 1.2483 3.3467
# 3 20.7279 6.5731 95.0913 15.4031 -4.9439 3.5201
# 4 11.9153 13.0138 15.4031 29.6668 -5.9188 2.8881
# 5 -7.1257 1.2483 -4.9439 -5.9188 28.2888 0.6361
# 6 1.1404 3.3467 3.5201 2.8881 0.6361 32.9172
#
#
#
# Elastic Compliance Matrix: (Units=1/GPa)
#
#
# Indices 1 2 3 4 5 6 
#
# 1 0.049929 -0.000595 -0.008166 -0.013931 0.008255 0.000267
# 2 -0.000595 0.012274 0.000103 -0.005489 -0.001806 -0.000722
# 3 -0.008166 0.000103 0.012853 -0.003466 -0.000523 -0.000788
# 4 -0.013931 -0.005489 -0.003466 0.044879 0.005577 -0.002634
# 5 0.008255 -0.001806 -0.000523 0.005577 0.038613 -0.001282
# 6 0.000267 -0.000722 -0.000788 -0.002634 -0.001282 0.030784
#
#
# Mechanical properties :
#
#
# Convention : Reuss Voigt Hill
#
# Bulk Modulus (GPa) = 17.31928 30.73530 24.02729
# Shear Modulus (GPa) = 22.13424 30.04965 26.09194
#
# Velocity S-wave (km/s) = 3.26584 3.80525 3.54582
# Velocity P-wave (km/s) = 4.75043 5.84096 5.32369
#
# Compressibility (1/GPa) = 0.05773912
#
# Stress axis : x y z
#
# Youngs Moduli (GPa) = 20.02852 81.47131 77.80529
#
# Poissons Ratio (x) = 0.04848 0.63539
# Poissons Ratio (y) = 0.01192 -0.00803
# Poissons Ratio (z) = 0.16356 -0.00841
#
# Static dielectric constant tensor:
#      x y z
#    x 1.751930 -0.008920 0.004210 
#    y -0.008920 1.774890 -0.022830 
#    z 0.004210 -0.022830 1.763090 
# 
# From -- ./inp_files/106467.got.cif
#   From: 2010.05.17/outbox.cif.g08.bks.cpg/sg2_54_cif.got.tgz:106467.got - 2010.06.03 11:33:40.
