data_PCOD9012267
_publ_section_title
;
Structure prediction by ZEFSAII (Michael W. Deem and Ramdas Pophale) SiO2 
 PCOD9012267
Probable space group: P -1
;
_chemical_formula_sum "Si O2"
_cell_formula_units_Z 16
_cell_length_a 5.541308
_cell_length_b 10.690792
_cell_length_c 24.757550
_cell_angle_alpha 147.101227
_cell_angle_beta 124.636733
_cell_angle_gamma 65.339537
_cell_volume 649.511368
_symmetry_space_group_name_H-M "P -1"
_symmetry_group_IT_number 2
_symmetry_cell_setting 'triclinic'
loop_
_space_group_symop_operation_xyz
x,y,z
-x,-y,-z
loop_
_atom_site_type_symbol
_atom_site_label
_atom_site_fract_x
_atom_site_fract_y
_atom_site_fract_z
Si Si1 0.055795 0.266678 0.066257
Si Si2 0.832862 0.051526 0.214704
Si Si3 0.511145 0.353162 0.779716
Si Si4 0.841763 0.732116 0.563790
Si Si5 0.440535 0.403646 0.017594
Si Si6 0.069112 0.520454 0.702630
Si Si7 0.224758 0.144238 0.159979
Si Si8 0.795749 0.162192 0.460160
O O1 0.176874 0.528041 0.160470
O O2 0.221270 0.198274 0.115397
O O3 0.705274 0.271216 0.026895
O O4 0.060942 0.056946 0.947847
O O5 0.864075 0.271254 0.257244
O O6 0.493354 0.049080 0.189181
O O7 0.039007 0.109004 0.312698
O O8 0.837539 0.798437 0.097694
O O9 0.551834 0.396751 0.864378
O O10 0.293489 0.507047 0.775853
O O11 0.380862 0.095091 0.653918
O O12 0.487151 0.690817 0.515106
O O13 0.000000 0.500000 0.500000
O O14 0.983796 0.836065 0.562990
O O15 0.500000 0.500000 0.000000
O O16 0.787488 0.603994 0.725491
O O17 0.006585 0.276360 0.576015
#
# Coordination Sequence:
#
# PCOD9012267 Si02
#       8
#     2   2   2   2   2   2   2   2
#     4  10  22  41  68 101 139 189 231 301 363 434
#     4  11  24  41  74 103 141 186 248 293 364 427
#     4  12  26  45  69 103 146 189 236 302 370 435
#     4  12  26  52  75 107 146 196 245 302 356 433
#     4  11  25  45  66 101 144 187 234 294 368 443
#     4  12  24  44  71 104 135 193 241 309 354 430
#     4  10  21  40  69 104 140 179 246 302 356 425
#     4  12  30  47  76 106 151 192 249 300 364 430
#
# _framework density 24.633903
#
# number of rings (size 3 to 8) (size 9 to 14) (size 15 to 20)
#    0.000    0.750    3.750    3.000    5.250    1.500 
#    0.000    1.875    0.000    0.000    0.000    0.000 
#    0.000    0.000    0.000    0.000    0.000    0.000 
#
# Total GULP energy -89140.579803 kJ/mol
# GULP energy per Si atom -5571.286238 kJ/mol
# Density = 2.457783 g / cm^3
# Si number density = 24.633903 Si / 1000 Ang^3
#
#
#
# Elastic Constant Matrix: (Units=GPa)
#
#
# Indices 1 2 3 4 5 6 
#
# 1 48.4823 26.7954 7.7977 -19.2734 -5.6324 12.0199
# 2 26.7954 78.9489 28.3899 -15.3589 -12.3165 10.6517
# 3 7.7977 28.3899 170.6192 -11.9604 -15.6245 35.4055
# 4 -19.2734 -15.3589 -11.9604 56.0579 4.9325 5.3543
# 5 -5.6324 -12.3165 -15.6245 4.9325 26.0111 -5.2482
# 6 12.0199 10.6517 35.4055 5.3543 -5.2482 33.6305
#
#
#
# Elastic Compliance Matrix: (Units=1/GPa)
#
#
# Indices 1 2 3 4 5 6 
#
# 1 0.032714 -0.008234 0.003752 0.011172 0.000342 -0.014760
# 2 -0.008234 0.017112 -0.001999 0.000968 0.004986 0.000251
# 3 0.003752 -0.001999 0.008507 0.003286 0.002372 -0.009817
# 4 0.011172 0.000968 0.003286 0.023967 -0.002095 -0.011902
# 5 0.000342 0.004986 0.002372 -0.002095 0.043285 0.002889
# 6 -0.014760 0.000251 -0.009817 -0.011902 0.002889 0.047611
#
#
# Mechanical properties :
#
#
# Convention : Reuss Voigt Hill
#
# Bulk Modulus (GPa) = 22.04034 47.11293 34.57663
# Shear Modulus (GPa) = 24.84083 38.81109 31.82596
#
# Velocity S-wave (km/s) = 3.17898 3.97358 3.59828
# Velocity P-wave (km/s) = 4.73720 6.34186 5.59734
#
# Compressibility (1/GPa) = 0.04537135
#
# Stress axis : x y z
#
# Youngs Moduli (GPa) = 30.56832 58.43777 117.55297
#
# Poissons Ratio (x) = 0.48119 -0.44109
# Poissons Ratio (y) = 0.25171 0.23495
# Poissons Ratio (z) = -0.11470 0.11680
#
# Static dielectric constant tensor:
#      x y z
#    x 2.199990 -0.006170 -0.028630 
#    y -0.006170 1.964090 0.083230 
#    z -0.028630 0.083230 2.035920 
# 
# From -- ./inp_files/71112.got.cif
#   From: 2010.05.17/outbox.cif.g08.bks.cpg/sg2_36_cif.got.tgz:71112.got - 2010.06.03 11:33:40.
