data_PCOD9012690
_publ_section_title
;
Structure prediction by ZEFSAII (Michael W. Deem and Ramdas Pophale) SiO2 
 PCOD9012690
Probable space group: P -1
;
_chemical_formula_sum "Si O2"
_cell_formula_units_Z 16
_cell_length_a 15.611088
_cell_length_b 12.062554
_cell_length_c 9.127108
_cell_angle_alpha 51.186842
_cell_angle_beta 130.887415
_cell_angle_gamma 142.982267
_cell_volume 761.538311
_symmetry_space_group_name_H-M "P -1"
_symmetry_group_IT_number 2
_symmetry_cell_setting 'triclinic'
loop_
_space_group_symop_operation_xyz
x,y,z
-x,-y,-z
loop_
_atom_site_type_symbol
_atom_site_label
_atom_site_fract_x
_atom_site_fract_y
_atom_site_fract_z
Si Si1 0.924182 0.751545 0.775253
Si Si2 0.640580 0.538777 0.199456
Si Si3 0.588827 0.990496 0.232710
Si Si4 0.739865 0.320932 0.356142
Si Si5 0.022492 0.597256 0.229657
Si Si6 0.969980 0.910230 0.199079
Si Si7 0.928101 0.216337 0.371929
Si Si8 0.410954 0.552343 0.440061
O O1 0.750932 0.562766 0.723446
O O2 0.996212 0.812980 0.644877
O O3 0.939446 0.914770 0.733992
O O4 0.016423 0.720887 0.008089
O O5 0.665992 0.400449 0.277870
O O6 0.792372 0.752757 0.158349
O O7 0.617780 0.512438 0.369843
O O8 0.500000 0.500000 0.000000
O O9 0.627114 0.128728 0.295631
O O10 0.750379 0.077990 0.277064
O O11 0.500433 0.774702 0.354305
O O12 0.500000 0.000000 0.000000
O O13 0.826309 0.298623 0.593654
O O14 0.874538 0.482256 0.263559
O O15 0.999366 0.430592 0.256217
O O16 0.030589 0.805223 0.401162
O O17 0.000000 0.000000 0.000000
O O18 0.500000 0.500000 0.500000
#
# Coordination Sequence:
#
# PCOD9012690 Si02
#       8
#     2   2   2   2   2   2   2   2
#     4  12  25  43  75 103 141 188 247 299 355 434
#     4  12  29  47  73 109 149 191 241 301 367 436
#     4  11  27  44  75 105 147 193 236 298 372 432
#     4  10  22  45  69 105 147 182 243 297 357 433
#     4  10  21  40  76 103 140 181 235 305 363 416
#     4  12  27  45  74 103 141 192 247 293 360 426
#     4  11  23  46  71 103 142 185 246 296 353 436
#     4  12  28  48  71 106 153 196 238 300 368 430
#
# _framework density 21.010107000000001
#
# number of rings (size 3 to 8) (size 9 to 14) (size 15 to 20)
#    0.000    0.750    2.500    3.750   12.250    1.500 
#    0.000    0.000    0.000    0.000    0.000    0.000 
#    0.000    0.000    0.000    0.000    0.000    0.000 
#
# Total GULP energy -89513.727817 kJ/mol
# GULP energy per Si atom -5594.607989 kJ/mol
# Density = 2.096229 g / cm^3
# Si number density = 21.010107 Si / 1000 Ang^3
#
#
#
# Elastic Constant Matrix: (Units=GPa)
#
#
# Indices 1 2 3 4 5 6 
#
# 1 110.6117 34.3770 22.4174 10.0427 -5.6309 -14.0689
# 2 34.3770 142.1797 33.5367 15.4724 -6.0634 -3.1215
# 3 22.4174 33.5367 130.7909 8.5010 -0.1858 15.8311
# 4 10.0427 15.4724 8.5010 41.3181 8.3730 7.5755
# 5 -5.6309 -6.0634 -0.1858 8.3730 32.9018 4.5462
# 6 -14.0689 -3.1215 15.8311 7.5755 4.5462 34.6640
#
#
#
# Elastic Compliance Matrix: (Units=1/GPa)
#
#
# Indices 1 2 3 4 5 6 
#
# 1 0.011033 -0.001692 -0.001946 -0.003000 0.001546 0.005667
# 2 -0.001692 0.008289 -0.001799 -0.002922 0.001794 0.001285
# 3 -0.001946 -0.001799 0.009048 0.000218 0.000041 -0.005137
# 4 -0.003000 -0.002922 0.000218 0.028747 -0.007414 -0.006890
# 5 0.001546 0.001794 0.000041 -0.007414 0.033146 -0.001957
# 6 0.005667 0.001285 -0.005137 -0.006890 -0.001957 0.035373
#
#
# Mechanical properties :
#
#
# Convention : Reuss Voigt Hill
#
# Bulk Modulus (GPa) = 57.15055 62.69383 59.92219
# Shear Modulus (GPa) = 35.12705 41.32685 38.22695
#
# Velocity S-wave (km/s) = 4.09334 4.43990 4.27013
# Velocity P-wave (km/s) = 7.04280 7.49588 7.27287
#
# Compressibility (1/GPa) = 0.01749764
#
# Stress axis : x y z
#
# Youngs Moduli (GPa) = 90.64003 120.63737 110.51963
#
# Poissons Ratio (x) = 0.20409 0.21507
# Poissons Ratio (y) = 0.15334 0.19878
# Poissons Ratio (z) = 0.17638 0.21697
#
# Static dielectric constant tensor:
#      x y z
#    x 0.000000 0.000000 0.000000 
#    y 0.000000 0.000000 0.000000 
#    z 0.000000 0.000000 0.000000 
# 
# From -- ./inp_files/306599.got.cif
#   From: 2010.05.17/outbox.cif.g08.bks.cpg/sg2_154_cif.got.tgz:306599.got - 2010.06.03 11:33:40.
