data_PCOD9012598
_publ_section_title
;
Structure prediction by ZEFSAII (Michael W. Deem and Ramdas Pophale) SiO2 
 PCOD9012598
Probable space group: P -1
;
_chemical_formula_sum "Si O2"
_cell_formula_units_Z 15
_cell_length_a 11.249728
_cell_length_b 9.369258
_cell_length_c 10.457554
_cell_angle_alpha 36.443794
_cell_angle_beta 101.321429
_cell_angle_gamma 110.377025
_cell_volume 606.807142
_symmetry_space_group_name_H-M "P -1"
_symmetry_group_IT_number 2
_symmetry_cell_setting 'triclinic'
loop_
_space_group_symop_operation_xyz
x,y,z
-x,-y,-z
loop_
_atom_site_type_symbol
_atom_site_label
_atom_site_fract_x
_atom_site_fract_y
_atom_site_fract_z
Si Si1 0.455268 0.479544 0.808910
Si Si2 0.137863 0.765393 0.442751
Si Si3 0.691098 0.474198 0.022519
Si Si4 0.619218 0.884063 0.371869
Si Si5 0.089744 0.197454 0.778642
Si Si6 0.848964 0.879532 0.588975
Si Si7 0.713062 0.035385 0.930857
Si Si8 0.500000 0.000000 0.000000
O O1 0.331513 0.463613 0.879803
O O2 0.495912 0.693867 0.557197
O O3 0.579470 0.550193 0.872476
O O4 0.427060 0.189691 0.960116
O O5 0.127494 0.474127 0.649474
O O6 0.996129 0.784711 0.372785
O O7 0.185119 0.916352 0.472577
O O8 0.220337 0.881917 0.249939
O O9 0.653005 0.175314 0.215321
O O10 0.817803 0.636403 0.855050
O O11 0.748885 0.826290 0.487524
O O12 0.569282 0.886162 0.217291
O O13 0.204552 0.084941 0.876659
O O14 0.000000 0.000000 0.000000
O O15 0.000000 0.000000 0.500000
O O16 0.649719 0.224402 0.842397
#
# Coordination Sequence:
#
# PCOD9012598 Si02
#       8
#     2   2   2   2   2   2   2   1
#     4  10  21  40  71  98 133 174 230 282 350 418
#     4  10  22  46  69 101 135 182 242 287 348 417
#     4  10  21  44  66 101 137 173 231 287 346 423
#     4  11  26  44  65 100 138 189 227 289 353 420
#     4   9  22  42  68 101 132 182 231 286 343 410
#     4  11  26  45  72 105 139 183 236 296 358 412
#     4  11  23  42  68  97 138 185 226 290 345 422
#     4  12  28  46  62 102 148 182 236 278 364 430
#
# _framework density 24.719552
#
# number of rings (size 3 to 8) (size 9 to 14) (size 15 to 20)
#    0.000    1.600    2.667    0.400    5.600    1.067 
#    7.200    0.000    0.000    0.000    0.000    0.000 
#    0.000    0.000    0.000    0.000    0.000    0.000 
#
# Total GULP energy -83583.539957 kJ/mol
# GULP energy per Si atom -5572.235997 kJ/mol
# Density = 2.466329 g / cm^3
# Si number density = 24.719552 Si / 1000 Ang^3
#
#
#
# Elastic Constant Matrix: (Units=GPa)
#
#
# Indices 1 2 3 4 5 6 
#
# 1 162.3442 19.3339 64.8388 20.6637 -5.7451 19.5476
# 2 19.3339 95.0557 62.0705 14.1298 4.0022 8.4792
# 3 64.8388 62.0705 153.9837 -3.9532 -26.1169 4.7281
# 4 20.6637 14.1298 -3.9532 56.9906 8.0528 9.8900
# 5 -5.7451 4.0022 -26.1169 8.0528 36.3229 7.3740
# 6 19.5476 8.4792 4.7281 9.8900 7.3740 36.1258
#
#
#
# Elastic Compliance Matrix: (Units=1/GPa)
#
#
# Indices 1 2 3 4 5 6 
#
# 1 0.008514 0.002014 -0.004489 -0.003197 -0.000688 -0.003476
# 2 0.002014 0.016974 -0.008899 -0.004375 -0.006708 -0.001342
# 3 -0.004489 -0.008899 0.013649 0.003483 0.009338 -0.000128
# 4 -0.003197 -0.004375 0.003483 0.020779 -0.001500 -0.003081
# 5 -0.000688 -0.006708 0.009338 -0.001500 0.036489 -0.006313
# 6 -0.003476 -0.001342 -0.000128 -0.003081 -0.006313 0.032026
#
#
# Mechanical properties :
#
#
# Convention : Reuss Voigt Hill
#
# Bulk Modulus (GPa) = 61.01830 78.20777 69.61303
# Shear Modulus (GPa) = 31.91995 43.56390 37.74192
#
# Velocity S-wave (km/s) = 3.59734 4.20256 3.91167
# Velocity P-wave (km/s) = 6.48015 7.43340 6.97308
#
# Compressibility (1/GPa) = 0.01638853
#
# Stress axis : x y z
#
# Youngs Moduli (GPa) = 117.45548 58.91365 73.26722
#
# Poissons Ratio (x) = -0.11864 0.32888
# Poissons Ratio (y) = -0.23653 0.65200
# Poissons Ratio (z) = 0.52724 0.52427
#
# Static dielectric constant tensor:
#      x y z
#    x 2.177450 -0.062820 -0.049290 
#    y -0.062820 1.988280 0.002000 
#    z -0.049290 0.002000 1.983650 
# 
# From -- ./inp_files/427281.got.cif
#   From: 2010.05.17/outbox.cif.g08.bks.cpg/sg2_214_cif.got.tgz:427281.got - 2010.06.03 11:33:40.
