data_PCOD9012003
_publ_section_title
;
Structure prediction by ZEFSAII (Michael W. Deem and Ramdas Pophale) SiO2 
 PCOD9012003
Probable space group: P -1
;
_chemical_formula_sum "Si O2"
_cell_formula_units_Z 14
_cell_length_a 8.469617
_cell_length_b 9.700542
_cell_length_c 16.284291
_cell_angle_alpha 144.329922
_cell_angle_beta 110.681139
_cell_angle_gamma 54.443338
_cell_volume 614.315133
_symmetry_space_group_name_H-M "P -1"
_symmetry_group_IT_number 2
_symmetry_cell_setting 'triclinic'
loop_
_space_group_symop_operation_xyz
x,y,z
-x,-y,-z
loop_
_atom_site_type_symbol
_atom_site_label
_atom_site_fract_x
_atom_site_fract_y
_atom_site_fract_z
Si Si1 0.438388 0.685004 0.916561
Si Si2 0.221611 0.402780 0.465964
Si Si3 0.449619 0.119477 0.642096
Si Si4 0.164448 0.804891 0.781015
Si Si5 0.149440 0.283162 0.226718
Si Si6 0.905692 0.322292 0.873174
Si Si7 0.953846 0.813864 0.344282
O O1 0.406117 0.428056 0.794329
O O2 0.337008 0.804168 0.865240
O O3 0.671995 0.532525 0.909304
O O4 0.309781 0.959087 0.081199
O O5 0.270757 0.593324 0.621746
O O6 0.224502 0.405393 0.370196
O O7 0.000000 0.500000 0.500000
O O8 0.359281 0.086428 0.368248
O O9 0.268307 0.103877 0.636232
O O10 0.500000 0.000000 0.500000
O O11 0.048836 0.699282 0.765731
O O12 0.982539 0.096564 0.851554
O O13 0.092361 0.485219 0.236157
O O14 0.007150 0.152525 0.726077
O O15 0.000000 0.500000 0.000000
O O16 0.000000 0.000000 0.500000
#
# Coordination Sequence:
#
# PCOD9012003 Si02
#       7
#     2   2   2   2   2   2   2
#     4  12  25  46  79 105 146 199 252 299 368 442
#     4  10  21  40  68 106 136 177 244 306 352 419
#     4  12  23  45  78 108 140 192 251 301 360 440
#     4  11  23  47  76 102 146 195 253 305 356 447
#     4  11  24  44  76 109 141 191 259 306 356 438
#     4  12  30  48  69 109 160 191 237 312 384 432
#     4  12  27  49  73 109 151 190 239 310 375 434
#
# _framework density 22.789605999999999
#
# number of rings (size 3 to 8) (size 9 to 14) (size 15 to 20)
#    0.000    0.571    2.857    5.571    4.000    3.429 
#    0.000    1.429    0.000    0.000    0.000    0.000 
#    0.000    0.000    0.000    0.000    0.000    0.000 
#
# Total GULP energy -78267.410225 kJ/mol
# GULP energy per Si atom -5590.529302 kJ/mol
# Density = 2.273774 g / cm^3
# Si number density = 22.789606 Si / 1000 Ang^3
#
#
#
# Elastic Constant Matrix: (Units=GPa)
#
#
# Indices 1 2 3 4 5 6 
#
# 1 88.8712 40.1494 32.3511 3.6420 7.4160 -35.1531
# 2 40.1494 137.6988 13.8589 7.5960 0.0942 -31.6321
# 3 32.3511 13.8589 117.5306 3.2500 6.8452 -27.2774
# 4 3.6420 7.5960 3.2500 43.3377 -8.0803 5.9801
# 5 7.4160 0.0942 6.8452 -8.0803 28.7063 3.3092
# 6 -35.1531 -31.6321 -27.2774 5.9801 3.3092 37.9687
#
#
#
# Elastic Compliance Matrix: (Units=1/GPa)
#
#
# Indices 1 2 3 4 5 6 
#
# 1 0.020699 -0.001130 -0.000272 -0.005972 -0.009239 0.019773
# 2 -0.001130 0.009621 0.001391 -0.003261 -0.001987 0.008656
# 3 -0.000272 0.001391 0.011041 -0.003254 -0.004607 0.009754
# 4 -0.005972 -0.003261 -0.003254 0.028931 0.012342 -0.016216
# 5 -0.009239 -0.001987 -0.004607 0.012342 0.044027 -0.019301
# 6 0.019773 0.008656 0.009754 -0.016216 -0.019301 0.063098
#
#
# Mechanical properties :
#
#
# Convention : Reuss Voigt Hill
#
# Bulk Modulus (GPa) = 24.18960 57.42438 40.80699
# Shear Modulus (GPa) = 26.14819 39.18529 32.66674
#
# Velocity S-wave (km/s) = 3.39096 4.15111 3.79014
# Velocity P-wave (km/s) = 5.09597 6.94463 6.09085
#
# Compressibility (1/GPa) = 0.04134009
#
# Stress axis : x y z
#
# Youngs Moduli (GPa) = 48.31263 103.93653 90.56963
#
# Poissons Ratio (x) = 0.11743 0.02463
# Poissons Ratio (y) = 0.05458 -0.12601
# Poissons Ratio (z) = 0.01314 -0.14460
#
# Static dielectric constant tensor:
#      x y z
#    x 1.817690 -0.012520 0.005360 
#    y -0.012520 1.901060 -0.000990 
#    z 0.005360 -0.000990 1.859460 
# 
# From -- ./inp_files/495863.got.cif
#   From: 2010.05.17/outbox.cif.g08.bks.cpg/sg2_248_cif.got.tgz:495863.got - 2010.06.03 11:33:40.
