data_PCOD9012166
_publ_section_title
;
Structure prediction by ZEFSAII (Michael W. Deem and Ramdas Pophale) SiO2 
 PCOD9012166
Probable space group: P -1
;
_chemical_formula_sum "Si O2"
_cell_formula_units_Z 16
_cell_length_a 26.554462
_cell_length_b 23.198169
_cell_length_c 9.372495
_cell_angle_alpha 153.156056
_cell_angle_beta 144.790707
_cell_angle_gamma 17.326974
_cell_volume 750.178707
_symmetry_space_group_name_H-M "P -1"
_symmetry_group_IT_number 2
_symmetry_cell_setting 'triclinic'
loop_
_space_group_symop_operation_xyz
x,y,z
-x,-y,-z
loop_
_atom_site_type_symbol
_atom_site_label
_atom_site_fract_x
_atom_site_fract_y
_atom_site_fract_z
Si Si1 0.031931 0.764340 0.457299
Si Si2 0.244168 0.516688 0.692334
Si Si3 0.557233 0.524761 0.564637
Si Si4 0.548403 0.117446 0.312775
Si Si5 0.279650 0.259331 0.886954
Si Si6 0.474307 0.149931 0.662490
Si Si7 0.645679 0.244892 0.679972
Si Si8 0.062025 0.935980 0.665090
O O1 0.137360 0.617373 0.525028
O O2 0.088407 0.786533 0.508824
O O3 0.085685 0.556305 0.063794
O O4 0.840963 0.050467 0.696954
O O5 0.422646 0.337876 0.632029
O O6 0.321190 0.329223 0.582800
O O7 0.103645 0.781981 0.029890
O O8 0.500000 0.500000 0.500000
O O9 0.416053 0.688097 0.475795
O O10 0.743949 0.252734 0.324456
O O11 0.560379 0.668004 0.943673
O O12 0.652397 0.094231 0.423953
O O13 0.680208 0.858215 0.128659
O O14 0.420141 0.200774 0.093513
O O15 0.348028 0.079125 0.524918
O O16 0.500000 0.000000 0.500000
O O17 0.500000 0.500000 0.000000
O O18 0.000000 0.000000 0.500000
#
# Coordination Sequence:
#
# PCOD9012166 Si02
#       8
#     2   2   2   2   2   2   2   2
#     4  11  23  40  65 103 129 173 230 276 328 400
#     4  10  21  40  68  98 127 173 230 278 319 403
#     4  12  27  44  65 100 139 175 219 278 345 397
#     4   9  19  39  65  94 125 169 220 271 333 384
#     4   9  20  38  66  89 125 170 225 272 317 400
#     4  11  22  42  72  97 131 178 228 270 339 401
#     4  12  25  40  66  96 140 175 215 279 341 398
#     4  12  22  40  66  95 132 175 223 274 329 399
#
# _framework density 21.328251999999999
#
# number of rings (size 3 to 8) (size 9 to 14) (size 15 to 20)
#    0.000    1.250    1.250    6.375    3.500    0.500 
#    0.000    0.625    0.000    0.000    0.000    0.000 
#    0.000    0.000    0.000    0.000    0.000    0.000 
#
# Total GULP energy -89069.291494 kJ/mol
# GULP energy per Si atom -5566.830718 kJ/mol
# Density = 2.127971 g / cm^3
# Si number density = 21.328252 Si / 1000 Ang^3
#
#
#
# Elastic Constant Matrix: (Units=GPa)
#
#
# Indices 1 2 3 4 5 6 
#
# 1 142.4144 50.0801 33.8004 10.5144 10.3216 16.3977
# 2 50.0801 86.0760 19.5245 26.9196 1.6548 23.7093
# 3 33.8004 19.5245 84.8786 28.4279 -12.4625 7.2707
# 4 10.5144 26.9196 28.4279 40.5692 -0.8186 -4.6833
# 5 10.3216 1.6548 -12.4625 -0.8186 32.4094 3.0780
# 6 16.3977 23.7093 7.2707 -4.6833 3.0780 36.4489
#
#
#
# Elastic Compliance Matrix: (Units=1/GPa)
#
#
# Indices 1 2 3 4 5 6 
#
# 1 0.010594 -0.007424 -0.005583 0.006267 -0.005213 0.002423
# 2 -0.007424 0.026360 0.006607 -0.022223 0.004744 -0.018381
# 3 -0.005583 0.006607 0.020895 -0.018436 0.009879 -0.009157
# 4 0.006267 -0.022223 -0.018436 0.053154 -0.008782 0.022885
# 5 -0.005213 0.004744 0.009879 -0.008782 0.036508 -0.006922
# 6 0.002423 -0.018381 -0.009157 0.022885 -0.006922 0.043654
#
#
# Mechanical properties :
#
#
# Convention : Reuss Voigt Hill
#
# Bulk Modulus (GPa) = 22.19854 57.79765 39.99810
# Shear Modulus (GPa) = 22.83292 35.88309 29.35801
#
# Velocity S-wave (km/s) = 3.27547 4.10618 3.71413
# Velocity P-wave (km/s) = 4.97349 7.04549 6.09814
#
# Compressibility (1/GPa) = 0.04504800
#
# Stress axis : x y z
#
# Youngs Moduli (GPa) = 94.39498 37.93567 47.85890
#
# Poissons Ratio (x) = 0.28165 0.26719
# Poissons Ratio (y) = 0.70083 -0.31620
# Poissons Ratio (z) = 0.52700 -0.25064
#
# Static dielectric constant tensor:
#      x y z
#    x 1.818940 0.007590 -0.034240 
#    y 0.007590 1.881070 0.050030 
#    z -0.034240 0.050030 2.012930 
# 
# From -- ./inp_files/355322.got.cif
#   From: 2010.05.17/outbox.cif.g08.bks.cpg/sg2_178_cif.got.tgz:355322.got - 2010.06.03 11:33:40.
