data_PCOD9012013
_publ_section_title
;
Structure prediction by ZEFSAII (Michael W. Deem and Ramdas Pophale) SiO2 
 PCOD9012013
Probable space group: P -1
;
_chemical_formula_sum "Si O2"
_cell_formula_units_Z 12
_cell_length_a 9.901880
_cell_length_b 11.165395
_cell_length_c 5.008790
_cell_angle_alpha 97.535489
_cell_angle_beta 104.082472
_cell_angle_gamma 102.160439
_cell_volume 515.262840
_symmetry_space_group_name_H-M "P -1"
_symmetry_group_IT_number 2
_symmetry_cell_setting 'triclinic'
loop_
_space_group_symop_operation_xyz
x,y,z
-x,-y,-z
loop_
_atom_site_type_symbol
_atom_site_label
_atom_site_fract_x
_atom_site_fract_y
_atom_site_fract_z
Si Si1 0.883986 0.731720 0.696914
Si Si2 0.618095 0.130397 0.565404
Si Si3 0.494401 0.293290 0.933547
Si Si4 0.191677 0.861574 0.838758
Si Si5 0.366045 0.484229 0.632112
Si Si6 0.203062 0.137371 0.811730
O O1 0.782951 0.591842 0.589725
O O2 0.822109 0.818450 0.484954
O O3 0.050133 0.749662 0.711600
O O4 0.873302 0.789353 0.998805
O O5 0.552348 0.239422 0.683629
O O6 0.681408 0.146118 0.304939
O O7 0.500000 0.000000 0.500000
O O8 0.747389 0.128423 0.830655
O O9 0.375160 0.179630 0.972581
O O10 0.601769 0.610750 0.158029
O O11 0.621102 0.381906 0.190373
O O12 0.151037 0.990179 0.782622
O O13 0.500000 0.500000 0.500000
#
# Coordination Sequence:
#
# PCOD9012013 Si02
#       6
#     2   2   2   2   2   2
#     4  11  23  40  64  96 129 162 213 261 316 366
#     4  12  26  42  65  91 135 169 208 251 311 396
#     4  10  23  39  63  97 118 164 219 259 310 360
#     4  12  25  41  62  97 131 171 200 256 324 378
#     4  10  21  40  68  89 121 163 217 271 300 360
#     4  11  21  38  67  92 130 161 209 268 308 369
#
# _framework density 23.289088
#
# number of rings (size 3 to 8) (size 9 to 14) (size 15 to 20)
#    0.000    1.000    3.333    3.500    4.667    0.000 
#    0.000    1.667    0.000    0.000    0.000    0.000 
#    0.000    0.000    0.000    0.000    0.000    0.000 
#
# Total GULP energy -67142.187684 kJ/mol
# GULP energy per Si atom -5595.182307 kJ/mol
# Density = 2.323608 g / cm^3
# Si number density = 23.289088 Si / 1000 Ang^3
#
#
#
# Elastic Constant Matrix: (Units=GPa)
#
#
# Indices 1 2 3 4 5 6 
#
# 1 115.5645 23.9731 6.2443 27.5372 10.8134 41.1466
# 2 23.9731 65.0670 21.9008 20.0802 10.0127 19.1123
# 3 6.2443 21.9008 64.7682 23.0605 -7.1340 11.8560
# 4 27.5372 20.0802 23.0605 44.3090 -2.1287 7.6155
# 5 10.8134 10.0127 -7.1340 -2.1287 41.0855 6.6085
# 6 41.1466 19.1123 11.8560 7.6155 6.6085 40.7140
#
#
#
# Elastic Compliance Matrix: (Units=1/GPa)
#
#
# Indices 1 2 3 4 5 6 
#
# 1 0.016713 0.000480 0.004710 -0.010333 -0.001612 -0.016293
# 2 0.000480 0.021705 -0.004153 -0.006975 -0.005325 -0.007295
# 3 0.004710 -0.004153 0.022256 -0.011057 0.004339 -0.007928
# 4 -0.010333 -0.006975 -0.011057 0.036380 0.002828 0.009673
# 5 -0.001612 -0.005325 0.004339 0.002828 0.027298 -0.002094
# 6 -0.016293 -0.007295 -0.007928 0.009673 -0.002094 0.045292
#
#
# Mechanical properties :
#
#
# Convention : Reuss Voigt Hill
#
# Bulk Modulus (GPa) = 15.93686 38.84846 27.39266
# Shear Modulus (GPa) = 26.52712 38.10713 32.31713
#
# Velocity S-wave (km/s) = 3.37862 4.04947 3.72916
# Velocity P-wave (km/s) = 4.69873 6.21139 5.50724
#
# Compressibility (1/GPa) = 0.06274764
#
# Stress axis : x y z
#
# Youngs Moduli (GPa) = 59.83193 46.07299 44.93168
#
# Poissons Ratio (x) = -0.02209 -0.21165
# Poissons Ratio (y) = -0.02869 0.18661
# Poissons Ratio (z) = -0.28184 0.19135
#
# Static dielectric constant tensor:
#      x y z
#    x 1.905210 0.012700 0.059080 
#    y 0.012700 1.896590 -0.023910 
#    z 0.059080 -0.023910 1.880340 
# 
# From -- ./inp_files/20506.got.cif
#   From: 2010.05.17/outbox.cif.g08.bks.cpg/sg2_11_cif.got.tgz:20506.got - 2010.06.03 11:33:40.
