data_PCOD9012761
_publ_section_title
;
Structure prediction by ZEFSAII (Michael W. Deem and Ramdas Pophale) SiO2 
 PCOD9012761
Probable space group: P -1
;
_chemical_formula_sum "Si O2"
_cell_formula_units_Z 15
_cell_length_a 11.106037
_cell_length_b 17.319515
_cell_length_c 10.730280
_cell_angle_alpha 39.480828
_cell_angle_beta 126.098397
_cell_angle_gamma 152.242789
_cell_volume 579.675529
_symmetry_space_group_name_H-M "P -1"
_symmetry_group_IT_number 2
_symmetry_cell_setting 'triclinic'
loop_
_space_group_symop_operation_xyz
x,y,z
-x,-y,-z
loop_
_atom_site_type_symbol
_atom_site_label
_atom_site_fract_x
_atom_site_fract_y
_atom_site_fract_z
Si Si1 0.470398 0.743537 0.099690
Si Si2 0.072203 0.156337 0.947287
Si Si3 0.422366 0.196615 0.202378
Si Si4 0.481352 0.621867 0.487693
Si Si5 0.000000 0.000000 0.500000
Si Si6 0.259926 0.954384 0.611382
Si Si7 0.726025 0.261300 0.689732
Si Si8 0.024331 0.623209 0.062446
O O1 0.461670 0.612106 0.336708
O O2 0.497390 0.760215 0.946643
O O3 0.190619 0.624099 0.105780
O O4 0.775882 0.998820 0.005978
O O5 0.256140 0.383405 0.712145
O O6 0.253812 0.207406 0.095192
O O7 0.000000 0.000000 0.000000
O O8 0.269837 0.975405 0.443286
O O9 0.715410 0.395067 0.200110
O O10 0.410000 0.713976 0.359469
O O11 0.778016 0.800238 0.504220
O O12 0.236723 0.077306 0.487790
O O13 0.526733 0.079825 0.685155
O O14 0.026201 0.726334 0.828474
O O15 0.000000 0.500000 0.500000
O O16 0.807011 0.230488 0.892741
#
# Coordination Sequence:
#
# PCOD9012761 Si02
#       8
#     2   2   2   2   1   2   2   2
#     4  10  24  41  64  97 130 172 226 268 339 398
#     4  10  23  41  65  97 128 180 223 266 333 396
#     4  11  23  40  61  94 130 168 222 274 325 399
#     4  10  22  42  67  91 137 171 217 284 323 398
#     4  10  22  44  64 100 130 178 220 272 340 388
#     4  11  23  40  63  91 132 166 218 277 329 399
#     4  10  21  41  60  90 126 167 217 265 331 388
#     4  11  23  40  67  93 126 173 221 273 338 388
#
# _framework density 25.876545
#
# number of rings (size 3 to 8) (size 9 to 14) (size 15 to 20)
#    0.000    1.600    1.333    2.400    1.867    4.800 
#    2.400    4.000    0.000    0.000    0.000    0.000 
#    0.000    0.000    0.000    0.000    0.000    0.000 
#
# Total GULP energy -83509.801997 kJ/mol
# GULP energy per Si atom -5567.320133 kJ/mol
# Density = 2.581765 g / cm^3
# Si number density = 25.876545 Si / 1000 Ang^3
#
#
#
# Elastic Constant Matrix: (Units=GPa)
#
#
# Indices 1 2 3 4 5 6 
#
# 1 47.8791 25.6349 9.1136 8.8191 6.3415 17.4210
# 2 25.6349 119.6019 39.0753 10.4377 -4.8405 27.2981
# 3 9.1136 39.0753 196.1158 19.2617 -15.0090 -3.1027
# 4 8.8191 10.4377 19.2617 42.9506 10.9328 0.6030
# 5 6.3415 -4.8405 -15.0090 10.9328 17.6375 -7.2362
# 6 17.4210 27.2981 -3.1027 0.6030 -7.2362 35.8050
#
#
#
# Elastic Compliance Matrix: (Units=1/GPa)
#
#
# Indices 1 2 3 4 5 6 
#
# 1 0.032842 -0.002729 -0.003345 0.001912 -0.024450 -0.019162
# 2 -0.002729 0.011495 -0.002191 -0.001096 -0.000186 -0.007645
# 3 -0.003345 -0.002191 0.007321 -0.005449 0.012932 0.006637
# 4 0.001912 -0.001096 -0.005449 0.033078 -0.028994 -0.006984
# 5 -0.024450 -0.000186 0.012932 -0.028994 0.109055 0.035687
# 6 -0.019162 -0.007645 0.006637 -0.006984 0.035687 0.050986
#
#
# Mechanical properties :
#
#
# Convention : Reuss Voigt Hill
#
# Bulk Modulus (GPa) = 28.46734 56.80494 42.63614
# Shear Modulus (GPa) = 18.31389 38.59681 28.45535
#
# Velocity S-wave (km/s) = 2.66323 3.86628 3.31971
# Velocity P-wave (km/s) = 4.52572 6.47540 5.58627
#
# Compressibility (1/GPa) = 0.03512798
#
# Stress axis : x y z
#
# Youngs Moduli (GPa) = 30.44859 86.99522 136.59628
#
# Poissons Ratio (x) = 0.23745 0.45686
# Poissons Ratio (y) = 0.08311 0.29928
# Poissons Ratio (z) = 0.10184 0.19061
#
# Static dielectric constant tensor:
#      x y z
#    x 2.197420 -0.047000 0.024350 
#    y -0.047000 2.085990 0.104320 
#    z 0.024350 0.104320 2.402230 
# 
# From -- ./inp_files/458046.got.cif
#   From: 2010.05.17/outbox.cif.g08.bks.cpg/sg2_230_cif.got.tgz:458046.got - 2010.06.03 11:33:40.
