data_PCOD9012457
_publ_section_title
;
Structure prediction by ZEFSAII (Michael W. Deem and Ramdas Pophale) SiO2 
 PCOD9012457
Probable space group: P -1
;
_chemical_formula_sum "Si O2"
_cell_formula_units_Z 14
_cell_length_a 5.896719
_cell_length_b 18.285385
_cell_length_c 8.964874
_cell_angle_alpha 133.482489
_cell_angle_beta 62.239449
_cell_angle_gamma 119.893961
_cell_volume 596.350144
_symmetry_space_group_name_H-M "P -1"
_symmetry_group_IT_number 2
_symmetry_cell_setting 'triclinic'
loop_
_space_group_symop_operation_xyz
x,y,z
-x,-y,-z
loop_
_atom_site_type_symbol
_atom_site_label
_atom_site_fract_x
_atom_site_fract_y
_atom_site_fract_z
Si Si1 0.536781 0.688371 0.396051
Si Si2 0.713480 0.124630 0.254559
Si Si3 0.723646 0.730603 0.708951
Si Si4 0.163517 0.419751 0.280433
Si Si5 0.292807 0.580165 0.037351
Si Si6 0.603509 0.103720 0.912645
Si Si7 0.091251 0.728066 0.118395
O O1 0.474798 0.799959 0.563171
O O2 0.557104 0.667299 0.534448
O O3 0.333267 0.608919 0.239138
O O4 0.820992 0.699824 0.253518
O O5 0.728725 0.108507 0.047391
O O6 0.998524 0.190225 0.319702
O O7 0.587902 0.012316 0.208736
O O8 0.793477 0.651979 0.694925
O O9 0.563056 0.810416 0.926357
O O10 0.000000 0.500000 0.500000
O O11 0.976626 0.343412 0.109415
O O12 0.458740 0.453824 0.158068
O O13 0.293622 0.686319 0.098446
O O14 0.000000 0.500000 0.000000
O O15 0.823297 0.151005 0.787362
#
# Coordination Sequence:
#
# PCOD9012457 Si02
#       7
#     2   2   2   2   2   2   2
#     4  10  25  43  71 102 139 187 226 291 354 417
#     4  10  21  40  70 108 139 181 230 286 344 426
#     4  11  21  45  71 102 141 181 231 294 348 421
#     4  11  26  46  75 104 136 186 243 296 354 420
#     4  11  26  51  71  98 143 193 235 296 358 419
#     4  10  21  40  71 104 140 183 231 281 354 408
#     4  11  23  46  68  98 144 185 227 294 349 419
#
# _framework density 23.476143
#
# number of rings (size 3 to 8) (size 9 to 14) (size 15 to 20)
#    0.000    1.429    2.857    1.286    0.000    6.857 
#    2.571    5.714    0.000    0.000    0.000    0.000 
#    0.000    0.000    0.000    0.000    0.000    0.000 
#
# Total GULP energy -78340.834144 kJ/mol
# GULP energy per Si atom -5595.773867 kJ/mol
# Density = 2.342271 g / cm^3
# Si number density = 23.476143 Si / 1000 Ang^3
#
#
#
# Elastic Constant Matrix: (Units=GPa)
#
#
# Indices 1 2 3 4 5 6 
#
# 1 100.7983 30.3095 31.7628 3.4916 17.5204 -2.1587
# 2 30.3095 106.6282 11.5491 7.9080 18.0579 1.1349
# 3 31.7628 11.5491 73.4109 1.2634 14.6233 7.5007
# 4 3.4916 7.9080 1.2634 24.0100 3.7583 0.9339
# 5 17.5204 18.0579 14.6233 3.7583 32.1293 -7.8434
# 6 -2.1587 1.1349 7.5007 0.9339 -7.8434 30.9388
#
#
#
# Elastic Compliance Matrix: (Units=1/GPa)
#
#
# Indices 1 2 3 4 5 6 
#
# 1 0.012723 -0.002596 -0.004631 -0.000334 -0.003001 0.001355
# 2 -0.002596 0.011154 0.000693 -0.002410 -0.005388 -0.002051
# 3 -0.004631 0.000693 0.017698 0.000968 -0.007645 -0.006607
# 4 -0.000334 -0.002410 0.000968 0.043265 -0.004610 -0.002644
# 5 -0.003001 -0.005388 -0.007645 -0.004610 0.042949 0.012869
# 6 0.001355 -0.002051 -0.006607 -0.002644 0.012869 0.037436
#
#
# Mechanical properties :
#
#
# Convention : Reuss Voigt Hill
#
# Bulk Modulus (GPa) = 35.08083 47.56445 41.32264
# Shear Modulus (GPa) = 26.62450 31.23002 28.92726
#
# Velocity S-wave (km/s) = 3.37131 3.65127 3.51408
# Velocity P-wave (km/s) = 5.48907 6.17093 5.83996
#
# Compressibility (1/GPa) = 0.02850560
#
# Stress axis : x y z
#
# Youngs Moduli (GPa) = 78.59692 89.65134 56.50340
#
# Poissons Ratio (x) = 0.23277 0.26169
# Poissons Ratio (y) = 0.20407 -0.03915
# Poissons Ratio (z) = 0.36401 -0.06211
#
# Static dielectric constant tensor:
#      x y z
#    x 1.884140 0.035180 -0.022440 
#    y 0.035180 1.946600 -0.046740 
#    z -0.022440 -0.046740 1.901750 
# 
# From -- ./inp_files/122800.got.cif
#   From: 2010.05.17/outbox.cif.g08.bks.cpg/sg2_62_cif.got.tgz:122800.got - 2010.06.03 11:33:40.
