data_PCOD9012001
_publ_section_title
;
Structure prediction by ZEFSAII (Michael W. Deem and Ramdas Pophale) SiO2 
 PCOD9012001
Probable space group: P -1
;
_chemical_formula_sum "Si O2"
_cell_formula_units_Z 15
_cell_length_a 11.220740
_cell_length_b 5.431878
_cell_length_c 12.193178
_cell_angle_alpha 58.292882
_cell_angle_beta 73.414434
_cell_angle_gamma 82.034320
_cell_volume 605.884411
_symmetry_space_group_name_H-M "P -1"
_symmetry_group_IT_number 2
_symmetry_cell_setting 'triclinic'
loop_
_space_group_symop_operation_xyz
x,y,z
-x,-y,-z
loop_
_atom_site_type_symbol
_atom_site_label
_atom_site_fract_x
_atom_site_fract_y
_atom_site_fract_z
Si Si1 0.758385 0.951186 0.062937
Si Si2 0.815819 0.959344 0.638967
Si Si3 0.204009 0.715775 0.797923
Si Si4 0.039510 0.013436 0.180829
Si Si5 0.389718 0.161261 0.552949
Si Si6 0.017022 0.564659 0.607400
Si Si7 0.428963 0.771780 0.314466
Si Si8 0.500000 0.000000 0.000000
O O1 0.746915 0.603238 0.164383
O O2 0.642211 0.045036 0.998080
O O3 0.766377 0.166529 0.114204
O O4 0.883547 0.971686 0.952917
O O5 0.865379 0.018062 0.735656
O O6 0.879870 0.182525 0.482938
O O7 0.669042 0.990831 0.672778
O O8 0.883501 0.664281 0.662096
O O9 0.274038 0.946451 0.647927
O O10 0.054624 0.731028 0.826548
O O11 0.951003 0.727982 0.271438
O O12 0.363920 0.461066 0.428130
O O13 0.448611 0.226090 0.642194
O O14 0.500000 0.000000 0.500000
O O15 0.000000 0.500000 0.500000
O O16 0.462494 0.841247 0.165352
#
# Coordination Sequence:
#
# PCOD9012001 Si02
#       8
#     2   2   2   2   2   2   2   1
#     4  12  28  49  76 111 147 203 249 312 386 448
#     4  10  21  40  68 105 143 194 245 312 377 449
#     4  12  28  49  75 109 154 197 252 312 375 462
#     4  11  24  42  72 103 147 191 247 310 381 454
#     4  11  26  47  73 106 147 207 255 313 378 453
#     4   9  21  39  61 102 140 187 242 300 374 441
#     4  11  24  46  74 108 149 195 257 314 381 456
#     4  12  24  52  76 112 154 194 260 316 380 454
#
# _framework density 24.757194999999999
#
# number of rings (size 3 to 8) (size 9 to 14) (size 15 to 20)
#    0.000    1.067    2.667    2.400    5.600    5.867 
#    4.800    0.000    0.000    0.000    0.000    0.000 
#    0.000    0.000    0.000    0.000    0.000    0.000 
#
# Total GULP energy -83721.291947 kJ/mol
# GULP energy per Si atom -5581.419463 kJ/mol
# Density = 2.470085 g / cm^3
# Si number density = 24.757195 Si / 1000 Ang^3
#
#
#
# Elastic Constant Matrix: (Units=GPa)
#
#
# Indices 1 2 3 4 5 6 
#
# 1 108.3255 10.9387 39.6693 16.2417 18.2227 -3.4230
# 2 10.9387 96.9610 28.0105 13.6772 13.3825 1.2392
# 3 39.6693 28.0105 144.4719 15.0516 0.4340 8.4210
# 4 16.2417 13.6772 15.0516 24.6990 -6.3273 -6.2668
# 5 18.2227 13.3825 0.4340 -6.3273 32.2660 8.9549
# 6 -3.4230 1.2392 8.4210 -6.2668 8.9549 35.8628
#
#
#
# Elastic Compliance Matrix: (Units=1/GPa)
#
#
# Indices 1 2 3 4 5 6 
#
# 1 0.013886 0.002495 -0.003324 -0.010724 -0.011793 0.003090
# 2 0.002495 0.013295 -0.002275 -0.009711 -0.009039 0.000873
# 3 -0.003324 -0.002275 0.008658 -0.001855 0.003289 -0.003417
# 4 -0.010724 -0.009711 -0.001855 0.060635 0.020553 0.005211
# 5 -0.011793 -0.009039 0.003289 0.020553 0.048169 -0.010022
# 6 0.003090 0.000873 -0.003417 0.005211 -0.010022 0.032364
#
#
# Mechanical properties :
#
#
# Convention : Reuss Voigt Hill
#
# Bulk Modulus (GPa) = 33.74809 56.33281 45.04045
# Shear Modulus (GPa) = 25.89421 36.64156 31.26788
#
# Velocity S-wave (km/s) = 3.23759 3.85130 3.55770
# Velocity P-wave (km/s) = 5.25711 6.52535 5.92526
#
# Compressibility (1/GPa) = 0.02963131
#
# Stress axis : x y z
#
# Youngs Moduli (GPa) = 72.01403 75.21451 115.49907
#
# Poissons Ratio (x) = -0.18763 0.38392
# Poissons Ratio (y) = -0.17964 0.26273
# Poissons Ratio (z) = 0.23937 0.17109
#
# Static dielectric constant tensor:
#      x y z
#    x 1.987940 0.015560 0.019350 
#    y 0.015560 1.980950 -0.033380 
#    z 0.019350 -0.033380 1.958870 
# 
# From -- ./inp_files/409740.got.cif
#   From: 2010.05.17/outbox.cif.g08.bks.cpg/sg2_205_cif.got.tgz:409740.got - 2010.06.03 11:33:40.
