data_PCOD9012335
_publ_section_title
;
Structure prediction by ZEFSAII (Michael W. Deem and Ramdas Pophale) SiO2 
 PCOD9012335
Probable space group: P -1
;
_chemical_formula_sum "Si O2"
_cell_formula_units_Z 16
_cell_length_a 7.075639
_cell_length_b 12.346844
_cell_length_c 17.891507
_cell_angle_alpha 43.182466
_cell_angle_beta 50.988415
_cell_angle_gamma 46.502895
_cell_volume 749.854818
_symmetry_space_group_name_H-M "P -1"
_symmetry_group_IT_number 2
_symmetry_cell_setting 'triclinic'
loop_
_space_group_symop_operation_xyz
x,y,z
-x,-y,-z
loop_
_atom_site_type_symbol
_atom_site_label
_atom_site_fract_x
_atom_site_fract_y
_atom_site_fract_z
Si Si1 0.086584 0.907100 0.605689
Si Si2 0.103532 0.584427 0.834064
Si Si3 0.723914 0.562076 0.439829
Si Si4 0.432148 0.705072 0.199328
Si Si5 0.677763 0.633015 0.592201
Si Si6 0.603234 0.532988 0.036859
Si Si7 0.405056 0.885380 0.264889
Si Si8 0.692839 0.101691 0.007441
O O1 0.050817 0.728006 0.711740
O O2 0.415138 0.816607 0.583099
O O3 0.000000 0.000000 0.500000
O O4 0.868215 0.026989 0.661618
O O5 0.255494 0.396350 0.851164
O O6 0.267847 0.603048 0.857446
O O7 0.833023 0.593300 0.929351
O O8 0.500000 0.500000 0.500000
O O9 0.690759 0.616052 0.507734
O O10 0.651584 0.743760 0.322792
O O11 0.024836 0.407355 0.431603
O O12 0.352575 0.543600 0.287236
O O13 0.364885 0.770975 0.266317
O O14 0.326717 0.874787 0.088400
O O15 0.500000 0.500000 0.000000
O O16 0.379635 0.702695 0.044907
O O17 0.507772 0.019762 0.133432
O O18 0.000000 0.000000 0.000000
#
# Coordination Sequence:
#
# PCOD9012335 Si02
#       8
#     2   2   2   2   2   2   2   2
#     4  11  22  42  67  97 139 181 221 296 342 381
#     4   9  21  42  63  94 132 169 228 275 326 408
#     4  11  22  42  72  97 127 181 231 270 336 408
#     4  10  22  41  66  92 131 181 219 269 341 412
#     4  10  22  43  69  94 132 175 229 280 328 410
#     4  10  21  40  69  94 127 179 220 270 342 411
#     4  12  23  40  70  97 137 180 225 284 347 396
#     4  11  24  40  61 102 138 168 222 285 341 401
#
# _framework density 21.337463
#
# number of rings (size 3 to 8) (size 9 to 14) (size 15 to 20)
#    0.000    1.500    3.750    1.125    1.750    1.000 
#    0.000    0.625    8.250    0.000    0.000    0.000 
#    0.000    0.000    0.000    0.000    0.000    0.000 
#
# Total GULP energy -89077.295276 kJ/mol
# GULP energy per Si atom -5567.330955 kJ/mol
# Density = 2.128890 g / cm^3
# Si number density = 21.337463 Si / 1000 Ang^3
#
#
#
# Elastic Constant Matrix: (Units=GPa)
#
#
# Indices 1 2 3 4 5 6 
#
# 1 101.3389 55.1899 44.4309 1.3742 15.8523 -15.6926
# 2 55.1899 103.9079 24.6718 17.0121 16.3140 -35.1750
# 3 44.4309 24.6718 142.0287 -7.4008 35.7211 -12.5377
# 4 1.3742 17.0121 -7.4008 37.0287 -0.9135 2.6249
# 5 15.8523 16.3140 35.7211 -0.9135 23.4094 -1.5471
# 6 -15.6926 -35.1750 -12.5377 2.6249 -1.5471 37.8146
#
#
#
# Elastic Compliance Matrix: (Units=1/GPa)
#
#
# Indices 1 2 3 4 5 6 
#
# 1 0.015929 -0.009671 -0.003924 0.003385 0.001818 -0.003847
# 2 -0.009671 0.025724 0.003928 -0.012598 -0.016448 0.021419
# 3 -0.003924 0.003928 0.012991 0.000063 -0.019535 0.005529
# 4 0.003385 -0.012598 0.000063 0.033727 0.006890 -0.012352
# 5 0.001818 -0.016448 -0.019535 0.006890 0.081828 -0.018153
# 6 -0.003847 0.021419 0.005529 -0.012352 -0.018153 0.046720
#
#
# Mechanical properties :
#
#
# Convention : Reuss Voigt Hill
#
# Bulk Modulus (GPa) = 28.32070 66.20674 47.26372
# Shear Modulus (GPa) = 20.15963 34.51607 27.33785
#
# Velocity S-wave (km/s) = 3.07709 4.02634 3.58329
# Velocity P-wave (km/s) = 5.09178 7.26023 6.27045
#
# Compressibility (1/GPa) = 0.03530987
#
# Stress axis : x y z
#
# Youngs Moduli (GPa) = 62.77866 38.87484 76.97933
#
# Poissons Ratio (x) = 0.37596 0.30203
# Poissons Ratio (y) = 0.60713 -0.30237
# Poissons Ratio (z) = 0.24631 -0.15270
#
# Static dielectric constant tensor:
#      x y z
#    x 1.905730 -0.068260 0.057450 
#    y -0.068260 1.836230 -0.009330 
#    z 0.057450 -0.009330 1.869730 
# 
# From -- ./inp_files/549407.got.cif
#   From: 2010.05.17/outbox.cif.g08.bks.cpg/sg2_275_cif.got.tgz:549407.got - 2010.06.03 11:33:40.
