data_PCOD9012136
_publ_section_title
;
Structure prediction by ZEFSAII (Michael W. Deem and Ramdas Pophale) SiO2 
 PCOD9012136
Probable space group: P -1
;
_chemical_formula_sum "Si O2"
_cell_formula_units_Z 16
_cell_length_a 8.061289
_cell_length_b 9.220576
_cell_length_c 12.297087
_cell_angle_alpha 81.934628
_cell_angle_beta 122.210836
_cell_angle_gamma 64.182934
_cell_volume 607.261120
_symmetry_space_group_name_H-M "P -1"
_symmetry_group_IT_number 2
_symmetry_cell_setting 'triclinic'
loop_
_space_group_symop_operation_xyz
x,y,z
-x,-y,-z
loop_
_atom_site_type_symbol
_atom_site_label
_atom_site_fract_x
_atom_site_fract_y
_atom_site_fract_z
Si Si1 0.171994 0.859998 0.903550
Si Si2 0.230036 0.055544 0.098377
Si Si3 0.411928 0.763602 0.652242
Si Si4 0.746813 0.629690 0.961330
Si Si5 0.257968 0.220796 0.396284
Si Si6 0.284394 0.501862 0.820536
Si Si7 0.298023 0.306462 0.640008
Si Si8 0.061701 0.116232 0.631313
O O1 0.989683 0.832799 0.905397
O O2 0.108761 0.981117 0.760371
O O3 0.426630 0.650454 0.019486
O O4 0.178490 0.992269 0.977668
O O5 0.338500 0.163508 0.098778
O O6 0.419599 0.868179 0.246635
O O7 0.530318 0.641564 0.817195
O O8 0.644811 0.716513 0.671456
O O9 0.227127 0.754150 0.515196
O O10 0.228030 0.977045 0.604633
O O11 0.803343 0.575831 0.111430
O O12 0.000000 0.500000 0.000000
O O13 0.234243 0.325216 0.488836
O O14 0.974610 0.282489 0.284149
O O15 0.500000 0.000000 0.500000
O O16 0.290111 0.447128 0.703298
O O17 0.153623 0.241070 0.659259
#
# Coordination Sequence:
#
# PCOD9012136 Si02
#       8
#     2   2   2   2   2   2   2   2
#     4  10  21  41  67  98 133 166 222 273 325 391
#     4  10  21  40  68  97 129 177 213 269 335 387
#     4  11  23  39  63  94 127 176 210 266 324 394
#     4  12  22  43  65  96 135 171 224 264 329 392
#     4  12  23  43  64  92 132 175 215 266 340 394
#     4  11  24  41  68  98 130 171 223 278 323 388
#     4  11  22  42  69  96 129 174 223 270 326 392
#     4  11  21  39  65  97 129 172 216 266 324 394
#
# _framework density 26.347809000000002
#
# number of rings (size 3 to 8) (size 9 to 14) (size 15 to 20)
#    0.000    1.000    5.000    1.875    0.000    2.000 
#    2.250    1.250    0.000    0.000    0.000    0.000 
#    0.000    0.000    0.000    0.000    0.000    0.000 
#
# Total GULP energy -89201.235103 kJ/mol
# GULP energy per Si atom -5575.077194 kJ/mol
# Density = 2.628784 g / cm^3
# Si number density = 26.347809 Si / 1000 Ang^3
#
#
#
# Elastic Constant Matrix: (Units=GPa)
#
#
# Indices 1 2 3 4 5 6 
#
# 1 61.8329 14.3919 44.5855 -12.8771 -5.1924 -10.1630
# 2 14.3919 91.1474 34.2934 -13.0046 -11.0763 -14.4213
# 3 44.5855 34.2934 142.8786 -10.4660 -14.2308 -20.2444
# 4 -12.8771 -13.0046 -10.4660 44.8869 -20.2611 14.2315
# 5 -5.1924 -11.0763 -14.2308 -20.2611 54.2131 -7.6799
# 6 -10.1630 -14.4213 -20.2444 14.2315 -7.6799 40.4975
#
#
#
# Elastic Compliance Matrix: (Units=1/GPa)
#
#
# Indices 1 2 3 4 5 6 
#
# 1 0.022188 0.000163 -0.006083 0.005997 0.002950 0.001038
# 2 0.000163 0.013353 -0.002080 0.004400 0.004270 0.003019
# 3 -0.006083 -0.002080 0.010043 -0.000089 0.002045 0.003172
# 4 0.005997 0.004400 -0.000089 0.033031 0.012926 -0.006129
# 5 0.002950 0.004270 0.002045 0.012926 0.025474 0.003571
# 6 0.001038 0.003019 0.003172 -0.006129 0.003571 0.030445
#
#
# Mechanical properties :
#
#
# Convention : Reuss Voigt Hill
#
# Bulk Modulus (GPa) = 33.80228 53.60007 43.70117
# Shear Modulus (GPa) = 31.17312 41.42537 36.29924
#
# Velocity S-wave (km/s) = 3.44341 3.96946 3.71576
# Velocity P-wave (km/s) = 5.35411 6.43400 5.91873
#
# Compressibility (1/GPa) = 0.02958381
#
# Stress axis : x y z
#
# Youngs Moduli (GPa) = 45.06966 74.89178 99.57105
#
# Poissons Ratio (x) = -0.01224 0.60568
# Poissons Ratio (y) = -0.00737 0.20715
# Poissons Ratio (z) = 0.27415 0.15581
#
# Static dielectric constant tensor:
#      x y z
#    x 2.156530 0.059300 0.153310 
#    y 0.059300 2.088720 -0.002520 
#    z 0.153310 -0.002520 2.236740 
# 
# From -- ./inp_files/335834.got.cif
#   From: 2010.05.17/outbox.cif.g08.bks.cpg/sg2_168_cif.got.tgz:335834.got - 2010.06.03 11:33:40.
