data_PCOD9012338
_publ_section_title
;
Structure prediction by ZEFSAII (Michael W. Deem and Ramdas Pophale) SiO2 
 PCOD9012338
Probable space group: P -1
;
_chemical_formula_sum "Si O2"
_cell_formula_units_Z 12
_cell_length_a 8.944915
_cell_length_b 12.155477
_cell_length_c 12.308525
_cell_angle_alpha 36.662384
_cell_angle_beta 49.460830
_cell_angle_gamma 36.247680
_cell_volume 472.470987
_symmetry_space_group_name_H-M "P -1"
_symmetry_group_IT_number 2
_symmetry_cell_setting 'triclinic'
loop_
_space_group_symop_operation_xyz
x,y,z
-x,-y,-z
loop_
_atom_site_type_symbol
_atom_site_label
_atom_site_fract_x
_atom_site_fract_y
_atom_site_fract_z
Si Si1 0.709683 0.516266 0.342775
Si Si2 0.242056 0.971899 0.131709
Si Si3 0.159735 0.639420 0.146833
Si Si4 0.112027 0.245088 0.195332
Si Si5 0.018959 0.699661 0.407124
Si Si6 0.535280 0.172664 0.195180
O O1 0.500000 0.500000 0.500000
O O2 0.903258 0.308569 0.332208
O O3 0.873146 0.475355 0.403122
O O4 0.546124 0.770676 0.157393
O O5 0.148150 0.087728 0.203236
O O6 0.140452 0.828898 0.268001
O O7 0.094749 0.175008 0.949445
O O8 0.347229 0.395885 0.185331
O O9 0.113899 0.593082 0.326541
O O10 0.299078 0.759936 0.991721
O O11 0.370256 0.149650 0.208486
O O12 0.000000 0.500000 0.000000
O O13 0.723982 0.922614 0.364629
#
# Coordination Sequence:
#
# PCOD9012338 Si02
#       6
#     2   2   2   2   2   2
#     4  10  26  44  65  96 135 176 215 262 331 393
#     4  10  22  42  69  96 128 173 221 265 320 387
#     4  10  21  40  69  95 126 175 218 264 319 389
#     4  12  26  41  66 102 134 166 220 275 324 377
#     4  10  23  42  67  94 129 176 216 261 327 391
#     4  10  22  39  65  97 130 169 219 267 320 382
#
# _framework density 25.398384
#
# number of rings (size 3 to 8) (size 9 to 14) (size 15 to 20)
#    0.000    1.667    1.667    2.000    7.000    6.667 
#    0.000    1.667    0.000    0.000    0.000    0.000 
#    0.000    0.000    0.000    0.000    0.000    0.000 
#
# Total GULP energy -67239.253015 kJ/mol
# GULP energy per Si atom -5603.271085 kJ/mol
# Density = 2.534058 g / cm^3
# Si number density = 25.398384 Si / 1000 Ang^3
#
#
#
# Elastic Constant Matrix: (Units=GPa)
#
#
# Indices 1 2 3 4 5 6 
#
# 1 118.0414 47.2132 23.5913 11.1235 33.7562 -8.6146
# 2 47.2132 135.1575 39.4739 13.0542 33.4602 -5.1085
# 3 23.5913 39.4739 128.1717 1.0173 14.3547 -21.0535
# 4 11.1235 13.0542 1.0173 55.5877 -10.2502 15.4278
# 5 33.7562 33.4602 14.3547 -10.2502 47.2194 -5.6263
# 6 -8.6146 -5.1085 -21.0535 15.4278 -5.6263 59.7282
#
#
#
# Elastic Compliance Matrix: (Units=1/GPa)
#
#
# Indices 1 2 3 4 5 6 
#
# 1 0.011980 -0.001637 -0.000509 -0.003926 -0.007902 0.001678
# 2 -0.001637 0.010489 -0.002172 -0.003300 -0.006300 0.000154
# 3 -0.000509 -0.002172 0.009137 -0.000513 -0.000624 0.003035
# 4 -0.003926 -0.003300 -0.000513 0.023010 0.009573 -0.006071
# 5 -0.007902 -0.006300 -0.000624 0.009573 0.033413 -0.001224
# 6 0.001678 0.000154 0.003035 -0.006071 -0.001224 0.019521
#
#
# Mechanical properties :
#
#
# Convention : Reuss Voigt Hill
#
# Bulk Modulus (GPa) = 43.53461 66.88083 55.20772
# Shear Modulus (GPa) = 40.37331 50.57986 45.47659
#
# Velocity S-wave (km/s) = 3.99131 4.46742 4.23606
# Velocity P-wave (km/s) = 6.19827 7.28013 6.76088
#
# Compressibility (1/GPa) = 0.02297023
#
# Stress axis : x y z
#
# Youngs Moduli (GPa) = 83.46937 95.33426 109.44264
#
# Poissons Ratio (x) = 0.15611 0.05571
# Poissons Ratio (y) = 0.13668 0.23770
# Poissons Ratio (z) = 0.04249 0.20706
#
# Static dielectric constant tensor:
#      x y z
#    x 2.159640 0.001770 -0.095390 
#    y 0.001770 1.967050 -0.021600 
#    z -0.095390 -0.021600 2.158310 
# 
# From -- ./inp_files/278919.got.cif
#   From: 2010.05.17/outbox.cif.g08.bks.cpg/sg2_140_cif.got.tgz:278919.got - 2010.06.03 11:33:40.
