data_PCOD9012591
_publ_section_title
;
Structure prediction by ZEFSAII (Michael W. Deem and Ramdas Pophale) SiO2 
 PCOD9012591
Probable space group: P -1
;
_chemical_formula_sum "Si O2"
_cell_formula_units_Z 14
_cell_length_a 5.344473
_cell_length_b 8.396004
_cell_length_c 18.857819
_cell_angle_alpha 42.850985
_cell_angle_beta 75.117407
_cell_angle_gamma 75.771459
_cell_volume 554.052872
_symmetry_space_group_name_H-M "P -1"
_symmetry_group_IT_number 2
_symmetry_cell_setting 'triclinic'
loop_
_space_group_symop_operation_xyz
x,y,z
-x,-y,-z
loop_
_atom_site_type_symbol
_atom_site_label
_atom_site_fract_x
_atom_site_fract_y
_atom_site_fract_z
Si Si1 0.422999 0.429404 0.336835
Si Si2 0.622506 0.296722 0.503755
Si Si3 0.869874 0.173304 0.201531
Si Si4 0.294297 0.211766 0.271803
Si Si5 0.252016 0.218177 0.866386
Si Si6 0.812948 0.930894 0.926506
Si Si7 0.009900 0.369777 0.617167
O O1 0.465218 0.250900 0.458593
O O2 0.290135 0.336153 0.307596
O O3 0.669811 0.542310 0.250505
O O4 0.263813 0.642275 0.321255
O O5 0.500000 0.500000 0.500000
O O6 0.857561 0.433756 0.412290
O O7 0.697118 0.064493 0.617838
O O8 0.566678 0.263809 0.197447
O O9 0.053396 0.260634 0.221205
O O10 0.029918 0.188904 0.111822
O O11 0.858026 0.890824 0.308816
O O12 0.515098 0.035279 0.899057
O O13 0.001320 0.127324 0.875959
O O14 0.202071 0.230098 0.950238
O O15 0.000000 0.500000 0.500000
#
# Coordination Sequence:
#
# PCOD9012591 Si02
#       7
#     2   2   2   2   2   2   2
#     4  12  26  42  62  95 133 170 207 275 320 381
#     4  12  23  41  64  92 125 173 222 266 308 380
#     4  12  23  44  64  95 127 173 214 262 313 385
#     4  12  28  41  63  96 136 172 211 256 330 380
#     4  10  22  40  67 103 122 160 214 271 321 364
#     4  10  21  40  71  97 125 160 217 268 311 376
#     4  12  22  38  66  89 122 165 222 262 309 370
#
# _framework density 25.268346000000001
#
# number of rings (size 3 to 8) (size 9 to 14) (size 15 to 20)
#    0.000    0.571    5.714    2.143    2.000    0.571 
#    0.000    1.429    0.000    0.000    0.000    0.000 
#    0.000    0.000    0.000    0.000    0.000    0.000 
#
# Total GULP energy -78242.165637 kJ/mol
# GULP energy per Si atom -5588.726117 kJ/mol
# Density = 2.521083 g / cm^3
# Si number density = 25.268346 Si / 1000 Ang^3
#
#
#
# Elastic Constant Matrix: (Units=GPa)
#
#
# Indices 1 2 3 4 5 6 
#
# 1 124.6139 31.3349 23.9547 9.9392 -6.4066 -1.3085
# 2 31.3349 92.2285 47.5280 29.1783 -2.1039 -2.0094
# 3 23.9547 47.5280 114.5773 38.5706 -8.1354 -0.6819
# 4 9.9392 29.1783 38.5706 47.6631 -0.1727 -2.4267
# 5 -6.4066 -2.1039 -8.1354 -0.1727 38.4027 9.1501
# 6 -1.3085 -2.0094 -0.6819 -2.4267 9.1501 39.1812
#
#
#
# Elastic Compliance Matrix: (Units=1/GPa)
#
#
# Indices 1 2 3 4 5 6 
#
# 1 0.008888 -0.002730 -0.000797 0.000462 0.001192 -0.000107
# 2 -0.002730 0.015658 -0.004033 -0.005733 -0.000578 0.000422
# 3 -0.000797 -0.004033 0.013588 -0.008410 0.002764 -0.001163
# 4 0.000462 -0.005733 -0.008410 0.031296 -0.002370 0.002067
# 5 0.001192 -0.000578 0.002764 -0.002370 0.028382 -0.006717
# 6 -0.000107 0.000422 -0.001163 0.002067 -0.006717 0.027217
#
#
# Mechanical properties :
#
#
# Convention : Reuss Voigt Hill
#
# Bulk Modulus (GPa) = 43.45329 59.67276 51.56302
# Shear Modulus (GPa) = 33.82476 40.28955 37.05715
#
# Velocity S-wave (km/s) = 3.66269 3.99741 3.83370
# Velocity P-wave (km/s) = 5.92631 6.70616 6.32826
#
# Compressibility (1/GPa) = 0.02301322
#
# Stress axis : x y z
#
# Youngs Moduli (GPa) = 112.51319 63.86355 73.59639
#
# Poissons Ratio (x) = 0.17436 0.05867
# Poissons Ratio (y) = 0.30718 0.29681
# Poissons Ratio (z) = 0.08970 0.25756
#
# Static dielectric constant tensor:
#      x y z
#    x 2.825160 0.051100 -0.089640 
#    y 0.051100 2.018710 -0.042270 
#    z -0.089640 -0.042270 1.991580 
# 
# From -- ./inp_files/94243.got.cif
#   From: 2010.05.17/outbox.cif.g08.bks.cpg/sg2_48_cif.got.tgz:94243.got - 2010.06.03 11:33:40.
