data_PCOD9012865
_publ_section_title
;
Structure prediction by ZEFSAII (Michael W. Deem and Ramdas Pophale) SiO2 
 PCOD9012865
Probable space group: P -1
;
_chemical_formula_sum "Si O2"
_cell_formula_units_Z 14
_cell_length_a 5.654701
_cell_length_b 5.334632
_cell_length_c 21.968910
_cell_angle_alpha 78.840721
_cell_angle_beta 62.153340
_cell_angle_gamma 101.857506
_cell_volume 540.415073
_symmetry_space_group_name_H-M "P -1"
_symmetry_group_IT_number 2
_symmetry_cell_setting 'triclinic'
loop_
_space_group_symop_operation_xyz
x,y,z
-x,-y,-z
loop_
_atom_site_type_symbol
_atom_site_label
_atom_site_fract_x
_atom_site_fract_y
_atom_site_fract_z
Si Si1 0.266606 0.616477 0.041453
Si Si2 0.911116 0.220473 0.352352
Si Si3 0.020397 0.420516 0.202987
Si Si4 0.805421 0.094295 0.066000
Si Si5 0.305120 0.165582 0.781646
Si Si6 0.313015 0.969141 0.461344
Si Si7 0.844032 0.265873 0.627106
O O1 0.229869 0.606748 0.118680
O O2 0.966243 0.387721 0.065393
O O3 0.500000 0.500000 0.000000
O O4 0.380279 0.861986 0.968171
O O5 0.096329 0.375733 0.265302
O O6 0.578538 0.173859 0.380365
O O7 0.980603 0.428285 0.390038
O O8 0.986111 0.947305 0.370908
O O9 0.786801 0.571358 0.228127
O O10 0.925772 0.112872 0.203177
O O11 0.681563 0.891445 0.145482
O O12 0.000000 0.000000 0.000000
O O13 0.578142 0.183071 0.708360
O O14 0.500000 0.000000 0.500000
O O15 0.249643 0.724675 0.432092
O O16 0.000000 0.000000 0.500000
#
# Coordination Sequence:
#
# PCOD9012865 Si02
#       7
#     2   2   2   2   2   2   2
#     4  10  23  39  62  95 141 194 256 318 385 457
#     4  12  28  50  80 118 161 206 267 323 400 481
#     4  11  23  44  70 104 148 200 260 327 392 469
#     4  10  21  41  61  94 142 191 251 318 383 449
#     4  11  23  43  73 101 151 202 258 327 392 469
#     4  12  28  56  87 125 167 210 265 332 403 487
#     4  12  28  50  81 117 158 213 262 325 403 477
#
# _framework density 25.906013999999999
#
# number of rings (size 3 to 8) (size 9 to 14) (size 15 to 20)
#    0.000    0.857    4.286    1.714    2.000    2.857 
#    0.000    0.000    0.000    0.000    0.000    0.000 
#    0.000    0.000    0.000    0.000    0.000    0.000 
#
# Total GULP energy -77956.093610 kJ/mol
# GULP energy per Si atom -5568.292401 kJ/mol
# Density = 2.584705 g / cm^3
# Si number density = 25.906014 Si / 1000 Ang^3
#
#
#
# Elastic Constant Matrix: (Units=GPa)
#
#
# Indices 1 2 3 4 5 6 
#
# 1 95.3240 38.5038 62.4216 12.3415 20.4533 -5.8434
# 2 38.5038 94.8004 42.4482 5.5257 15.3946 -4.0061
# 3 62.4216 42.4482 175.1362 11.3977 15.3772 1.1532
# 4 12.3415 5.5257 11.3977 53.5682 4.9502 1.7800
# 5 20.4533 15.3946 15.3772 4.9502 60.6502 10.2531
# 6 -5.8434 -4.0061 1.1532 1.7800 10.2531 66.9033
#
#
#
# Elastic Compliance Matrix: (Units=1/GPa)
#
#
# Indices 1 2 3 4 5 6 
#
# 1 0.016002 -0.003785 -0.004356 -0.002110 -0.003469 0.001834
# 2 -0.003785 0.013161 -0.001692 0.000012 -0.001764 0.000757
# 3 -0.004356 -0.001692 0.007698 -0.000447 0.000087 -0.000616
# 4 -0.002110 0.000012 -0.000447 0.019328 -0.000656 -0.000590
# 5 -0.003469 -0.001764 0.000087 -0.000656 0.018688 -0.003257
# 6 0.001834 0.000757 -0.000616 -0.000590 -0.003257 0.015678
#
#
# Mechanical properties :
#
#
# Convention : Reuss Voigt Hill
#
# Bulk Modulus (GPa) = 58.15585 72.44532 65.30058
# Shear Modulus (GPa) = 43.12146 51.01680 47.06913
#
# Velocity S-wave (km/s) = 4.08430 4.44250 4.26716
# Velocity P-wave (km/s) = 6.68876 7.37155 7.03844
#
# Compressibility (1/GPa) = 0.01719517
#
# Stress axis : x y z
#
# Youngs Moduli (GPa) = 62.49284 75.98215 129.90406
#
# Poissons Ratio (x) = 0.28759 0.56588
# Poissons Ratio (y) = 0.23653 0.21976
# Poissons Ratio (z) = 0.27223 0.12854
#
# Static dielectric constant tensor:
#      x y z
#    x 2.045620 0.325410 0.050770 
#    y 0.325410 0.726760 -0.116550 
#    z 0.050770 -0.116550 2.100750 
# 
# From -- ./inp_files/114701.got.cif
#   From: 2010.05.17/outbox.cif.g08.bks.cpg/sg2_58_cif.got.tgz:114701.got - 2010.06.03 11:33:40.
