data_PCOD9012988
_publ_section_title
;
Structure prediction by ZEFSAII (Michael W. Deem and Ramdas Pophale) SiO2 
 PCOD9012988
Probable space group: P -1
;
_chemical_formula_sum "Si O2"
_cell_formula_units_Z 15
_cell_length_a 21.092588
_cell_length_b 8.146757
_cell_length_c 5.228019
_cell_angle_alpha 58.923601
_cell_angle_beta 74.236541
_cell_angle_gamma 48.530107
_cell_volume 573.080710
_symmetry_space_group_name_H-M "P -1"
_symmetry_group_IT_number 2
_symmetry_cell_setting 'triclinic'
loop_
_space_group_symop_operation_xyz
x,y,z
-x,-y,-z
loop_
_atom_site_type_symbol
_atom_site_label
_atom_site_fract_x
_atom_site_fract_y
_atom_site_fract_z
Si Si1 0.456948 0.997304 0.796781
Si Si2 0.500000 0.500000 0.000000
Si Si3 0.305781 0.385263 0.915487
Si Si4 0.899995 0.656415 0.788537
Si Si5 0.741530 0.834064 0.532939
Si Si6 0.035054 0.677824 0.513321
Si Si7 0.174638 0.673621 0.454872
Si Si8 0.316316 0.688405 0.066791
O O1 0.500000 0.000000 0.500000
O O2 0.360650 0.253336 0.708915
O O3 0.466833 0.753292 0.970751
O O4 0.500000 0.000000 0.000000
O O5 0.587542 0.458153 0.822807
O O6 0.206950 0.574566 0.787664
O O7 0.326542 0.535415 0.927529
O O8 0.327500 0.156563 0.239617
O O9 0.802827 0.823520 0.678141
O O10 0.946941 0.435098 0.701668
O O11 0.937508 0.800584 0.584752
O O12 0.918891 0.542378 0.142580
O O13 0.790390 0.573143 0.547360
O O14 0.709301 0.052798 0.204121
O O15 0.074895 0.816057 0.396608
O O16 0.232476 0.748649 0.246585
#
# Coordination Sequence:
#
# PCOD9012988 Si02
#       8
#     2   1   2   2   2   2   2   2
#     4  12  28  48  72 100 136 175 233 294 350 419
#     4  12  26  48  72  98 138 188 234 296 356 426
#     4  11  23  43  66  94 135 178 225 290 352 413
#     4   9  17  34  61 100 127 174 226 271 331 416
#     4  10  22  40  65  95 131 177 227 283 343 414
#     4   9  17  33  65  93 133 174 222 272 339 405
#     4  10  21  41  62  93 133 180 221 285 343 411
#     4  11  25  42  66  98 133 177 239 284 355 413
#
# _framework density 26.174323000000001
#
# number of rings (size 3 to 8) (size 9 to 14) (size 15 to 20)
#    0.000    1.600    2.667    1.600    3.733    3.733 
#    0.000    0.667    0.000    0.800    0.000    0.000 
#    0.000    0.000    0.000    0.000    0.000    0.000 
#
# Total GULP energy -83581.958361 kJ/mol
# GULP energy per Si atom -5572.130557 kJ/mol
# Density = 2.611475 g / cm^3
# Si number density = 26.174323 Si / 1000 Ang^3
#
#
#
# Elastic Constant Matrix: (Units=GPa)
#
#
# Indices 1 2 3 4 5 6 
#
# 1 169.8395 20.6314 32.7300 3.5633 -30.1145 20.7047
# 2 20.6314 72.8347 20.9408 8.7394 -12.5188 26.7905
# 3 32.7300 20.9408 102.6111 15.1193 -22.5670 11.6217
# 4 3.5633 8.7394 15.1193 36.1820 -0.2887 -7.6491
# 5 -30.1145 -12.5188 -22.5670 -0.2887 54.7237 1.9679
# 6 20.7047 26.7905 11.6217 -7.6491 1.9679 50.5791
#
#
#
# Elastic Compliance Matrix: (Units=1/GPa)
#
#
# Indices 1 2 3 4 5 6 
#
# 1 0.007097 0.000122 -0.001017 -0.000912 0.003618 -0.003015
# 2 0.000122 0.019803 -0.000719 -0.006910 0.004682 -0.011601
# 3 -0.001017 -0.000719 0.012350 -0.005495 0.004449 -0.003045
# 4 -0.000912 -0.006910 -0.005495 0.033898 -0.004551 0.010599
# 5 0.003618 0.004682 0.004449 -0.004551 0.023383 -0.006581
# 6 -0.003015 -0.011601 -0.003045 0.010599 -0.006581 0.029709
#
#
# Mechanical properties :
#
#
# Convention : Reuss Voigt Hill
#
# Bulk Modulus (GPa) = 27.76041 54.87664 41.31852
# Shear Modulus (GPa) = 35.34237 46.36249 40.85243
#
# Velocity S-wave (km/s) = 3.67859 4.21324 3.95496
# Velocity P-wave (km/s) = 5.35459 6.68430 6.05605
#
# Compressibility (1/GPa) = 0.03602252
#
# Stress axis : x y z
#
# Youngs Moduli (GPa) = 140.89978 50.49810 80.97408
#
# Poissons Ratio (x) = -0.00618 0.08237
# Poissons Ratio (y) = -0.01723 0.05818
# Poissons Ratio (z) = 0.14334 0.03629
#
# Static dielectric constant tensor:
#      x y z
#    x 2.128540 -0.115890 -0.050620 
#    y -0.115890 2.051590 0.027880 
#    z -0.050620 0.027880 2.098720 
# 
# From -- ./inp_files/116522.got.cif
#   From: 2010.05.17/outbox.cif.g08.bks.cpg/sg2_59_cif.got.tgz:116522.got - 2010.06.03 11:33:40.
