data_PCOD9012474
_publ_section_title
;
Structure prediction by ZEFSAII (Michael W. Deem and Ramdas Pophale) SiO2 
 PCOD9012474
Probable space group: P -1
;
_chemical_formula_sum "Si O2"
_cell_formula_units_Z 16
_cell_length_a 7.828077
_cell_length_b 14.277590
_cell_length_c 9.193227
_cell_angle_alpha 102.076753
_cell_angle_beta 83.496610
_cell_angle_gamma 47.603318
_cell_volume 694.462391
_symmetry_space_group_name_H-M "P -1"
_symmetry_group_IT_number 2
_symmetry_cell_setting 'triclinic'
loop_
_space_group_symop_operation_xyz
x,y,z
-x,-y,-z
loop_
_atom_site_type_symbol
_atom_site_label
_atom_site_fract_x
_atom_site_fract_y
_atom_site_fract_z
Si Si1 0.598877 0.318814 0.886721
Si Si2 0.334310 0.765090 0.444155
Si Si3 0.980549 0.900947 0.024535
Si Si4 0.044611 0.367693 0.472400
Si Si5 0.721215 0.465422 0.794556
Si Si6 0.274904 0.659055 0.684600
Si Si7 0.774104 0.970615 0.516790
Si Si8 0.497562 0.952846 0.716640
O O1 0.502338 0.326549 0.740801
O O2 0.713712 0.378915 0.874534
O O3 0.383200 0.406282 0.055823
O O4 0.834347 0.169192 0.877337
O O5 0.378461 0.696890 0.571498
O O6 0.293518 0.894341 0.476083
O O7 0.062030 0.835165 0.455261
O O8 0.094331 0.783735 0.856427
O O9 0.701347 0.982955 0.118089
O O10 0.000000 0.000000 0.000000
O O11 0.317557 0.212880 0.369035
O O12 0.000000 0.500000 0.500000
O O13 0.967773 0.381172 0.652357
O O14 0.867394 0.371606 0.389797
O O15 0.508732 0.532519 0.715714
O O16 0.671827 0.960000 0.380763
O O17 0.672135 0.975722 0.684783
#
# Coordination Sequence:
#
# PCOD9012474 Si02
#       8
#     2   2   2   2   2   2   2   2
#     4  10  21  40  70  93 125 169 223 279 314 395
#     4  11  20  40  67 103 126 169 229 265 335 404
#     4  11  25  42  71 103 134 171 223 277 349 394
#     4  12  27  42  64  96 138 182 221 271 333 395
#     4  10  23  44  66  92 130 178 228 267 324 387
#     4  11  24  44  69  99 134 175 228 280 316 404
#     4  10  22  36  68  98 130 171 214 275 341 399
#     4  11  23  44  63  97 138 173 213 283 339 391
#
# _framework density 23.039404000000001
#
# number of rings (size 3 to 8) (size 9 to 14) (size 15 to 20)
#    0.000    1.250    3.750    1.125    8.750    0.500 
#    2.250    0.000    0.000    3.000    0.000    0.000 
#    0.000    0.000    0.000    0.000    0.000    0.000 
#
# Total GULP energy -89261.417875 kJ/mol
# GULP energy per Si atom -5578.838617 kJ/mol
# Density = 2.298697 g / cm^3
# Si number density = 23.039404 Si / 1000 Ang^3
#
#
#
# Elastic Constant Matrix: (Units=GPa)
#
#
# Indices 1 2 3 4 5 6 
#
# 1 38.0052 15.0904 21.6384 1.2044 -8.1233 8.9607
# 2 15.0904 120.9902 24.7849 -14.6427 -20.2494 6.7272
# 3 21.6384 24.7849 139.5105 15.3902 -25.3980 -3.6622
# 4 1.2044 -14.6427 15.3902 46.8454 -5.3002 -8.0526
# 5 -8.1233 -20.2494 -25.3980 -5.3002 21.9589 -7.8858
# 6 8.9607 6.7272 -3.6622 -8.0526 -7.8858 30.9127
#
#
#
# Elastic Compliance Matrix: (Units=1/GPa)
#
#
# Indices 1 2 3 4 5 6 
#
# 1 0.032402 -0.002751 -0.004544 -0.001848 0.000246 -0.009751
# 2 -0.002751 0.010993 0.000040 0.005244 0.011395 0.002683
# 3 -0.004544 0.000040 0.010284 -0.000988 0.011919 0.005310
# 4 -0.001848 0.005244 -0.000988 0.026422 0.012769 0.009417
# 5 0.000246 0.011395 0.011919 0.012769 0.081233 0.022909
# 6 -0.009751 0.002683 0.005310 0.009417 0.022909 0.043518
#
#
# Mechanical properties :
#
#
# Convention : Reuss Voigt Hill
#
# Bulk Modulus (GPa) = 25.53062 46.83703 36.18382
# Shear Modulus (GPa) = 21.51309 35.74288 28.62798
#
# Velocity S-wave (km/s) = 3.05905 3.94303 3.52883
# Velocity P-wave (km/s) = 4.85617 6.41118 5.68707
#
# Compressibility (1/GPa) = 0.03916866
#
# Stress axis : x y z
#
# Youngs Moduli (GPa) = 30.86252 90.97070 97.24030
#
# Poissons Ratio (x) = 0.25023 0.44187
# Poissons Ratio (y) = 0.08489 -0.00390
# Poissons Ratio (z) = 0.14024 -0.00365
#
# Static dielectric constant tensor:
#      x y z
#    x 1.979420 0.002720 0.001630 
#    y 0.002720 1.863540 0.034170 
#    z 0.001630 0.034170 1.948760 
# 
# From -- ./inp_files/201974.got.cif
#   From: 2010.05.17/outbox.cif.g08.bks.cpg/sg2_101_cif.got.tgz:201974.got - 2010.06.03 11:33:40.
