data_PCOD9012937
_publ_section_title
;
Structure prediction by ZEFSAII (Michael W. Deem and Ramdas Pophale) SiO2 
 PCOD9012937
Probable space group: P -1
;
_chemical_formula_sum "Si O2"
_cell_formula_units_Z 16
_cell_length_a 12.356962
_cell_length_b 11.327906
_cell_length_c 13.597158
_cell_angle_alpha 28.438176
_cell_angle_beta 125.852614
_cell_angle_gamma 132.552809
_cell_volume 667.467542
_symmetry_space_group_name_H-M "P -1"
_symmetry_group_IT_number 2
_symmetry_cell_setting 'triclinic'
loop_
_space_group_symop_operation_xyz
x,y,z
-x,-y,-z
loop_
_atom_site_type_symbol
_atom_site_label
_atom_site_fract_x
_atom_site_fract_y
_atom_site_fract_z
Si Si1 0.789262 0.712164 0.072532
Si Si2 0.356439 0.907300 0.281934
Si Si3 0.304647 0.348181 0.707615
Si Si4 0.047545 0.920918 0.785646
Si Si5 0.070777 0.629163 0.547646
Si Si6 0.539798 0.193495 0.973664
Si Si7 0.345397 0.841522 0.649477
Si Si8 0.161983 0.691283 0.849382
O O1 0.751360 0.667767 0.200114
O O2 0.667383 0.468267 0.124689
O O3 0.930816 0.638237 0.196380
O O4 0.762978 0.976360 0.840930
O O5 0.485856 0.968565 0.386104
O O6 0.281719 0.585410 0.464895
O O7 0.443491 0.043799 0.128261
O O8 0.476065 0.412789 0.752130
O O9 0.207568 0.057562 0.821110
O O10 0.074091 0.841061 0.748033
O O11 0.991619 0.158230 0.600677
O O12 0.942283 0.627608 0.989652
O O13 0.247307 0.819386 0.517402
O O14 0.000000 0.500000 0.500000
O O15 0.707817 0.305028 0.012627
O O16 0.500000 0.000000 0.000000
O O17 0.245829 0.854316 0.678355
#
# Coordination Sequence:
#
# PCOD9012937 Si02
#       8
#     2   2   2   2   2   2   2   2
#     4   9  21  41  63  94 133 168 211 272 323 381
#     4  10  22  39  66 101 127 167 220 263 336 379
#     4  11  22  40  66  98 131 168 215 271 326 391
#     4  11  22  42  62  93 129 171 219 262 326 387
#     4  10  21  41  62  90 131 167 219 258 323 394
#     4  10  21  42  65  94 131 170 216 272 323 381
#     4   9  21  42  61  95 123 169 217 269 317 389
#     4  10  23  42  67  89 129 175 218 271 323 384
#
# _framework density 23.971202999999999
#
# number of rings (size 3 to 8) (size 9 to 14) (size 15 to 20)
#    0.750    1.250    2.500    0.375    1.750    2.500 
#    4.500    1.875    0.000    0.000    0.000    0.000 
#    0.000    0.000    0.000    0.000    0.000    0.000 
#
# Total GULP energy -89135.601473 kJ/mol
# GULP energy per Si atom -5570.975092 kJ/mol
# Density = 2.391664 g / cm^3
# Si number density = 23.971203 Si / 1000 Ang^3
#
#
#
# Elastic Constant Matrix: (Units=GPa)
#
#
# Indices 1 2 3 4 5 6 
#
# 1 111.4187 48.0808 69.0357 -6.5368 25.3881 -2.8536
# 2 48.0808 135.5585 37.4249 -6.1131 14.9414 4.1708
# 3 69.0357 37.4249 92.2908 -5.8505 35.6436 -8.4930
# 4 -6.5368 -6.1131 -5.8505 33.0108 1.9826 2.2506
# 5 25.3881 14.9414 35.6436 1.9826 41.1911 -4.4376
# 6 -2.8536 4.1708 -8.4930 2.2506 -4.4376 34.1619
#
#
#
# Elastic Compliance Matrix: (Units=1/GPa)
#
#
# Indices 1 2 3 4 5 6 
#
# 1 0.017810 -0.002871 -0.012489 0.000823 0.000699 -0.001230
# 2 -0.002871 0.008933 -0.001376 0.000996 -0.000523 -0.001806
# 3 -0.012489 -0.001376 0.027003 0.002699 -0.014898 0.003725
# 4 0.000823 0.000996 0.002699 0.031560 -0.004950 -0.002104
# 5 0.000699 -0.000523 -0.014898 -0.004950 0.037337 0.001595
# 6 -0.001230 -0.001806 0.003725 -0.002104 0.001595 0.030662
#
#
# Mechanical properties :
#
#
# Convention : Reuss Voigt Hill
#
# Bulk Modulus (GPa) = 49.32461 72.03897 60.68179
# Shear Modulus (GPa) = 25.83507 33.98787 29.91147
#
# Velocity S-wave (km/s) = 3.28648 3.76954 3.53627
# Velocity P-wave (km/s) = 5.91798 7.00453 6.48406
#
# Compressibility (1/GPa) = 0.02027385
#
# Stress axis : x y z
#
# Youngs Moduli (GPa) = 56.14878 111.94151 37.03286
#
# Poissons Ratio (x) = 0.32139 0.46250
# Poissons Ratio (y) = 0.16121 0.05096
# Poissons Ratio (z) = 0.70124 0.15405
#
# Static dielectric constant tensor:
#      x y z
#    x 1.991630 0.001430 0.049350 
#    y 0.001430 1.917870 0.017690 
#    z 0.049350 0.017690 1.977920 
# 
# From -- ./inp_files/531532.got.cif
#   From: 2010.05.17/outbox.cif.g08.bks.cpg/sg2_266_cif.got.tgz:531532.got - 2010.06.03 11:33:40.
