data_PCOD9012425
_publ_section_title
;
Structure prediction by ZEFSAII (Michael W. Deem and Ramdas Pophale) SiO2 
 PCOD9012425
Probable space group: P -1
;
_chemical_formula_sum "Si O2"
_cell_formula_units_Z 16
_cell_length_a 23.854870
_cell_length_b 19.034163
_cell_length_c 13.860400
_cell_angle_alpha 152.909111
_cell_angle_beta 159.406480
_cell_angle_gamma 16.651908
_cell_volume 632.983436
_symmetry_space_group_name_H-M "P -1"
_symmetry_group_IT_number 2
_symmetry_cell_setting 'triclinic'
loop_
_space_group_symop_operation_xyz
x,y,z
-x,-y,-z
loop_
_atom_site_type_symbol
_atom_site_label
_atom_site_fract_x
_atom_site_fract_y
_atom_site_fract_z
Si Si1 0.650078 0.167388 0.225839
Si Si2 0.294142 0.194071 0.626411
Si Si3 0.027339 0.805025 0.766507
Si Si4 0.756057 0.888081 0.239148
Si Si5 0.982650 0.870436 0.208434
Si Si6 0.233536 0.391237 0.354014
Si Si7 0.784263 0.726661 0.620861
Si Si8 0.412195 0.589428 0.856678
O O1 0.731737 0.283399 0.508622
O O2 0.706919 0.047979 0.273132
O O3 0.843023 0.971896 0.211235
O O4 0.379871 0.298705 0.926658
O O5 0.124629 0.206435 0.430508
O O6 0.174432 0.310653 0.471385
O O7 0.564991 0.894201 0.692593
O O8 0.900285 0.873335 0.539394
O O9 0.331268 0.554582 0.959374
O O10 0.000000 0.000000 0.000000
O O11 0.928662 0.626927 0.143177
O O12 0.500000 0.000000 0.000000
O O13 0.807026 0.121611 0.168733
O O14 0.967915 0.715314 0.947919
O O15 0.233645 0.393724 0.475830
O O16 0.322754 0.482473 0.559160
O O17 0.500000 0.000000 0.500000
O O18 0.500000 0.500000 0.000000
#
# Coordination Sequence:
#
# PCOD9012425 Si02
#       8
#     2   2   2   2   2   2   2   2
#     4  11  23  42  65  94 137 182 214 277 336 405
#     4  11  23  43  68 102 137 174 226 280 339 402
#     4  12  26  42  68 104 136 173 229 292 337 390
#     4  12  26  46  65  97 141 180 226 278 336 408
#     4  11  23  42  68 101 134 176 230 274 338 408
#     4  11  22  43  73  98 131 183 228 276 338 400
#     4  10  21  40  70 101 134 172 227 285 331 398
#     4  12  22  40  72 102 131 174 230 278 337 398
#
# _framework density 25.277121999999999
#
# number of rings (size 3 to 8) (size 9 to 14) (size 15 to 20)
#    0.000    0.750    7.500    1.500    1.750    0.500 
#    4.500    1.250    0.000    1.500    0.000    0.000 
#    0.000    0.000    0.000    0.000    0.000    0.000 
#
# Total GULP energy -89341.267292 kJ/mol
# GULP energy per Si atom -5583.829206 kJ/mol
# Density = 2.521959 g / cm^3
# Si number density = 25.277122 Si / 1000 Ang^3
#
#
#
# Elastic Constant Matrix: (Units=GPa)
#
#
# Indices 1 2 3 4 5 6 
#
# 1 146.6940 5.7522 55.8077 -3.9069 19.9037 25.0544
# 2 5.7522 57.2667 35.6870 2.0591 10.2782 -3.2731
# 3 55.8077 35.6870 209.6303 -0.8583 29.9077 -4.1858
# 4 -3.9069 2.0591 -0.8583 32.6853 -6.1524 14.3519
# 5 19.9037 10.2782 29.9077 -6.1524 57.1657 -0.5965
# 6 25.0544 -3.2731 -4.1858 14.3519 -0.5965 31.6005
#
#
#
# Elastic Compliance Matrix: (Units=1/GPa)
#
#
# Indices 1 2 3 4 5 6 
#
# 1 0.010053 0.000117 -0.002656 0.005593 -0.001643 -0.010882
# 2 0.000117 0.020058 -0.003066 -0.003053 -0.002341 0.002921
# 3 -0.002656 -0.003066 0.006347 -0.001840 -0.002007 0.003427
# 4 0.005593 -0.003053 -0.001840 0.042852 0.003922 -0.024382
# 5 -0.001643 -0.002341 -0.002007 0.003922 0.019952 -0.000610
# 6 -0.010882 0.002921 0.003427 -0.024382 -0.000610 0.052091
#
#
# Mechanical properties :
#
#
# Convention : Reuss Voigt Hill
#
# Bulk Modulus (GPa) = 39.60709 67.56498 53.58604
# Shear Modulus (GPa) = 29.24346 45.37992 37.31169
#
# Velocity S-wave (km/s) = 3.40503 4.24169 3.84618
# Velocity P-wave (km/s) = 5.58231 7.12580 6.40075
#
# Compressibility (1/GPa) = 0.02524800
#
# Stress axis : x y z
#
# Youngs Moduli (GPa) = 99.46955 49.85543 157.56504
#
# Poissons Ratio (x) = -0.00585 0.41854
# Poissons Ratio (y) = -0.01168 0.48310
# Poissons Ratio (z) = 0.26422 0.15286
#
# Static dielectric constant tensor:
#      x y z
#    x 2.056930 0.000940 -0.056950 
#    y 0.000940 1.999290 -0.033740 
#    z -0.056950 -0.033740 2.077610 
# 
# From -- ./inp_files/543191.got.cif
#   From: 2010.05.17/outbox.cif.g08.bks.cpg/sg2_272_cif.got.tgz:543191.got - 2010.06.03 11:33:40.
