data_PCOD9012552
_publ_section_title
;
Structure prediction by ZEFSAII (Michael W. Deem and Ramdas Pophale) SiO2 
 PCOD9012552
Probable space group: P -1
;
_chemical_formula_sum "Si O2"
_cell_formula_units_Z 14
_cell_length_a 7.976223
_cell_length_b 22.628446
_cell_length_c 14.399891
_cell_angle_alpha 159.926464
_cell_angle_beta 141.538568
_cell_angle_gamma 42.908691
_cell_volume 554.791235
_symmetry_space_group_name_H-M "P -1"
_symmetry_group_IT_number 2
_symmetry_cell_setting 'triclinic'
loop_
_space_group_symop_operation_xyz
x,y,z
-x,-y,-z
loop_
_atom_site_type_symbol
_atom_site_label
_atom_site_fract_x
_atom_site_fract_y
_atom_site_fract_z
Si Si1 0.076402 0.096684 0.081795
Si Si2 0.454189 0.151464 0.090174
Si Si3 0.839744 0.179409 0.919389
Si Si4 0.810606 0.156170 0.675325
Si Si5 0.670991 0.658768 0.850434
Si Si6 0.516179 0.632600 0.286736
Si Si7 0.478513 0.483870 0.240080
O O1 0.845559 0.103855 0.914229
O O2 0.196879 0.288172 0.437713
O O3 0.330338 0.987785 0.993574
O O4 0.000000 0.000000 0.000000
O O5 0.140618 0.127918 0.942781
O O6 0.470374 0.186688 0.038116
O O7 0.512293 0.332824 0.434507
O O8 0.753942 0.377995 0.188460
O O9 0.680827 0.128748 0.680599
O O10 0.625277 0.202281 0.576418
O O11 0.000000 0.000000 0.500000
O O12 0.018646 0.321240 0.016491
O O13 0.500000 0.500000 0.500000
O O14 0.672329 0.641997 0.937502
O O15 0.378918 0.535092 0.170281
O O16 0.500000 0.500000 0.000000
#
# Coordination Sequence:
#
# PCOD9012552 Si02
#       7
#     2   2   2   2   2   2   2
#     4  12  27  46  71 103 136 179 241 290 334 408
#     4  10  21  40  71 101 131 173 233 283 334 401
#     4  11  22  42  71  97 135 189 226 277 344 418
#     4  11  25  45  69  98 142 185 224 283 355 407
#     4   9  21  41  69 101 133 173 232 279 330 409
#     4  12  26  45  67 100 144 179 227 286 353 409
#     4  11  22  40  69 101 137 177 230 278 343 407
#
# _framework density 25.234717
#
# number of rings (size 3 to 8) (size 9 to 14) (size 15 to 20)
#    0.000    1.143    2.857    3.429    2.000    4.000 
#    2.571    1.429    0.000    0.000    0.000    0.000 
#    0.000    0.000    0.000    0.000    0.000    0.000 
#
# Total GULP energy -78067.514233 kJ/mol
# GULP energy per Si atom -5576.251017 kJ/mol
# Density = 2.517728 g / cm^3
# Si number density = 25.234717 Si / 1000 Ang^3
#
#
#
# Elastic Constant Matrix: (Units=GPa)
#
#
# Indices 1 2 3 4 5 6 
#
# 1 124.5530 48.7651 31.0272 -11.3033 -25.0859 51.0503
# 2 48.7651 174.5322 36.8998 4.7504 -16.6234 48.4086
# 3 31.0272 36.8998 92.6747 11.6742 -12.7974 -4.4761
# 4 -11.3033 4.7504 11.6742 37.7794 -4.7521 -10.6124
# 5 -25.0859 -16.6234 -12.7974 -4.7521 35.2141 -7.1184
# 6 51.0503 48.4086 -4.4761 -10.6124 -7.1184 66.5074
#
#
#
# Elastic Compliance Matrix: (Units=1/GPa)
#
#
# Indices 1 2 3 4 5 6 
#
# 1 0.015800 0.000537 -0.005503 0.004135 0.007763 -0.011399
# 2 0.000537 0.008391 -0.003448 -0.001562 0.001497 -0.006841
# 3 -0.005503 -0.003448 0.014937 -0.003688 0.000846 0.007241
# 4 0.004135 -0.001562 -0.003688 0.030656 0.005654 0.003212
# 5 0.007763 0.001497 0.000846 0.005654 0.035237 -0.002318
# 6 -0.011399 -0.006841 0.007241 0.003212 -0.002318 0.029516
#
#
# Mechanical properties :
#
#
# Convention : Reuss Voigt Hill
#
# Bulk Modulus (GPa) = 44.84177 69.46045 57.15111
# Shear Modulus (GPa) = 31.48665 46.23805 38.86235
#
# Velocity S-wave (km/s) = 3.53618 4.28520 3.92859
# Velocity P-wave (km/s) = 5.87207 7.21592 6.57840
#
# Compressibility (1/GPa) = 0.02230064
#
# Stress axis : x y z
#
# Youngs Moduli (GPa) = 63.29154 119.17594 66.94869
#
# Poissons Ratio (x) = -0.06403 0.36842
# Poissons Ratio (y) = -0.03401 0.23082
# Poissons Ratio (z) = 0.34830 0.41089
#
# Static dielectric constant tensor:
#      x y z
#    x 3.453110 3.355280 -0.643410 
#    y 3.355280 9.983520 -1.575870 
#    z -0.643410 -1.575870 2.360840 
# 
# From -- ./inp_files/508683.got.cif
#   From: 2010.05.17/outbox.cif.g08.bks.cpg/sg2_255_cif.got.tgz:508683.got - 2010.06.03 11:33:40.
