data_PCOD9012634
_publ_section_title
;
Structure prediction by ZEFSAII (Michael W. Deem and Ramdas Pophale) SiO2 
 PCOD9012634
Probable space group: P -1
;
_chemical_formula_sum "Si O2"
_cell_formula_units_Z 14
_cell_length_a 12.495868
_cell_length_b 9.072659
_cell_length_c 11.796078
_cell_angle_alpha 49.592896
_cell_angle_beta 35.281157
_cell_angle_gamma 63.871828
_cell_volume 576.064672
_symmetry_space_group_name_H-M "P -1"
_symmetry_group_IT_number 2
_symmetry_cell_setting 'triclinic'
loop_
_space_group_symop_operation_xyz
x,y,z
-x,-y,-z
loop_
_atom_site_type_symbol
_atom_site_label
_atom_site_fract_x
_atom_site_fract_y
_atom_site_fract_z
Si Si1 0.983711 0.119319 0.743190
Si Si2 0.011100 0.704138 0.951988
Si Si3 0.971710 0.283830 0.442317
Si Si4 0.553092 0.974862 0.161897
Si Si5 0.697703 0.853810 0.870532
Si Si6 0.770934 0.644525 0.396651
Si Si7 0.580291 0.200316 0.397474
O O1 0.036996 0.276844 0.519146
O O2 0.108615 0.188317 0.710038
O O3 0.024789 0.908509 0.770673
O O4 0.758688 0.087529 0.971746
O O5 0.829259 0.696250 0.191258
O O6 0.000000 0.500000 0.000000
O O7 0.199589 0.731949 0.850363
O O8 0.850294 0.448921 0.447970
O O9 0.158785 0.291128 0.202264
O O10 0.830371 0.074105 0.649172
O O11 0.443365 0.852932 0.421224
O O12 0.443318 0.130278 0.119551
O O13 0.592133 0.837611 0.090704
O O14 0.551319 0.646734 0.597902
O O15 0.500000 0.000000 0.500000
#
# Coordination Sequence:
#
# PCOD9012634 Si02
#       7
#     2   2   2   2   2   2   2
#     4  11  22  47  68  97 147 186 226 301 347 417
#     4  12  28  44  73 106 140 185 238 294 353 418
#     4  10  23  41  71  98 139 185 238 283 363 412
#     4  10  21  40  72  96 135 186 235 282 357 413
#     4   9  21  41  68 101 137 180 229 299 351 411
#     4  12  26  45  70 106 144 182 241 288 354 431
#     4  12  25  46  75 100 143 195 232 287 363 421
#
# _framework density 24.302827000000001
#
# number of rings (size 3 to 8) (size 9 to 14) (size 15 to 20)
#    0.000    1.143    2.857    2.571    8.000    1.714 
#    5.143    0.714    0.000    0.000    0.000    0.000 
#    0.000    0.000    0.000    0.000    0.000    0.000 
#
# Total GULP energy -78383.227055 kJ/mol
# GULP energy per Si atom -5598.801932 kJ/mol
# Density = 2.424751 g / cm^3
# Si number density = 24.302827 Si / 1000 Ang^3
#
#
#
# Elastic Constant Matrix: (Units=GPa)
#
#
# Indices 1 2 3 4 5 6 
#
# 1 76.7343 33.0302 -8.9423 -6.2076 -4.0636 -15.1887
# 2 33.0302 140.9688 18.6933 -0.9978 -1.3025 -31.6032
# 3 -8.9423 18.6933 26.9032 7.1079 3.1369 -4.5392
# 4 -6.2076 -0.9978 7.1079 30.8923 -6.2214 -6.0953
# 5 -4.0636 -1.3025 3.1369 -6.2214 53.2539 2.8743
# 6 -15.1887 -31.6032 -4.5392 -6.0953 2.8743 44.6704
#
#
#
# Elastic Compliance Matrix: (Units=1/GPa)
#
#
# Indices 1 2 3 4 5 6 
#
# 1 0.016796 -0.004166 0.008464 0.002205 0.000730 0.003878
# 2 -0.004166 0.010432 -0.008458 0.002607 0.000447 0.005431
# 3 0.008464 -0.008458 0.049187 -0.010501 -0.003723 0.000699
# 4 0.002205 0.002607 -0.010501 0.037550 0.004895 0.006336
# 5 0.000730 0.000447 -0.003723 0.004895 0.019658 -0.000411
# 6 0.003878 0.005431 0.000699 0.006336 -0.000411 0.028509
#
#
# Mechanical properties :
#
#
# Convention : Reuss Voigt Hill
#
# Bulk Modulus (GPa) = 14.68525 36.68541 25.68533
# Shear Modulus (GPa) = 25.88664 39.21834 32.55249
#
# Velocity S-wave (km/s) = 3.26723 4.02149 3.66382
# Velocity P-wave (km/s) = 4.50431 6.05732 5.33760
#
# Compressibility (1/GPa) = 0.06809555
#
# Stress axis : x y z
#
# Youngs Moduli (GPa) = 59.53700 95.86186 20.33059
#
# Poissons Ratio (x) = 0.39939 -0.17209
# Poissons Ratio (y) = 0.24805 0.17195
# Poissons Ratio (z) = -0.50394 0.81077
#
# Static dielectric constant tensor:
#      x y z
#    x 1.977330 -0.018990 0.040800 
#    y -0.018990 1.923420 -0.004850 
#    z 0.040800 -0.004850 1.942980 
# 
# From -- ./inp_files/418805.got.cif
#   From: 2010.05.17/outbox.cif.g08.bks.cpg/sg2_210_cif.got.tgz:418805.got - 2010.06.03 11:33:40.
