data_PCOD9012367
_publ_section_title
;
Structure prediction by ZEFSAII (Michael W. Deem and Ramdas Pophale) SiO2 
 PCOD9012367
Probable space group: P -1
;
_chemical_formula_sum "Si O2"
_cell_formula_units_Z 16
_cell_length_a 13.009486
_cell_length_b 23.319326
_cell_length_c 9.471023
_cell_angle_alpha 121.380389
_cell_angle_beta 59.264586
_cell_angle_gamma 161.782547
_cell_volume 765.400321
_symmetry_space_group_name_H-M "P -1"
_symmetry_group_IT_number 2
_symmetry_cell_setting 'triclinic'
loop_
_space_group_symop_operation_xyz
x,y,z
-x,-y,-z
loop_
_atom_site_type_symbol
_atom_site_label
_atom_site_fract_x
_atom_site_fract_y
_atom_site_fract_z
Si Si1 0.157804 0.005859 0.631535
Si Si2 0.918645 0.642801 0.914117
Si Si3 0.243399 0.689254 0.601992
Si Si4 0.563123 0.258156 0.926465
Si Si5 0.644472 0.641185 0.653457
Si Si6 0.150897 0.252195 0.030654
Si Si7 0.953450 0.589739 0.098743
Si Si8 0.261859 0.092680 0.219668
O O1 0.904305 0.813251 0.588900
O O2 0.973521 0.971422 0.642998
O O3 0.493479 0.162859 0.518419
O O4 0.264851 0.090278 0.816851
O O5 0.991897 0.755745 0.952675
O O6 0.040745 0.650271 0.729673
O O7 0.523214 0.434635 0.947351
O O8 0.063697 0.697791 0.036078
O O9 0.470152 0.789297 0.704607
O O10 0.000000 0.500000 0.500000
O O11 0.765113 0.295122 0.854572
O O12 0.790492 0.438299 0.945272
O O13 0.444333 0.215931 0.110936
O O14 0.500000 0.500000 0.500000
O O15 0.814999 0.719750 0.788253
O O16 0.330084 0.522981 0.757915
O O17 0.941175 0.077787 0.911156
#
# Coordination Sequence:
#
# PCOD9012367 Si02
#       8
#     2   2   2   2   2   2   2   2
#     4  12  25  42  68 102 138 172 224 280 337 394
#     4  10  22  44  65  94 135 180 222 278 327 402
#     4  12  27  43  65 104 143 173 218 276 344 396
#     4  11  21  40  72 100 125 171 229 281 321 393
#     4  11  24  43  64  97 137 178 220 279 342 394
#     4  10  23  43  71  94 126 180 239 267 328 407
#     4  10  21  40  69  97 126 174 230 271 334 394
#     4  12  23  44  69  97 131 179 227 273 328 401
#
# _framework density 20.904094000000001
#
# number of rings (size 3 to 8) (size 9 to 14) (size 15 to 20)
#    0.000    1.000    3.750    3.750    1.750    5.500 
#    2.250    1.250    0.000    0.000    0.000    0.000 
#    0.000    0.000    0.000    0.000    0.000    0.000 
#
# Total GULP energy -89465.773119 kJ/mol
# GULP energy per Si atom -5591.610820 kJ/mol
# Density = 2.085652 g / cm^3
# Si number density = 20.904094 Si / 1000 Ang^3
#
#
#
# Elastic Constant Matrix: (Units=GPa)
#
#
# Indices 1 2 3 4 5 6 
#
# 1 144.9437 44.1490 40.6031 1.6358 -12.5729 -11.2556
# 2 44.1490 94.1354 46.9534 8.1643 -11.7340 -20.0048
# 3 40.6031 46.9534 82.9913 -3.7269 -6.4706 -15.1869
# 4 1.6358 8.1643 -3.7269 44.2174 8.6321 -1.6956
# 5 -12.5729 -11.7340 -6.4706 8.6321 30.5219 2.9871
# 6 -11.2556 -20.0048 -15.1869 -1.6956 2.9871 33.1532
#
#
#
# Elastic Compliance Matrix: (Units=1/GPa)
#
#
# Indices 1 2 3 4 5 6 
#
# 1 0.008572 -0.002335 -0.002720 -0.000545 0.002208 0.000029
# 2 -0.002335 0.017796 -0.007694 -0.004602 0.004989 0.005736
# 3 -0.002720 -0.007694 0.018350 0.003478 -0.001480 0.003151
# 4 -0.000545 -0.004602 0.003478 0.025470 -0.008529 0.000702
# 5 0.002208 0.004989 -0.001480 -0.008529 0.037763 -0.000757
# 6 0.000029 0.005736 0.003151 0.000702 -0.000757 0.035181
#
#
# Mechanical properties :
#
#
# Convention : Reuss Voigt Hill
#
# Bulk Modulus (GPa) = 52.02679 65.05346 58.54013
# Shear Modulus (GPa) = 28.56528 34.26951 31.41739
#
# Velocity S-wave (km/s) = 3.70062 4.05330 3.88097
# Velocity P-wave (km/s) = 6.57281 7.28651 6.93884
#
# Compressibility (1/GPa) = 0.01922087
#
# Stress axis : x y z
#
# Youngs Moduli (GPa) = 116.65408 56.19396 54.49462
#
# Poissons Ratio (x) = 0.13122 0.14822
# Poissons Ratio (y) = 0.27240 0.41926
# Poissons Ratio (z) = 0.31729 0.43234
#
# Static dielectric constant tensor:
#      x y z
#    x 1.752990 -0.004300 0.007540 
#    y -0.004300 1.764860 -0.032940 
#    z 0.007540 -0.032940 1.749360 
# 
# From -- ./inp_files/283135.got.cif
#   From: 2010.05.17/outbox.cif.g08.bks.cpg/sg2_142_cif.got.tgz:283135.got - 2010.06.03 11:33:40.
