data_PCOD9012227
_publ_section_title
;
Structure prediction by ZEFSAII (Michael W. Deem and Ramdas Pophale) SiO2 
 PCOD9012227
Probable space group: P -1
;
_chemical_formula_sum "Si O2"
_cell_formula_units_Z 12
_cell_length_a 15.707485
_cell_length_b 11.513401
_cell_length_c 5.134937
_cell_angle_alpha 72.704480
_cell_angle_beta 119.181440
_cell_angle_gamma 144.696613
_cell_volume 459.140574
_symmetry_space_group_name_H-M "P -1"
_symmetry_group_IT_number 2
_symmetry_cell_setting 'triclinic'
loop_
_space_group_symop_operation_xyz
x,y,z
-x,-y,-z
loop_
_atom_site_type_symbol
_atom_site_label
_atom_site_fract_x
_atom_site_fract_y
_atom_site_fract_z
Si Si1 0.657560 0.218781 0.240146
Si Si2 0.765778 0.088373 0.720871
Si Si3 0.694467 0.594938 0.188996
Si Si4 0.974902 0.109143 0.786552
Si Si5 0.392562 0.676500 0.369893
Si Si6 0.662662 0.824052 0.164371
O O1 0.777034 0.232582 0.515492
O O2 0.619191 0.251015 0.432402
O O3 0.706375 0.358233 0.985936
O O4 0.500000 0.000000 0.000000
O O5 0.929733 0.174693 0.864915
O O6 0.589232 0.867221 0.481488
O O7 0.718077 0.009074 0.001228
O O8 0.669861 0.517499 0.496483
O O9 0.687161 0.733247 0.062404
O O10 0.866826 0.715336 0.273832
O O11 0.531604 0.382989 0.940039
O O12 0.803486 0.932317 0.498894
O O13 0.000000 0.000000 0.000000
#
# Coordination Sequence:
#
# PCOD9012227 Si02
#       6
#     2   2   2   2   2   2
#     4  10  21  40  69 101 133 182 236 280 339 413
#     4  10  22  39  66  99 130 181 229 276 345 405
#     4  10  23  44  65 101 137 180 229 284 346 407
#     4  12  25  41  66 104 137 181 225 285 348 413
#     4  10  23  41  68 102 136 181 231 284 343 409
#     4  10  23  44  65  95 139 181 231 278 349 409
#
# _framework density 26.135786
#
# number of rings (size 3 to 8) (size 9 to 14) (size 15 to 20)
#    0.000    1.667    1.667    2.500   11.667    2.000 
#    0.000    1.667    0.000    0.000    0.000    0.000 
#    0.000    0.000    0.000    0.000    0.000    0.000 
#
# Total GULP energy -66957.685295 kJ/mol
# GULP energy per Si atom -5579.807108 kJ/mol
# Density = 2.607630 g / cm^3
# Si number density = 26.135786 Si / 1000 Ang^3
#
#
#
# Elastic Constant Matrix: (Units=GPa)
#
#
# Indices 1 2 3 4 5 6 
#
# 1 105.6521 39.8120 49.6604 6.8616 33.1197 25.7552
# 2 39.8120 99.4345 49.6513 -8.8564 10.6566 36.2332
# 3 49.6604 49.6513 194.7780 -34.9151 38.1242 6.8272
# 4 6.8616 -8.8564 -34.9151 29.7400 -13.9858 7.3600
# 5 33.1197 10.6566 38.1242 -13.9858 47.8061 12.1677
# 6 25.7552 36.2332 6.8272 7.3600 12.1677 49.8058
#
#
#
# Elastic Compliance Matrix: (Units=1/GPa)
#
#
# Indices 1 2 3 4 5 6 
#
# 1 0.018737 -0.006249 -0.003575 -0.017388 -0.014175 0.001380
# 2 -0.006249 0.019092 -0.002381 0.012225 0.009210 -0.014388
# 3 -0.003575 -0.002381 0.008519 0.009053 -0.001505 0.001443
# 4 -0.017388 0.012225 0.009053 0.068945 0.026824 -0.017884
# 5 -0.014175 0.009210 -0.001505 0.026824 0.041084 -0.013165
# 6 0.001380 -0.014388 0.001443 -0.017884 -0.013165 0.035493
#
#
# Mechanical properties :
#
#
# Convention : Reuss Voigt Hill
#
# Bulk Modulus (GPa) = 45.58178 75.34578 60.46378
# Shear Modulus (GPa) = 22.36206 42.85309 32.60758
#
# Velocity S-wave (km/s) = 2.92826 4.05363 3.53600
# Velocity P-wave (km/s) = 5.37691 7.12744 6.31314
#
# Compressibility (1/GPa) = 0.02193859
#
# Stress axis : x y z
#
# Youngs Moduli (GPa) = 53.37119 52.37693 117.38224
#
# Poissons Ratio (x) = 0.32731 0.41964
# Poissons Ratio (y) = 0.33352 0.27945
# Poissons Ratio (z) = 0.19080 0.12470
#
# Static dielectric constant tensor:
#      x y z
#    x 2.352120 -0.021570 -0.125370 
#    y -0.021570 2.095000 -0.073130 
#    z -0.125370 -0.073130 2.089760 
# 
# From -- ./inp_files/75797.got.cif
#   From: 2010.05.17/outbox.cif.g08.bks.cpg/sg2_38_cif.got.tgz:75797.got - 2010.06.03 11:33:40.
