data_PCOD9012659
_publ_section_title
;
Structure prediction by ZEFSAII (Michael W. Deem and Ramdas Pophale) SiO2 
 PCOD9012659
Probable space group: P -1
;
_chemical_formula_sum "Si O2"
_cell_formula_units_Z 16
_cell_length_a 9.879688
_cell_length_b 13.337276
_cell_length_c 12.278937
_cell_angle_alpha 136.430162
_cell_angle_beta 130.844846
_cell_angle_gamma 75.267794
_cell_volume 765.168210
_symmetry_space_group_name_H-M "P -1"
_symmetry_group_IT_number 2
_symmetry_cell_setting 'triclinic'
loop_
_space_group_symop_operation_xyz
x,y,z
-x,-y,-z
loop_
_atom_site_type_symbol
_atom_site_label
_atom_site_fract_x
_atom_site_fract_y
_atom_site_fract_z
Si Si1 0.905746 0.492776 0.562056
Si Si2 0.713079 0.009526 0.591779
Si Si3 0.276251 0.874633 0.781729
Si Si4 0.361976 0.344858 0.376345
Si Si5 0.956952 0.996322 0.102071
Si Si6 0.264650 0.635488 0.294372
Si Si7 0.165349 0.932287 0.530194
Si Si8 0.908716 0.380076 0.023016
O O1 0.765065 0.311196 0.382705
O O2 0.777634 0.596019 0.580890
O O3 0.000000 0.500000 0.500000
O O4 0.073572 0.561721 0.798440
O O5 0.705876 0.969041 0.427987
O O6 0.834944 0.935383 0.668851
O O7 0.500000 0.000000 0.500000
O O8 0.851613 0.193907 0.839166
O O9 0.209718 0.926885 0.675924
O O10 0.154849 0.897177 0.836375
O O11 0.500000 0.000000 0.000000
O O12 0.500000 0.500000 0.500000
O O13 0.515327 0.301491 0.494514
O O14 0.211600 0.186173 0.109173
O O15 0.000000 0.000000 0.000000
O O16 0.163495 0.758985 0.359154
O O17 0.124112 0.478527 0.162133
O O18 0.242472 0.596938 0.123622
O O19 0.000000 0.000000 0.500000
#
# Coordination Sequence:
#
# PCOD9012659 Si02
#       8
#     2   2   2   2   2   2   2   2
#     4  12  25  45  68 101 144 176 219 291 353 401
#     4  11  25  42  68  98 136 183 229 274 345 419
#     4  12  26  44  69 104 140 178 230 290 347 406
#     4  12  22  45  74  98 126 181 242 274 330 422
#     4  12  26  42  67 102 142 180 225 283 350 412
#     4  10  21  40  73  97 124 171 238 280 322 407
#     4  11  22  44  67  96 135 173 226 288 339 394
#     4  10  21  42  67  93 132 173 228 277 333 403
#
# _framework density 20.910435
#
# number of rings (size 3 to 8) (size 9 to 14) (size 15 to 20)
#    0.000    0.750    5.000    2.250    5.250    0.000 
#    2.250    0.625    0.000    0.000    0.000    0.000 
#    0.000    0.000    0.000    0.000    0.000    0.000 
#
# Total GULP energy -89101.856078 kJ/mol
# GULP energy per Si atom -5568.866005 kJ/mol
# Density = 2.086284 g / cm^3
# Si number density = 20.910435 Si / 1000 Ang^3
#
#
#
# Elastic Constant Matrix: (Units=GPa)
#
#
# Indices 1 2 3 4 5 6 
#
# 1 107.7226 18.5841 16.4219 -15.2330 -16.7625 -12.6526
# 2 18.5841 73.3440 36.5231 -5.3986 4.2486 -13.4137
# 3 16.4219 36.5231 79.3980 -17.6386 0.1775 -9.4379
# 4 -15.2330 -5.3986 -17.6386 32.2416 0.7011 -11.8086
# 5 -16.7625 4.2486 0.1775 0.7011 38.9977 -9.3060
# 6 -12.6526 -13.4137 -9.4379 -11.8086 -9.3060 38.6430
#
#
#
# Elastic Compliance Matrix: (Units=1/GPa)
#
#
# Indices 1 2 3 4 5 6 
#
# 1 0.013005 -0.002179 0.001447 0.009566 0.007709 0.008635
# 2 -0.002179 0.018802 -0.008111 -0.001197 -0.002227 0.002930
# 3 0.001447 -0.008111 0.019642 0.012567 0.002857 0.006984
# 4 0.009566 -0.001197 0.012567 0.050578 0.008853 0.023374
# 5 0.007709 -0.002227 0.002857 0.008853 0.032101 0.012885
# 6 0.008635 0.002930 0.006984 0.023374 0.012885 0.041673
#
#
# Mechanical properties :
#
#
# Convention : Reuss Voigt Hill
#
# Bulk Modulus (GPa) = 29.61820 44.83588 37.22704
# Shear Modulus (GPa) = 24.42086 34.57217 29.49652
#
# Velocity S-wave (km/s) = 3.42113 4.07055 3.75989
# Velocity P-wave (km/s) = 5.45899 6.60158 6.05729
#
# Compressibility (1/GPa) = 0.03376303
#
# Stress axis : x y z
#
# Youngs Moduli (GPa) = 76.89344 53.18491 50.91111
#
# Poissons Ratio (x) = 0.11589 -0.07366
# Poissons Ratio (y) = 0.16755 0.41294
# Poissons Ratio (z) = -0.11125 0.43138
#
# Static dielectric constant tensor:
#      x y z
#    x 1.772300 0.018490 -0.022640 
#    y 0.018490 1.865260 -0.034750 
#    z -0.022640 -0.034750 1.809420 
# 
# From -- ./inp_files/399873.got.cif
#   From: 2010.05.17/outbox.cif.g08.bks.cpg/sg2_200_cif.got.tgz:399873.got - 2010.06.03 11:33:40.
