data_PCOD9012518
_publ_section_title
;
Structure prediction by ZEFSAII (Michael W. Deem and Ramdas Pophale) SiO2 
 PCOD9012518
Probable space group: P -1
;
_chemical_formula_sum "Si O2"
_cell_formula_units_Z 15
_cell_length_a 19.401745
_cell_length_b 11.657461
_cell_length_c 11.855795
_cell_angle_alpha 33.455441
_cell_angle_beta 24.661211
_cell_angle_gamma 30.136613
_cell_volume 546.560526
_symmetry_space_group_name_H-M "P -1"
_symmetry_group_IT_number 2
_symmetry_cell_setting 'triclinic'
loop_
_space_group_symop_operation_xyz
x,y,z
-x,-y,-z
loop_
_atom_site_type_symbol
_atom_site_label
_atom_site_fract_x
_atom_site_fract_y
_atom_site_fract_z
Si Si1 0.296388 0.304789 0.275231
Si Si2 0.266044 0.710744 0.558403
Si Si3 0.769343 0.826197 0.746273
Si Si4 0.631439 0.787675 0.222654
Si Si5 0.026309 0.163773 0.916943
Si Si6 0.717670 0.832394 0.296368
Si Si7 0.000000 0.000000 0.500000
Si Si8 0.815380 0.349764 0.676978
O O1 0.280481 0.313103 0.158309
O O2 0.326532 0.506006 0.128878
O O3 0.455380 0.042037 0.280144
O O4 0.110303 0.301815 0.603299
O O5 0.399974 0.441341 0.547773
O O6 0.344571 0.891029 0.330642
O O7 0.135166 0.833673 0.542851
O O8 0.150795 0.705880 0.845016
O O9 0.984056 0.766436 0.464303
O O10 0.745705 0.779893 0.948402
O O11 0.755684 0.775592 0.155236
O O12 0.182643 0.046674 0.878737
O O13 0.000000 0.000000 0.000000
O O14 0.784197 0.577884 0.461469
O O15 0.500000 0.000000 0.500000
O O16 0.837618 0.165055 0.699144
#
# Coordination Sequence:
#
# PCOD9012518 Si02
#       8
#     2   2   2   2   2   2   1   2
#     4  11  23  46  72 104 145 200 251 294 380 450
#     4  11  25  43  69 106 147 189 250 303 372 443
#     4  11  25  44  69 108 149 195 249 306 365 450
#     4  12  24  44  75 106 150 197 239 313 383 433
#     4  11  23  44  70 102 145 191 245 304 360 440
#     4  11  22  42  74 107 140 192 249 300 376 449
#     4  10  22  40  62 106 144 170 236 318 354 424
#     4  10  21  40  70  97 141 186 241 301 359 438
#
# _framework density 27.444353
#
# number of rings (size 3 to 8) (size 9 to 14) (size 15 to 20)
#    0.000    1.067    5.333    2.400    3.733    1.600 
#    0.000    2.667    0.000    8.000    0.000    0.000 
#    0.000    0.000    0.000    0.000    0.000    0.000 
#
# Total GULP energy -83615.625808 kJ/mol
# GULP energy per Si atom -5574.375054 kJ/mol
# Density = 2.738189 g / cm^3
# Si number density = 27.444353 Si / 1000 Ang^3
#
#
#
# Elastic Constant Matrix: (Units=GPa)
#
#
# Indices 1 2 3 4 5 6 
#
# 1 170.4739 32.3035 36.5436 14.9276 48.7933 31.9223
# 2 32.3035 165.6258 6.5340 3.7499 0.3529 30.5683
# 3 36.5436 6.5340 73.9308 8.5823 27.4546 16.4213
# 4 14.9276 3.7499 8.5823 32.4708 8.0281 5.7620
# 5 48.7933 0.3529 27.4546 8.0281 43.2128 3.4259
# 6 31.9223 30.5683 16.4213 5.7620 3.4259 55.3412
#
#
#
# Elastic Compliance Matrix: (Units=1/GPa)
#
#
# Indices 1 2 3 4 5 6 
#
# 1 0.010111 -0.001102 0.000339 -0.001071 -0.011065 -0.004527
# 2 -0.001102 0.006849 0.000174 -0.000084 0.001353 -0.003274
# 3 0.000339 0.000174 0.019011 -0.001385 -0.011804 -0.005058
# 4 -0.001071 -0.000084 -0.001385 0.032999 -0.003872 -0.002121
# 5 -0.011065 0.001353 -0.011804 -0.003872 0.043299 0.006860
# 6 -0.004527 -0.003274 -0.005058 -0.002121 0.006860 0.023787
#
#
# Mechanical properties :
#
#
# Convention : Reuss Voigt Hill
#
# Bulk Modulus (GPa) = 28.74234 62.31030 45.52632
# Shear Modulus (GPa) = 33.59516 48.51492 41.05504
#
# Velocity S-wave (km/s) = 3.50254 4.20903 3.87193
# Velocity P-wave (km/s) = 5.18196 6.80990 6.05093
#
# Compressibility (1/GPa) = 0.03479188
#
# Stress axis : x y z
#
# Youngs Moduli (GPa) = 98.90458 146.00527 52.60128
#
# Poissons Ratio (x) = 0.16089 -0.01781
# Poissons Ratio (y) = 0.10899 -0.00915
# Poissons Ratio (z) = -0.03349 -0.02539
#
# Static dielectric constant tensor:
#      x y z
#    x 2.162240 0.015590 -0.046690 
#    y 0.015590 2.255340 -0.079810 
#    z -0.046690 -0.079810 2.270650 
# 
# From -- ./inp_files/471135.got.cif
#   From: 2010.05.17/outbox.cif.g08.bks.cpg/sg2_236_cif.got.tgz:471135.got - 2010.06.03 11:33:40.
