data_PCOD9012523
_publ_section_title
;
Structure prediction by ZEFSAII (Michael W. Deem and Ramdas Pophale) SiO2 
 PCOD9012523
Probable space group: P -1
;
_chemical_formula_sum "Si O2"
_cell_formula_units_Z 16
_cell_length_a 15.506345
_cell_length_b 10.689005
_cell_length_c 9.083948
_cell_angle_alpha 78.040246
_cell_angle_beta 57.331693
_cell_angle_gamma 124.351984
_cell_volume 707.908946
_symmetry_space_group_name_H-M "P -1"
_symmetry_group_IT_number 2
_symmetry_cell_setting 'triclinic'
loop_
_space_group_symop_operation_xyz
x,y,z
-x,-y,-z
loop_
_atom_site_type_symbol
_atom_site_label
_atom_site_fract_x
_atom_site_fract_y
_atom_site_fract_z
Si Si1 0.042969 0.504481 0.292112
Si Si2 0.638120 0.987435 0.112462
Si Si3 0.049086 0.258399 0.975558
Si Si4 0.278099 0.717285 0.560229
Si Si5 0.374915 0.295697 0.275094
Si Si6 0.110597 0.903493 0.380438
Si Si7 0.054365 0.107731 0.716125
Si Si8 0.647698 0.943435 0.442932
O O1 0.000000 0.500000 0.500000
O O2 0.889604 0.404334 0.351743
O O3 0.023189 0.332824 0.360122
O O4 0.234176 0.762453 0.021917
O O5 0.440973 0.830167 0.283367
O O6 0.607058 0.885908 0.322086
O O7 0.749766 0.023432 0.879319
O O8 0.198134 0.521116 0.781925
O O9 0.033609 0.196302 0.835177
O O10 0.064199 0.138888 0.075443
O O11 0.858038 0.123490 0.222850
O O12 0.361293 0.920878 0.524157
O O13 0.228029 0.083740 0.355070
O O14 0.261019 0.274716 0.487551
O O15 0.454010 0.262932 0.309866
O O16 0.500000 0.500000 0.000000
O O17 0.001673 0.892059 0.387127
#
# Coordination Sequence:
#
# PCOD9012523 Si02
#       8
#     2   2   2   2   2   2   2   2
#     4  10  22  42  66  98 141 177 216 281 337 404
#     4  11  25  40  70 103 137 178 230 275 338 410
#     4  10  21  40  70  98 128 183 222 283 331 401
#     4  12  23  40  70 103 136 177 225 280 345 387
#     4  11  26  42  67  98 136 177 223 284 335 404
#     4  11  22  45  62  97 137 180 223 274 341 404
#     4  10  22  42  68  93 133 181 228 266 345 397
#     4  11  22  46  64  99 140 174 227 283 334 402
#
# _framework density 22.601776000000001
#
# number of rings (size 3 to 8) (size 9 to 14) (size 15 to 20)
#    0.000    1.250    3.750    1.875    1.750    4.000 
#    0.000    1.250    0.000    0.000    0.000    0.000 
#    0.000    0.000    0.000    0.000    0.000    0.000 
#
# Total GULP energy -89433.352196 kJ/mol
# GULP energy per Si atom -5589.584512 kJ/mol
# Density = 2.255033 g / cm^3
# Si number density = 22.601776 Si / 1000 Ang^3
#
#
#
# Elastic Constant Matrix: (Units=GPa)
#
#
# Indices 1 2 3 4 5 6 
#
# 1 82.0737 11.7178 30.5671 -7.6636 25.4421 -3.0738
# 2 11.7178 42.6866 4.2740 8.1157 3.3714 -9.5540
# 3 30.5671 4.2740 90.2563 -2.3094 18.5546 -4.0156
# 4 -7.6636 8.1157 -2.3094 22.1728 -2.9895 -3.4788
# 5 25.4421 3.3714 18.5546 -2.9895 40.4963 3.9285
# 6 -3.0738 -9.5540 -4.0156 -3.4788 3.9285 29.5310
#
#
#
# Elastic Compliance Matrix: (Units=1/GPa)
#
#
# Indices 1 2 3 4 5 6 
#
# 1 0.017577 -0.004612 -0.003713 0.006485 -0.008649 0.001747
# 2 -0.004612 0.028547 0.000536 -0.010950 -0.001281 0.007709
# 3 -0.003713 0.000536 0.013217 -0.000315 -0.003993 0.002078
# 4 0.006485 -0.010950 -0.000315 0.051877 0.000508 0.003133
# 5 -0.008649 -0.001281 -0.003993 0.000508 0.032697 -0.006147
# 6 0.001747 0.007709 0.002078 0.003133 -0.006147 0.038008
#
#
# Mechanical properties :
#
#
# Convention : Reuss Voigt Hill
#
# Bulk Modulus (GPa) = 22.84980 34.23717 28.54348
# Shear Modulus (GPa) = 23.57497 29.67053 26.62275
#
# Velocity S-wave (km/s) = 3.23315 3.62712 3.43579
# Velocity P-wave (km/s) = 4.90605 5.72034 5.32877
#
# Compressibility (1/GPa) = 0.04376406
#
# Stress axis : x y z
#
# Youngs Moduli (GPa) = 56.89104 35.02943 75.66136
#
# Poissons Ratio (x) = 0.16156 0.28092
# Poissons Ratio (y) = 0.26239 -0.04058
# Poissons Ratio (z) = 0.21123 -0.01879
#
# Static dielectric constant tensor:
#      x y z
#    x 1.904910 -0.045570 0.026800 
#    y -0.045570 1.832520 -0.002030 
#    z 0.026800 -0.002030 1.864700 
# 
# From -- ./inp_files/306999.got.cif
#   From: 2010.05.17/outbox.cif.g08.bks.cpg/sg2_154_cif.got.tgz:306999.got - 2010.06.03 11:33:40.
