data_PCOD9012533
_publ_section_title
;
Structure prediction by ZEFSAII (Michael W. Deem and Ramdas Pophale) SiO2 
 PCOD9012533
Probable space group: P -1
;
_chemical_formula_sum "Si O2"
_cell_formula_units_Z 15
_cell_length_a 8.003081
_cell_length_b 14.415206
_cell_length_c 9.394090
_cell_angle_alpha 39.445888
_cell_angle_beta 69.136771
_cell_angle_gamma 69.827049
_cell_volume 638.951519
_symmetry_space_group_name_H-M "P -1"
_symmetry_group_IT_number 2
_symmetry_cell_setting 'triclinic'
loop_
_space_group_symop_operation_xyz
x,y,z
-x,-y,-z
loop_
_atom_site_type_symbol
_atom_site_label
_atom_site_fract_x
_atom_site_fract_y
_atom_site_fract_z
Si Si1 0.747663 0.106222 0.143924
Si Si2 0.430128 0.325492 0.571062
Si Si3 0.329047 0.947072 0.196747
Si Si4 0.811111 0.941596 0.600611
Si Si5 0.103599 0.384064 0.002644
Si Si6 0.000000 0.000000 0.000000
Si Si7 0.501241 0.376462 0.810842
Si Si8 0.029933 0.339584 0.756513
O O1 0.728645 0.045610 0.377980
O O2 0.822931 0.969284 0.187020
O O3 0.575073 0.221202 0.037147
O O4 0.908348 0.206528 0.917757
O O5 0.578591 0.212235 0.585813
O O6 0.521037 0.349462 0.668773
O O7 0.395682 0.490194 0.323983
O O8 0.234549 0.280065 0.721910
O O9 0.150729 0.944320 0.157284
O O10 0.284206 0.044901 0.233745
O O11 0.500000 0.000000 0.000000
O O12 0.852194 0.772033 0.749342
O O13 0.000000 0.000000 0.500000
O O14 0.295657 0.428313 0.845644
O O15 0.008498 0.360701 0.907743
O O16 0.000000 0.500000 0.000000
O O17 0.000000 0.500000 0.500000
#
# Coordination Sequence:
#
# PCOD9012533 Si02
#       8
#     2   2   2   2   2   1   2   2
#     4  12  24  44  69 104 147 187 247 293 365 446
#     4  10  21  40  70  98 136 185 236 302 352 427
#     4  12  25  47  73 107 145 193 257 301 372 449
#     4  12  26  47  72 103 152 190 229 317 375 424
#     4  11  26  47  70  96 138 189 239 293 375 436
#     4  12  24  40  76  98 140 198 248 290 366 448
#     4  10  22  41  66 101 137 178 238 297 350 431
#     4  11  22  43  69 103 141 183 237 305 357 430
#
# _framework density 23.475961999999999
#
# number of rings (size 3 to 8) (size 9 to 14) (size 15 to 20)
#    0.000    0.800    5.333    2.400    1.867    1.600 
#    2.400    1.333    0.000    0.000    0.000    0.000 
#    0.000    0.000    0.000    0.000    0.000    0.000 
#
# Total GULP energy -83514.074294 kJ/mol
# GULP energy per Si atom -5567.604953 kJ/mol
# Density = 2.342253 g / cm^3
# Si number density = 23.475962 Si / 1000 Ang^3
#
#
#
# Elastic Constant Matrix: (Units=GPa)
#
#
# Indices 1 2 3 4 5 6 
#
# 1 65.7269 31.9178 22.0702 -11.0130 8.3269 -9.2895
# 2 31.9178 106.4485 19.9220 -3.4996 8.5088 -28.5117
# 3 22.0702 19.9220 106.4551 -5.1253 18.1579 2.3680
# 4 -11.0130 -3.4996 -5.1253 34.0874 1.8388 -0.8479
# 5 8.3269 8.5088 18.1579 1.8388 45.1597 -6.3652
# 6 -9.2895 -28.5117 2.3680 -0.8479 -6.3652 33.6215
#
#
#
# Elastic Compliance Matrix: (Units=1/GPa)
#
#
# Indices 1 2 3 4 5 6 
#
# 1 0.019771 -0.004707 -0.002690 0.005628 -0.001697 0.001481
# 2 -0.004707 0.014034 -0.001994 -0.000140 0.000559 0.010843
# 3 -0.002690 -0.001994 0.011167 0.000733 -0.004212 -0.004000
# 4 0.005628 -0.000140 0.000733 0.031420 -0.002341 0.001734
# 5 -0.001697 0.000559 -0.004212 -0.002341 0.024837 0.004945
# 6 0.001481 0.010843 -0.004000 0.001734 0.004945 0.040609
#
#
# Mechanical properties :
#
#
# Convention : Reuss Voigt Hill
#
# Bulk Modulus (GPa) = 38.18396 47.38341 42.78368
# Shear Modulus (GPa) = 29.52451 36.22176 32.87313
#
# Velocity S-wave (km/s) = 3.55018 3.93228 3.74610
# Velocity P-wave (km/s) = 5.75374 6.39098 6.08071
#
# Compressibility (1/GPa) = 0.02618901
#
# Stress axis : x y z
#
# Youngs Moduli (GPa) = 50.57855 71.25676 89.54800
#
# Poissons Ratio (x) = 0.33543 0.24093
# Poissons Ratio (y) = 0.23809 0.17853
# Poissons Ratio (z) = 0.13608 0.14207
#
# Static dielectric constant tensor:
#      x y z
#    x 2.150900 -0.876400 0.288140 
#    y -0.876400 7.377500 -1.804890 
#    z 0.288140 -1.804890 2.427260 
# 
# From -- ./inp_files/205023.got.cif
#   From: 2010.05.17/outbox.cif.g08.bks.cpg/sg2_103_cif.got.tgz:205023.got - 2010.06.03 11:33:40.
