data_PCOD9012769
_publ_section_title
;
Structure prediction by ZEFSAII (Michael W. Deem and Ramdas Pophale) SiO2 
 PCOD9012769
Probable space group: P -1
;
_chemical_formula_sum "Si O2"
_cell_formula_units_Z 14
_cell_length_a 7.144595
_cell_length_b 21.178195
_cell_length_c 5.223169
_cell_angle_alpha 52.379063
_cell_angle_beta 73.802188
_cell_angle_gamma 54.506475
_cell_volume 506.161156
_symmetry_space_group_name_H-M "P -1"
_symmetry_group_IT_number 2
_symmetry_cell_setting 'triclinic'
loop_
_space_group_symop_operation_xyz
x,y,z
-x,-y,-z
loop_
_atom_site_type_symbol
_atom_site_label
_atom_site_fract_x
_atom_site_fract_y
_atom_site_fract_z
Si Si1 0.372445 0.688032 0.005438
Si Si2 0.629538 0.524954 0.668023
Si Si3 0.984481 0.129068 0.061207
Si Si4 0.811854 0.976210 0.259799
Si Si5 0.828936 0.610624 0.716703
Si Si6 0.354883 0.142889 0.150417
Si Si7 0.998944 0.322406 0.114357
O O1 0.459009 0.586882 0.352422
O O2 0.250808 0.771341 0.052196
O O3 0.178378 0.710261 0.807134
O O4 0.600354 0.670919 0.830379
O O5 0.707884 0.595763 0.556810
O O6 0.870132 0.425638 0.773291
O O7 0.500000 0.500000 0.000000
O O8 0.045176 0.065004 0.949589
O O9 0.019919 0.069965 0.449872
O O10 0.191227 0.148449 0.969573
O O11 0.664078 0.925065 0.466906
O O12 0.616738 0.086415 0.096481
O O13 0.000000 0.500000 0.000000
O O14 0.968234 0.657627 0.653009
O O15 0.231833 0.245169 0.071632
#
# Coordination Sequence:
#
# PCOD9012769 Si02
#       7
#     2   2   2   2   2   2   2
#     4  11  23  40  63  90 128 167 213 268 317 389
#     4  11  23  39  64  88 127 165 211 263 320 384
#     4   9  19  31  60  88 120 164 210 255 325 381
#     4   9  17  33  56  93 123 160 211 266 320 378
#     4  10  24  42  61  89 129 164 216 265 322 379
#     4   8  18  31  57  86 127 156 213 263 315 380
#     4  10  21  41  60  93 119 171 213 256 324 386
#
# _framework density 27.659172000000002
#
# number of rings (size 3 to 8) (size 9 to 14) (size 15 to 20)
#    0.857    1.429    1.429    0.857    4.000    2.286 
#    2.571    0.000    0.000    1.714    0.000    0.000 
#    0.000    0.000    0.000    0.000    0.000    0.000 
#
# Total GULP energy -78232.445994 kJ/mol
# GULP energy per Si atom -5588.031857 kJ/mol
# Density = 2.759622 g / cm^3
# Si number density = 27.659172 Si / 1000 Ang^3
#
#
#
# Elastic Constant Matrix: (Units=GPa)
#
#
# Indices 1 2 3 4 5 6 
#
# 1 105.9337 36.9820 23.6086 -2.6115 -4.7690 -5.8847
# 2 36.9820 261.4226 40.3069 -11.9653 15.5058 -17.2225
# 3 23.6086 40.3069 45.7678 -0.0060 6.2501 3.9542
# 4 -2.6115 -11.9653 -0.0060 39.4241 0.3962 9.1646
# 5 -4.7690 15.5058 6.2501 0.3962 27.9135 7.9249
# 6 -5.8847 -17.2225 3.9542 9.1646 7.9249 66.2731
#
#
#
# Elastic Compliance Matrix: (Units=1/GPa)
#
#
# Indices 1 2 3 4 5 6 
#
# 1 0.011174 -0.000879 -0.005515 0.000289 0.003446 0.000641
# 2 -0.000879 0.004795 -0.003564 0.001066 -0.002465 0.001528
# 3 -0.005515 -0.003564 0.028684 -0.000825 -0.004676 -0.002454
# 4 0.000289 0.001066 -0.000825 0.026481 0.000213 -0.003335
# 5 0.003446 -0.002465 -0.004676 0.000213 0.040216 -0.004894
# 6 0.000641 0.001528 -0.002454 -0.003335 -0.004894 0.016736
#
#
# Mechanical properties :
#
#
# Convention : Reuss Voigt Hill
#
# Bulk Modulus (GPa) = 40.42941 68.32434 54.37688
# Shear Modulus (GPa) = 32.00011 47.53723 39.76867
#
# Velocity S-wave (km/s) = 3.40508 4.15019 3.79596
# Velocity P-wave (km/s) = 5.48709 6.90806 6.23817
#
# Compressibility (1/GPa) = 0.02473447
#
# Stress axis : x y z
#
# Youngs Moduli (GPa) = 89.49432 208.55824 34.86243
#
# Poissons Ratio (x) = 0.18339 0.19228
# Poissons Ratio (y) = 0.07869 0.12427
# Poissons Ratio (z) = 0.49360 0.74340
#
# Static dielectric constant tensor:
#      x y z
#    x 2.389900 0.101590 -0.114360 
#    y 0.101590 2.121510 -0.009290 
#    z -0.114360 -0.009290 2.240900 
# 
# From -- ./inp_files/54100.got.cif
#   From: 2010.05.17/outbox.cif.g08.bks.cpg/sg2_28_cif.got.tgz:54100.got - 2010.06.03 11:33:40.
