data_PCOD9012301
_publ_section_title
;
Structure prediction by ZEFSAII (Michael W. Deem and Ramdas Pophale) SiO2 
 PCOD9012301
Probable space group: P -1
;
_chemical_formula_sum "Si O2"
_cell_formula_units_Z 13
_cell_length_a 13.225084
_cell_length_b 8.606195
_cell_length_c 11.667214
_cell_angle_alpha 140.147032
_cell_angle_beta 44.515613
_cell_angle_gamma 110.213849
_cell_volume 532.990153
_symmetry_space_group_name_H-M "P -1"
_symmetry_group_IT_number 2
_symmetry_cell_setting 'triclinic'
loop_
_space_group_symop_operation_xyz
x,y,z
-x,-y,-z
loop_
_atom_site_type_symbol
_atom_site_label
_atom_site_fract_x
_atom_site_fract_y
_atom_site_fract_z
Si Si1 0.358536 0.290257 0.038790
Si Si2 0.722333 0.090971 0.573696
Si Si3 0.022180 0.392342 0.793129
Si Si4 0.331244 0.014275 0.686063
Si Si5 0.885333 0.795592 0.701421
Si Si6 0.850845 0.205075 0.161224
Si Si7 0.000000 0.000000 0.500000
O O1 0.305129 0.608293 0.260542
O O2 0.287934 0.204228 0.155183
O O3 0.550909 0.125593 0.776921
O O4 0.282250 0.219970 0.948080
O O5 0.763472 0.937798 0.330645
O O6 0.857673 0.941166 0.476152
O O7 0.116277 0.536951 0.737406
O O8 0.878996 0.328093 0.832197
O O9 0.000000 0.500000 0.000000
O O10 0.308226 0.767967 0.626328
O O11 0.500000 0.000000 0.500000
O O12 0.000000 0.500000 0.500000
O O13 0.940838 0.847038 0.564113
O O14 0.870200 0.042285 0.935422
O O15 0.000000 0.000000 0.000000
#
# Coordination Sequence:
#
# PCOD9012301 Si02
#       7
#     2   2   2   2   2   2   1
#     4   9  21  41  65  96 126 174 224 262 337 399
#     4  10  21  40  69  91 130 172 220 275 325 408
#     4  12  25  42  63 100 130 170 224 278 336 388
#     4   9  20  40  66  92 125 172 216 269 330 401
#     4  11  23  42  67  95 134 177 222 277 340 398
#     4  11  23  41  67  96 129 172 228 277 332 409
#     4  12  26  42  64  98 140 172 218 288 336 396
#
# _framework density 24.390694
#
# number of rings (size 3 to 8) (size 9 to 14) (size 15 to 20)
#    0.000    1.538    1.538    2.769    4.308    3.692 
#    0.000    7.692    3.385    0.000    0.000    0.000 
#    0.000    0.000    0.000    0.000    0.000    0.000 
#
# Total GULP energy -72394.624184 kJ/mol
# GULP energy per Si atom -5568.817245 kJ/mol
# Density = 2.433518 g / cm^3
# Si number density = 24.390694 Si / 1000 Ang^3
#
#
#
# Elastic Constant Matrix: (Units=GPa)
#
#
# Indices 1 2 3 4 5 6 
#
# 1 74.1711 43.6838 17.8360 -6.2655 10.0730 -1.4448
# 2 43.6838 240.0687 59.0784 -28.7372 5.9524 26.1990
# 3 17.8360 59.0784 59.4393 -14.8666 21.2038 6.5848
# 4 -6.2655 -28.7372 -14.8666 49.1259 7.4607 11.1768
# 5 10.0730 5.9524 21.2038 7.4607 39.7330 3.1008
# 6 -1.4448 26.1990 6.5848 11.1768 3.1008 46.9281
#
#
#
# Elastic Compliance Matrix: (Units=1/GPa)
#
#
# Indices 1 2 3 4 5 6 
#
# 1 0.015881 -0.002804 -0.001110 -0.000016 -0.003200 0.002425
# 2 -0.002804 0.006717 -0.005810 0.002257 0.002673 -0.003735
# 3 -0.001110 -0.005810 0.031644 0.009178 -0.017281 -0.002275
# 4 -0.000016 0.002257 0.009178 0.027884 -0.009801 -0.008542
# 5 -0.003200 0.002673 -0.017281 -0.009801 0.036583 0.000751
# 6 0.002425 -0.003735 -0.002275 -0.008542 0.000751 0.025773
#
#
# Mechanical properties :
#
#
# Convention : Reuss Voigt Hill
#
# Bulk Modulus (GPa) = 28.74011 68.31950 48.52981
# Shear Modulus (GPa) = 28.48568 44.02944 36.25756
#
# Velocity S-wave (km/s) = 3.42115 4.25334 3.85974
# Velocity P-wave (km/s) = 5.23589 7.22444 6.30900
#
# Compressibility (1/GPa) = 0.03479458
#
# Stress axis : x y z
#
# Youngs Moduli (GPa) = 62.96791 148.87509 31.60187
#
# Poissons Ratio (x) = 0.41745 0.03507
# Poissons Ratio (y) = 0.17656 0.18360
# Poissons Ratio (z) = 0.06988 0.86495
#
# Static dielectric constant tensor:
#      x y z
#    x 1.183440 -0.030120 -0.846900 
#    y -0.030120 1.962000 -0.045360 
#    z -0.846900 -0.045360 1.134630 
# 
# From -- ./inp_files/445277.got.cif
#   From: 2010.05.17/outbox.cif.g08.bks.cpg/sg2_223_cif.got.tgz:445277.got - 2010.06.03 11:33:40.
