data_PCOD9012405
_publ_section_title
;
Structure prediction by ZEFSAII (Michael W. Deem and Ramdas Pophale) SiO2 
 PCOD9012405
Probable space group: P -1
;
_chemical_formula_sum "Si O2"
_cell_formula_units_Z 12
_cell_length_a 5.158704
_cell_length_b 12.348818
_cell_length_c 10.025434
_cell_angle_alpha 59.292489
_cell_angle_beta 95.496511
_cell_angle_gamma 104.654954
_cell_volume 530.816941
_symmetry_space_group_name_H-M "P -1"
_symmetry_group_IT_number 2
_symmetry_cell_setting 'triclinic'
loop_
_space_group_symop_operation_xyz
x,y,z
-x,-y,-z
loop_
_atom_site_type_symbol
_atom_site_label
_atom_site_fract_x
_atom_site_fract_y
_atom_site_fract_z
Si Si1 0.582573 0.763067 0.820656
Si Si2 0.185991 0.008038 0.876539
Si Si3 0.954674 0.301690 0.300719
Si Si4 0.587273 0.220007 0.915306
Si Si5 0.845100 0.040044 0.592088
Si Si6 0.765376 0.487041 0.603629
O O1 0.830460 0.731194 0.772727
O O2 0.300095 0.675150 0.808884
O O3 0.604690 0.917216 0.693948
O O4 0.593597 0.750654 0.989252
O O5 0.445244 0.118066 0.859756
O O6 0.233815 0.865452 0.949360
O O7 0.043007 0.053252 0.717366
O O8 0.000000 0.000000 0.000000
O O9 0.126476 0.407181 0.342617
O O10 0.810012 0.180314 0.464144
O O11 0.715837 0.350071 0.763380
O O12 0.000000 0.000000 0.500000
O O13 0.500000 0.500000 0.500000
O O14 0.000000 0.500000 0.500000
#
# Coordination Sequence:
#
# PCOD9012405 Si02
#       6
#     2   2   2   2   2   2
#     4  11  23  43  68 104 136 181 233 287 355 404
#     4  11  23  43  69 105 137 184 232 292 356 407
#     4  11  25  43  69 102 141 182 230 285 347 419
#     4  11  26  42  72  99 142 182 237 292 347 423
#     4  10  21  40  69  99 139 177 230 289 342 409
#     4  12  29  48  71 101 140 189 235 286 351 422
#
# _framework density 22.606663000000001
#
# number of rings (size 3 to 8) (size 9 to 14) (size 15 to 20)
#    0.000    1.000    1.667    4.500    4.667    4.000 
#    0.000    0.000    0.000    0.000    0.000    0.000 
#    0.000    0.000    0.000    0.000    0.000    0.000 
#
# Total GULP energy -67070.215248 kJ/mol
# GULP energy per Si atom -5589.184604 kJ/mol
# Density = 2.255521 g / cm^3
# Si number density = 22.606663 Si / 1000 Ang^3
#
#
#
# Elastic Constant Matrix: (Units=GPa)
#
#
# Indices 1 2 3 4 5 6 
#
# 1 108.7645 29.8087 32.1579 13.3373 -11.0960 14.9117
# 2 29.8087 125.4185 50.9077 3.4113 -5.1749 23.4263
# 3 32.1579 50.9077 142.6334 6.7752 -24.2599 1.7868
# 4 13.3373 3.4113 6.7752 44.2976 11.4013 -1.5423
# 5 -11.0960 -5.1749 -24.2599 11.4013 37.8169 15.0574
# 6 14.9117 23.4263 1.7868 -1.5423 15.0574 36.7800
#
#
#
# Elastic Compliance Matrix: (Units=1/GPa)
#
#
# Indices 1 2 3 4 5 6 
#
# 1 0.012224 -0.000585 -0.000819 -0.005834 0.007942 -0.008040
# 2 -0.000585 0.011001 -0.003174 -0.001165 0.002751 -0.007790
# 3 -0.000819 -0.003174 0.009611 -0.002738 0.006704 -0.000973
# 4 -0.005834 -0.001165 -0.002738 0.029654 -0.017149 0.011504
# 5 0.007942 0.002751 0.006704 -0.017149 0.049004 -0.026078
# 6 -0.008040 -0.007790 -0.000973 0.011504 -0.026078 0.046616
#
#
# Mechanical properties :
#
#
# Convention : Reuss Voigt Hill
#
# Bulk Modulus (GPa) = 42.22755 66.95167 54.58961
# Shear Modulus (GPa) = 28.54554 41.37504 34.96029
#
# Velocity S-wave (km/s) = 3.55731 4.28274 3.93677
# Velocity P-wave (km/s) = 5.96594 7.35772 6.69808
#
# Compressibility (1/GPa) = 0.02368122
#
# Stress axis : x y z
#
# Youngs Moduli (GPa) = 81.80346 90.90197 104.04992
#
# Poissons Ratio (x) = 0.05319 0.08518
# Poissons Ratio (y) = 0.04786 0.33022
# Poissons Ratio (z) = 0.06697 0.28849
#
# Static dielectric constant tensor:
#      x y z
#    x 1.899010 0.024690 0.038270 
#    y 0.024690 1.887650 -0.001850 
#    z 0.038270 -0.001850 1.806950 
# 
# From -- ./inp_files/23311.got.cif
#   From: 2010.05.17/outbox.cif.g08.bks.cpg/sg2_12_cif.got.tgz:23311.got - 2010.06.03 11:33:40.
