data_PCOD9012711
_publ_section_title
;
Structure prediction by ZEFSAII (Michael W. Deem and Ramdas Pophale) SiO2 
 PCOD9012711
Probable space group: P -1
;
_chemical_formula_sum "Si O2"
_cell_formula_units_Z 16
_cell_length_a 16.581961
_cell_length_b 19.954833
_cell_length_c 7.913447
_cell_angle_alpha 51.087084
_cell_angle_beta 58.179228
_cell_angle_gamma 20.076077
_cell_volume 679.840976
_symmetry_space_group_name_H-M "P -1"
_symmetry_group_IT_number 2
_symmetry_cell_setting 'triclinic'
loop_
_space_group_symop_operation_xyz
x,y,z
-x,-y,-z
loop_
_atom_site_type_symbol
_atom_site_label
_atom_site_fract_x
_atom_site_fract_y
_atom_site_fract_z
Si Si1 0.796103 0.296717 0.331328
Si Si2 0.700839 0.178468 0.577339
Si Si3 0.075467 0.629052 0.339511
Si Si4 0.193912 0.557483 0.687772
Si Si5 0.669886 0.752239 0.313871
Si Si6 0.887924 0.545487 0.887417
Si Si7 0.441057 0.982228 0.842757
Si Si8 0.454089 0.438838 0.113031
O O1 0.715242 0.265022 0.494319
O O2 0.855114 0.304967 0.415034
O O3 0.591059 0.522838 0.098767
O O4 0.039628 0.082836 0.289095
O O5 0.475677 0.321021 0.692125
O O6 0.646029 0.231871 0.350701
O O7 0.045070 0.651936 0.538597
O O8 0.271365 0.390908 0.455982
O O9 0.204356 0.611064 0.189427
O O10 0.828581 0.819908 0.215263
O O11 0.126585 0.544401 0.925561
O O12 0.538795 0.932104 0.286968
O O13 0.933868 0.573144 0.266509
O O14 0.529004 0.868737 0.105252
O O15 0.616082 0.805628 0.780409
O O16 0.000000 0.500000 0.000000
O O17 0.500000 0.500000 0.000000
#
# Coordination Sequence:
#
# PCOD9012711 Si02
#       8
#     2   2   2   2   2   2   2   2
#     4  10  21  41  67  89 119 166 199 250 317 362
#     4   9  21  42  65  90 121 157 207 252 305 371
#     4  11  22  39  63  94 123 160 211 254 299 374
#     4  11  22  39  61  92 128 155 204 256 301 367
#     4  10  22  43  60  89 124 162 209 254 304 364
#     4  10  21  41  58  87 125 160 198 253 303 362
#     4  10  22  40  66  84 122 171 197 257 312 347
#     4   9  21  40  61  92 127 154 200 259 300 360
#
# _framework density 23.534915000000002
#
# number of rings (size 3 to 8) (size 9 to 14) (size 15 to 20)
#    0.000    2.000    2.500    0.750    3.500    0.500 
#    9.000    0.000    0.000    8.250    0.000    0.000 
#    0.000    0.000    0.000    0.000    0.000    0.000 
#
# Total GULP energy -89357.479461 kJ/mol
# GULP energy per Si atom -5584.842466 kJ/mol
# Density = 2.348135 g / cm^3
# Si number density = 23.534915 Si / 1000 Ang^3
#
#
#
# Elastic Constant Matrix: (Units=GPa)
#
#
# Indices 1 2 3 4 5 6 
#
# 1 115.5998 28.9729 28.3712 -11.9436 -5.7401 -12.7000
# 2 28.9729 50.6588 24.0086 -9.1712 -13.9374 -11.6189
# 3 28.3712 24.0086 92.4595 -10.0936 2.1044 -14.2592
# 4 -11.9436 -9.1712 -10.0936 28.8661 -6.2010 -2.0234
# 5 -5.7401 -13.9374 2.1044 -6.2010 30.0353 1.3499
# 6 -12.7000 -11.6189 -14.2592 -2.0234 1.3499 34.1919
#
#
#
# Elastic Compliance Matrix: (Units=1/GPa)
#
#
# Indices 1 2 3 4 5 6 
#
# 1 0.010629 -0.004168 -0.001577 0.002813 0.000698 0.002012
# 2 -0.004168 0.032969 -0.005316 0.011024 0.016817 0.007427
# 3 -0.001577 -0.005316 0.013502 0.001876 -0.003484 0.003487
# 4 0.002813 0.011024 0.001876 0.043541 0.014170 0.007590
# 5 0.000698 0.016817 -0.003484 0.014170 0.044238 0.003613
# 6 0.002012 0.007427 0.003487 0.007590 0.003613 0.034279
#
#
# Mechanical properties :
#
#
# Convention : Reuss Voigt Hill
#
# Bulk Modulus (GPa) = 28.59094 46.82484 37.70789
# Shear Modulus (GPa) = 23.48083 30.44302 26.96193
#
# Velocity S-wave (km/s) = 3.16207 3.60046 3.38836
# Velocity P-wave (km/s) = 5.05037 6.10111 5.60044
#
# Compressibility (1/GPa) = 0.03497611
#
# Stress axis : x y z
#
# Youngs Moduli (GPa) = 94.08410 30.33139 74.06454
#
# Poissons Ratio (x) = 0.12644 0.11684
# Poissons Ratio (y) = 0.39219 0.39371
# Poissons Ratio (z) = 0.14842 0.16124
#
# Static dielectric constant tensor:
#      x y z
#    x 1.902210 0.016200 0.056220 
#    y 0.016200 1.895220 0.015920 
#    z 0.056220 0.015920 2.030010 
# 
# From -- ./inp_files/337584.got.cif
#   From: 2010.05.17/outbox.cif.g08.bks.cpg/sg2_169_cif.got.tgz:337584.got - 2010.06.03 11:33:40.
