data_PCOD9012710
_publ_section_title
;
Structure prediction by ZEFSAII (Michael W. Deem and Ramdas Pophale) SiO2 
 PCOD9012710
Probable space group: P -1
;
_chemical_formula_sum "Si O2"
_cell_formula_units_Z 12
_cell_length_a 5.227545
_cell_length_b 18.196414
_cell_length_c 21.423825
_cell_angle_alpha 159.616291
_cell_angle_beta 75.316277
_cell_angle_gamma 97.377808
_cell_volume 649.563653
_symmetry_space_group_name_H-M "P -1"
_symmetry_group_IT_number 2
_symmetry_cell_setting 'triclinic'
loop_
_space_group_symop_operation_xyz
x,y,z
-x,-y,-z
loop_
_atom_site_type_symbol
_atom_site_label
_atom_site_fract_x
_atom_site_fract_y
_atom_site_fract_z
Si Si1 0.840254 0.173636 0.504745
Si Si2 0.072563 0.597878 0.445164
Si Si3 0.815550 0.754430 0.217010
Si Si4 0.265061 0.067483 0.014661
Si Si5 0.451491 0.694946 0.606433
Si Si6 0.289811 0.117454 0.533670
O O1 0.858437 0.288732 0.530704
O O2 0.526894 0.234412 0.599927
O O3 0.051611 0.208720 0.570559
O O4 0.924728 0.903725 0.281174
O O5 0.186057 0.330708 0.219684
O O6 0.219090 0.671717 0.554184
O O7 0.741670 0.663222 0.528287
O O8 0.826848 0.838829 0.354540
O O9 0.478204 0.853884 0.304965
O O10 0.000000 0.500000 0.000000
O O11 0.500000 0.000000 0.000000
O O12 0.366750 0.925978 0.833143
O O13 0.000000 0.000000 0.000000
O O14 0.500000 0.500000 0.500000
#
# Coordination Sequence:
#
# PCOD9012710 Si02
#       6
#     2   2   2   2   2   2
#     4  10  21  41  58  86 125 151 189 248 303 334
#     4  12  24  42  61  90 129 154 196 266 296 349
#     4   9  20  38  64  85 115 156 200 234 285 358
#     4  12  23  40  65  90 113 161 207 242 301 363
#     4  12  23  41  66  87 120 161 207 245 300 365
#     4   9  20  39  59  85 117 155 195 233 289 357
#
# _framework density 18.473938
#
# number of rings (size 3 to 8) (size 9 to 14) (size 15 to 20)
#    1.000    0.333    3.333    3.000    0.000    0.667 
#    6.000    0.000    0.000    0.000    0.000    0.000 
#    0.000    0.000    0.000    0.000    0.000    0.000 
#
# Total GULP energy -66882.292014 kJ/mol
# GULP energy per Si atom -5573.524335 kJ/mol
# Density = 1.843189 g / cm^3
# Si number density = 18.473938 Si / 1000 Ang^3
#
#
#
# Elastic Constant Matrix: (Units=GPa)
#
#
# Indices 1 2 3 4 5 6 
#
# 1 105.4944 19.7580 13.5377 6.7634 3.8919 -2.8852
# 2 19.7580 119.2528 34.1769 22.5187 3.4934 7.6820
# 3 13.5377 34.1769 134.7754 7.6903 1.9147 7.2616
# 4 6.7634 22.5187 7.6903 21.5103 1.0898 2.2807
# 5 3.8919 3.4934 1.9147 1.0898 21.7535 -7.2413
# 6 -2.8852 7.6820 7.2616 2.2807 -7.2413 30.9572
#
#
#
# Elastic Compliance Matrix: (Units=1/GPa)
#
#
# Indices 1 2 3 4 5 6 
#
# 1 0.009970 -0.001187 -0.000655 -0.001740 -0.001027 0.001265
# 2 -0.001187 0.011313 -0.002021 -0.010451 -0.001584 -0.002044
# 3 -0.000655 -0.002021 0.008118 -0.000369 -0.000794 -0.001622
# 4 -0.001740 -0.010451 -0.000369 0.058421 -0.001626 -0.002167
# 5 -0.001027 -0.001584 -0.000794 -0.001626 0.050708 0.012465
# 6 0.001265 -0.002044 -0.001622 -0.002167 0.012465 0.036384
#
#
# Mechanical properties :
#
#
# Convention : Reuss Voigt Hill
#
# Bulk Modulus (GPa) = 46.13501 54.94085 50.53793
# Shear Modulus (GPa) = 26.33483 34.31418 30.32450
#
# Velocity S-wave (km/s) = 3.77969 4.31448 4.05591
# Velocity P-wave (km/s) = 6.63893 7.39079 7.02492
#
# Compressibility (1/GPa) = 0.02167551
#
# Stress axis : x y z
#
# Youngs Moduli (GPa) = 100.30537 88.39581 123.18851
#
# Poissons Ratio (x) = 0.10492 0.08065
# Poissons Ratio (y) = 0.11906 0.24891
# Poissons Ratio (z) = 0.06567 0.17861
#
# Static dielectric constant tensor:
#      x y z
#    x 1.677210 0.014190 -0.001340 
#    y 0.014190 1.615010 0.008550 
#    z -0.001340 0.008550 1.640190 
# 
# From -- ./inp_files/287477.got.cif
#   From: 2010.05.17/outbox.cif.g08.bks.cpg/sg2_144_cif.got.tgz:287477.got - 2010.06.03 11:33:40.
