data_PCOD9012111
_publ_section_title
;
Structure prediction by ZEFSAII (Michael W. Deem and Ramdas Pophale) SiO2 
 PCOD9012111
Probable space group: P -1
;
_chemical_formula_sum "Si O2"
_cell_formula_units_Z 12
_cell_length_a 7.116051
_cell_length_b 9.037963
_cell_length_c 9.967711
_cell_angle_alpha 108.606982
_cell_angle_beta 54.619733
_cell_angle_gamma 103.940136
_cell_volume 494.050344
_symmetry_space_group_name_H-M "P -1"
_symmetry_group_IT_number 2
_symmetry_cell_setting 'triclinic'
loop_
_space_group_symop_operation_xyz
x,y,z
-x,-y,-z
loop_
_atom_site_type_symbol
_atom_site_label
_atom_site_fract_x
_atom_site_fract_y
_atom_site_fract_z
Si Si1 0.915349 0.874651 0.151417
Si Si2 0.157721 0.440586 0.075536
Si Si3 0.235718 0.564833 0.355135
Si Si4 0.142123 0.874722 0.329411
Si Si5 0.385277 0.935814 0.821228
Si Si6 0.348189 0.577982 0.769998
O O1 0.887925 0.458621 0.223082
O O2 0.723789 0.000288 0.253028
O O3 0.832676 0.728165 0.047973
O O4 0.163262 0.945221 0.012782
O O5 0.279779 0.463187 0.173387
O O6 0.975786 0.822069 0.259531
O O7 0.249583 0.563401 0.959952
O O8 0.204259 0.735950 0.361246
O O9 0.452867 0.540761 0.353815
O O10 0.000000 0.500000 0.500000
O O11 0.387269 0.957896 0.205350
O O12 0.000000 0.000000 0.500000
O O13 0.437936 0.754437 0.748979
#
# Coordination Sequence:
#
# PCOD9012111 Si02
#       6
#     2   2   2   2   2   2
#     4  10  23  43  68  95 124 165 211 257 309 370
#     4  10  22  43  67  94 125 163 213 258 306 369
#     4  12  26  42  64  93 128 168 209 259 313 369
#     4  12  26  43  63  92 131 168 206 257 316 374
#     4  10  22  40  67  96 126 163 208 258 311 373
#     4  10  21  40  68  96 124 162 210 260 310 368
#
# _framework density 24.289024000000001
#
# number of rings (size 3 to 8) (size 9 to 14) (size 15 to 20)
#    0.000    1.333    0.000    6.000    0.000   13.333 
#    0.000    3.333    0.000    0.000    0.000    0.000 
#    0.000    0.000    0.000    0.000    0.000    0.000 
#
# Total GULP energy -67140.394961 kJ/mol
# GULP energy per Si atom -5595.032913 kJ/mol
# Density = 2.423374 g / cm^3
# Si number density = 24.289024 Si / 1000 Ang^3
#
#
#
# Elastic Constant Matrix: (Units=GPa)
#
#
# Indices 1 2 3 4 5 6 
#
# 1 92.4053 43.8555 9.1611 23.1431 -25.2884 -20.7583
# 2 43.8555 176.9551 26.0597 4.1755 -9.7150 -23.5722
# 3 9.1611 26.0597 55.4401 13.9869 -6.8858 -2.9388
# 4 23.1431 4.1755 13.9869 22.9089 -0.0828 -6.1490
# 5 -25.2884 -9.7150 -6.8858 -0.0828 28.6693 10.1158
# 6 -20.7583 -23.5722 -2.9388 -6.1490 10.1158 37.9918
#
#
#
# Elastic Compliance Matrix: (Units=1/GPa)
#
#
# Indices 1 2 3 4 5 6 
#
# 1 0.027671 -0.006117 0.009553 -0.032504 0.024431 0.000297
# 2 -0.006117 0.008018 -0.005532 0.009188 -0.005442 0.004141
# 3 0.009553 -0.005532 0.027298 -0.026395 0.014529 -0.004242
# 4 -0.032504 0.009188 -0.026395 0.093606 -0.035315 0.010452
# 5 0.024431 -0.005442 0.014529 -0.035315 0.061890 -0.011098
# 6 0.000297 0.004141 -0.004242 0.010452 -0.011098 0.033371
#
#
# Mechanical properties :
#
#
# Convention : Reuss Voigt Hill
#
# Bulk Modulus (GPa) = 17.00810 53.66147 35.33478
# Shear Modulus (GPa) = 18.13922 34.29562 26.21742
#
# Velocity S-wave (km/s) = 2.73574 3.76171 3.28898
# Velocity P-wave (km/s) = 4.12270 6.40376 5.38539
#
# Compressibility (1/GPa) = 0.05879551
#
# Stress axis : x y z
#
# Youngs Moduli (GPa) = 36.13854 124.72132 36.63230
#
# Poissons Ratio (x) = 0.76291 -0.34996
# Poissons Ratio (y) = 0.22106 0.20266
# Poissons Ratio (z) = -0.34524 0.69000
#
# Static dielectric constant tensor:
#      x y z
#    x 1.946330 -0.018130 0.022030 
#    y -0.018130 1.938980 0.005890 
#    z 0.022030 0.005890 1.935420 
# 
# From -- ./inp_files/250762.got.cif
#   From: 2010.05.17/outbox.cif.g08.bks.cpg/sg2_126_cif.got.tgz:250762.got - 2010.06.03 11:33:40.
