data_PCOD9012529
_publ_section_title
;
Structure prediction by ZEFSAII (Michael W. Deem and Ramdas Pophale) SiO2 
 PCOD9012529
Probable space group: P -1
;
_chemical_formula_sum "Si O2"
_cell_formula_units_Z 16
_cell_length_a 6.803573
_cell_length_b 16.598623
_cell_length_c 15.966959
_cell_angle_alpha 32.197787
_cell_angle_beta 126.524483
_cell_angle_gamma 137.134510
_cell_volume 652.044754
_symmetry_space_group_name_H-M "P -1"
_symmetry_group_IT_number 2
_symmetry_cell_setting 'triclinic'
loop_
_space_group_symop_operation_xyz
x,y,z
-x,-y,-z
loop_
_atom_site_type_symbol
_atom_site_label
_atom_site_fract_x
_atom_site_fract_y
_atom_site_fract_z
Si Si1 0.449676 0.074721 0.172230
Si Si2 0.885746 0.341691 0.176203
Si Si3 0.785446 0.955004 0.276278
Si Si4 0.816790 0.723580 0.350680
Si Si5 0.975943 0.458659 0.630245
Si Si6 0.852386 0.794650 0.115880
Si Si7 0.373096 0.276010 0.393429
Si Si8 0.403937 0.143445 0.339922
O O1 0.676021 0.160139 0.229964
O O2 0.623765 0.060895 0.149943
O O3 0.164835 0.879596 0.291937
O O4 0.348505 0.211429 0.003758
O O5 0.675839 0.325417 0.211597
O O6 0.155470 0.343371 0.281071
O O7 0.000000 0.500000 0.000000
O O8 0.684773 0.839753 0.437029
O O9 0.708139 0.820344 0.298262
O O10 0.131691 0.076502 0.268036
O O11 0.801870 0.548680 0.537358
O O12 0.700886 0.691179 0.254660
O O13 0.919368 0.261281 0.799681
O O14 0.292397 0.570398 0.653145
O O15 0.000000 0.500000 0.500000
O O16 0.000000 0.000000 0.000000
O O17 0.317118 0.172293 0.383714
O O18 0.500000 0.000000 0.500000
#
# Coordination Sequence:
#
# PCOD9012529 Si02
#       8
#     2   2   2   2   2   2   2   2
#     4  11  21  42  65  94 142 181 227 283 343 411
#     4  12  26  42  66  98 144 184 227 285 348 412
#     4  12  22  38  71 105 133 179 234 282 340 413
#     4  10  21  40  70  98 131 178 231 289 341 399
#     4  10  21  42  68  95 130 172 227 289 342 395
#     4   9  21  41  69  91 131 185 224 281 349 411
#     4  12  24  40  68 100 135 177 229 280 342 405
#     4  12  23  41  68  99 136 180 228 280 339 403
#
# _framework density 24.538191000000001
#
# number of rings (size 3 to 8) (size 9 to 14) (size 15 to 20)
#    0.000    1.000    5.000    2.625    0.000    1.000 
#    0.000    2.500    8.250    0.000    0.000    0.000 
#    0.000    0.000    0.000    0.000    0.000    0.000 
#
# Total GULP energy -89479.710012 kJ/mol
# GULP energy per Si atom -5592.481876 kJ/mol
# Density = 2.448234 g / cm^3
# Si number density = 24.538191 Si / 1000 Ang^3
#
#
#
# Elastic Constant Matrix: (Units=GPa)
#
#
# Indices 1 2 3 4 5 6 
#
# 1 119.8623 1.3229 34.8304 -0.5771 15.4863 -7.3578
# 2 1.3229 73.5284 -3.6645 9.3571 8.2024 2.4798
# 3 34.8304 -3.6645 105.8923 -3.4470 16.0738 6.4496
# 4 -0.5771 9.3571 -3.4470 32.0631 0.1009 0.2812
# 5 15.4863 8.2024 16.0738 0.1009 48.5380 4.0956
# 6 -7.3578 2.4798 6.4496 0.2812 4.0956 38.0257
#
#
#
# Elastic Compliance Matrix: (Units=1/GPa)
#
#
# Indices 1 2 3 4 5 6 
#
# 1 0.009675 -0.000142 -0.003004 -0.000123 -0.002290 0.002638
# 2 -0.000142 0.014489 0.000859 -0.004123 -0.002611 -0.000806
# 3 -0.003004 0.000859 0.011029 0.000909 -0.002653 -0.002229
# 4 -0.000123 -0.004123 0.000909 0.032488 0.000384 -0.000191
# 5 -0.002290 -0.002611 -0.002653 0.000384 0.022845 -0.002286
# 6 0.002638 -0.000806 -0.002229 -0.000191 -0.002286 0.027487
#
#
# Mechanical properties :
#
#
# Convention : Reuss Voigt Hill
#
# Bulk Modulus (GPa) = 32.65851 40.47339 36.56595
# Shear Modulus (GPa) = 37.65275 41.51163 39.58219
#
# Velocity S-wave (km/s) = 3.92146 4.11751 4.02068
# Velocity P-wave (km/s) = 5.81739 6.25580 6.04057
#
# Compressibility (1/GPa) = 0.03061989
#
# Stress axis : x y z
#
# Youngs Moduli (GPa) = 103.36205 69.01910 90.66599
#
# Poissons Ratio (x) = 0.00977 0.27238
# Poissons Ratio (y) = 0.01463 -0.07790
# Poissons Ratio (z) = 0.31052 -0.05930
#
# Static dielectric constant tensor:
#      x y z
#    x 2.029680 0.001570 0.015810 
#    y 0.001570 2.015110 -0.045170 
#    z 0.015810 -0.045170 1.992390 
# 
# From -- ./inp_files/81189.got.cif
#   From: 2010.05.17/outbox.cif.g08.bks.cpg/sg2_41_cif.got.tgz:81189.got - 2010.06.03 11:33:40.
