data_PCOD9012915
_publ_section_title
;
Structure prediction by ZEFSAII (Michael W. Deem and Ramdas Pophale) SiO2 
 PCOD9012915
Probable space group: P -1
;
_chemical_formula_sum "Si O2"
_cell_formula_units_Z 16
_cell_length_a 19.782399
_cell_length_b 16.823091
_cell_length_c 9.421795
_cell_angle_alpha 27.338122
_cell_angle_beta 37.258105
_cell_angle_gamma 29.773006
_cell_volume 710.785274
_symmetry_space_group_name_H-M "P -1"
_symmetry_group_IT_number 2
_symmetry_cell_setting 'triclinic'
loop_
_space_group_symop_operation_xyz
x,y,z
-x,-y,-z
loop_
_atom_site_type_symbol
_atom_site_label
_atom_site_fract_x
_atom_site_fract_y
_atom_site_fract_z
Si Si1 0.326417 0.908157 0.888306
Si Si2 0.399152 0.389073 0.969134
Si Si3 0.525038 0.276254 0.638117
Si Si4 0.310335 0.550668 0.348358
Si Si5 0.087804 0.342309 0.472578
Si Si6 0.057709 0.599173 0.848367
Si Si7 0.810190 0.490001 0.652418
Si Si8 0.779750 0.912747 0.922295
O O1 0.482953 0.813204 0.814723
O O2 0.325545 0.735553 0.072493
O O3 0.228026 0.131514 0.621867
O O4 0.261280 0.939792 0.104512
O O5 0.426304 0.326585 0.858010
O O6 0.427499 0.567551 0.664305
O O7 0.253352 0.473895 0.143090
O O8 0.442794 0.337893 0.531683
O O9 0.659432 0.040197 0.807276
O O10 0.281276 0.546151 0.239812
O O11 0.177492 0.593349 0.581412
O O12 0.972481 0.308671 0.662053
O O13 0.000000 0.500000 0.500000
O O14 0.107880 0.461365 0.125963
O O15 0.925928 0.830818 0.744395
O O16 0.000000 0.500000 0.000000
O O17 0.790781 0.704224 0.288174
#
# Coordination Sequence:
#
# PCOD9012915 Si02
#       8
#     2   2   2   2   2   2   2   2
#     4  10  22  41  63  90 119 157 208 244 294 363
#     4   9  21  41  61  89 125 155 200 252 292 357
#     4   9  21  39  62  90 119 159 202 244 300 357
#     4  11  24  41  61  91 125 158 199 247 304 356
#     4  11  22  42  64  88 120 161 203 246 299 357
#     4  11  22  43  61  87 129 156 193 259 299 349
#     4  11  23  40  60  90 127 155 196 255 298 353
#     4  10  21  41  62  89 123 156 204 248 291 359
#
# _framework density 22.510314000000001
#
# number of rings (size 3 to 8) (size 9 to 14) (size 15 to 20)
#    0.000    1.750    5.000    0.750    1.750    7.500 
#    4.500    0.000    0.000    0.000    0.000    0.000 
#    0.000    0.000    0.000    0.000    0.000    0.000 
#
# Total GULP energy -89446.416489 kJ/mol
# GULP energy per Si atom -5590.401031 kJ/mol
# Density = 2.245908 g / cm^3
# Si number density = 22.510314 Si / 1000 Ang^3
#
#
#
# Elastic Constant Matrix: (Units=GPa)
#
#
# Indices 1 2 3 4 5 6 
#
# 1 32.9686 -52.2127 -68.5124 44.8576 -41.9707 80.1881
# 2 -52.2127 28.1589 -39.3987 52.0242 -33.1893 43.0224
# 3 -68.5124 -39.3987 -58.0725 95.6054 -74.6854 115.1020
# 4 44.8576 52.0242 95.6054 -42.1426 63.2657 -96.0951
# 5 -41.9707 -33.1893 -74.6854 63.2657 -31.8967 89.9289
# 6 80.1881 43.0224 115.1020 -96.0951 89.9289 -99.8854
#
#
#
# Elastic Compliance Matrix: (Units=1/GPa)
#
#
# Indices 1 2 3 4 5 6 
#
# 1 0.015645 0.006053 -0.002254 0.005030 -0.006608 0.001782
# 2 0.006053 0.026950 -0.004035 -0.006474 -0.007461 0.011328
# 3 -0.002254 -0.004035 0.018141 0.000985 -0.008390 0.008856
# 4 0.005030 -0.006474 0.000985 0.029973 0.011255 -0.016319
# 5 -0.006608 -0.007461 -0.008390 0.011255 0.035575 0.003015
# 6 0.001782 0.011328 0.008856 -0.016319 0.003015 0.024917
#
#
# Mechanical properties :
#
#
# Convention : Reuss Voigt Hill
#
# Bulk Modulus (GPa) = 16.59393 -35.24362 -9.32485
# Shear Modulus (GPa) = 29.11027 -23.90637 2.60195
#
# Velocity S-wave (km/s) = 3.60001 -3.26240 1.07629
# Velocity P-wave (km/s) = 4.96667 5.46641 1.61460
#
# Compressibility (1/GPa) = 0.06026302
#
# Stress axis : x y z
#
# Youngs Moduli (GPa) = 63.91776 37.10609 55.12517
#
# Poissons Ratio (x) = -0.22460 0.12423
# Poissons Ratio (y) = -0.38688 0.22245
# Poissons Ratio (z) = 0.14404 0.14974
#
# Static dielectric constant tensor:
#      x y z
#    x 1.930020 -0.005990 0.000360 
#    y -0.005990 1.840040 -0.012780 
#    z 0.000360 -0.012780 1.815900 
# 
# From -- ./inp_files/329273.got.cif
#   From: 2010.05.17/outbox.cif.g08.bks.cpg/sg2_165_cif.got.tgz:329273.got - 2010.06.03 11:33:40.
