data_PCOD9012900
_publ_section_title
;
Structure prediction by ZEFSAII (Michael W. Deem and Ramdas Pophale) SiO2 
 PCOD9012900
Probable space group: P -1
;
_chemical_formula_sum "Si O2"
_cell_formula_units_Z 16
_cell_length_a 9.007532
_cell_length_b 12.782535
_cell_length_c 19.340741
_cell_angle_alpha 144.205521
_cell_angle_beta 132.068197
_cell_angle_gamma 73.196067
_cell_volume 783.576309
_symmetry_space_group_name_H-M "P -1"
_symmetry_group_IT_number 2
_symmetry_cell_setting 'triclinic'
loop_
_space_group_symop_operation_xyz
x,y,z
-x,-y,-z
loop_
_atom_site_type_symbol
_atom_site_label
_atom_site_fract_x
_atom_site_fract_y
_atom_site_fract_z
Si Si1 0.113299 0.295771 0.401540
Si Si2 0.730867 0.472116 0.189371
Si Si3 0.174787 0.190884 0.710445
Si Si4 0.561681 0.101388 0.840730
Si Si5 0.756014 0.028442 0.600308
Si Si6 0.492932 0.513935 0.261686
Si Si7 0.148504 0.670767 0.533297
Si Si8 0.060885 0.854167 0.125567
O O1 0.380041 0.457881 0.609738
O O2 0.092221 0.441088 0.417004
O O3 0.929482 0.244717 0.380865
O O4 0.067320 0.074553 0.238600
O O5 0.689394 0.593180 0.179865
O O6 0.540508 0.395333 0.152009
O O7 0.987498 0.631973 0.394872
O O8 0.717823 0.276321 0.043212
O O9 0.357387 0.143043 0.776689
O O10 0.000000 0.000000 0.500000
O O11 0.977960 0.172810 0.692852
O O12 0.726755 0.127678 0.842737
O O13 0.424358 0.858851 0.699379
O O14 0.652229 0.770657 0.425503
O O15 0.500000 0.000000 0.500000
O O16 0.875715 0.134769 0.768295
O O17 0.199472 0.371093 0.096936
#
# Coordination Sequence:
#
# PCOD9012900 Si02
#       8
#     2   2   2   2   2   2   2   2
#     4   9  21  43  68  92 118 160 202 266 309 365
#     4  11  23  39  65  90 122 163 207 257 298 368
#     4  12  21  42  64  89 126 162 209 252 303 364
#     4  12  25  39  61  93 124 167 206 250 303 367
#     4  11  24  40  63  90 125 165 202 255 307 361
#     4  10  21  41  62  88 124 161 203 253 308 362
#     4  10  21  42  70  91 118 157 213 254 314 364
#     4  11  25  40  60  91 131 162 204 251 308 367
#
# _framework density 20.419198999999999
#
# number of rings (size 3 to 8) (size 9 to 14) (size 15 to 20)
#    0.000    1.250    2.500    4.125    1.750    3.000 
#    0.000    5.000    0.000    0.000    0.000    0.000 
#    0.000    0.000    0.000    0.000    0.000    0.000 
#
# Total GULP energy -89290.329227 kJ/mol
# GULP energy per Si atom -5580.645577 kJ/mol
# Density = 2.037272 g / cm^3
# Si number density = 20.419199 Si / 1000 Ang^3
#
#
#
# Elastic Constant Matrix: (Units=GPa)
#
#
# Indices 1 2 3 4 5 6 
#
# 1 75.9098 -0.0173 19.2334 -9.0375 3.8089 10.2704
# 2 -0.0173 56.1825 3.0638 -5.4473 0.9553 2.4910
# 3 19.2334 3.0638 62.8835 -7.0587 9.3847 14.2363
# 4 -9.0375 -5.4473 -7.0587 8.3538 4.5895 2.3688
# 5 3.8089 0.9553 9.3847 4.5895 27.6352 -2.8263
# 6 10.2704 2.4910 14.2363 2.3688 -2.8263 24.8926
#
#
#
# Elastic Compliance Matrix: (Units=1/GPa)
#
#
# Indices 1 2 3 4 5 6 
#
# 1 0.019427 0.004307 0.003185 0.037197 -0.011633 -0.015128
# 2 0.004307 0.021124 0.004846 0.030552 -0.009128 -0.010606
# 3 0.003185 0.004846 0.029536 0.050883 -0.021746 -0.026002
# 4 0.037197 0.030552 0.050883 0.290949 -0.080405 -0.084321
# 5 -0.011633 -0.009128 -0.021746 -0.080405 0.062204 0.032864
# 6 -0.015128 -0.010606 -0.026002 -0.084321 0.032864 0.074102
#
#
# Mechanical properties :
#
#
# Convention : Reuss Voigt Hill
#
# Bulk Modulus (GPa) = 10.55265 26.61505 18.58385
# Shear Modulus (GPa) = 9.91567 23.68937 16.80252
#
# Velocity S-wave (km/s) = 2.20604 3.40980 2.87170
# Velocity P-wave (km/s) = 3.41585 5.34461 4.48514
#
# Compressibility (1/GPa) = 0.09476292
#
# Stress axis : x y z
#
# Youngs Moduli (GPa) = 51.47573 47.33980 33.85721
#
# Poissons Ratio (x) = -0.20391 -0.10782
# Poissons Ratio (y) = -0.22172 -0.16408
# Poissons Ratio (z) = -0.16393 -0.22943
#
# Static dielectric constant tensor:
#      x y z
#    x 1.784460 -0.029670 0.065590 
#    y -0.029670 1.758760 0.029810 
#    z 0.065590 0.029810 1.786770 
# 
# From -- ./inp_files/255821.got.cif
#   From: 2010.05.17/outbox.cif.g08.bks.cpg/sg2_128_cif.got.tgz:255821.got - 2010.06.03 11:33:40.
