data_PCOD9012334
_publ_section_title
;
Structure prediction by ZEFSAII (Michael W. Deem and Ramdas Pophale) SiO2 
 PCOD9012334
Probable space group: P -1
;
_chemical_formula_sum "Si O2"
_cell_formula_units_Z 16
_cell_length_a 11.133745
_cell_length_b 9.655459
_cell_length_c 15.577513
_cell_angle_alpha 140.131265
_cell_angle_beta 79.750780
_cell_angle_gamma 122.903682
_cell_volume 807.526555
_symmetry_space_group_name_H-M "P -1"
_symmetry_group_IT_number 2
_symmetry_cell_setting 'triclinic'
loop_
_space_group_symop_operation_xyz
x,y,z
-x,-y,-z
loop_
_atom_site_type_symbol
_atom_site_label
_atom_site_fract_x
_atom_site_fract_y
_atom_site_fract_z
Si Si1 0.848813 0.744943 0.968279
Si Si2 0.669902 0.020919 0.399786
Si Si3 0.926376 0.281417 0.164630
Si Si4 0.873340 0.050959 0.522123
Si Si5 0.582551 0.096057 0.126407
Si Si6 0.469215 0.715407 0.117763
Si Si7 0.440730 0.454281 0.583999
Si Si8 0.343981 0.543184 0.315018
O O1 0.708859 0.479614 0.914962
O O2 0.771368 0.668123 0.845631
O O3 0.994488 0.747096 0.940604
O O4 0.903732 0.053585 0.126584
O O5 0.609872 0.955000 0.278115
O O6 0.504650 0.789921 0.360918
O O7 0.790724 0.978369 0.402738
O O8 0.722703 0.320434 0.564293
O O9 0.751499 0.176635 0.129304
O O10 0.036142 0.616730 0.324882
O O11 0.721215 0.860661 0.516827
O O12 0.000000 0.000000 0.500000
O O13 0.599681 0.350333 0.287688
O O14 0.482269 0.845634 0.088041
O O15 0.500000 0.000000 0.000000
O O16 0.500000 0.500000 0.000000
O O17 0.500000 0.500000 0.500000
O O18 0.590934 0.547998 0.666656
#
# Coordination Sequence:
#
# PCOD9012334 Si02
#       8
#     2   2   2   2   2   2   2   2
#     4  10  21  40  69  94 127 167 227 276 331 395
#     4   9  19  35  63  93 121 166 224 263 322 395
#     4  11  22  40  65  95 131 176 213 276 342 399
#     4  11  22  40  65  94 139 178 209 275 347 401
#     4  12  26  44  67  97 136 179 227 278 345 407
#     4  11  23  40  68  96 128 172 231 283 317 398
#     4  11  24  39  65  95 132 174 226 274 333 404
#     4   9  17  36  62  90 119 168 218 267 318 388
#
# _framework density 19.813589
#
# number of rings (size 3 to 8) (size 9 to 14) (size 15 to 20)
#    0.000    1.500    3.750    1.500    7.000    0.000 
#    0.000    2.500    8.250    0.000    0.000    0.000 
#    0.000    0.000    0.000    0.000    0.000    0.000 
#
# Total GULP energy -89125.510913 kJ/mol
# GULP energy per Si atom -5570.344432 kJ/mol
# Density = 1.976849 g / cm^3
# Si number density = 19.813589 Si / 1000 Ang^3
#
#
#
# Elastic Constant Matrix: (Units=GPa)
#
#
# Indices 1 2 3 4 5 6 
#
# 1 126.9430 55.9425 27.1179 -0.9948 -18.2215 11.3284
# 2 55.9425 135.2898 51.1461 -3.5167 18.6569 0.6841
# 3 27.1179 51.1461 85.2752 13.5409 -7.8444 1.4732
# 4 -0.9948 -3.5167 13.5409 34.9654 0.9619 2.1114
# 5 -18.2215 18.6569 -7.8444 0.9619 21.4928 6.9808
# 6 11.3284 0.6841 1.4732 2.1114 6.9808 31.6713
#
#
#
# Elastic Compliance Matrix: (Units=1/GPa)
#
#
# Indices 1 2 3 4 5 6 
#
# 1 0.022073 -0.018912 0.009532 -0.005139 0.044488 -0.017394
# 2 -0.018912 0.030453 -0.019391 0.010450 -0.056078 0.018672
# 3 0.009532 -0.019391 0.026027 -0.012105 0.038839 -0.011955
# 4 -0.005139 0.010450 -0.012105 0.034496 -0.020842 0.004470
# 5 0.044488 -0.056078 0.038839 -0.020842 0.164734 -0.051429
# 6 -0.017394 0.018672 -0.011955 0.004470 -0.051429 0.048986
#
#
# Mechanical properties :
#
#
# Convention : Reuss Voigt Hill
#
# Bulk Modulus (GPa) = 47.59152 68.43567 58.01359
# Shear Modulus (GPa) = 12.77741 31.84602 22.31171
#
# Velocity S-wave (km/s) = 2.54221 4.01344 3.35935
# Velocity P-wave (km/s) = 5.71742 7.48944 6.66260
#
# Compressibility (1/GPa) = 0.02101215
#
# Stress axis : x y z
#
# Youngs Moduli (GPa) = 45.30373 32.83749 38.42109
#
# Poissons Ratio (x) = 0.62102 -0.36625
# Poissons Ratio (y) = 0.85677 0.74504
# Poissons Ratio (z) = -0.43186 0.63677
#
# Static dielectric constant tensor:
#      x y z
#    x 1.727420 0.000380 0.008940 
#    y 0.000380 1.717220 0.010820 
#    z 0.008940 0.010820 1.708590 
# 
# From -- ./inp_files/516388.got.cif
#   From: 2010.05.17/outbox.cif.g08.bks.cpg/sg2_259_cif.got.tgz:516388.got - 2010.06.03 11:33:40.
