data_PCOD9012880
_publ_section_title
;
Structure prediction by ZEFSAII (Michael W. Deem and Ramdas Pophale) SiO2 
 PCOD9012880
Probable space group: P -1
;
_chemical_formula_sum "Si O2"
_cell_formula_units_Z 14
_cell_length_a 14.686040
_cell_length_b 9.715413
_cell_length_c 14.690610
_cell_angle_alpha 93.991071
_cell_angle_beta 151.772650
_cell_angle_gamma 66.267824
_cell_volume 683.213122
_symmetry_space_group_name_H-M "P -1"
_symmetry_group_IT_number 2
_symmetry_cell_setting 'triclinic'
loop_
_space_group_symop_operation_xyz
x,y,z
-x,-y,-z
loop_
_atom_site_type_symbol
_atom_site_label
_atom_site_fract_x
_atom_site_fract_y
_atom_site_fract_z
Si Si1 0.942041 0.197554 0.051274
Si Si2 0.781556 0.854922 0.024025
Si Si3 0.078765 0.970793 0.335746
Si Si4 0.989972 0.538185 0.885934
Si Si5 0.602446 0.109905 0.708593
Si Si6 0.719264 0.266434 0.183242
Si Si7 0.659234 0.060061 0.259632
O O1 0.847253 0.403659 0.988060
O O2 0.112596 0.046238 0.279886
O O3 0.146126 0.082203 0.138981
O O4 0.694261 0.217765 0.819031
O O5 0.908621 0.647628 0.088191
O O6 0.021763 0.842161 0.255471
O O7 0.584571 0.922548 0.939477
O O8 0.592879 0.024765 0.787663
O O9 0.798079 0.170318 0.148271
O O10 0.307779 0.879817 0.610301
O O11 0.678882 0.737999 0.588677
O O12 0.000000 0.500000 0.000000
O O13 0.612173 0.196542 0.147205
O O14 0.500000 0.500000 0.000000
O O15 0.022902 0.157404 0.484503
#
# Coordination Sequence:
#
# PCOD9012880 Si02
#       7
#     2   2   2   2   2   2   2
#     4  10  21  41  62  82 124 164 190 255 294 337
#     4  11  23  40  59  91 119 156 201 241 293 352
#     4   9  21  40  62  85 118 155 193 243 298 344
#     4  12  25  36  60  91 118 163 208 237 292 351
#     4  10  23  42  56  88 126 153 205 246 292 344
#     4   9  20  41  62  87 114 151 194 236 304 359
#     4   9  21  39  63  83 120 150 189 248 297 346
#
# _framework density 20.491409999999998
#
# number of rings (size 3 to 8) (size 9 to 14) (size 15 to 20)
#    0.857    1.143    1.429    1.286    4.000    2.286 
#    2.571    0.714    0.000    0.000    0.000    0.000 
#    0.000    0.000    0.000    0.000    0.000    0.000 
#
# Total GULP energy -78110.802167 kJ/mol
# GULP energy per Si atom -5579.343012 kJ/mol
# Density = 2.044477 g / cm^3
# Si number density = 20.491410 Si / 1000 Ang^3
#
#
#
# Elastic Constant Matrix: (Units=GPa)
#
#
# Indices 1 2 3 4 5 6 
#
# 1 63.8103 -4.9408 -12.6294 -13.8266 7.7924 16.8399
# 2 -4.9408 124.6278 6.0619 -10.8132 11.5420 13.5756
# 3 -12.6294 6.0619 36.8112 -4.7034 -2.8144 11.2546
# 4 -13.8266 -10.8132 -4.7034 27.5669 -0.5611 -3.7087
# 5 7.7924 11.5420 -2.8144 -0.5611 15.9452 5.0386
# 6 16.8399 13.5756 11.2546 -3.7087 5.0386 27.3634
#
#
#
# Elastic Compliance Matrix: (Units=1/GPa)
#
#
# Indices 1 2 3 4 5 6 
#
# 1 0.031761 0.005371 0.019933 0.017699 -0.006813 -0.026756
# 2 0.005371 0.010063 0.002652 0.005970 -0.006922 -0.007305
# 3 0.019933 0.002652 0.045648 0.014711 0.006911 -0.031637
# 4 0.017699 0.005970 0.014711 0.048227 -0.004728 -0.012498
# 5 -0.006813 -0.006922 0.006911 -0.004728 0.075173 -0.009698
# 6 -0.026756 -0.007305 -0.031637 -0.012498 -0.009698 0.069739
#
#
# Mechanical properties :
#
#
# Convention : Reuss Voigt Hill
#
# Bulk Modulus (GPa) = 6.97430 22.47030 14.72230
# Shear Modulus (GPa) = 18.34914 29.95895 24.15405
#
# Velocity S-wave (km/s) = 2.99566 3.82779 3.43700
# Velocity P-wave (km/s) = 3.92125 5.52499 4.79071
#
# Compressibility (1/GPa) = 0.14338358
#
# Stress axis : x y z
#
# Youngs Moduli (GPa) = 31.48556 99.37882 21.90667
#
# Poissons Ratio (x) = -0.53373 -0.43667
# Poissons Ratio (y) = -0.16910 -0.05811
# Poissons Ratio (z) = -0.62760 -0.26360
#
# Static dielectric constant tensor:
#      x y z
#    x 1.722020 -0.018760 0.010530 
#    y -0.018760 1.738280 0.046020 
#    z 0.010530 0.046020 1.741130 
# 
# From -- ./inp_files/348119.got.cif
#   From: 2010.05.17/outbox.cif.g08.bks.cpg/sg2_175_cif.got.tgz:348119.got - 2010.06.03 11:33:40.
