data_PCOD9012051
_publ_section_title
;
Structure prediction by ZEFSAII (Michael W. Deem and Ramdas Pophale) SiO2 
 PCOD9012051
Probable space group: P -1
;
_chemical_formula_sum "Si O2"
_cell_formula_units_Z 16
_cell_length_a 8.665607
_cell_length_b 14.074799
_cell_length_c 15.702960
_cell_angle_alpha 126.773955
_cell_angle_beta 130.372046
_cell_angle_gamma 33.096669
_cell_volume 789.510157
_symmetry_space_group_name_H-M "P -1"
_symmetry_group_IT_number 2
_symmetry_cell_setting 'triclinic'
loop_
_space_group_symop_operation_xyz
x,y,z
-x,-y,-z
loop_
_atom_site_type_symbol
_atom_site_label
_atom_site_fract_x
_atom_site_fract_y
_atom_site_fract_z
Si Si1 0.885238 0.512100 0.330777
Si Si2 0.037031 0.125437 0.578298
Si Si3 0.732572 0.870527 0.666206
Si Si4 0.654062 0.618477 0.949881
Si Si5 0.036625 0.978240 0.899760
Si Si6 0.498400 0.363095 0.904350
Si Si7 0.099046 0.681580 0.533943
Si Si8 0.413804 0.580365 0.296850
O O1 0.743545 0.560616 0.213117
O O2 0.605181 0.610073 0.347222
O O3 0.109808 0.309816 0.328712
O O4 0.043041 0.569609 0.427945
O O5 0.881208 0.245333 0.502200
O O6 0.888765 0.246049 0.674067
O O7 0.381723 0.014163 0.633351
O O8 0.000000 0.000000 0.500000
O O9 0.879151 0.925372 0.785574
O O10 0.822186 0.831446 0.577945
O O11 0.391231 0.813238 0.918367
O O12 0.611498 0.504958 0.833523
O O13 0.590798 0.654881 0.047191
O O14 0.000000 0.500000 0.000000
O O15 0.828944 0.173473 0.894480
O O16 0.000000 0.000000 0.000000
O O17 0.500000 0.500000 0.000000
O O18 0.387186 0.564212 0.634834
#
# Coordination Sequence:
#
# PCOD9012051 Si02
#       8
#     2   2   2   2   2   2   2   2
#     4  11  21  42  71  97 131 177 224 271 329 409
#     4  12  26  41  62 101 138 168 222 277 331 397
#     4  11  22  43  67  98 133 174 226 273 326 406
#     4  11  24  44  67  98 133 172 223 281 342 389
#     4  10  21  40  68  93 126 175 224 267 324 396
#     4  11  22  43  68  97 132 178 227 270 326 401
#     4  11  23  42  70  92 129 184 222 264 344 400
#     4  11  23  44  63  95 141 167 217 284 337 390
#
# _framework density 20.265730000000001
#
# number of rings (size 3 to 8) (size 9 to 14) (size 15 to 20)
#    0.000    1.000    3.750    5.250    5.250    1.000 
#    0.000    0.625    0.000    0.000    0.000    0.000 
#    0.000    0.000    0.000    0.000    0.000    0.000 
#
# Total GULP energy -89386.191309 kJ/mol
# GULP energy per Si atom -5586.636957 kJ/mol
# Density = 2.021960 g / cm^3
# Si number density = 20.265730 Si / 1000 Ang^3
#
#
#
# Elastic Constant Matrix: (Units=GPa)
#
#
# Indices 1 2 3 4 5 6 
#
# 1 53.6621 30.0798 5.9388 1.4820 -1.4472 2.9076
# 2 30.0798 65.5595 18.0097 15.9359 -0.4661 -17.4595
# 3 5.9388 18.0097 92.5427 -0.4119 -4.4984 12.7827
# 4 1.4820 15.9359 -0.4119 32.3364 0.1761 1.1668
# 5 -1.4472 -0.4661 -4.4984 0.1761 35.4647 0.8829
# 6 2.9076 -17.4595 12.7827 1.1668 0.8829 45.6020
#
#
#
# Elastic Compliance Matrix: (Units=1/GPa)
#
#
# Indices 1 2 3 4 5 6 
#
# 1 0.029470 -0.019339 0.003439 0.008594 0.001603 -0.010498
# 2 -0.019339 0.035191 -0.008181 -0.017182 -0.001714 0.017473
# 3 0.003439 -0.008181 0.013285 0.004294 0.001876 -0.007221
# 4 0.008594 -0.017182 0.004294 0.039387 0.000707 -0.009351
# 5 0.001603 -0.001714 0.001876 0.000707 0.028521 -0.001855
# 6 -0.010498 0.017473 -0.007221 -0.009351 -0.001855 0.031587
#
#
# Mechanical properties :
#
#
# Convention : Reuss Voigt Hill
#
# Bulk Modulus (GPa) = 33.57566 35.53566 34.55566
# Shear Modulus (GPa) = 21.22862 33.19635 27.21249
#
# Velocity S-wave (km/s) = 3.24004 4.05168 3.66838
# Velocity P-wave (km/s) = 5.53180 6.28180 5.91869
#
# Compressibility (1/GPa) = 0.02978348
#
# Stress axis : x y z
#
# Youngs Moduli (GPa) = 33.93315 28.41611 75.27297
#
# Poissons Ratio (x) = 0.54955 -0.25884
# Poissons Ratio (y) = 0.65624 0.61579
# Poissons Ratio (z) = -0.11669 0.23246
#
# Static dielectric constant tensor:
#      x y z
#    x 1.709630 -0.004560 -0.011020 
#    y -0.004560 1.782960 0.000750 
#    z -0.011020 0.000750 1.682400 
# 
# From -- ./inp_files/274899.got.cif
#   From: 2010.05.17/outbox.cif.g08.bks.cpg/sg2_138_cif.got.tgz:274899.got - 2010.06.03 11:33:40.
