data_PCOD9012271
_publ_section_title
;
Structure prediction by ZEFSAII (Michael W. Deem and Ramdas Pophale) SiO2 
 PCOD9012271
Probable space group: P -1
;
_chemical_formula_sum "Si O2"
_cell_formula_units_Z 13
_cell_length_a 8.162137
_cell_length_b 6.962742
_cell_length_c 13.784815
_cell_angle_alpha 122.157351
_cell_angle_beta 67.052372
_cell_angle_gamma 81.992697
_cell_volume 546.970993
_symmetry_space_group_name_H-M "P -1"
_symmetry_group_IT_number 2
_symmetry_cell_setting 'triclinic'
loop_
_space_group_symop_operation_xyz
x,y,z
-x,-y,-z
loop_
_atom_site_type_symbol
_atom_site_label
_atom_site_fract_x
_atom_site_fract_y
_atom_site_fract_z
Si Si1 0.921728 0.770549 0.641247
Si Si2 0.278900 0.143606 0.803163
Si Si3 0.620543 0.741661 0.843779
Si Si4 0.933943 0.547826 0.879920
Si Si5 0.545012 0.304927 0.661212
Si Si6 0.783379 0.329209 0.274464
Si Si7 0.000000 0.000000 0.500000
O O1 0.715053 0.820252 0.752751
O O2 0.000000 0.500000 0.500000
O O3 0.080639 0.724782 0.677084
O O4 0.902404 0.968632 0.616899
O O5 0.458108 0.159778 0.710818
O O6 0.089539 0.276960 0.810402
O O7 0.300751 0.874463 0.756969
O O8 0.213395 0.313649 0.961121
O O9 0.808118 0.555846 0.816716
O O10 0.514856 0.568707 0.791337
O O11 0.500000 0.000000 0.000000
O O12 0.068804 0.686806 0.853055
O O13 0.403322 0.397387 0.623786
O O14 0.775400 0.151449 0.545033
#
# Coordination Sequence:
#
# PCOD9012271 Si02
#       7
#     2   2   2   2   2   2   1
#     4  11  26  50  74 100 147 187 239 296 357 427
#     4  10  21  40  69 105 142 184 236 295 349 427
#     4  11  24  45  74 105 146 190 236 296 357 421
#     4   9  21  39  66 102 145 182 233 288 356 423
#     4  11  26  44  71 109 142 187 242 291 356 424
#     4  10  23  44  72 100 137 189 235 293 359 418
#     4  12  28  46  72 102 146 192 236 294 358 418
#
# _framework density 23.767257000000001
#
# number of rings (size 3 to 8) (size 9 to 14) (size 15 to 20)
#    0.000    1.538    1.538    1.385    6.462    8.615 
#    0.000    1.538    0.000    0.000    0.000    0.000 
#    0.000    0.000    0.000    0.000    0.000    0.000 
#
# Total GULP energy -72498.282240 kJ/mol
# GULP energy per Si atom -5576.790942 kJ/mol
# Density = 2.371316 g / cm^3
# Si number density = 23.767257 Si / 1000 Ang^3
#
#
#
# Elastic Constant Matrix: (Units=GPa)
#
#
# Indices 1 2 3 4 5 6 
#
# 1 63.9348 22.6772 -7.9578 1.9770 -11.5326 6.1352
# 2 22.6772 139.2470 21.9881 -25.3199 -7.0309 -0.5333
# 3 -7.9578 21.9881 73.1373 -12.7809 -18.5989 26.3823
# 4 1.9770 -25.3199 -12.7809 24.8146 -1.8927 2.6398
# 5 -11.5326 -7.0309 -18.5989 -1.8927 27.4130 -4.5453
# 6 6.1352 -0.5333 26.3823 2.6398 -4.5453 41.1947
#
#
#
# Elastic Compliance Matrix: (Units=1/GPa)
#
#
# Indices 1 2 3 4 5 6 
#
# 1 0.021750 -0.004307 0.010480 0.001235 0.013822 -0.008561
# 2 -0.004307 0.009916 -0.002576 0.008932 -0.000095 0.001836
# 3 0.010480 -0.002576 0.031794 0.016853 0.023086 -0.020489
# 4 0.001235 0.008932 0.016853 0.060614 0.016283 -0.012949
# 5 0.013822 -0.000095 0.023086 0.016283 0.057136 -0.011584
# 6 -0.008561 0.001836 -0.020489 -0.012949 -0.011584 0.038247
#
#
# Mechanical properties :
#
#
# Convention : Reuss Voigt Hill
#
# Bulk Modulus (GPa) = 14.15335 38.85935 26.50635
# Shear Modulus (GPa) = 21.20310 34.65856 27.93083
#
# Velocity S-wave (km/s) = 2.99007 3.82284 3.43181
# Velocity P-wave (km/s) = 4.22949 5.98924 5.18457
#
# Compressibility (1/GPa) = 0.07065465
#
# Stress axis : x y z
#
# Youngs Moduli (GPa) = 45.97788 100.84696 31.45208
#
# Poissons Ratio (x) = 0.43438 -0.32962
# Poissons Ratio (y) = 0.19804 0.08101
# Poissons Ratio (z) = -0.48186 0.25974
#
# Static dielectric constant tensor:
#      x y z
#    x 1.957980 -0.028480 0.089580 
#    y -0.028480 1.875000 0.033600 
#    z 0.089580 0.033600 2.012220 
# 
# From -- ./inp_files/487874.got.cif
#   From: 2010.05.17/outbox.cif.g08.bks.cpg/sg2_244_cif.got.tgz:487874.got - 2010.06.03 11:33:40.
