data_PCOD9012898
_publ_section_title
;
Structure prediction by ZEFSAII (Michael W. Deem and Ramdas Pophale) SiO2 
 PCOD9012898
Probable space group: P -1
;
_chemical_formula_sum "Si O2"
_cell_formula_units_Z 14
_cell_length_a 18.276350
_cell_length_b 16.068237
_cell_length_c 7.067996
_cell_angle_alpha 47.560541
_cell_angle_beta 124.213056
_cell_angle_gamma 157.523886
_cell_volume 571.627941
_symmetry_space_group_name_H-M "P -1"
_symmetry_group_IT_number 2
_symmetry_cell_setting 'triclinic'
loop_
_space_group_symop_operation_xyz
x,y,z
-x,-y,-z
loop_
_atom_site_type_symbol
_atom_site_label
_atom_site_fract_x
_atom_site_fract_y
_atom_site_fract_z
Si Si1 0.456598 0.322001 0.655392
Si Si2 0.409702 0.250501 0.094936
Si Si3 0.962112 0.576644 0.031701
Si Si4 0.293043 0.909977 0.701788
Si Si5 0.076095 0.909105 0.875545
Si Si6 0.835641 0.751934 0.017247
Si Si7 0.301700 0.575490 0.395031
O O1 0.500000 0.500000 0.500000
O O2 0.596776 0.418318 0.567860
O O3 0.468645 0.262291 0.958638
O O4 0.222643 0.070026 0.661540
O O5 0.611110 0.540729 0.004311
O O6 0.326028 0.066493 0.403290
O O7 0.223014 0.102894 0.966499
O O8 0.846528 0.530258 0.794538
O O9 0.160683 0.767011 0.918194
O O10 0.822601 0.310096 0.258011
O O11 0.998362 0.692966 0.091084
O O12 0.517618 0.138392 0.728448
O O13 0.910955 0.813026 0.819451
O O14 0.802488 0.593024 0.313713
O O15 0.000000 0.000000 0.000000
#
# Coordination Sequence:
#
# PCOD9012898 Si02
#       7
#     2   2   2   2   2   2   2
#     4  10  21  41  62  87 126 166 202 252 313 357
#     4   9  22  40  62  86 130 153 206 258 300 368
#     4  11  22  38  70  89 128 162 209 252 316 370
#     4  10  21  42  62  98 121 167 200 262 316 360
#     4  10  22  40  59  92 123 159 209 251 306 367
#     4  11  23  40  62  91 122 165 208 252 310 365
#     4  11  22  41  62  94 129 160 210 259 302 372
#
# _framework density 24.491455999999999
#
# number of rings (size 3 to 8) (size 9 to 14) (size 15 to 20)
#    0.857    0.857    1.429    3.000    0.000    2.286 
#    2.571   10.714    0.000    0.000    0.000    0.000 
#    0.000    0.000    0.000    0.000    0.000    0.000 
#
# Total GULP energy -77952.532832 kJ/mol
# GULP energy per Si atom -5568.038059 kJ/mol
# Density = 2.443571 g / cm^3
# Si number density = 24.491456 Si / 1000 Ang^3
#
#
#
# Elastic Constant Matrix: (Units=GPa)
#
#
# Indices 1 2 3 4 5 6 
#
# 1 84.5441 17.9620 10.5030 -25.8815 -7.5270 -6.8877
# 2 17.9620 129.0113 25.4602 -44.3103 -1.5891 3.3034
# 3 10.5030 25.4602 79.0232 -20.6345 -5.2491 -2.4305
# 4 -25.8815 -44.3103 -20.6345 50.2035 -7.6235 9.8394
# 5 -7.5270 -1.5891 -5.2491 -7.6235 23.3572 -0.1932
# 6 -6.8877 3.3034 -2.4305 9.8394 -0.1932 31.8706
#
#
#
# Elastic Compliance Matrix: (Units=1/GPa)
#
#
# Indices 1 2 3 4 5 6 
#
# 1 0.015607 0.001627 0.000939 0.011267 0.009027 -0.000148
# 2 0.001627 0.012452 -0.000492 0.013480 0.005618 -0.005104
# 3 0.000939 -0.000492 0.014959 0.007268 0.005996 -0.000813
# 4 0.011267 0.013480 0.007268 0.046294 0.021187 -0.012572
# 5 0.009027 0.005618 0.005996 0.021187 0.054331 -0.004386
# 6 -0.000148 -0.005104 -0.000813 -0.012572 -0.004386 0.035667
#
#
# Mechanical properties :
#
#
# Convention : Reuss Voigt Hill
#
# Bulk Modulus (GPa) = 21.20227 44.49212 32.84720
# Shear Modulus (GPa) = 26.19396 36.99647 31.59522
#
# Velocity S-wave (km/s) = 3.27389 3.89084 3.59562
# Velocity P-wave (km/s) = 4.79238 6.19602 5.53885
#
# Compressibility (1/GPa) = 0.04716476
#
# Stress axis : x y z
#
# Youngs Moduli (GPa) = 64.07475 80.31136 66.84751
#
# Poissons Ratio (x) = -0.13064 -0.06275
# Poissons Ratio (y) = -0.10423 0.03288
# Poissons Ratio (z) = -0.06015 0.03950
#
# Static dielectric constant tensor:
#      x y z
#    x 1.965870 -0.005470 -0.021510 
#    y -0.005470 2.042890 -0.027150 
#    z -0.021510 -0.027150 2.009670 
# 
# From -- ./inp_files/347987.got.cif
#   From: 2010.05.17/outbox.cif.g08.bks.cpg/sg2_174_cif.got.tgz:347987.got - 2010.06.03 11:33:40.
