data_PCOD9012821
_publ_section_title
;
Structure prediction by ZEFSAII (Michael W. Deem and Ramdas Pophale) SiO2 
 PCOD9012821
Probable space group: P -1
;
_chemical_formula_sum "Si O2"
_cell_formula_units_Z 14
_cell_length_a 11.834039
_cell_length_b 8.846949
_cell_length_c 13.032654
_cell_angle_alpha 31.858904
_cell_angle_beta 75.533573
_cell_angle_gamma 67.969929
_cell_volume 660.988089
_symmetry_space_group_name_H-M "P -1"
_symmetry_group_IT_number 2
_symmetry_cell_setting 'triclinic'
loop_
_space_group_symop_operation_xyz
x,y,z
-x,-y,-z
loop_
_atom_site_type_symbol
_atom_site_label
_atom_site_fract_x
_atom_site_fract_y
_atom_site_fract_z
Si Si1 0.407677 0.676865 0.250688
Si Si2 0.138866 0.958283 0.587477
Si Si3 0.240881 0.268310 0.005440
Si Si4 0.875227 0.119689 0.596930
Si Si5 0.630181 0.615454 0.359982
Si Si6 0.361218 0.189436 0.398766
Si Si7 0.449148 0.233975 0.133334
O O1 0.555362 0.596637 0.282270
O O2 0.385305 0.602293 0.417464
O O3 0.358025 0.488632 0.289248
O O4 0.322823 0.017693 0.052219
O O5 0.121440 0.032909 0.427536
O O6 0.256436 0.055092 0.537363
O O7 0.161283 0.600346 0.798780
O O8 0.013294 0.124741 0.579936
O O9 0.349597 0.322649 0.016487
O O10 0.163688 0.090868 0.189754
O O11 0.776700 0.456710 0.410187
O O12 0.561891 0.946583 0.233158
O O13 0.370039 0.185873 0.275859
O O14 0.500000 0.000000 0.500000
O O15 0.500000 0.500000 0.000000
#
# Coordination Sequence:
#
# PCOD9012821 Si02
#       7
#     2   2   2   2   2   2   2
#     4   9  19  34  63  87 121 159 197 249 313 352
#     4  11  23  38  66  94 118 163 208 247 309 348
#     4  10  21  41  61  91 123 160 205 249 300 369
#     4  10  21  41  65  86 125 165 204 247 293 382
#     4   9  18  38  60  87 120 164 198 245 306 362
#     4  12  21  37  61  93 124 152 203 262 296 358
#     4  11  22  36  61  93 126 156 201 258 309 352
#
# _framework density 21.180412
#
# number of rings (size 3 to 8) (size 9 to 14) (size 15 to 20)
#    0.000    1.714    2.857    3.000    0.000    1.143 
#    0.000    6.429    3.143    2.571    0.000    0.000 
#    0.000    0.000    0.000    0.000    0.000    0.000 
#
# Total GULP energy -77954.648242 kJ/mol
# GULP energy per Si atom -5568.189160 kJ/mol
# Density = 2.113220 g / cm^3
# Si number density = 21.180412 Si / 1000 Ang^3
#
#
#
# Elastic Constant Matrix: (Units=GPa)
#
#
# Indices 1 2 3 4 5 6 
#
# 1 143.2765 42.8672 52.5078 -18.8167 -8.5396 -31.0240
# 2 42.8672 67.4197 33.0774 -8.5589 -6.5242 -1.5438
# 3 52.5078 33.0774 83.2689 -13.3939 -1.2280 -20.4415
# 4 -18.8167 -8.5589 -13.3939 29.5213 -2.8134 -3.5985
# 5 -8.5396 -6.5242 -1.2280 -2.8134 33.0538 -4.6237
# 6 -31.0240 -1.5438 -20.4415 -3.5985 -4.6237 34.3151
#
#
#
# Elastic Compliance Matrix: (Units=1/GPa)
#
#
# Indices 1 2 3 4 5 6 
#
# 1 0.013341 -0.005905 -0.001721 0.007939 0.004603 0.012223
# 2 -0.005905 0.021906 -0.007397 -0.001730 0.001147 -0.008786
# 3 -0.001721 -0.007397 0.019859 0.007179 0.000958 0.010823
# 4 0.007939 -0.001730 0.007179 0.044558 0.008168 0.017149
# 5 0.004603 0.001147 0.000958 0.008168 0.033827 0.010198
# 6 0.012223 -0.008786 0.010823 0.017149 0.010198 0.049416
#
#
# Mechanical properties :
#
#
# Convention : Reuss Voigt Hill
#
# Bulk Modulus (GPa) = 39.90457 61.20776 50.55616
# Shear Modulus (GPa) = 22.59332 30.41224 26.50278
#
# Velocity S-wave (km/s) = 3.26959 3.79339 3.54119
# Velocity P-wave (km/s) = 5.75629 6.93884 6.37504
#
# Compressibility (1/GPa) = 0.02505979
#
# Stress axis : x y z
#
# Youngs Moduli (GPa) = 74.95969 45.64989 50.35591
#
# Poissons Ratio (x) = 0.26954 0.08668
# Poissons Ratio (y) = 0.44260 0.37246
# Poissons Ratio (z) = 0.12904 0.33765
#
# Static dielectric constant tensor:
#      x y z
#    x 1.986170 -0.263490 0.061440 
#    y -0.263490 1.847420 -0.059720 
#    z 0.061440 -0.059720 1.890760 
# 
# From -- ./inp_files/172450.got.cif
#   From: 2010.05.17/outbox.cif.g08.bks.cpg/sg2_87_cif.got.tgz:172450.got - 2010.06.03 11:33:40.
