data_PCOD9012998
_publ_section_title
;
Structure prediction by ZEFSAII (Michael W. Deem and Ramdas Pophale) SiO2 
 PCOD9012998
Probable space group: P -1
;
_chemical_formula_sum "Si O2"
_cell_formula_units_Z 16
_cell_length_a 16.005468
_cell_length_b 12.455420
_cell_length_c 8.273013
_cell_angle_alpha 86.706499
_cell_angle_beta 90.525385
_cell_angle_gamma 24.780565
_cell_volume 682.685282
_symmetry_space_group_name_H-M "P -1"
_symmetry_group_IT_number 2
_symmetry_cell_setting 'triclinic'
loop_
_space_group_symop_operation_xyz
x,y,z
-x,-y,-z
loop_
_atom_site_type_symbol
_atom_site_label
_atom_site_fract_x
_atom_site_fract_y
_atom_site_fract_z
Si Si1 0.857524 0.847393 0.223458
Si Si2 0.657010 0.469722 0.561550
Si Si3 0.758316 0.159407 0.006675
Si Si4 0.755555 0.635453 0.938262
Si Si5 0.881594 0.403361 0.441402
Si Si6 0.252923 0.870433 0.357373
Si Si7 0.246359 0.601487 0.057471
Si Si8 0.653141 0.864738 0.249162
O O1 0.731139 0.893494 0.275481
O O2 0.020543 0.624062 0.107525
O O3 0.993087 0.732320 0.380401
O O4 0.722761 0.102613 0.131256
O O5 0.740812 0.465354 0.451603
O O6 0.429129 0.713628 0.482602
O O7 0.776173 0.216977 0.569483
O O8 0.685998 0.470512 0.748005
O O9 0.687753 0.214093 0.820385
O O10 0.691494 0.359265 0.029248
O O11 0.002492 0.882689 0.028750
O O12 0.695233 0.583588 0.993242
O O13 0.588524 0.859728 0.780766
O O14 0.723806 0.749110 0.079633
O O15 0.758391 0.654833 0.382897
O O16 0.052422 0.176213 0.332858
#
# Coordination Sequence:
#
# PCOD9012998 Si02
#       8
#     2   2   2   2   2   2   2   2
#     4  11  23  41  63  90 124 164 207 255 310 363
#     4  10  21  41  62  94 130 163 199 252 321 367
#     4   9  18  38  65  92 119 165 199 247 315 373
#     4  10  22  44  63  84 122 166 204 267 302 362
#     4  12  23  39  62  94 123 168 205 256 307 366
#     4  10  23  38  66  94 128 160 204 256 307 379
#     4   9  17  37  67  88 120 159 202 248 315 367
#     4  11  26  40  61  91 122 163 220 251 301 363
#
# _framework density 23.436862000000001
#
# number of rings (size 3 to 8) (size 9 to 14) (size 15 to 20)
#    0.000    1.750    2.500    2.625    1.750    3.500 
#    2.250    0.625    0.000    0.000    0.000    0.000 
#    0.000    0.000    0.000    0.000    0.000    0.000 
#
# Total GULP energy -89541.793596 kJ/mol
# GULP energy per Si atom -5596.362100 kJ/mol
# Density = 2.338352 g / cm^3
# Si number density = 23.436862 Si / 1000 Ang^3
#
#
#
# Elastic Constant Matrix: (Units=GPa)
#
#
# Indices 1 2 3 4 5 6 
#
# 1 92.6662 17.0389 28.9543 -14.9208 5.3663 21.5351
# 2 17.0389 84.2188 12.3746 -21.0436 -9.2880 5.1148
# 3 28.9543 12.3746 62.9828 -20.5773 -4.7414 -3.0910
# 4 -14.9208 -21.0436 -20.5773 35.0885 14.8894 -12.0268
# 5 5.3663 -9.2880 -4.7414 14.8894 30.3468 -7.8585
# 6 21.5351 5.1148 -3.0910 -12.0268 -7.8585 29.0576
#
#
#
# Elastic Compliance Matrix: (Units=1/GPa)
#
#
# Indices 1 2 3 4 5 6 
#
# 1 0.019003 -0.002719 -0.010376 -0.001725 -0.009636 -0.018029
# 2 -0.002719 0.014396 0.001710 0.009091 0.001700 0.003885
# 3 -0.010376 0.001710 0.027201 0.017721 0.002662 0.018337
# 4 -0.001725 0.009091 0.017721 0.058101 -0.017225 0.020953
# 5 -0.009636 0.001700 0.002662 -0.017225 0.047360 0.012804
# 6 -0.018029 0.003885 0.018337 0.020953 0.012804 0.061178
#
#
# Mechanical properties :
#
#
# Convention : Reuss Voigt Hill
#
# Bulk Modulus (GPa) = 26.43333 39.62261 33.02797
# Shear Modulus (GPa) = 19.03909 30.99859 25.01884
#
# Velocity S-wave (km/s) = 2.85328 3.64076 3.27081
# Velocity P-wave (km/s) = 4.70722 5.88356 5.32796
#
# Compressibility (1/GPa) = 0.03783103
#
# Stress axis : x y z
#
# Youngs Moduli (GPa) = 52.62190 69.46573 36.76311
#
# Poissons Ratio (x) = 0.18888 0.38145
# Poissons Ratio (y) = 0.14308 -0.06287
# Poissons Ratio (z) = 0.54600 -0.11880
#
# Static dielectric constant tensor:
#      x y z
#    x 1.865760 -0.005000 -0.020300 
#    y -0.005000 1.913350 0.006370 
#    z -0.020300 0.006370 1.855530 
# 
# From -- ./inp_files/188165.got.cif
#   From: 2010.05.17/outbox.cif.g08.bks.cpg/sg2_95_cif.got.tgz:188165.got - 2010.06.03 11:33:40.
