data_PCOD9012708
_publ_section_title
;
Structure prediction by ZEFSAII (Michael W. Deem and Ramdas Pophale) SiO2 
 PCOD9012708
Probable space group: P -1
;
_chemical_formula_sum "Si O2"
_cell_formula_units_Z 12
_cell_length_a 8.890462
_cell_length_b 22.431644
_cell_length_c 9.669577
_cell_angle_alpha 158.076397
_cell_angle_beta 42.033531
_cell_angle_gamma 140.253788
_cell_volume 456.837471
_symmetry_space_group_name_H-M "P -1"
_symmetry_group_IT_number 2
_symmetry_cell_setting 'triclinic'
loop_
_space_group_symop_operation_xyz
x,y,z
-x,-y,-z
loop_
_atom_site_type_symbol
_atom_site_label
_atom_site_fract_x
_atom_site_fract_y
_atom_site_fract_z
Si Si1 0.121781 0.369505 0.196484
Si Si2 0.659606 0.180017 0.649613
Si Si3 0.156329 0.068563 0.843482
Si Si4 0.389657 0.289370 0.618530
Si Si5 0.518570 0.653392 0.633681
Si Si6 0.215900 0.805759 0.702029
O O1 0.383297 0.460387 0.277946
O O2 0.000000 0.500000 0.500000
O O3 0.966384 0.283310 0.245363
O O4 0.151987 0.264178 0.816256
O O5 0.374101 0.080274 0.613606
O O6 0.761384 0.263557 0.616288
O O7 0.797737 0.054628 0.337512
O O8 0.662934 0.295766 0.030110
O O9 0.243522 0.261495 0.260055
O O10 0.886853 0.040251 0.927295
O O11 0.421291 0.262601 0.376905
O O12 0.542407 0.194463 0.392636
O O13 0.500000 0.500000 0.000000
#
# Coordination Sequence:
#
# PCOD9012708 Si02
#       6
#     2   2   2   2   2   2
#     4  11  22  39  62  87 126 160 194 250 307 354
#     4   9  21  42  65  88 124 155 207 250 297 351
#     4   9  21  42  64  88 125 157 200 257 295 349
#     4  10  21  41  58  85 126 162 198 241 299 369
#     4   9  20  42  62  87 121 164 197 247 306 354
#     4  12  21  38  66  91 121 162 199 248 307 353
#
# _framework density 26.267548999999999
#
# number of rings (size 3 to 8) (size 9 to 14) (size 15 to 20)
#    1.000    1.000    3.333    1.500    0.000    2.667 
#    3.000    1.667    0.000    0.000    0.000    0.000 
#    0.000    0.000    0.000    0.000    0.000    0.000 
#
# Total GULP energy -66849.212443 kJ/mol
# GULP energy per Si atom -5570.767704 kJ/mol
# Density = 2.620776 g / cm^3
# Si number density = 26.267549 Si / 1000 Ang^3
#
#
#
# Elastic Constant Matrix: (Units=GPa)
#
#
# Indices 1 2 3 4 5 6 
#
# 1 125.3034 39.1869 52.0922 -27.3704 -39.0484 -7.3648
# 2 39.1869 176.4065 38.0947 -68.7733 2.4667 -38.2148
# 3 52.0922 38.0947 130.2937 -43.3133 -9.6497 -16.0435
# 4 -27.3704 -68.7733 -43.3133 45.7468 -0.3577 13.3055
# 5 -39.0484 2.4667 -9.6497 -0.3577 46.7498 -7.2788
# 6 -7.3648 -38.2148 -16.0435 13.3055 -7.2788 45.9390
#
#
#
# Elastic Compliance Matrix: (Units=1/GPa)
#
#
# Indices 1 2 3 4 5 6 
#
# 1 0.013951 -0.000749 -0.003010 0.004122 0.011282 0.001156
# 2 -0.000749 0.018049 0.006152 0.030036 0.001251 0.008542
# 3 -0.003010 0.006152 0.014196 0.019727 0.000868 0.004016
# 4 0.004122 0.030036 0.019727 0.085600 0.007988 0.009009
# 5 0.011282 0.001251 0.000868 0.007988 0.031906 0.005894
# 6 0.001156 0.008542 0.004016 0.009009 0.005894 0.028786
#
#
# Mechanical properties :
#
#
# Convention : Reuss Voigt Hill
#
# Bulk Modulus (GPa) = 19.61536 76.75015 48.18275
# Shear Modulus (GPa) = 24.42633 47.86245 36.14439
#
# Velocity S-wave (km/s) = 3.05274 4.27325 3.71348
# Velocity P-wave (km/s) = 4.46199 7.32323 6.06379
#
# Compressibility (1/GPa) = 0.05098046
#
# Stress axis : x y z
#
# Youngs Moduli (GPa) = 71.68155 55.40392 70.44012
#
# Poissons Ratio (x) = 0.04151 0.21204
# Poissons Ratio (y) = 0.05371 -0.43332
# Poissons Ratio (z) = 0.21578 -0.34082
#
# Static dielectric constant tensor:
#      x y z
#    x 2.103710 0.088050 0.070220 
#    y 0.088050 1.799730 -0.145190 
#    z 0.070220 -0.145190 1.945740 
# 
# From -- ./inp_files/222714.got.cif
#   From: 2010.05.17/outbox.cif.g08.bks.cpg/sg2_112_cif.got.tgz:222714.got - 2010.06.03 11:33:40.
