data_PCOD9012588
_publ_section_title
;
Structure prediction by ZEFSAII (Michael W. Deem and Ramdas Pophale) SiO2 
 PCOD9012588
Probable space group: P -1
;
_chemical_formula_sum "Si O2"
_cell_formula_units_Z 12
_cell_length_a 6.912272
_cell_length_b 7.877946
_cell_length_c 15.453316
_cell_angle_alpha 140.038455
_cell_angle_beta 121.696192
_cell_angle_gamma 75.975279
_cell_volume 439.611498
_symmetry_space_group_name_H-M "P -1"
_symmetry_group_IT_number 2
_symmetry_cell_setting 'triclinic'
loop_
_space_group_symop_operation_xyz
x,y,z
-x,-y,-z
loop_
_atom_site_type_symbol
_atom_site_label
_atom_site_fract_x
_atom_site_fract_y
_atom_site_fract_z
Si Si1 0.502285 0.088064 0.830067
Si Si2 0.506400 0.304835 0.094773
Si Si3 0.994359 0.719268 0.341924
Si Si4 0.984840 0.737463 0.021635
Si Si5 0.498614 0.750738 0.534626
Si Si6 0.007828 0.948105 0.689655
O O1 0.519121 0.030144 0.707416
O O2 0.242954 0.853094 0.690175
O O3 0.785504 0.147387 0.939868
O O4 0.457025 0.296779 0.975720
O O5 0.769282 0.499125 0.243648
O O6 0.285189 0.361931 0.114358
O O7 0.500000 0.000000 0.000000
O O8 0.247754 0.674273 0.398172
O O9 0.948398 0.781423 0.255897
O O10 0.000000 0.000000 0.500000
O O11 0.994169 0.996277 0.187381
O O12 0.000000 0.500000 0.000000
O O13 0.500000 0.500000 0.500000
O O14 0.731152 0.795372 0.547021
#
# Coordination Sequence:
#
# PCOD9012588 Si02
#       6
#     2   2   2   2   2   2
#     4  10  22  45  68  96 139 180 232 278 350 408
#     4  11  27  45  69 104 145 183 231 290 350 410
#     4  12  25  46  71 104 143 184 235 288 346 417
#     4  10  21  40  71  96 132 180 235 280 342 412
#     4  11  26  44  72 102 140 187 233 287 357 413
#     4  10  22  43  70  99 137 183 233 285 341 418
#
# _framework density 27.29683
#
# number of rings (size 3 to 8) (size 9 to 14) (size 15 to 20)
#    0.000    1.333    1.667    2.500    9.333    5.333 
#    6.000    0.000    0.000    0.000    0.000    0.000 
#    0.000    0.000    0.000    0.000    0.000    0.000 
#
# Total GULP energy -66859.007161 kJ/mol
# GULP energy per Si atom -5571.583930 kJ/mol
# Density = 2.723470 g / cm^3
# Si number density = 27.296830 Si / 1000 Ang^3
#
#
#
# Elastic Constant Matrix: (Units=GPa)
#
#
# Indices 1 2 3 4 5 6 
#
# 1 253.2559 28.7211 83.8710 -10.0612 77.1822 -13.4602
# 2 28.7211 104.7413 36.4897 8.9015 30.1095 -5.0321
# 3 83.8710 36.4897 137.5466 -6.5562 51.3530 -8.9975
# 4 -10.0612 8.9015 -6.5562 33.1954 9.6758 6.5560
# 5 77.1822 30.1095 51.3530 9.6758 93.2360 -14.7730
# 6 -13.4602 -5.0321 -8.9975 6.5560 -14.7730 34.9903
#
#
#
# Elastic Compliance Matrix: (Units=1/GPa)
#
#
# Indices 1 2 3 4 5 6 
#
# 1 0.005969 0.000004 -0.001965 0.002752 -0.004227 -0.000509
# 2 0.000004 0.011211 -0.002373 -0.003085 -0.001871 0.000792
# 3 -0.001965 -0.002373 0.010697 0.003439 -0.003961 -0.000663
# 4 0.002752 -0.003085 0.003439 0.036673 -0.008395 -0.008916
# 5 -0.004227 -0.001871 -0.003961 -0.008395 0.018936 0.006654
# 6 -0.000509 0.000792 -0.000663 -0.008916 0.006654 0.032807
#
#
# Mechanical properties :
#
#
# Convention : Reuss Voigt Hill
#
# Bulk Modulus (GPa) = 52.05692 88.18972 70.12332
# Shear Modulus (GPa) = 38.06174 55.38181 46.72177
#
# Velocity S-wave (km/s) = 3.73817 4.50919 4.14166
# Velocity P-wave (km/s) = 6.14361 7.71286 6.97252
#
# Compressibility (1/GPa) = 0.01920974
#
# Stress axis : x y z
#
# Youngs Moduli (GPa) = 167.52313 89.19721 93.48027
#
# Poissons Ratio (x) = -0.00040 0.18369
# Poissons Ratio (y) = -0.00075 0.22187
# Poissons Ratio (z) = 0.32919 0.21171
#
# Static dielectric constant tensor:
#      x y z
#    x 2.436410 -0.211070 -0.110170 
#    y -0.211070 2.305360 0.034690 
#    z -0.110170 0.034690 2.354050 
# 
# From -- ./inp_files/32964.got.cif
#   From: 2010.05.17/outbox.cif.g08.bks.cpg/sg2_17_cif.got.tgz:32964.got - 2010.06.03 11:33:40.
