data_PCOD9012172
_publ_section_title
;
Structure prediction by ZEFSAII (Michael W. Deem and Ramdas Pophale) SiO2 
 PCOD9012172
Probable space group: P -1
;
_chemical_formula_sum "Si O2"
_cell_formula_units_Z 14
_cell_length_a 12.226672
_cell_length_b 5.092763
_cell_length_c 11.866801
_cell_angle_alpha 79.043035
_cell_angle_beta 128.270295
_cell_angle_gamma 86.954192
_cell_volume 555.376892
_symmetry_space_group_name_H-M "P -1"
_symmetry_group_IT_number 2
_symmetry_cell_setting 'triclinic'
loop_
_space_group_symop_operation_xyz
x,y,z
-x,-y,-z
loop_
_atom_site_type_symbol
_atom_site_label
_atom_site_fract_x
_atom_site_fract_y
_atom_site_fract_z
Si Si1 0.810416 0.852233 0.080556
Si Si2 0.886937 0.191351 0.765591
Si Si3 0.831985 0.493370 0.904548
Si Si4 0.339958 0.109760 0.426345
Si Si5 0.156893 0.352617 0.468232
Si Si6 0.146201 0.641854 0.671910
Si Si7 0.397238 0.788945 0.944631
O O1 0.819362 0.644804 0.210387
O O2 0.954791 0.968532 0.151405
O O3 0.687665 0.126199 0.998918
O O4 0.790708 0.649943 0.982930
O O5 0.843606 0.204836 0.867443
O O6 0.898634 0.479350 0.694492
O O7 0.759766 0.106695 0.627105
O O8 0.724973 0.677454 0.731437
O O9 0.000000 0.500000 0.000000
O O10 0.311492 0.203325 0.531101
O O11 0.500000 0.000000 0.500000
O O12 0.165502 0.547226 0.562971
O O13 0.021422 0.222141 0.422500
O O14 0.262349 0.810690 0.771133
O O15 0.500000 0.500000 0.000000
O O16 0.500000 0.000000 0.000000
#
# Coordination Sequence:
#
# PCOD9012172 Si02
#       7
#     2   2   2   2   2   2   2
#     4  10  21  40  68  98 132 182 232 292 346 426
#     4   9  20  41  67  96 131 176 236 288 348 423
#     4   9  21  40  65  97 128 175 234 282 349 418
#     4  11  23  40  61  98 139 178 228 292 362 417
#     4   9  21  41  68  97 128 183 232 293 344 433
#     4  10  21  42  68  98 135 178 240 285 356 420
#     4  12  25  44  63  96 142 183 230 285 356 427
#
# _framework density 25.208105
#
# number of rings (size 3 to 8) (size 9 to 14) (size 15 to 20)
#    0.000    2.000    1.429    1.714    0.000    8.000 
#    5.143    4.286    0.000    0.000    0.000    0.000 
#    0.000    0.000    0.000    0.000    0.000    0.000 
#
# Total GULP energy -77953.973490 kJ/mol
# GULP energy per Si atom -5568.140964 kJ/mol
# Density = 2.515073 g / cm^3
# Si number density = 25.208105 Si / 1000 Ang^3
#
#
#
# Elastic Constant Matrix: (Units=GPa)
#
#
# Indices 1 2 3 4 5 6 
#
# 1 210.4986 63.2699 59.2832 19.3314 22.7031 -54.5706
# 2 63.2699 100.7700 9.7856 22.2839 8.8046 -18.3235
# 3 59.2832 9.7856 80.4287 15.4205 0.0862 -10.9917
# 4 19.3314 22.2839 15.4205 45.6307 -3.3489 -3.6799
# 5 22.7031 8.8046 0.0862 -3.3489 57.0120 9.7350
# 6 -54.5706 -18.3235 -10.9917 -3.6799 9.7350 61.3533
#
#
#
# Elastic Compliance Matrix: (Units=1/GPa)
#
#
# Indices 1 2 3 4 5 6 
#
# 1 0.010022 -0.003952 -0.005874 -0.000073 -0.004642 0.007414
# 2 -0.003952 0.013703 0.002486 -0.005866 -0.001033 0.000835
# 3 -0.005874 0.002486 0.017046 -0.004501 0.002010 -0.002017
# 4 -0.000073 -0.005866 -0.004501 0.026415 0.002745 -0.001475
# 5 -0.004642 -0.001033 0.002010 0.002745 0.020942 -0.007236
# 6 0.007414 0.000835 -0.002017 -0.001475 -0.007236 0.023841
#
#
# Mechanical properties :
#
#
# Convention : Reuss Voigt Hill
#
# Bulk Modulus (GPa) = 38.32924 72.93050 55.62987
# Shear Modulus (GPa) = 36.94229 50.08978 43.51603
#
# Velocity S-wave (km/s) = 3.83233 4.46247 4.15935
# Velocity P-wave (km/s) = 5.90089 7.45290 6.72184
#
# Compressibility (1/GPa) = 0.02608974
#
# Stress axis : x y z
#
# Youngs Moduli (GPa) = 99.77719 72.97708 58.66520
#
# Poissons Ratio (x) = 0.28843 0.34461
# Poissons Ratio (y) = 0.39435 -0.14583
# Poissons Ratio (z) = 0.58611 -0.18141
#
# Static dielectric constant tensor:
#      x y z
#    x 2.187770 -0.003390 0.026290 
#    y -0.003390 2.247300 -0.086220 
#    z 0.026290 -0.086220 2.010360 
# 
# From -- ./inp_files/410383.got.cif
#   From: 2010.05.17/outbox.cif.g08.bks.cpg/sg2_206_cif.got.tgz:410383.got - 2010.06.03 11:33:40.
