data_PCOD9012776
_publ_section_title
;
Structure prediction by ZEFSAII (Michael W. Deem and Ramdas Pophale) SiO2 
 PCOD9012776
Probable space group: P -1
;
_chemical_formula_sum "Si O2"
_cell_formula_units_Z 15
_cell_length_a 12.312584
_cell_length_b 7.294855
_cell_length_c 14.845151
_cell_angle_alpha 122.881724
_cell_angle_beta 130.372862
_cell_angle_gamma 42.475917
_cell_volume 680.442159
_symmetry_space_group_name_H-M "P -1"
_symmetry_group_IT_number 2
_symmetry_cell_setting 'triclinic'
loop_
_space_group_symop_operation_xyz
x,y,z
-x,-y,-z
loop_
_atom_site_type_symbol
_atom_site_label
_atom_site_fract_x
_atom_site_fract_y
_atom_site_fract_z
Si Si1 0.550976 0.817091 0.752294
Si Si2 0.467292 0.663692 0.143290
Si Si3 0.042880 0.663136 0.131152
Si Si4 0.403626 0.235343 0.437436
Si Si5 0.193380 0.725344 0.895988
Si Si6 0.000000 0.000000 0.500000
Si Si7 0.994194 0.563490 0.277505
Si Si8 0.648236 0.377850 0.339353
O O1 0.743415 0.527893 0.792954
O O2 0.498294 0.837374 0.624484
O O3 0.416414 0.811616 0.741900
O O4 0.561523 0.066194 0.838433
O O5 0.640420 0.402595 0.117571
O O6 0.526191 0.613034 0.264871
O O7 0.289304 0.691581 0.033649
O O8 0.964887 0.685255 0.194145
O O9 0.957165 0.959723 0.123830
O O10 0.000000 0.500000 0.000000
O O11 0.377533 0.493965 0.540467
O O12 0.207907 0.319297 0.332701
O O13 0.500000 0.000000 0.500000
O O14 0.116905 0.553633 0.802118
O O15 0.966873 0.774527 0.393701
O O16 0.140009 0.798080 0.603551
#
# Coordination Sequence:
#
# PCOD9012776 Si02
#       8
#     2   2   2   2   2   1   2   2
#     4  11  23  41  66  97 130 175 215 269 335 384
#     4  11  24  42  64  98 133 166 228 267 320 404
#     4  11  24  42  64 100 137 169 222 271 320 407
#     4  10  21  41  60  94 128 160 223 268 310 393
#     4  11  25  43  66  98 132 178 217 272 334 386
#     4  10  22  48  64  98 130 168 226 270 318 402
#     4  10  24  43  68  92 134 173 216 272 335 385
#     4  11  23  41  68  91 131 175 211 275 329 383
#
# _framework density 22.044488999999999
#
# number of rings (size 3 to 8) (size 9 to 14) (size 15 to 20)
#    0.000    1.333    2.667    2.000    3.733    0.533 
#    2.400    7.333    0.000    0.000    0.000    0.000 
#    0.000    0.000    0.000    0.000    0.000    0.000 
#
# Total GULP energy -83519.389793 kJ/mol
# GULP energy per Si atom -5567.959320 kJ/mol
# Density = 2.199431 g / cm^3
# Si number density = 22.044489 Si / 1000 Ang^3
#
#
#
# Elastic Constant Matrix: (Units=GPa)
#
#
# Indices 1 2 3 4 5 6 
#
# 1 39.8250 15.4341 30.6904 -8.0097 19.1200 9.2145
# 2 15.4341 114.5059 49.4975 -11.4673 25.3871 4.1544
# 3 30.6904 49.4975 145.4839 -1.7154 19.5844 19.6549
# 4 -8.0097 -11.4673 -1.7154 47.4887 4.6156 1.8850
# 5 19.1200 25.3871 19.5844 4.6156 29.4701 11.5886
# 6 9.2145 4.1544 19.6549 1.8850 11.5886 18.4072
#
#
#
# Elastic Compliance Matrix: (Units=1/GPa)
#
#
# Indices 1 2 3 4 5 6 
#
# 1 0.046081 0.005271 -0.007388 0.011824 -0.032518 0.002893
# 2 0.005271 0.014041 -0.004829 0.005369 -0.016846 0.009404
# 3 -0.007388 -0.004829 0.010586 -0.002235 0.006300 -0.010252
# 4 0.011824 0.005369 -0.002235 0.025706 -0.015864 0.002611
# 5 -0.032518 -0.016846 0.006300 -0.015864 0.082333 -0.036857
# 6 0.002893 0.009404 -0.010252 0.002611 -0.036857 0.084640
#
#
# Mechanical properties :
#
#
# Convention : Reuss Voigt Hill
#
# Bulk Modulus (GPa) = 17.60053 54.56208 36.08131
# Shear Modulus (GPa) = 16.87947 32.68606 24.78277
#
# Velocity S-wave (km/s) = 2.77013 3.85480 3.35657
# Velocity P-wave (km/s) = 4.27000 6.67962 5.60581
#
# Compressibility (1/GPa) = 0.05681646
#
# Stress axis : x y z
#
# Youngs Moduli (GPa) = 21.70081 71.21801 94.46686
#
# Poissons Ratio (x) = -0.37540 0.69796
# Poissons Ratio (y) = -0.11439 0.45615
# Poissons Ratio (z) = 0.16034 0.34389
#
# Static dielectric constant tensor:
#      x y z
#    x 1.148450 0.460970 -0.500780 
#    y 0.460970 1.431580 0.375000 
#    z -0.500780 0.375000 1.522480 
# 
# From -- ./inp_files/67884.got.cif
#   From: 2010.05.17/outbox.cif.g08.bks.cpg/sg2_34_cif.got.tgz:67884.got - 2010.06.03 11:33:40.
