data_PCOD9012279
_publ_section_title
;
Structure prediction by ZEFSAII (Michael W. Deem and Ramdas Pophale) SiO2 
 PCOD9012279
Probable space group: P -1
;
_chemical_formula_sum "Si O2"
_cell_formula_units_Z 12
_cell_length_a 9.929595
_cell_length_b 5.249057
_cell_length_c 18.998895
_cell_angle_alpha 75.893081
_cell_angle_beta 145.524787
_cell_angle_gamma 103.970482
_cell_volume 542.140831
_symmetry_space_group_name_H-M "P -1"
_symmetry_group_IT_number 2
_symmetry_cell_setting 'triclinic'
loop_
_space_group_symop_operation_xyz
x,y,z
-x,-y,-z
loop_
_atom_site_type_symbol
_atom_site_label
_atom_site_fract_x
_atom_site_fract_y
_atom_site_fract_z
Si Si1 0.592051 0.840743 0.116144
Si Si2 0.894465 0.348313 0.250729
Si Si3 0.713728 0.440625 0.879722
Si Si4 0.777221 0.995850 0.850530
Si Si5 0.778720 0.867306 0.703428
Si Si6 0.676140 0.365041 0.531685
O O1 0.727605 0.591067 0.164047
O O2 0.383001 0.720253 0.084180
O O3 0.752898 0.063132 0.213975
O O4 0.500000 0.000000 0.000000
O O5 0.041636 0.325538 0.241973
O O6 0.096209 0.427910 0.391159
O O7 0.618273 0.728458 0.817113
O O8 0.656643 0.261335 0.798972
O O9 0.000000 0.500000 0.000000
O O10 0.856138 0.973384 0.805680
O O11 0.000000 0.000000 0.000000
O O12 0.507166 0.738504 0.600367
O O13 0.765506 0.108845 0.626871
O O14 0.500000 0.500000 0.500000
#
# Coordination Sequence:
#
# PCOD9012279 Si02
#       6
#     2   2   2   2   2   2
#     4  12  26  42  66  97 138 182 226 280 343 395
#     4  11  23  40  66  98 139 168 222 287 341 393
#     4  10  24  43  62  89 131 182 223 267 325 412
#     4  10  23  39  66  91 138 172 223 267 336 404
#     4  10  21  40  69 108 131 178 225 288 333 396
#     4   9  20  38  68 105 134 169 231 285 337 388
#
# _framework density 22.13447
#
# number of rings (size 3 to 8) (size 9 to 14) (size 15 to 20)
#    0.000    1.667    1.667    1.500    9.333    1.333 
#    0.000    0.000    0.000    6.000    0.000    0.000 
#    0.000    0.000    0.000    0.000    0.000    0.000 
#
# Total GULP energy -66945.187459 kJ/mol
# GULP energy per Si atom -5578.765622 kJ/mol
# Density = 2.208409 g / cm^3
# Si number density = 22.134470 Si / 1000 Ang^3
#
#
#
# Elastic Constant Matrix: (Units=GPa)
#
#
# Indices 1 2 3 4 5 6 
#
# 1 114.4004 57.0032 50.8223 3.7103 5.7332 -3.6168
# 2 57.0032 183.0851 40.6474 13.0070 11.3694 -14.1880
# 3 50.8223 40.6474 73.8028 12.7822 2.1982 -3.4925
# 4 3.7103 13.0070 12.7822 36.2476 -4.2061 7.5899
# 5 5.7332 11.3694 2.1982 -4.2061 28.2749 4.4017
# 6 -3.6168 -14.1880 -3.4925 7.5899 4.4017 48.9571
#
#
#
# Elastic Compliance Matrix: (Units=1/GPa)
#
#
# Indices 1 2 3 4 5 6 
#
# 1 0.013728 -0.002590 -0.008491 0.002595 -0.000588 -0.000692
# 2 -0.002590 0.007167 -0.001500 -0.002643 -0.003016 0.002460
# 3 -0.008491 -0.001500 0.021444 -0.006540 -0.000554 0.001532
# 4 0.002595 -0.002643 -0.006540 0.032800 0.006975 -0.006753
# 5 -0.000588 -0.003016 -0.000554 0.006975 0.038638 -0.005512
# 6 -0.000692 0.002460 0.001532 -0.006753 -0.005512 0.022740
#
#
# Mechanical properties :
#
#
# Convention : Reuss Voigt Hill
#
# Bulk Modulus (GPa) = 58.21816 74.24822 66.23319
# Shear Modulus (GPa) = 29.86778 37.55027 33.70902
#
# Velocity S-wave (km/s) = 3.67737 4.12328 3.90669
# Velocity P-wave (km/s) = 6.66258 7.50237 7.09491
#
# Compressibility (1/GPa) = 0.01717677
#
# Stress axis : x y z
#
# Youngs Moduli (GPa) = 72.84608 139.52783 46.63238
#
# Poissons Ratio (x) = 0.36143 0.39596
# Poissons Ratio (y) = 0.18870 0.06993
# Poissons Ratio (z) = 0.61855 0.20923
#
# Static dielectric constant tensor:
#      x y z
#    x 1.789230 0.030110 -0.004170 
#    y 0.030110 1.873870 0.064790 
#    z -0.004170 0.064790 1.871200 
# 
# From -- ./inp_files/553486.got.cif
#   From: 2010.05.17/outbox.cif.g08.bks.cpg/sg2_277_cif.got.tgz:553486.got - 2010.06.03 11:33:40.
