data_PCOD9012023
_publ_section_title
;
Structure prediction by ZEFSAII (Michael W. Deem and Ramdas Pophale) SiO2 
 PCOD9012023
Probable space group: P -1
;
_chemical_formula_sum "Si O2"
_cell_formula_units_Z 16
_cell_length_a 14.479953
_cell_length_b 10.122892
_cell_length_c 16.774992
_cell_angle_alpha 137.654197
_cell_angle_beta 144.887439
_cell_angle_gamma 27.024654
_cell_volume 642.112763
_symmetry_space_group_name_H-M "P -1"
_symmetry_group_IT_number 2
_symmetry_cell_setting 'triclinic'
loop_
_space_group_symop_operation_xyz
x,y,z
-x,-y,-z
loop_
_atom_site_type_symbol
_atom_site_label
_atom_site_fract_x
_atom_site_fract_y
_atom_site_fract_z
Si Si1 0.732100 0.202674 0.569686
Si Si2 0.834265 0.876039 0.163353
Si Si3 0.610700 0.735923 0.271297
Si Si4 0.879463 0.898457 0.378403
Si Si5 0.066161 0.567723 0.778012
Si Si6 0.317183 0.040319 0.441700
Si Si7 0.940681 0.749028 0.930480
Si Si8 0.678265 0.251688 0.084272
O O1 0.500000 0.500000 0.500000
O O2 0.797958 0.984369 0.450619
O O3 0.942824 0.172909 0.710582
O O4 0.644567 0.193980 0.587796
O O5 0.941478 0.558530 0.090464
O O6 0.732433 0.000089 0.237047
O O7 0.650844 0.109782 0.069855
O O8 0.730704 0.769348 0.434307
O O9 0.691148 0.445890 0.226961
O O10 0.696495 0.680494 0.215608
O O11 0.328046 0.033498 0.199195
O O12 0.000000 0.000000 0.500000
O O13 0.033727 0.560391 0.331015
O O14 0.893045 0.816857 0.703460
O O15 0.091047 0.663701 0.919436
O O16 0.500000 0.000000 0.500000
O O17 0.893879 0.960204 0.055728
O O18 0.500000 0.500000 0.000000
#
# Coordination Sequence:
#
# PCOD9012023 Si02
#       8
#     2   2   2   2   2   2   2   2
#     4  11  23  38  60  99 137 168 213 267 330 411
#     4  10  21  40  68  90 129 176 215 270 341 387
#     4  11  22  39  63  90 131 169 214 274 328 391
#     4   9  21  35  59  90 127 167 209 257 329 402
#     4  11  22  38  63  91 132 171 216 273 331 399
#     4  12  24  37  62  96 135 174 215 265 341 404
#     4  10  22  43  63  93 124 175 225 272 329 386
#     4  10  23  41  67  93 124 174 229 278 324 386
#
# _framework density 24.917742000000001
#
# number of rings (size 3 to 8) (size 9 to 14) (size 15 to 20)
#    0.000    1.500    2.500    2.250    7.000    0.500 
#    0.000    0.000    2.750    6.750    0.000    0.000 
#    0.000    0.000    0.000    0.000    0.000    0.000 
#
# Total GULP energy -89116.388498 kJ/mol
# GULP energy per Si atom -5569.774281 kJ/mol
# Density = 2.486103 g / cm^3
# Si number density = 24.917742 Si / 1000 Ang^3
#
#
#
# Elastic Constant Matrix: (Units=GPa)
#
#
# Indices 1 2 3 4 5 6 
#
# 1 110.7144 42.0484 23.0259 -12.0074 -27.9774 19.4193
# 2 42.0484 130.0995 44.1032 0.4673 -10.3277 35.0937
# 3 23.0259 44.1032 85.5491 5.6676 -23.3380 13.4634
# 4 -12.0074 0.4673 5.6676 45.5725 6.0914 -4.0725
# 5 -27.9774 -10.3277 -23.3380 6.0914 47.5556 -2.7760
# 6 19.4193 35.0937 13.4634 -4.0725 -2.7760 50.9934
#
#
#
# Elastic Compliance Matrix: (Units=1/GPa)
#
#
# Indices 1 2 3 4 5 6 
#
# 1 0.012334 -0.002944 0.000098 0.002238 0.006251 -0.002178
# 2 -0.002944 0.011678 -0.004768 -0.000580 -0.001800 -0.005801
# 3 0.000098 -0.004768 0.016509 -0.003061 0.007460 -0.000953
# 4 0.002238 -0.000580 -0.003061 0.023532 -0.003206 0.002060
# 5 0.006251 -0.001800 0.007460 -0.003206 0.028280 -0.001828
# 6 -0.002178 -0.005801 -0.000953 0.002060 -0.001828 0.024749
#
#
# Mechanical properties :
#
#
# Convention : Reuss Voigt Hill
#
# Bulk Modulus (GPa) = 39.53574 60.52422 50.02998
# Shear Modulus (GPa) = 35.52628 43.30333 39.41480
#
# Velocity S-wave (km/s) = 3.78000 4.17328 3.98150
# Velocity P-wave (km/s) = 5.91203 6.89667 6.42324
#
# Compressibility (1/GPa) = 0.02529357
#
# Stress axis : x y z
#
# Youngs Moduli (GPa) = 81.07413 85.62944 60.57415
#
# Poissons Ratio (x) = 0.25209 -0.00592
# Poissons Ratio (y) = 0.23868 0.28880
# Poissons Ratio (z) = -0.00792 0.40825
#
# Static dielectric constant tensor:
#      x y z
#    x 2.084840 0.060700 0.138040 
#    y 0.060700 1.925730 -0.038920 
#    z 0.138040 -0.038920 2.177320 
# 
# From -- ./inp_files/299675.got.cif
#   From: 2010.05.17/outbox.cif.g08.bks.cpg/sg2_150_cif.got.tgz:299675.got - 2010.06.03 11:33:40.
