data_PCOD9012573
_publ_section_title
;
Structure prediction by ZEFSAII (Michael W. Deem and Ramdas Pophale) SiO2 
 PCOD9012573
Probable space group: P -1
;
_chemical_formula_sum "Si O2"
_cell_formula_units_Z 16
_cell_length_a 8.560495
_cell_length_b 8.350537
_cell_length_c 15.432722
_cell_angle_alpha 51.387832
_cell_angle_beta 123.990531
_cell_angle_gamma 107.753541
_cell_volume 713.088449
_symmetry_space_group_name_H-M "P -1"
_symmetry_group_IT_number 2
_symmetry_cell_setting 'triclinic'
loop_
_space_group_symop_operation_xyz
x,y,z
-x,-y,-z
loop_
_atom_site_type_symbol
_atom_site_label
_atom_site_fract_x
_atom_site_fract_y
_atom_site_fract_z
Si Si1 0.829169 0.692768 0.807128
Si Si2 0.808311 0.500806 0.055924
Si Si3 0.980494 0.127204 0.706634
Si Si4 0.505391 0.185413 0.109690
Si Si5 0.445017 0.658738 0.733584
Si Si6 0.015323 0.796532 0.519747
Si Si7 0.377997 0.255676 0.778384
Si Si8 0.693896 0.510302 0.505860
O O1 0.611545 0.730905 0.698408
O O2 0.975112 0.566033 0.832256
O O3 0.923331 0.902484 0.787347
O O4 0.813581 0.572829 0.933537
O O5 0.681220 0.307495 0.089761
O O6 0.693131 0.681944 0.011376
O O7 0.013910 0.140041 0.609921
O O8 0.805715 0.288802 0.615311
O O9 0.180556 0.194980 0.779593
O O10 0.532050 0.214035 0.212808
O O11 0.516493 0.957984 0.150063
O O12 0.226785 0.697531 0.628061
O O13 0.473518 0.408868 0.822253
O O14 0.849594 0.655345 0.542852
O O15 0.000000 0.000000 0.500000
O O16 0.345745 0.395733 0.634265
O O17 0.500000 0.500000 0.500000
#
# Coordination Sequence:
#
# PCOD9012573 Si02
#       8
#     2   2   2   2   2   2   2   2
#     4  10  22  37  67  90 120 165 208 259 316 354
#     4   9  20  42  62  89 121 160 212 263 307 371
#     4  11  21  41  63  87 130 172 200 246 317 374
#     4  10  21  40  71  87 120 169 206 254 323 364
#     4  11  22  40  62  96 127 157 211 257 303 378
#     4  11  23  39  59  90 131 168 206 248 307 380
#     4  11  21  43  63  91 128 168 202 251 315 375
#     4  11  24  39  59  90 131 167 206 248 306 376
#
# _framework density 22.437609999999999
#
# number of rings (size 3 to 8) (size 9 to 14) (size 15 to 20)
#    0.000    1.500    3.750    2.250    5.250    1.500 
#    0.000    6.250    0.000    0.000    0.000    0.000 
#    0.000    0.000    0.000    0.000    0.000    0.000 
#
# Total GULP energy -89286.920454 kJ/mol
# GULP energy per Si atom -5580.432528 kJ/mol
# Density = 2.238654 g / cm^3
# Si number density = 22.437610 Si / 1000 Ang^3
#
#
#
# Elastic Constant Matrix: (Units=GPa)
#
#
# Indices 1 2 3 4 5 6 
#
# 1 155.6285 46.7868 41.0439 -6.1100 39.9166 26.4519
# 2 46.7868 84.7887 28.1280 -10.0927 22.9470 2.5744
# 3 41.0439 28.1280 52.2693 -16.0145 22.1837 1.4305
# 4 -6.1100 -10.0927 -16.0145 32.9292 -10.5381 9.6732
# 5 39.9166 22.9470 22.1837 -10.5381 32.5614 -2.6234
# 6 26.4519 2.5744 1.4305 9.6732 -2.6234 44.5614
#
#
#
# Elastic Compliance Matrix: (Units=1/GPa)
#
#
# Indices 1 2 3 4 5 6 
#
# 1 0.012448 -0.002310 -0.003684 -0.001959 -0.012355 -0.007440
# 2 -0.002310 0.016016 -0.004389 0.000623 -0.005252 0.000143
# 3 -0.003684 -0.004389 0.032425 0.010626 -0.011168 -0.001564
# 4 -0.001959 0.000623 0.010626 0.039789 0.007000 -0.007440
# 5 -0.012355 -0.005252 -0.011168 0.007000 0.060240 0.010023
# 6 -0.007440 0.000143 -0.001564 -0.007440 0.010023 0.029104
#
#
# Mechanical properties :
#
#
# Convention : Reuss Voigt Hill
#
# Bulk Modulus (GPa) = 24.92370 58.28934 41.60652
# Shear Modulus (GPa) = 22.30503 33.79223 28.04863
#
# Velocity S-wave (km/s) = 3.15634 3.88500 3.53947
# Velocity P-wave (km/s) = 4.94120 6.79405 5.94031
#
# Compressibility (1/GPa) = 0.04012246
#
# Stress axis : x y z
#
# Youngs Moduli (GPa) = 80.33130 62.43792 30.84038
#
# Poissons Ratio (x) = 0.14425 0.11363
# Poissons Ratio (y) = 0.18558 0.13535
# Poissons Ratio (z) = 0.29598 0.27402
#
# Static dielectric constant tensor:
#      x y z
#    x 1.847350 0.027460 0.059420 
#    y 0.027460 1.881440 0.075200 
#    z 0.059420 0.075200 1.947020 
# 
# From -- ./inp_files/215738.got.cif
#   From: 2010.05.17/outbox.cif.g08.bks.cpg/sg2_108_cif.got.tgz:215738.got - 2010.06.03 11:33:40.
