data_PCOD9012736
_publ_section_title
;
Structure prediction by ZEFSAII (Michael W. Deem and Ramdas Pophale) SiO2 
 PCOD9012736
Probable space group: P -1
;
_chemical_formula_sum "Si O2"
_cell_formula_units_Z 14
_cell_length_a 21.012227
_cell_length_b 5.089989
_cell_length_c 15.778618
_cell_angle_alpha 74.761081
_cell_angle_beta 19.576917
_cell_angle_gamma 81.371687
_cell_volume 520.100183
_symmetry_space_group_name_H-M "P -1"
_symmetry_group_IT_number 2
_symmetry_cell_setting 'triclinic'
loop_
_space_group_symop_operation_xyz
x,y,z
-x,-y,-z
loop_
_atom_site_type_symbol
_atom_site_label
_atom_site_fract_x
_atom_site_fract_y
_atom_site_fract_z
Si Si1 0.556151 0.398654 0.125872
Si Si2 0.763790 0.394690 0.435193
Si Si3 0.071353 0.604707 0.262106
Si Si4 0.916300 0.023308 0.010690
Si Si5 0.389593 0.853592 0.505908
Si Si6 0.652146 0.291123 0.754671
Si Si7 0.798373 0.751274 0.012470
O O1 0.461922 0.477380 0.150389
O O2 0.464884 0.108505 0.319436
O O3 0.468742 0.604383 0.275269
O O4 0.790932 0.453708 0.830377
O O5 0.747495 0.203891 0.555024
O O6 0.788713 0.349766 0.309508
O O7 0.912576 0.691817 0.256786
O O8 0.106516 0.941590 0.178838
O O9 0.839803 0.430788 0.566763
O O10 0.168578 0.496005 0.066473
O O11 0.703915 0.060619 0.299219
O O12 0.889950 0.790636 0.989430
O O13 0.000000 0.000000 0.000000
O O14 0.567207 0.728734 0.315581
O O15 0.500000 0.000000 0.000000
#
# Coordination Sequence:
#
# PCOD9012736 Si02
#       7
#     2   2   2   2   2   2   2
#     4   9  21  42  62  96 128 175 214 279 323 397
#     4  10  21  41  59  94 128 171 218 273 326 387
#     4  11  23  44  71  94 137 176 221 280 335 395
#     4  12  23  37  63  98 131 177 223 276 327 398
#     4  11  22  41  65  91 137 177 226 268 332 395
#     4  10  22  42  69  99 130 173 223 275 343 403
#     4  11  24  44  64  98 133 181 223 271 332 400
#
# _framework density 26.917894
#
# number of rings (size 3 to 8) (size 9 to 14) (size 15 to 20)
#    0.857    0.571    4.286    0.857    2.000    1.714 
#    0.000    5.714    0.000    4.286    0.000    0.000 
#    0.000    0.000    0.000    0.000    0.000    0.000 
#
# Total GULP energy -78142.228276 kJ/mol
# GULP energy per Si atom -5581.587734 kJ/mol
# Density = 2.685663 g / cm^3
# Si number density = 26.917894 Si / 1000 Ang^3
#
#
#
# Elastic Constant Matrix: (Units=GPa)
#
#
# Indices 1 2 3 4 5 6 
#
# 1 130.8840 19.4976 43.8094 2.2547 -17.0060 -11.3542
# 2 19.4976 67.2739 14.2903 -1.2845 0.9170 -2.7926
# 3 43.8094 14.2903 140.7999 -6.7661 -15.6621 -30.5043
# 4 2.2547 -1.2845 -6.7661 40.4878 -8.4152 -1.9158
# 5 -17.0060 0.9170 -15.6621 -8.4152 50.8728 13.4640
# 6 -11.3542 -2.7926 -30.5043 -1.9158 13.4640 48.2490
#
#
#
# Elastic Compliance Matrix: (Units=1/GPa)
#
#
# Indices 1 2 3 4 5 6 
#
# 1 0.009059 -0.002162 -0.002407 -0.000508 0.002288 -0.000174
# 2 -0.002162 0.015738 -0.001037 0.000176 -0.001330 0.000124
# 3 -0.002407 -0.001037 0.009265 0.002113 0.001090 0.005011
# 4 -0.000508 0.000176 0.002113 0.026074 0.004526 0.000999
# 5 0.002288 -0.001330 0.001090 0.004526 0.022867 -0.005051
# 6 -0.000174 0.000124 0.005011 0.000999 -0.005051 0.025309
#
#
# Mechanical properties :
#
#
# Convention : Reuss Voigt Hill
#
# Bulk Modulus (GPa) = 43.76404 54.90584 49.33494
# Shear Modulus (GPa) = 39.32652 45.34595 42.33623
#
# Velocity S-wave (km/s) = 3.82642 4.10884 3.97015
# Velocity P-wave (km/s) = 5.98462 6.55377 6.27565
#
# Compressibility (1/GPa) = 0.02284981
#
# Stress axis : x y z
#
# Youngs Moduli (GPa) = 110.38664 63.53949 107.93622
#
# Poissons Ratio (x) = 0.13740 0.25977
# Poissons Ratio (y) = 0.23870 0.11193
# Poissons Ratio (z) = 0.26567 0.06589
#
# Static dielectric constant tensor:
#      x y z
#    x 2.216120 -0.029910 -0.000270 
#    y -0.029910 2.285740 0.053820 
#    z -0.000270 0.053820 2.189840 
# 
# From -- ./inp_files/578682.got.cif
#   From: 2010.05.17/outbox.cif.g08.bks.cpg/sg2_290_cif.got.tgz:578682.got - 2010.06.03 11:33:40.
