data_PCOD9012575
_publ_section_title
;
Structure prediction by ZEFSAII (Michael W. Deem and Ramdas Pophale) SiO2 
 PCOD9012575
Probable space group: P -1
;
_chemical_formula_sum "Si O2"
_cell_formula_units_Z 14
_cell_length_a 8.489862
_cell_length_b 9.612570
_cell_length_c 9.045275
_cell_angle_alpha 88.436022
_cell_angle_beta 86.328078
_cell_angle_gamma 124.644741
_cell_volume 604.221126
_symmetry_space_group_name_H-M "P -1"
_symmetry_group_IT_number 2
_symmetry_cell_setting 'triclinic'
loop_
_space_group_symop_operation_xyz
x,y,z
-x,-y,-z
loop_
_atom_site_type_symbol
_atom_site_label
_atom_site_fract_x
_atom_site_fract_y
_atom_site_fract_z
Si Si1 0.172831 0.449939 0.385087
Si Si2 0.660718 0.649792 0.885059
Si Si3 0.863343 0.054544 0.449396
Si Si4 0.703395 0.110191 0.189944
Si Si5 0.161093 0.536862 0.690238
Si Si6 0.010450 0.230557 0.918493
Si Si7 0.325560 0.040683 0.242570
O O1 0.287491 0.431883 0.247866
O O2 0.262758 0.530516 0.536236
O O3 0.004530 0.256789 0.440562
O O4 0.060066 0.529461 0.332846
O O5 0.610053 0.773254 0.816135
O O6 0.500000 0.500000 0.000000
O O7 0.842364 0.768838 0.978878
O O8 0.774044 0.017594 0.291038
O O9 0.694258 0.980710 0.580039
O O10 0.000000 0.000000 0.500000
O O11 0.739406 0.271186 0.272316
O O12 0.476461 0.001310 0.178697
O O13 0.840945 0.194451 0.039153
O O14 0.134985 0.411674 0.824141
O O15 0.889359 0.089332 0.805559
#
# Coordination Sequence:
#
# PCOD9012575 Si02
#       7
#     2   2   2   2   2   2   2
#     4  10  21  42  68  97 129 181 223 274 337 401
#     4  12  26  45  69 102 138 176 226 281 343 406
#     4  11  20  43  69  93 136 177 222 279 338 399
#     4  11  24  42  66 103 134 181 227 279 334 400
#     4  10  21  40  71  93 130 179 230 271 335 399
#     4  12  23  43  68  97 138 182 225 279 340 393
#     4  12  25  42  67  99 139 177 228 274 339 408
#
# _framework density 23.170324999999998
#
# number of rings (size 3 to 8) (size 9 to 14) (size 15 to 20)
#    0.000    0.857    5.714    2.571    2.000    0.000 
#    0.000    4.286    0.000    0.000    0.000    0.000 
#    0.000    0.000    0.000    0.000    0.000    0.000 
#
# Total GULP energy -78210.902297 kJ/mol
# GULP energy per Si atom -5586.493021 kJ/mol
# Density = 2.311759 g / cm^3
# Si number density = 23.170325 Si / 1000 Ang^3
#
#
#
# Elastic Constant Matrix: (Units=GPa)
#
#
# Indices 1 2 3 4 5 6 
#
# 1 91.4260 10.6359 35.3085 -5.0915 8.6980 -3.9175
# 2 10.6359 43.4877 23.2660 -17.5749 2.7766 1.3766
# 3 35.3085 23.2660 133.8506 -16.8609 6.5559 -3.5323
# 4 -5.0915 -17.5749 -16.8609 33.8084 6.7339 2.4564
# 5 8.6980 2.7766 6.5559 6.7339 23.9392 -9.8117
# 6 -3.9175 1.3766 -3.5323 2.4564 -9.8117 32.6502
#
#
#
# Elastic Compliance Matrix: (Units=1/GPa)
#
#
# Indices 1 2 3 4 5 6 
#
# 1 0.012567 -0.001014 -0.002861 0.000703 -0.003850 0.000031
# 2 -0.001014 0.032917 -0.002840 0.018055 -0.010323 -0.006277
# 3 -0.002861 -0.002840 0.009209 0.003101 -0.002058 -0.000079
# 4 0.000703 0.018055 0.003101 0.045294 -0.019931 -0.009738
# 5 -0.003850 -0.010323 -0.002058 -0.019931 0.058222 0.018746
# 6 0.000031 -0.006277 -0.000079 -0.009738 0.018746 0.037254
#
#
# Mechanical properties :
#
#
# Convention : Reuss Voigt Hill
#
# Bulk Modulus (GPa) = 24.23467 45.24281 34.73874
# Shear Modulus (GPa) = 22.45718 31.38315 26.92017
#
# Velocity S-wave (km/s) = 3.11661 3.68428 3.41227
# Velocity P-wave (km/s) = 4.84077 6.13736 5.52722
#
# Compressibility (1/GPa) = 0.04126321
#
# Stress axis : x y z
#
# Youngs Moduli (GPa) = 79.57060 30.37980 108.59361
#
# Poissons Ratio (x) = 0.03080 0.31068
# Poissons Ratio (y) = 0.08068 0.30839
# Poissons Ratio (z) = 0.22765 0.08627
#
# Static dielectric constant tensor:
#      x y z
#    x 1.926230 -0.043710 0.051590 
#    y -0.043710 2.576690 0.066170 
#    z 0.051590 0.066170 1.909300 
# 
# From -- ./inp_files/157446.got.cif
#   From: 2010.05.17/outbox.cif.g08.bks.cpg/sg2_79_cif.got.tgz:157446.got - 2010.06.03 11:33:40.
