data_PCOD9012181
_publ_section_title
;
Structure prediction by ZEFSAII (Michael W. Deem and Ramdas Pophale) SiO2 
 PCOD9012181
Probable space group: P -1
;
_chemical_formula_sum "Si O2"
_cell_formula_units_Z 13
_cell_length_a 10.509386
_cell_length_b 8.396907
_cell_length_c 13.047825
_cell_angle_alpha 131.930315
_cell_angle_beta 137.834995
_cell_angle_gamma 67.039794
_cell_volume 562.110179
_symmetry_space_group_name_H-M "P -1"
_symmetry_group_IT_number 2
_symmetry_cell_setting 'triclinic'
loop_
_space_group_symop_operation_xyz
x,y,z
-x,-y,-z
loop_
_atom_site_type_symbol
_atom_site_label
_atom_site_fract_x
_atom_site_fract_y
_atom_site_fract_z
Si Si1 0.494554 0.491646 0.617905
Si Si2 0.095791 0.556431 0.470375
Si Si3 0.435230 0.810981 0.147166
Si Si4 0.933465 0.078293 0.099418
Si Si5 0.202749 0.302420 0.778424
Si Si6 0.500000 0.000000 0.500000
Si Si7 0.102393 0.300656 0.950693
O O1 0.500000 0.500000 0.500000
O O2 0.325699 0.600362 0.613764
O O3 0.695250 0.627677 0.840043
O O4 0.477820 0.242705 0.541422
O O5 0.000000 0.500000 0.500000
O O6 0.036353 0.327538 0.277697
O O7 0.979630 0.717212 0.414656
O O8 0.644557 0.832150 0.230017
O O9 0.457011 0.887021 0.310383
O O10 0.295469 0.931771 0.050061
O O11 0.323493 0.555692 0.964484
O O12 0.003080 0.929301 0.162741
O O13 0.000000 0.000000 0.000000
O O14 0.127864 0.259432 0.829633
O O15 0.000000 0.500000 0.000000
#
# Coordination Sequence:
#
# PCOD9012181 Si02
#       7
#     2   2   2   2   2   1   2
#     4  12  26  44  71 106 143 185 243 302 356 428
#     4  11  25  47  71 102 144 182 233 299 365 424
#     4  10  21  40  68  98 136 179 235 278 358 428
#     4  11  24  44  70 100 138 187 234 286 360 429
#     4  10  22  43  66  98 136 184 225 288 353 429
#     4  12  22  40  70 106 134 186 236 294 364 410
#     4  12  25  44  71 101 139 187 239 295 351 432
#
# _framework density 23.127137999999999
#
# number of rings (size 3 to 8) (size 9 to 14) (size 15 to 20)
#    0.000    0.923    1.538    6.462    6.462    0.615 
#    2.769    0.769    0.000    0.000    0.000    0.000 
#    0.000    0.000    0.000    0.000    0.000    0.000 
#
# Total GULP energy -72493.436599 kJ/mol
# GULP energy per Si atom -5576.418200 kJ/mol
# Density = 2.307450 g / cm^3
# Si number density = 23.127138 Si / 1000 Ang^3
#
#
#
# Elastic Constant Matrix: (Units=GPa)
#
#
# Indices 1 2 3 4 5 6 
#
# 1 77.5976 7.5696 -9.6194 -8.3441 -1.8697 -1.5154
# 2 7.5696 97.6030 -21.5601 -6.1626 9.0126 4.3297
# 3 -9.6194 -21.5601 44.5792 -7.3961 -2.8215 -12.0779
# 4 -8.3441 -6.1626 -7.3961 25.9894 3.2026 -10.1391
# 5 -1.8697 9.0126 -2.8215 3.2026 36.2275 -10.4935
# 6 -1.5154 4.3297 -12.0779 -10.1391 -10.4935 44.0012
#
#
#
# Elastic Compliance Matrix: (Units=1/GPa)
#
#
# Indices 1 2 3 4 5 6 
#
# 1 0.014558 0.000322 0.005879 0.007895 0.001677 0.004303
# 2 0.000322 0.012391 0.007337 0.006067 -0.002570 0.001591
# 3 0.005879 0.007337 0.034324 0.018416 0.003578 0.013999
# 4 0.007895 0.006067 0.018416 0.054411 0.000563 0.017402
# 5 0.001677 -0.002570 0.003578 0.000563 0.031120 0.008844
# 6 0.004303 0.001591 0.013999 0.017402 0.008844 0.032680
#
#
# Mechanical properties :
#
#
# Convention : Reuss Voigt Hill
#
# Bulk Modulus (GPa) = 11.31861 19.17333 15.24597
# Shear Modulus (GPa) = 27.49432 37.46961 32.48197
#
# Velocity S-wave (km/s) = 3.45169 4.02949 3.75173
# Velocity P-wave (km/s) = 4.55963 5.47334 5.03724
#
# Compressibility (1/GPa) = 0.08835009
#
# Stress axis : x y z
#
# Youngs Moduli (GPa) = 68.69184 80.70242 29.13446
#
# Poissons Ratio (x) = -0.02602 -0.17128
# Poissons Ratio (y) = -0.02214 -0.21377
# Poissons Ratio (z) = -0.40384 -0.59214
#
# Static dielectric constant tensor:
#      x y z
#    x 1.887290 0.008210 0.084990 
#    y 0.008210 1.896740 -0.009830 
#    z 0.084990 -0.009830 1.867420 
# 
# From -- ./inp_files/153409.got.cif
#   From: 2010.05.17/outbox.cif.g08.bks.cpg/sg2_77_cif.got.tgz:153409.got - 2010.06.03 11:33:40.
