data_PCOD9012780
_publ_section_title
;
Structure prediction by ZEFSAII (Michael W. Deem and Ramdas Pophale) SiO2 
 PCOD9012780
Probable space group: P -1
;
_chemical_formula_sum "Si O2"
_cell_formula_units_Z 12
_cell_length_a 13.837362
_cell_length_b 13.399855
_cell_length_c 8.857184
_cell_angle_alpha 121.972952
_cell_angle_beta 52.683217
_cell_angle_gamma 159.647346
_cell_volume 449.755263
_symmetry_space_group_name_H-M "P -1"
_symmetry_group_IT_number 2
_symmetry_cell_setting 'triclinic'
loop_
_space_group_symop_operation_xyz
x,y,z
-x,-y,-z
loop_
_atom_site_type_symbol
_atom_site_label
_atom_site_fract_x
_atom_site_fract_y
_atom_site_fract_z
Si Si1 0.615390 0.248849 0.511790
Si Si2 0.159274 0.765692 0.043431
Si Si3 0.198666 0.353462 0.850506
Si Si4 0.732839 0.262486 0.711080
Si Si5 0.867278 0.681615 0.453569
Si Si6 0.731890 0.758593 0.866254
O O1 0.641996 0.284462 0.695727
O O2 0.628385 0.379033 0.508737
O O3 0.347147 0.928942 0.458309
O O4 0.920097 0.444472 0.347373
O O5 0.131018 0.827447 0.264944
O O6 0.000000 0.500000 0.000000
O O7 0.497142 0.056726 0.903068
O O8 0.223085 0.340995 0.639265
O O9 0.520229 0.637333 0.848185
O O10 0.036999 0.335613 0.975414
O O11 0.984083 0.075800 0.924634
O O12 0.903855 0.808871 0.650779
O O13 0.500000 0.500000 0.000000
#
# Coordination Sequence:
#
# PCOD9012780 Si02
#       6
#     2   2   2   2   2   2
#     4  10  22  39  63  97 133 189 219 290 333 423
#     4  10  22  44  71 107 143 187 230 287 357 429
#     4  10  26  46  73  99 142 182 235 299 345 420
#     4  10  21  41  60  95 147 174 233 271 353 408
#     4  10  24  43  72 102 141 182 241 285 359 410
#     4  12  26  50  71 103 137 188 242 293 351 412
#
# _framework density 26.681180000000001
#
# number of rings (size 3 to 8) (size 9 to 14) (size 15 to 20)
#    1.000    0.667    1.667    1.500    2.333    6.000 
#    6.000    0.000    0.000    0.000    0.000    0.000 
#    0.000    0.000    0.000    0.000    0.000    0.000 
#
# Total GULP energy -67173.107955 kJ/mol
# GULP energy per Si atom -5597.758996 kJ/mol
# Density = 2.662045 g / cm^3
# Si number density = 26.681180 Si / 1000 Ang^3
#
#
#
# Elastic Constant Matrix: (Units=GPa)
#
#
# Indices 1 2 3 4 5 6 
#
# 1 82.5229 42.7691 30.7628 -8.4786 -1.5506 -6.2459
# 2 42.7691 130.4484 23.6873 -14.0150 -8.9242 -9.0458
# 3 30.7628 23.6873 116.5659 -26.6019 -15.8979 -2.6983
# 4 -8.4786 -14.0150 -26.6019 40.5843 -12.2972 8.9143
# 5 -1.5506 -8.9242 -15.8979 -12.2972 51.9251 -5.3649
# 6 -6.2459 -9.0458 -2.6983 8.9143 -5.3649 53.3319
#
#
#
# Elastic Compliance Matrix: (Units=1/GPa)
#
#
# Indices 1 2 3 4 5 6 
#
# 1 0.015867 -0.004735 -0.003801 -0.001557 -0.001775 0.000944
# 2 -0.004735 0.009721 0.000353 0.003166 0.002473 0.000832
# 3 -0.003801 0.000353 0.012458 0.009451 0.005923 -0.000739
# 4 -0.001557 0.003166 0.009451 0.035969 0.011494 -0.004023
# 5 -0.001775 0.002473 0.005923 0.011494 0.024273 0.001032
# 6 0.000944 0.000832 -0.000739 -0.004023 0.001032 0.019741
#
#
# Mechanical properties :
#
#
# Convention : Reuss Voigt Hill
#
# Bulk Modulus (GPa) = 46.12409 58.21951 52.17180
# Shear Modulus (GPa) = 35.30556 44.65613 39.98085
#
# Velocity S-wave (km/s) = 3.64158 4.09552 3.87520
# Velocity P-wave (km/s) = 5.91660 6.65073 6.29438
#
# Compressibility (1/GPa) = 0.02168064
#
# Stress axis : x y z
#
# Youngs Moduli (GPa) = 63.02403 102.86747 80.27252
#
# Poissons Ratio (x) = 0.48710 0.30509
# Poissons Ratio (y) = 0.29843 -0.02836
# Poissons Ratio (z) = 0.23954 -0.03635
#
# Static dielectric constant tensor:
#      x y z
#    x 2.165250 -0.051790 0.081390 
#    y -0.051790 1.991900 -0.007230 
#    z 0.081390 -0.007230 2.168280 
# 
# From -- ./inp_files/335751.got.cif
#   From: 2010.05.17/outbox.cif.g08.bks.cpg/sg2_168_cif.got.tgz:335751.got - 2010.06.03 11:33:40.
