data_PCOD9012395
_publ_section_title
;
Structure prediction by ZEFSAII (Michael W. Deem and Ramdas Pophale) SiO2 
 PCOD9012395
Probable space group: P -1
;
_chemical_formula_sum "Si O2"
_cell_formula_units_Z 16
_cell_length_a 9.182476
_cell_length_b 15.411056
_cell_length_c 7.880949
_cell_angle_alpha 78.441062
_cell_angle_beta 68.877142
_cell_angle_gamma 41.511579
_cell_volume 685.121875
_symmetry_space_group_name_H-M "P -1"
_symmetry_group_IT_number 2
_symmetry_cell_setting 'triclinic'
loop_
_space_group_symop_operation_xyz
x,y,z
-x,-y,-z
loop_
_atom_site_type_symbol
_atom_site_label
_atom_site_fract_x
_atom_site_fract_y
_atom_site_fract_z
Si Si1 0.467473 0.126940 0.828815
Si Si2 0.375632 0.835612 0.580902
Si Si3 0.071730 0.299588 0.200726
Si Si4 0.309043 0.045966 0.692340
Si Si5 0.702728 0.516696 0.037589
Si Si6 0.017536 0.120926 0.214086
Si Si7 0.802739 0.607196 0.671268
Si Si8 0.816583 0.282809 0.894972
O O1 0.494633 0.175409 0.630085
O O2 0.399090 0.056273 0.821928
O O3 0.261918 0.238485 0.997748
O O4 0.721470 0.024411 0.843996
O O5 0.148661 0.875230 0.616639
O O6 0.556905 0.695441 0.651962
O O7 0.306085 0.942399 0.700854
O O8 0.169346 0.301817 0.327849
O O9 0.031130 0.212079 0.257553
O O10 0.834612 0.447852 0.185887
O O11 0.045865 0.190610 0.719457
O O12 0.500000 0.000000 0.500000
O O13 0.806953 0.550349 0.865100
O O14 0.761973 0.401077 0.955600
O O15 0.425117 0.645106 0.115115
O O16 0.904946 0.183264 0.051294
O O17 0.000000 0.500000 0.500000
#
# Coordination Sequence:
#
# PCOD9012395 Si02
#       8
#     2   2   2   2   2   2   2   2
#     4  11  22  43  66  97 139 179 224 283 332 407
#     4  11  25  42  65 101 143 178 222 277 348 399
#     4  11  24  44  71  99 129 182 232 278 340 398
#     4  10  22  40  66 101 137 181 223 277 342 398
#     4  10  21  43  69  96 136 180 228 272 338 402
#     4  11  22  41  67 102 137 175 224 276 338 405
#     4  12  26  43  69 100 133 174 234 287 338 409
#     4  10  21  40  69  98 138 179 224 282 331 404
#
# _framework density 23.353507
#
# number of rings (size 3 to 8) (size 9 to 14) (size 15 to 20)
#    0.000    1.250    3.750    2.625    3.500    1.500 
#    0.000    3.125    2.750    0.000    0.000    0.000 
#    0.000    0.000    0.000    0.000    0.000    0.000 
#
# Total GULP energy -89505.664136 kJ/mol
# GULP energy per Si atom -5594.104008 kJ/mol
# Density = 2.330035 g / cm^3
# Si number density = 23.353507 Si / 1000 Ang^3
#
#
#
# Elastic Constant Matrix: (Units=GPa)
#
#
# Indices 1 2 3 4 5 6 
#
# 1 100.7480 26.8078 32.5983 16.8532 -21.7362 -21.8143
# 2 26.8078 86.2826 13.7116 13.9654 -1.8181 -34.2261
# 3 32.5983 13.7116 66.1478 22.7116 -6.5878 5.5882
# 4 16.8532 13.9654 22.7116 38.9832 -2.5536 -11.3966
# 5 -21.7362 -1.8181 -6.5878 -2.5536 29.1549 1.2665
# 6 -21.8143 -34.2261 5.5882 -11.3966 1.2665 41.6494
#
#
#
# Elastic Compliance Matrix: (Units=1/GPa)
#
#
# Indices 1 2 3 4 5 6 
#
# 1 0.016892 0.000176 -0.008654 0.001335 0.010323 0.010205
# 2 0.000176 0.018937 -0.006042 0.001561 -0.000651 0.016912
# 3 -0.008654 -0.006042 0.027112 -0.015002 -0.001269 -0.017202
# 4 0.001335 0.001561 -0.015002 0.037439 0.000364 0.014229
# 5 0.010323 -0.000651 -0.001269 0.000364 0.041532 0.003879
# 6 0.010205 0.016912 -0.017202 0.014229 0.003879 0.049336
#
#
# Mechanical properties :
#
#
# Convention : Reuss Voigt Hill
#
# Bulk Modulus (GPa) = 29.49560 44.37932 36.93746
# Shear Modulus (GPa) = 21.58991 33.96154 27.77573
#
# Velocity S-wave (km/s) = 3.04383 3.81758 3.45245
# Velocity P-wave (km/s) = 5.00107 6.20294 5.63414
#
# Compressibility (1/GPa) = 0.03390336
#
# Stress axis : x y z
#
# Youngs Moduli (GPa) = 59.19851 52.80549 36.88342
#
# Poissons Ratio (x) = -0.00931 0.31918
# Poissons Ratio (y) = -0.01043 0.22285
# Poissons Ratio (z) = 0.51228 0.31905
#
# Static dielectric constant tensor:
#      x y z
#    x 1.886070 0.008450 0.012210 
#    y 0.008450 1.889300 -0.027900 
#    z 0.012210 -0.027900 1.913110 
# 
# From -- ./inp_files/206818.got.cif
#   From: 2010.05.17/outbox.cif.g08.bks.cpg/sg2_104_cif.got.tgz:206818.got - 2010.06.03 11:33:40.
