data_PCOD9012046
_publ_section_title
;
Structure prediction by ZEFSAII (Michael W. Deem and Ramdas Pophale) SiO2 
 PCOD9012046
Probable space group: P -1
;
_chemical_formula_sum "Si O2"
_cell_formula_units_Z 16
_cell_length_a 12.211849
_cell_length_b 14.958006
_cell_length_c 8.692541
_cell_angle_alpha 100.625861
_cell_angle_beta 53.256144
_cell_angle_gamma 137.538268
_cell_volume 755.887915
_symmetry_space_group_name_H-M "P -1"
_symmetry_group_IT_number 2
_symmetry_cell_setting 'triclinic'
loop_
_space_group_symop_operation_xyz
x,y,z
-x,-y,-z
loop_
_atom_site_type_symbol
_atom_site_label
_atom_site_fract_x
_atom_site_fract_y
_atom_site_fract_z
Si Si1 0.322109 0.924829 0.766155
Si Si2 0.343575 0.194615 0.673114
Si Si3 0.922871 0.569239 0.506336
Si Si4 0.045853 0.151123 0.125324
Si Si5 0.686072 0.626590 0.762989
Si Si6 0.438288 0.558438 0.661023
Si Si7 0.350384 0.753374 0.354364
Si Si8 0.042779 0.624157 0.067535
O O1 0.100089 0.854384 0.853896
O O2 0.500000 0.000000 0.500000
O O3 0.451360 0.070987 0.807857
O O4 0.249569 0.795549 0.880494
O O5 0.446622 0.297736 0.475849
O O6 0.530034 0.223058 0.587379
O O7 0.264404 0.228688 0.874520
O O8 0.119296 0.021223 0.769173
O O9 0.786413 0.588105 0.596196
O O10 0.756396 0.401683 0.658675
O O11 0.119668 0.687403 0.505372
O O12 0.034196 0.608891 0.256966
O O13 0.119747 0.224299 0.252569
O O14 0.552650 0.613864 0.747465
O O15 0.500000 0.500000 0.000000
O O16 0.500000 0.500000 0.500000
O O17 0.173659 0.434513 0.829916
O O18 0.000000 0.500000 0.000000
#
# Coordination Sequence:
#
# PCOD9012046 Si02
#       8
#     2   2   2   2   2   2   2   2
#     4  11  23  41  67  92 135 177 224 273 343 409
#     4  10  21  43  69  97 133 175 225 282 343 402
#     4  11  23  42  68  98 137 173 231 283 338 409
#     4  10  23  40  68 100 128 179 229 272 343 414
#     4  12  24  40  67  99 135 178 230 278 338 411
#     4  12  23  43  70  96 138 180 226 283 339 404
#     4  10  21  40  68  92 132 177 215 279 342 397
#     4  12  26  42  67 104 133 180 233 281 343 408
#
# _framework density 21.167159000000002
#
# number of rings (size 3 to 8) (size 9 to 14) (size 15 to 20)
#    0.000    1.000    2.500    4.500    1.750    5.000 
#    0.000    0.000    2.750    0.000    0.000    0.000 
#    0.000    0.000    0.000    0.000    0.000    0.000 
#
# Total GULP energy -89152.863057 kJ/mol
# GULP energy per Si atom -5572.053941 kJ/mol
# Density = 2.111898 g / cm^3
# Si number density = 21.167159 Si / 1000 Ang^3
#
#
#
# Elastic Constant Matrix: (Units=GPa)
#
#
# Indices 1 2 3 4 5 6 
#
# 1 110.0822 42.0824 34.5031 -20.4780 -2.6054 2.4649
# 2 42.0824 115.9504 37.4338 -17.5723 15.1125 1.5336
# 3 34.5031 37.4338 83.8776 -11.9056 13.0858 -9.9388
# 4 -20.4780 -17.5723 -11.9056 30.4739 -11.2219 -1.4261
# 5 -2.6054 15.1125 13.0858 -11.2219 27.3882 -10.0362
# 6 2.4649 1.5336 -9.9388 -1.4261 -10.0362 39.6139
#
#
#
# Elastic Compliance Matrix: (Units=1/GPa)
#
#
# Indices 1 2 3 4 5 6 
#
# 1 0.013534 -0.003444 -0.004081 0.008915 0.009120 0.000899
# 2 -0.003444 0.011824 -0.003094 0.001022 -0.005859 -0.002467
# 3 -0.004081 -0.003094 0.016170 -0.000007 -0.005277 0.003094
# 4 0.008915 0.001022 -0.000007 0.047975 0.022442 0.006817
# 5 0.009120 -0.005859 -0.005277 0.022442 0.057338 0.013670
# 6 0.000899 -0.002467 0.003094 0.006817 0.013670 0.029768
#
#
# Mechanical properties :
#
#
# Convention : Reuss Voigt Hill
#
# Bulk Modulus (GPa) = 49.28216 59.77208 54.52712
# Shear Modulus (GPa) = 24.43658 32.55460 28.49559
#
# Velocity S-wave (km/s) = 3.40142 3.92596 3.67306
# Velocity P-wave (km/s) = 6.22568 6.98930 6.61851
#
# Compressibility (1/GPa) = 0.02029132
#
# Stress axis : x y z
#
# Youngs Moduli (GPa) = 73.88891 84.57207 61.84175
#
# Poissons Ratio (x) = 0.29125 0.25239
# Poissons Ratio (y) = 0.25446 0.19131
# Poissons Ratio (z) = 0.30155 0.26163
#
# Static dielectric constant tensor:
#      x y z
#    x 1.729810 0.013630 0.008200 
#    y 0.013630 1.867460 0.033670 
#    z 0.008200 0.033670 1.766570 
# 
# From -- ./inp_files/273332.got.cif
#   From: 2010.05.17/outbox.cif.g08.bks.cpg/sg2_137_cif.got.tgz:273332.got - 2010.06.03 11:33:40.
