data_PCOD9012328
_publ_section_title
;
Structure prediction by ZEFSAII (Michael W. Deem and Ramdas Pophale) SiO2 
 PCOD9012328
Probable space group: P -1
;
_chemical_formula_sum "Si O2"
_cell_formula_units_Z 15
_cell_length_a 16.003193
_cell_length_b 9.138207
_cell_length_c 6.744415
_cell_angle_alpha 73.670378
_cell_angle_beta 99.927418
_cell_angle_gamma 136.606682
_cell_volume 649.499179
_symmetry_space_group_name_H-M "P -1"
_symmetry_group_IT_number 2
_symmetry_cell_setting 'triclinic'
loop_
_space_group_symop_operation_xyz
x,y,z
-x,-y,-z
loop_
_atom_site_type_symbol
_atom_site_label
_atom_site_fract_x
_atom_site_fract_y
_atom_site_fract_z
Si Si1 0.000000 0.500000 0.000000
Si Si2 0.406845 0.221778 0.738115
Si Si3 0.319117 0.357248 0.352365
Si Si4 0.226354 0.095619 0.021438
Si Si5 0.357763 0.828443 0.980260
Si Si6 0.164164 0.519008 0.756540
Si Si7 0.890074 0.843557 0.361629
Si Si8 0.818482 0.310431 0.710342
O O1 0.087576 0.507314 0.893932
O O2 0.948112 0.525153 0.770002
O O3 0.363041 0.256485 0.513977
O O4 0.552704 0.395104 0.732257
O O5 0.354668 0.244161 0.899670
O O6 0.342986 0.976830 0.820028
O O7 0.231520 0.324684 0.487613
O O8 0.246431 0.222324 0.175453
O O9 0.133894 0.047096 0.841333
O O10 0.185941 0.873358 0.153520
O O11 0.288749 0.628967 0.876587
O O12 0.289592 0.746729 0.192894
O O13 0.500000 0.000000 0.000000
O O14 0.098543 0.289865 0.720426
O O15 0.191050 0.666474 0.530006
O O16 0.000000 0.000000 0.500000
#
# Coordination Sequence:
#
# PCOD9012328 Si02
#       8
#     1   2   2   2   2   2   2   2
#     4  10  24  44  74  94 130 174 238 286 330 402
#     4   9  20  40  64 101 129 174 227 276 332 409
#     4  10  21  40  69  93 136 178 225 273 336 410
#     4  10  22  42  68  95 136 181 223 276 340 402
#     4  10  23  41  66  99 141 170 222 284 343 405
#     4  11  25  46  70 101 134 179 231 283 346 402
#     4  11  28  44  64 103 141 178 226 285 344 399
#     4  10  23  42  69 100 127 184 230 278 335 412
#
# _framework density 23.094715999999998
#
# number of rings (size 3 to 8) (size 9 to 14) (size 15 to 20)
#    0.000    1.867    0.000    1.600    7.467    3.200 
#    4.800    0.000    0.000    0.000    0.000    0.000 
#    0.000    0.000    0.000    0.000    0.000    0.000 
#
# Total GULP energy -83621.910791 kJ/mol
# GULP energy per Si atom -5574.794053 kJ/mol
# Density = 2.304215 g / cm^3
# Si number density = 23.094716 Si / 1000 Ang^3
#
#
#
# Elastic Constant Matrix: (Units=GPa)
#
#
# Indices 1 2 3 4 5 6 
#
# 1 88.6063 27.5958 40.5769 10.7785 5.0940 14.7679
# 2 27.5958 68.8051 46.2018 1.3682 14.8484 -1.8000
# 3 40.5769 46.2018 143.8306 20.1673 3.4242 -5.6498
# 4 10.7785 1.3682 20.1673 33.5877 7.0878 11.9633
# 5 5.0940 14.8484 3.4242 7.0878 20.4713 -1.3297
# 6 14.7679 -1.8000 -5.6498 11.9633 -1.3297 32.9396
#
#
#
# Elastic Compliance Matrix: (Units=1/GPa)
#
#
# Indices 1 2 3 4 5 6 
#
# 1 0.015389 -0.003846 -0.003431 0.000303 -0.001080 -0.007852
# 2 -0.003846 0.025668 -0.008254 0.010405 -0.020069 -0.002878
# 3 -0.003431 -0.008254 0.012086 -0.010267 0.008845 0.007246
# 4 0.000303 0.010405 -0.010267 0.047319 -0.023553 -0.019465
# 5 -0.001080 -0.020069 0.008845 -0.023553 0.071151 0.012331
# 6 -0.007852 -0.002878 0.007246 -0.019465 0.012331 0.042531
#
#
# Mechanical properties :
#
#
# Convention : Reuss Voigt Hill
#
# Bulk Modulus (GPa) = 45.29173 58.88790 52.08981
# Shear Modulus (GPa) = 19.79669 29.85756 24.82712
#
# Velocity S-wave (km/s) = 2.93097 3.59950 3.28230
# Velocity P-wave (km/s) = 5.57745 6.54438 6.08017
#
# Compressibility (1/GPa) = 0.02207909
#
# Stress axis : x y z
#
# Youngs Moduli (GPa) = 64.98167 38.95913 82.74277
#
# Poissons Ratio (x) = 0.14985 0.28390
# Poissons Ratio (y) = 0.24995 0.68298
# Poissons Ratio (z) = 0.22296 0.32158
#
# Static dielectric constant tensor:
#      x y z
#    x 2.791030 -1.478860 -0.360180 
#    y -1.478860 4.487750 0.700360 
#    z -0.360180 0.700360 1.997670 
# 
# From -- ./inp_files/60973.got.cif
#   From: 2010.05.17/outbox.cif.g08.bks.cpg/sg2_31_cif.got.tgz:60973.got - 2010.06.03 11:33:40.
