data_PCOD9012481
_publ_section_title
;
Structure prediction by ZEFSAII (Michael W. Deem and Ramdas Pophale) SiO2 
 PCOD9012481
Probable space group: P -1
;
_chemical_formula_sum "Si O2"
_cell_formula_units_Z 16
_cell_length_a 20.743767
_cell_length_b 8.328804
_cell_length_c 11.924251
_cell_angle_alpha 97.348934
_cell_angle_beta 19.790975
_cell_angle_gamma 96.013705
_cell_volume 691.073730
_symmetry_space_group_name_H-M "P -1"
_symmetry_group_IT_number 2
_symmetry_cell_setting 'triclinic'
loop_
_space_group_symop_operation_xyz
x,y,z
-x,-y,-z
loop_
_atom_site_type_symbol
_atom_site_label
_atom_site_fract_x
_atom_site_fract_y
_atom_site_fract_z
Si Si1 0.712103 0.500343 0.109530
Si Si2 0.842399 0.694087 0.108847
Si Si3 0.839447 0.134316 0.310975
Si Si4 0.829550 0.252579 0.712582
Si Si5 0.230990 0.202082 0.121653
Si Si6 0.737847 0.544098 0.733713
Si Si7 0.517237 0.947559 0.723479
Si Si8 0.284470 0.515565 0.497601
O O1 0.500000 0.500000 0.500000
O O2 0.827572 0.549692 0.033543
O O3 0.774568 0.336281 0.929424
O O4 0.718077 0.647361 0.025329
O O5 0.666650 0.827484 0.402220
O O6 0.806069 0.611354 0.281966
O O7 0.039205 0.785928 0.781197
O O8 0.790095 0.299856 0.337443
O O9 0.642825 0.042136 0.617593
O O10 0.000000 0.000000 0.000000
O O11 0.845651 0.406395 0.619463
O O12 0.029056 0.154535 0.396663
O O13 0.652319 0.151595 0.954676
O O14 0.210312 0.282118 0.286471
O O15 0.401189 0.068867 0.840824
O O16 0.759489 0.528543 0.563543
O O17 0.513942 0.518032 0.126568
#
# Coordination Sequence:
#
# PCOD9012481 Si02
#       8
#     2   2   2   2   2   2   2   2
#     4  11  22  42  73  96 131 173 225 277 322 389
#     4  11  23  43  69 100 129 172 227 274 329 395
#     4  10  24  41  65  94 135 171 210 281 331 391
#     4  11  23  44  68  97 135 173 224 270 329 398
#     4  11  24  42  68  99 134 177 218 278 327 395
#     4  10  21  40  70  94 123 171 225 271 321 388
#     4  11  22  45  65  92 140 173 221 269 337 392
#     4  11  21  42  70  94 126 173 222 272 326 389
#
# _framework density 23.152376
#
# number of rings (size 3 to 8) (size 9 to 14) (size 15 to 20)
#    0.000    1.250    3.750    3.000    3.500    0.500 
#    0.000    3.750    2.750    0.000    0.000    0.000 
#    0.000    0.000    0.000    0.000    0.000    0.000 
#
# Total GULP energy -89302.237916 kJ/mol
# GULP energy per Si atom -5581.389870 kJ/mol
# Density = 2.309968 g / cm^3
# Si number density = 23.152376 Si / 1000 Ang^3
#
#
#
# Elastic Constant Matrix: (Units=GPa)
#
#
# Indices 1 2 3 4 5 6 
#
# 1 101.7277 25.3433 47.1008 1.1801 -15.3818 12.8664
# 2 25.3433 89.7090 37.6949 5.8609 -15.7920 -4.4886
# 3 47.1008 37.6949 128.5942 -9.2176 -32.7359 4.0738
# 4 1.1801 5.8609 -9.2176 36.4448 2.1540 -19.9519
# 5 -15.3818 -15.7920 -32.7359 2.1540 46.7027 -0.9389
# 6 12.8664 -4.4886 4.0738 -19.9519 -0.9389 42.9842
#
#
#
# Elastic Compliance Matrix: (Units=1/GPa)
#
#
# Indices 1 2 3 4 5 6 
#
# 1 0.013127 -0.001794 -0.004195 -0.004390 0.000863 -0.005738
# 2 -0.001794 0.013474 -0.002988 -0.002332 0.002003 0.001188
# 3 -0.004195 -0.002988 0.011915 0.004364 0.005798 0.001967
# 4 -0.004390 -0.002332 0.004364 0.039481 -0.000615 0.018969
# 5 0.000863 0.002003 0.005798 -0.000615 0.026460 -0.000306
# 6 -0.005738 0.001188 0.001967 0.018969 -0.000306 0.033718
#
#
# Mechanical properties :
#
#
# Convention : Reuss Voigt Hill
#
# Bulk Modulus (GPa) = 48.63277 60.03431 54.33354
# Shear Modulus (GPa) = 30.67836 39.21914 34.94875
#
# Velocity S-wave (km/s) = 3.64409 4.12024 3.88946
# Velocity P-wave (km/s) = 6.22551 6.97291 6.60978
#
# Compressibility (1/GPa) = 0.02056227
#
# Stress axis : x y z
#
# Youngs Moduli (GPa) = 76.18091 74.21927 83.92583
#
# Poissons Ratio (x) = 0.13314 0.35209
# Poissons Ratio (y) = 0.13666 0.25073
# Poissons Ratio (z) = 0.31960 0.22173
#
# Static dielectric constant tensor:
#      x y z
#    x 1.906340 0.044650 -0.047310 
#    y 0.044650 1.888540 0.001090 
#    z -0.047310 0.001090 1.924790 
# 
# From -- ./inp_files/390490.got.cif
#   From: 2010.05.17/outbox.cif.g08.bks.cpg/sg2_196_cif.got.tgz:390490.got - 2010.06.03 11:33:40.
