data_PCOD9012093
_publ_section_title
;
Structure prediction by ZEFSAII (Michael W. Deem and Ramdas Pophale) SiO2 
 PCOD9012093
Probable space group: P -1
;
_chemical_formula_sum "Si O2"
_cell_formula_units_Z 14
_cell_length_a 7.929919
_cell_length_b 12.184977
_cell_length_c 8.202659
_cell_angle_alpha 47.278827
_cell_angle_beta 96.717424
_cell_angle_gamma 96.076950
_cell_volume 577.907611
_symmetry_space_group_name_H-M "P -1"
_symmetry_group_IT_number 2
_symmetry_cell_setting 'triclinic'
loop_
_space_group_symop_operation_xyz
x,y,z
-x,-y,-z
loop_
_atom_site_type_symbol
_atom_site_label
_atom_site_fract_x
_atom_site_fract_y
_atom_site_fract_z
Si Si1 0.460531 0.828304 0.693318
Si Si2 0.451471 0.422134 0.239374
Si Si3 0.876445 0.044092 0.797971
Si Si4 0.690958 0.335337 0.608851
Si Si5 0.099438 0.552486 0.180309
Si Si6 0.446189 0.140070 0.967807
Si Si7 0.075125 0.738854 0.677213
O O1 0.579662 0.746985 0.658647
O O2 0.274966 0.771580 0.678589
O O3 0.500000 0.000000 0.500000
O O4 0.457794 0.814318 0.901311
O O5 0.612684 0.441513 0.357526
O O6 0.278478 0.489728 0.205635
O O7 0.500000 0.500000 0.000000
O O8 0.770222 0.186262 0.697002
O O9 0.973620 0.108304 0.580478
O O10 0.737623 0.906003 0.928925
O O11 0.000000 0.000000 0.000000
O O12 0.839951 0.394329 0.687576
O O13 0.507992 0.279773 0.723659
O O14 0.976318 0.405794 0.293014
O O15 0.033412 0.680046 0.918163
O O16 0.500000 0.000000 0.000000
#
# Coordination Sequence:
#
# PCOD9012093 Si02
#       7
#     2   2   2   2   2   2   2
#     4  12  21  44  71  93 134 181 220 278 340 402
#     4  12  23  44  71 102 133 179 232 274 339 413
#     4  11  24  44  64  99 137 176 223 278 349 407
#     4  11  22  44  69  98 134 175 228 284 327 403
#     4  11  25  43  69 100 136 177 228 285 340 400
#     4  10  21  40  68  95 127 171 222 274 330 401
#     4  11  23  47  63  95 144 174 225 284 343 400
#
# _framework density 24.225325000000002
#
# number of rings (size 3 to 8) (size 9 to 14) (size 15 to 20)
#    0.000    0.857    5.714    1.286    2.000    0.571 
#    5.143    1.429    0.000    0.000    0.000    0.000 
#    0.000    0.000    0.000    0.000    0.000    0.000 
#
# Total GULP energy -77940.117537 kJ/mol
# GULP energy per Si atom -5567.151253 kJ/mol
# Density = 2.417019 g / cm^3
# Si number density = 24.225325 Si / 1000 Ang^3
#
#
#
# Elastic Constant Matrix: (Units=GPa)
#
#
# Indices 1 2 3 4 5 6 
#
# 1 58.4493 18.3155 31.2002 -0.0595 -2.1201 32.2655
# 2 18.3155 104.9954 11.6694 23.5273 6.3687 34.9433
# 3 31.2002 11.6694 140.4368 28.0823 11.4937 36.5766
# 4 -0.0595 23.5273 28.0823 40.6979 12.3344 0.0993
# 5 -2.1201 6.3687 11.4937 12.3344 35.9362 -6.2443
# 6 32.2655 34.9433 36.5766 0.0993 -6.2443 50.9920
#
#
#
# Elastic Compliance Matrix: (Units=1/GPa)
#
#
# Indices 1 2 3 4 5 6 
#
# 1 0.026845 0.000668 -0.002000 0.001435 -0.001195 -0.016159
# 2 0.000668 0.017493 0.005651 -0.012955 -0.003349 -0.016848
# 3 -0.002000 0.005651 0.012745 -0.010959 -0.003547 -0.012161
# 4 0.001435 -0.012955 -0.010959 0.041308 -0.005677 0.015055
# 5 -0.001195 -0.003349 -0.003547 -0.005677 0.033112 0.009662
# 6 -0.016159 -0.016848 -0.012161 0.015055 0.009662 0.051258
#
#
# Mechanical properties :
#
#
# Convention : Reuss Voigt Hill
#
# Bulk Modulus (GPa) = 15.21603 47.36132 31.28868
# Shear Modulus (GPa) = 25.50623 41.70498 33.60561
#
# Velocity S-wave (km/s) = 3.24832 4.15365 3.72857
# Velocity P-wave (km/s) = 4.51259 6.52660 5.61071
#
# Compressibility (1/GPa) = 0.06572018
#
# Stress axis : x y z
#
# Youngs Moduli (GPa) = 37.25037 57.16605 78.46471
#
# Poissons Ratio (x) = -0.03820 0.15694
# Poissons Ratio (y) = -0.02489 -0.44338
# Poissons Ratio (z) = 0.07451 -0.32303
#
# Static dielectric constant tensor:
#      x y z
#    x 2.087950 0.072860 -0.375940 
#    y 0.072860 1.874200 0.008460 
#    z -0.375940 0.008460 2.881330 
# 
# From -- ./inp_files/184375.got.cif
#   From: 2010.05.17/outbox.cif.g08.bks.cpg/sg2_93_cif.got.tgz:184375.got - 2010.06.03 11:33:40.
